
     RDKit          3D

177195  0  0  0  0  0  0  0  0999 V2000
   -6.5186    5.8545   -2.9161 C   0  0  0  0  0  0  0  0  0  0  0  0
   -6.0439    5.4948   -1.6996 C   0  0  0  0  0  0  0  0  0  0  0  0
   -4.8130    4.7128   -1.4859 C   0  0  0  0  0  0  0  0  0  0  0  0
   -4.1004    4.1716   -2.3727 O   0  0  0  0  0  0  0  0  0  0  0  0
   -4.4778    4.7343   -0.0869 C   0  0  0  0  0  0  0  0  0  0  0  0
   -3.3315    4.1593    0.5088 C   0  0  0  0  0  0  0  0  0  0  0  0
   -3.2382    4.3724    1.8674 C   0  0  0  0  0  0  0  0  0  0  0  0
   -4.2196    5.1020    2.6107 C   0  0  0  0  0  0  0  0  0  0  0  0
   -5.3459    5.6678    2.0328 C   0  0  0  0  0  0  0  0  0  0  0  0
   -5.4608    5.4691    0.6235 C   0  0  0  0  0  0  0  0  0  0  0  0
   -6.5083    5.9431   -0.3429 C   0  0  0  0  0  0  0  0  0  0  0  0
   -7.6843    6.5544   -0.0338 C   0  0  0  0  0  0  0  0  0  0  0  0
   -8.0231    6.9807    1.2979 C   0  0  0  0  0  0  0  0  0  0  0  0
   -8.3131    7.3365    2.3624 N   0  0  0  0  0  0  0  0  0  0  0  0
   -8.7081    6.8105   -1.0101 C   0  0  0  0  0  0  0  0  0  0  0  0
   -9.5406    7.0223   -1.7853 N   0  0  0  0  0  0  0  0  0  0  0  0
   -3.4400    4.8916    3.8759 C   0  0  0  0  0  0  0  0  0  0  0  0
   -4.0009    3.8349    4.8730 C   0  0  0  0  0  0  0  0  0  0  0  0
   -2.8742    3.5306    5.8302 C   0  0  0  0  0  0  0  0  0  0  0  0
   -1.9560    2.8503    5.1310 C   0  0  0  0  0  0  0  0  0  0  0  0
   -2.4960    2.7147    3.7290 C   0  0  0  0  0  0  0  0  0  0  0  0
   -3.9691    2.5501    4.0647 C   0  0  0  0  0  0  0  0  0  0  0  0
   -2.4353    4.1416    3.1124 C   0  0  0  0  0  0  0  0  0  0  0  0
   -5.9582    5.2986   -4.1594 C   0  0  0  0  0  0  0  0  0  0  0  0
   -6.1616    3.9329   -4.4473 C   0  0  0  0  0  0  0  0  0  0  0  0
   -5.2759    3.2975   -5.3245 C   0  0  0  0  0  0  0  0  0  0  0  0
   -5.0339    1.9646   -5.3788 N   0  0  0  0  0  0  0  0  0  0  0  0
   -5.7553    0.9124   -4.6449 C   0  0  0  0  0  0  0  0  0  0  0  0
   -5.2462    0.7972   -3.2070 C   0  0  0  0  0  0  0  0  0  0  0  0
   -3.8079    1.8495   -5.9504 C   0  0  0  0  0  0  0  0  0  0  0  0
   -3.3210    3.0858   -6.3388 C   0  0  0  0  0  0  0  0  0  0  0  0
   -4.2626    4.0120   -5.9407 C   0  0  0  0  0  0  0  0  0  0  0  0
   -4.1267    5.3926   -5.7735 C   0  0  0  0  0  0  0  0  0  0  0  0
   -4.9951    6.0392   -4.8798 C   0  0  0  0  0  0  0  0  0  0  0  0
   -1.9702    3.2827   -6.6376 C   0  0  0  0  0  0  0  0  0  0  0  0
   -1.0801    2.2207   -6.4078 C   0  0  0  0  0  0  0  0  0  0  0  0
   -1.5542    0.9931   -5.8946 C   0  0  0  0  0  0  0  0  0  0  0  0
   -2.9408    0.7662   -5.7956 C   0  0  0  0  0  0  0  0  0  0  0  0
   -0.7065    0.2405   -4.9576 C   0  0  0  0  0  0  0  0  0  0  0  0
    0.5276   -0.3969   -5.1800 C   0  0  0  0  0  0  0  0  0  0  0  0
    1.1688   -0.5162   -6.4564 N   0  0  0  0  0  0  0  0  0  0  0  0
    0.9911   -1.7338   -7.2061 C   0  0  0  0  0  0  0  0  0  0  0  0
   -0.2958   -2.2675   -7.4036 C   0  0  0  0  0  0  0  0  0  0  0  0
   -0.4682   -3.4395   -8.1451 C   0  0  0  0  0  0  0  0  0  0  0  0
    0.6412   -4.1015   -8.6803 C   0  0  0  0  0  0  0  0  0  0  0  0
    0.4136   -5.5927   -9.6548 S   0  0  0  0  0  0  0  0  0  0  0  0
    0.4966   -6.7031   -8.2149 C   0  0  0  0  0  0  0  0  0  0  0  0
    1.9254   -3.5853   -8.4760 C   0  0  0  0  0  0  0  0  0  0  0  0
    2.1017   -2.4087   -7.7406 C   0  0  0  0  0  0  0  0  0  0  0  0
    2.0158    0.5474   -6.9481 C   0  0  0  0  0  0  0  0  0  0  0  0
    2.7635    1.3467   -6.0600 C   0  0  0  0  0  0  0  0  0  0  0  0
    3.5673    2.3811   -6.5415 C   0  0  0  0  0  0  0  0  0  0  0  0
    3.6280    2.6414   -7.9136 C   0  0  0  0  0  0  0  0  0  0  0  0
    4.6473    3.9795   -8.5287 S   0  0  0  0  0  0  0  0  0  0  0  0
    6.0749    2.8991   -8.8565 C   0  0  0  0  0  0  0  0  0  0  0  0
    2.8816    1.8637   -8.8033 C   0  0  0  0  0  0  0  0  0  0  0  0
    2.0828    0.8219   -8.3273 C   0  0  0  0  0  0  0  0  0  0  0  0
    1.0759   -0.8582   -3.9796 C   0  0  0  0  0  0  0  0  0  0  0  0
    2.5541   -1.5275   -3.5192 S   0  0  0  0  0  0  0  0  0  0  0  0
    2.2044   -1.4446   -1.8465 C   0  0  0  0  0  0  0  0  0  0  0  0
    0.9416   -0.8574   -1.6555 C   0  0  0  0  0  0  0  0  0  0  0  0
    0.4559   -0.3597   -0.3927 N   0  0  0  0  0  0  0  0  0  0  0  0
   -0.9253   -0.5357   -0.0298 C   0  0  0  0  0  0  0  0  0  0  0  0
   -1.5117   -1.8097   -0.0652 C   0  0  0  0  0  0  0  0  0  0  0  0
   -2.8382   -1.9823    0.3429 C   0  0  0  0  0  0  0  0  0  0  0  0
   -3.5943   -0.8812    0.7663 C   0  0  0  0  0  0  0  0  0  0  0  0
   -5.2839   -1.1022    1.3264 S   0  0  0  0  0  0  0  0  0  0  0  0
   -4.8090   -1.2502    3.0782 C   0  0  0  0  0  0  0  0  0  0  0  0
   -3.0233    0.3945    0.7666 C   0  0  0  0  0  0  0  0  0  0  0  0
   -1.6918    0.5668    0.3863 C   0  0  0  0  0  0  0  0  0  0  0  0
    1.3088    0.4502    0.4440 C   0  0  0  0  0  0  0  0  0  0  0  0
    1.3205    0.2612    1.8377 C   0  0  0  0  0  0  0  0  0  0  0  0
    2.1352    1.0547    2.6511 C   0  0  0  0  0  0  0  0  0  0  0  0
    2.9369    2.0517    2.0840 C   0  0  0  0  0  0  0  0  0  0  0  0
    3.9490    3.0986    3.1323 S   0  0  0  0  0  0  0  0  0  0  0  0
    2.6697    4.3838    3.2863 C   0  0  0  0  0  0  0  0  0  0  0  0
    2.9407    2.2364    0.6973 C   0  0  0  0  0  0  0  0  0  0  0  0
    2.1327    1.4407   -0.1197 C   0  0  0  0  0  0  0  0  0  0  0  0
    0.3413   -0.5777   -2.8718 C   0  0  0  0  0  0  0  0  0  0  0  0
   -1.0411    0.2512   -3.2892 S   0  0  0  0  0  0  0  0  0  0  0  0
    3.0877   -1.8406   -0.7420 C   0  0  0  0  0  0  0  0  0  0  0  0
    2.5362   -2.6039    0.3051 C   0  0  0  0  0  0  0  0  0  0  0  0
    3.2108   -2.6465    1.5220 C   0  0  0  0  0  0  0  0  0  0  0  0
    2.7527   -3.1472    2.6944 N   0  0  0  0  0  0  0  0  0  0  0  0
    1.5037   -3.8875    2.9113 C   0  0  0  0  0  0  0  0  0  0  0  0
    1.6913   -5.3532    2.5434 C   0  0  0  0  0  0  0  0  0  0  0  0
    3.6944   -2.8121    3.6109 C   0  0  0  0  0  0  0  0  0  0  0  0
    4.7302   -2.1088    3.0279 C   0  0  0  0  0  0  0  0  0  0  0  0
    4.4208   -2.0034    1.6867 C   0  0  0  0  0  0  0  0  0  0  0  0
    5.0387   -1.3149    0.6425 C   0  0  0  0  0  0  0  0  0  0  0  0
    4.3593   -1.2385   -0.5881 C   0  0  0  0  0  0  0  0  0  0  0  0
    5.7598   -1.5511    3.7848 C   0  0  0  0  0  0  0  0  0  0  0  0
    5.7186   -1.7238    5.1803 C   0  0  0  0  0  0  0  0  0  0  0  0
    4.6727   -2.4652    5.7915 C   0  0  0  0  0  0  0  0  0  0  0  0
    3.6474   -3.0099    4.9944 C   0  0  0  0  0  0  0  0  0  0  0  0
    4.5251   -2.5293    7.2576 C   0  0  0  0  0  0  0  0  0  0  0  0
    5.4839   -2.9061    8.1261 C   0  0  0  0  0  0  0  0  0  0  0  0
    6.7484   -3.5730    7.7874 C   0  0  0  0  0  0  0  0  0  0  0  0
    7.2598   -3.6813    6.6407 O   0  0  0  0  0  0  0  0  0  0  0  0
    7.2580   -4.2127    8.9835 C   0  0  0  0  0  0  0  0  0  0  0  0
    8.3779   -5.0336    9.1097 C   0  0  0  0  0  0  0  0  0  0  0  0
    8.6260   -5.6483   10.3459 C   0  0  0  0  0  0  0  0  0  0  0  0
   10.0403   -6.6768   10.5146 Cl  0  0  0  0  0  0  0  0  0  0  0  0
    7.7292   -5.4606   11.4195 C   0  0  0  0  0  0  0  0  0  0  0  0
    7.9838   -6.2659   12.9645 Cl  0  0  0  0  0  0  0  0  0  0  0  0
    6.6071   -4.6290   11.2665 C   0  0  0  0  0  0  0  0  0  0  0  0
    6.3998   -3.9757   10.0423 C   0  0  0  0  0  0  0  0  0  0  0  0
    5.3115   -3.0598    9.6043 C   0  0  0  0  0  0  0  0  0  0  0  0
    4.4855   -2.3335   10.4057 C   0  0  0  0  0  0  0  0  0  0  0  0
    3.6629   -1.2651    9.8949 C   0  0  0  0  0  0  0  0  0  0  0  0
    3.0024   -0.3991    9.4964 N   0  0  0  0  0  0  0  0  0  0  0  0
    4.4860   -2.4613   11.8385 C   0  0  0  0  0  0  0  0  0  0  0  0
    4.4779   -2.5503   12.9924 N   0  0  0  0  0  0  0  0  0  0  0  0
   -7.2747    6.6098   -3.0287 H   0  0  0  0  0  0  0  0  0  0  0  0
   -2.5808    3.6173   -0.0472 H   0  0  0  0  0  0  0  0  0  0  0  0
   -6.0397    6.2196    2.6392 H   0  0  0  0  0  0  0  0  0  0  0  0
   -3.0699    5.8373    4.3353 H   0  0  0  0  0  0  0  0  0  0  0  0
   -4.9742    4.0849    5.3475 H   0  0  0  0  0  0  0  0  0  0  0  0
   -2.8438    3.7247    6.8972 H   0  0  0  0  0  0  0  0  0  0  0  0
   -1.0548    2.4033    5.5326 H   0  0  0  0  0  0  0  0  0  0  0  0
   -2.0331    1.9039    3.1271 H   0  0  0  0  0  0  0  0  0  0  0  0
   -4.6426    2.5499    3.1793 H   0  0  0  0  0  0  0  0  0  0  0  0
   -4.1863    1.6446    4.6809 H   0  0  0  0  0  0  0  0  0  0  0  0
   -1.4278    4.6137    3.0865 H   0  0  0  0  0  0  0  0  0  0  0  0
   -6.8623    3.3599   -3.8557 H   0  0  0  0  0  0  0  0  0  0  0  0
   -5.6326   -0.0630   -5.1624 H   0  0  0  0  0  0  0  0  0  0  0  0
   -6.8449    1.1319   -4.6360 H   0  0  0  0  0  0  0  0  0  0  0  0
   -4.1527    0.6100   -3.1942 H   0  0  0  0  0  0  0  0  0  0  0  0
   -5.4541    1.7276   -2.6430 H   0  0  0  0  0  0  0  0  0  0  0  0
   -5.7530   -0.0509   -2.6981 H   0  0  0  0  0  0  0  0  0  0  0  0
   -3.2965    5.9303   -6.2121 H   0  0  0  0  0  0  0  0  0  0  0  0
   -4.8248    7.0807   -4.6426 H   0  0  0  0  0  0  0  0  0  0  0  0
   -1.5904    4.2678   -6.8724 H   0  0  0  0  0  0  0  0  0  0  0  0
   -0.0177    2.4199   -6.4513 H   0  0  0  0  0  0  0  0  0  0  0  0
   -3.2987   -0.1566   -5.3552 H   0  0  0  0  0  0  0  0  0  0  0  0
   -1.1644   -1.7613   -7.0077 H   0  0  0  0  0  0  0  0  0  0  0  0
   -1.4646   -3.8302   -8.3084 H   0  0  0  0  0  0  0  0  0  0  0  0
   -0.3137   -6.4564   -7.4961 H   0  0  0  0  0  0  0  0  0  0  0  0
    1.4834   -6.6057   -7.7178 H   0  0  0  0  0  0  0  0  0  0  0  0
    0.3687   -7.7499   -8.5568 H   0  0  0  0  0  0  0  0  0  0  0  0
    2.7879   -4.0947   -8.8886 H   0  0  0  0  0  0  0  0  0  0  0  0
    3.1032   -2.0246   -7.5862 H   0  0  0  0  0  0  0  0  0  0  0  0
    2.7326    1.1693   -4.9949 H   0  0  0  0  0  0  0  0  0  0  0  0
    4.1402    2.9835   -5.8477 H   0  0  0  0  0  0  0  0  0  0  0  0
    6.4201    2.4269   -7.9114 H   0  0  0  0  0  0  0  0  0  0  0  0
    6.9030    3.5047   -9.2812 H   0  0  0  0  0  0  0  0  0  0  0  0
    5.7932    2.1110   -9.5878 H   0  0  0  0  0  0  0  0  0  0  0  0
    2.9209    2.0653   -9.8679 H   0  0  0  0  0  0  0  0  0  0  0  0
    1.5015    0.2444   -9.0347 H   0  0  0  0  0  0  0  0  0  0  0  0
   -0.9315   -2.6683   -0.3808 H   0  0  0  0  0  0  0  0  0  0  0  0
   -3.2754   -2.9709    0.3366 H   0  0  0  0  0  0  0  0  0  0  0  0
   -4.2439   -2.1918    3.2389 H   0  0  0  0  0  0  0  0  0  0  0  0
   -5.7239   -1.2588    3.7053 H   0  0  0  0  0  0  0  0  0  0  0  0
   -4.1804   -0.3867    3.3793 H   0  0  0  0  0  0  0  0  0  0  0  0
   -3.6054    1.2499    1.0840 H   0  0  0  0  0  0  0  0  0  0  0  0
   -1.2566    1.5577    0.4147 H   0  0  0  0  0  0  0  0  0  0  0  0
    0.7088   -0.5097    2.2888 H   0  0  0  0  0  0  0  0  0  0  0  0
    2.1393    0.8939    3.7211 H   0  0  0  0  0  0  0  0  0  0  0  0
    3.0214    5.1587    3.9949 H   0  0  0  0  0  0  0  0  0  0  0  0
    2.4836    4.8542    2.2985 H   0  0  0  0  0  0  0  0  0  0  0  0
    1.7271    3.9460    3.6727 H   0  0  0  0  0  0  0  0  0  0  0  0
    3.5625    3.0035    0.2534 H   0  0  0  0  0  0  0  0  0  0  0  0
    2.1336    1.6108   -1.1900 H   0  0  0  0  0  0  0  0  0  0  0  0
    1.5553   -3.0442    0.2027 H   0  0  0  0  0  0  0  0  0  0  0  0
    0.6874   -3.4506    2.2981 H   0  0  0  0  0  0  0  0  0  0  0  0
    1.1741   -3.8085    3.9659 H   0  0  0  0  0  0  0  0  0  0  0  0
    2.4970   -5.8022    3.1689 H   0  0  0  0  0  0  0  0  0  0  0  0
    1.9703   -5.4478    1.4732 H   0  0  0  0  0  0  0  0  0  0  0  0
    0.7442   -5.9082    2.7251 H   0  0  0  0  0  0  0  0  0  0  0  0
    5.9785   -0.7976    0.7895 H   0  0  0  0  0  0  0  0  0  0  0  0
    4.7725   -0.6355   -1.3846 H   0  0  0  0  0  0  0  0  0  0  0  0
    6.5439   -0.9641    3.3219 H   0  0  0  0  0  0  0  0  0  0  0  0
    6.4792   -1.2527    5.7933 H   0  0  0  0  0  0  0  0  0  0  0  0
    2.8212   -3.5347    5.4527 H   0  0  0  0  0  0  0  0  0  0  0  0
    3.5247   -2.3597    7.6250 H   0  0  0  0  0  0  0  0  0  0  0  0
    9.0309   -5.2014    8.2639 H   0  0  0  0  0  0  0  0  0  0  0  0
    5.9118   -4.5467   12.0846 H   0  0  0  0  0  0  0  0  0  0  0  0
  1  2  2  3
  2  3  1  0
  3  4  2  0
  3  5  1  0
  5  6  2  0
  6  7  1  0
  7  8  2  0
  8  9  1  0
  9 10  2  0
 10 11  1  0
 11 12  2  3
 12 13  1  0
 13 14  3  0
 12 15  1  0
 15 16  3  0
  8 17  1  0
 17 18  1  0
 18 19  1  0
 19 20  2  0
 20 21  1  0
 21 22  1  0
 21 23  1  0
  1 24  1  0
 24 25  2  0
 25 26  1  0
 26 27  1  0
 27 28  1  0
 28 29  1  0
 27 30  1  0
 30 31  2  0
 31 32  1  0
 32 33  1  0
 33 34  2  0
 31 35  1  0
 35 36  2  0
 36 37  1  0
 37 38  2  0
 37 39  1  0
 39 40  2  0
 40 41  1  0
 41 42  1  0
 42 43  2  0
 43 44  1  0
 44 45  2  0
 45 46  1  0
 46 47  1  0
 45 48  1  0
 48 49  2  0
 41 50  1  0
 50 51  2  0
 51 52  1  0
 52 53  2  0
 53 54  1  0
 54 55  1  0
 53 56  1  0
 56 57  2  0
 40 58  1  0
 58 59  1  0
 59 60  1  0
 60 61  2  0
 61 62  1  0
 62 63  1  0
 63 64  2  0
 64 65  1  0
 65 66  2  0
 66 67  1  0
 67 68  1  0
 66 69  1  0
 69 70  2  0
 62 71  1  0
 71 72  2  0
 72 73  1  0
 73 74  2  0
 74 75  1  0
 75 76  1  0
 74 77  1  0
 77 78  2  0
 61 79  1  0
 79 80  1  0
 60 81  1  0
 81 82  2  0
 82 83  1  0
 83 84  1  0
 84 85  1  0
 85 86  1  0
 84 87  1  0
 87 88  2  0
 88 89  1  0
 89 90  1  0
 90 91  2  0
 88 92  1  0
 92 93  2  0
 93 94  1  0
 94 95  2  0
 94 96  1  0
 96 97  2  3
 97 98  1  0
 98 99  2  0
 98100  1  0
100101  2  0
101102  1  0
102103  1  0
102104  2  0
104105  1  0
104106  1  0
106107  2  0
107108  1  0
108109  2  3
109110  1  0
110111  3  0
109112  1  0
112113  3  0
 11  2  1  0
 23 17  1  0
 34 24  1  0
 80 39  1  0
 91 81  1  0
108 97  1  0
 10  5  1  0
 22 18  1  0
 32 26  2  0
 49 42  1  0
 57 50  1  0
 79 58  2  0
 89 83  2  0
107100  1  0
 23  7  1  0
 38 30  1  0
 70 63  1  0
 78 71  1  0
 95 87  1  0
  1114  1  0
  6115  1  0
  9116  1  0
 17117  1  0
 18118  1  0
 19119  1  0
 20120  1  0
 21121  1  0
 22122  1  0
 22123  1  0
 23124  1  0
 25125  1  0
 28126  1  0
 28127  1  0
 29128  1  0
 29129  1  0
 29130  1  0
 33131  1  0
 34132  1  0
 35133  1  0
 36134  1  0
 38135  1  0
 43136  1  0
 44137  1  0
 47138  1  0
 47139  1  0
 47140  1  0
 48141  1  0
 49142  1  0
 51143  1  0
 52144  1  0
 55145  1  0
 55146  1  0
 55147  1  0
 56148  1  0
 57149  1  0
 64150  1  0
 65151  1  0
 68152  1  0
 68153  1  0
 68154  1  0
 69155  1  0
 70156  1  0
 72157  1  0
 73158  1  0
 76159  1  0
 76160  1  0
 76161  1  0
 77162  1  0
 78163  1  0
 82164  1  0
 85165  1  0
 85166  1  0
 86167  1  0
 86168  1  0
 86169  1  0
 90170  1  0
 91171  1  0
 92172  1  0
 93173  1  0
 95174  1  0
 96175  1  0
101176  1  0
106177  1  0
M  END

