
     RDKit          3D

214237  0  0  0  0  0  0  0  0999 V2000
  -10.3025    0.9983   -1.1937 C   0  0  0  0  0  0  0  0  0  0  0  0
   -9.6155    0.0905   -0.4544 C   0  0  0  0  0  0  0  0  0  0  0  0
   -8.1697   -0.1693   -0.5900 C   0  0  0  0  0  0  0  0  0  0  0  0
   -7.3999    0.2836   -1.4791 O   0  0  0  0  0  0  0  0  0  0  0  0
   -7.7562   -1.1206    0.3984 C   0  0  0  0  0  0  0  0  0  0  0  0
   -6.4439   -1.6145    0.5768 C   0  0  0  0  0  0  0  0  0  0  0  0
   -6.3584   -2.6439    1.4857 C   0  0  0  0  0  0  0  0  0  0  0  0
   -7.4984   -3.1804    2.1691 C   0  0  0  0  0  0  0  0  0  0  0  0
   -8.7837   -2.6811    2.0136 C   0  0  0  0  0  0  0  0  0  0  0  0
   -8.8943   -1.5840    1.1066 C   0  0  0  0  0  0  0  0  0  0  0  0
  -10.1045   -0.8276    0.6394 C   0  0  0  0  0  0  0  0  0  0  0  0
  -11.3767   -0.9663    1.1058 C   0  0  0  0  0  0  0  0  0  0  0  0
  -11.7107   -1.8173    2.2208 C   0  0  0  0  0  0  0  0  0  0  0  0
  -12.0020   -2.4950    3.1155 N   0  0  0  0  0  0  0  0  0  0  0  0
  -12.5131   -0.2883    0.5452 C   0  0  0  0  0  0  0  0  0  0  0  0
  -13.4429    0.2428    0.1013 N   0  0  0  0  0  0  0  0  0  0  0  0
   -6.6398   -4.2405    2.7933 C   0  0  0  0  0  0  0  0  0  0  0  0
   -6.7528   -5.6744    2.1899 C   0  0  0  0  0  0  0  0  0  0  0  0
   -5.5516   -6.4316    2.7000 C   0  0  0  0  0  0  0  0  0  0  0  0
   -4.4829   -5.9147    2.0778 C   0  0  0  0  0  0  0  0  0  0  0  0
   -5.0021   -4.8245    1.1705 C   0  0  0  0  0  0  0  0  0  0  0  0
   -6.3078   -5.4776    0.7491 C   0  0  0  0  0  0  0  0  0  0  0  0
   -5.4712   -3.6758    2.1093 C   0  0  0  0  0  0  0  0  0  0  0  0
   -9.6602    1.7137   -2.3098 C   0  0  0  0  0  0  0  0  0  0  0  0
   -8.7200    2.7282   -2.0259 C   0  0  0  0  0  0  0  0  0  0  0  0
   -7.6782    2.9366   -2.9432 C   0  0  0  0  0  0  0  0  0  0  0  0
   -6.4608    3.4710   -2.6665 N   0  0  0  0  0  0  0  0  0  0  0  0
   -6.0487    4.0828   -1.3970 C   0  0  0  0  0  0  0  0  0  0  0  0
   -5.6861    3.0117   -0.3698 C   0  0  0  0  0  0  0  0  0  0  0  0
   -5.6455    3.0302   -3.6612 C   0  0  0  0  0  0  0  0  0  0  0  0
   -6.3513    2.2952   -4.5914 C   0  0  0  0  0  0  0  0  0  0  0  0
   -7.6501    2.2409   -4.1391 C   0  0  0  0  0  0  0  0  0  0  0  0
   -8.6727    1.3691   -4.5151 C   0  0  0  0  0  0  0  0  0  0  0  0
   -9.6880    1.1097   -3.5858 C   0  0  0  0  0  0  0  0  0  0  0  0
   -5.7135    1.5357   -5.5646 C   0  0  0  0  0  0  0  0  0  0  0  0
   -4.3101    1.5021   -5.5667 C   0  0  0  0  0  0  0  0  0  0  0  0
   -3.5536    2.2030   -4.5876 C   0  0  0  0  0  0  0  0  0  0  0  0
   -4.2451    3.0257   -3.6604 C   0  0  0  0  0  0  0  0  0  0  0  0
   -2.0757    1.9698   -4.5077 C   0  0  0  0  0  0  0  0  0  0  0  0
   -1.1553    2.4378   -3.5349 C   0  0  0  0  0  0  0  0  0  0  0  0
   -1.4894    3.0777   -2.2946 N   0  0  0  0  0  0  0  0  0  0  0  0
   -1.9603    2.2830   -1.1696 C   0  0  0  0  0  0  0  0  0  0  0  0
   -2.3109    2.8933    0.0546 C   0  0  0  0  0  0  0  0  0  0  0  0
   -2.7343    2.1240    1.1435 C   0  0  0  0  0  0  0  0  0  0  0  0
   -2.8457    0.7356    1.0267 C   0  0  0  0  0  0  0  0  0  0  0  0
   -3.4118   -0.2446    2.4145 S   0  0  0  0  0  0  0  0  0  0  0  0
   -1.7338   -0.4895    3.0796 C   0  0  0  0  0  0  0  0  0  0  0  0
   -2.5305    0.1158   -0.1837 C   0  0  0  0  0  0  0  0  0  0  0  0
   -2.0951    0.8767   -1.2706 C   0  0  0  0  0  0  0  0  0  0  0  0
   -0.9467    4.4018   -2.1154 C   0  0  0  0  0  0  0  0  0  0  0  0
   -1.3089    5.4285   -3.0008 C   0  0  0  0  0  0  0  0  0  0  0  0
   -0.7067    6.6879   -2.9059 C   0  0  0  0  0  0  0  0  0  0  0  0
    0.2744    6.9261   -1.9390 C   0  0  0  0  0  0  0  0  0  0  0  0
    1.0795    8.5263   -1.8485 S   0  0  0  0  0  0  0  0  0  0  0  0
    2.4035    8.0568   -3.0091 C   0  0  0  0  0  0  0  0  0  0  0  0
    0.6378    5.9075   -1.0475 C   0  0  0  0  0  0  0  0  0  0  0  0
    0.0350    4.6497   -1.1385 C   0  0  0  0  0  0  0  0  0  0  0  0
    0.1084    1.8829   -3.7124 C   0  0  0  0  0  0  0  0  0  0  0  0
    1.4224    1.7850   -2.6901 S   0  0  0  0  0  0  0  0  0  0  0  0
    2.1712    0.5033   -3.5220 C   0  0  0  0  0  0  0  0  0  0  0  0
    1.3564    0.1388   -4.6123 C   0  0  0  0  0  0  0  0  0  0  0  0
    1.5302   -1.0296   -5.4274 N   0  0  0  0  0  0  0  0  0  0  0  0
    1.6677   -0.8383   -6.8512 C   0  0  0  0  0  0  0  0  0  0  0  0
    2.6168    0.0666   -7.3565 C   0  0  0  0  0  0  0  0  0  0  0  0
    2.7335    0.2749   -8.7339 C   0  0  0  0  0  0  0  0  0  0  0  0
    1.8970   -0.4125   -9.6189 C   0  0  0  0  0  0  0  0  0  0  0  0
    2.0451   -0.1490  -11.3862 S   0  0  0  0  0  0  0  0  0  0  0  0
    0.8403    1.2140  -11.4045 C   0  0  0  0  0  0  0  0  0  0  0  0
    0.9406   -1.3049   -9.1263 C   0  0  0  0  0  0  0  0  0  0  0  0
    0.8219   -1.5139   -7.7501 C   0  0  0  0  0  0  0  0  0  0  0  0
    1.1979   -2.3349   -4.9032 C   0  0  0  0  0  0  0  0  0  0  0  0
    0.1806   -2.4932   -3.9430 C   0  0  0  0  0  0  0  0  0  0  0  0
   -0.2140   -3.7688   -3.5347 C   0  0  0  0  0  0  0  0  0  0  0  0
    0.4029   -4.8999   -4.0813 C   0  0  0  0  0  0  0  0  0  0  0  0
   -0.1890   -6.5396   -3.6598 S   0  0  0  0  0  0  0  0  0  0  0  0
    0.9197   -6.7119   -2.2339 C   0  0  0  0  0  0  0  0  0  0  0  0
    1.4495   -4.7517   -4.9952 C   0  0  0  0  0  0  0  0  0  0  0  0
    1.8459   -3.4780   -5.4028 C   0  0  0  0  0  0  0  0  0  0  0  0
    0.2282    0.9618   -4.6944 C   0  0  0  0  0  0  0  0  0  0  0  0
   -1.2440    0.8243   -5.4802 S   0  0  0  0  0  0  0  0  0  0  0  0
    3.3110   -0.2100   -2.9249 C   0  0  0  0  0  0  0  0  0  0  0  0
    4.2335    0.4875   -2.1434 C   0  0  0  0  0  0  0  0  0  0  0  0
    4.7229   -0.2460   -1.0551 C   0  0  0  0  0  0  0  0  0  0  0  0
    5.3904    0.3085    0.0539 C   0  0  0  0  0  0  0  0  0  0  0  0
    5.8065    1.7269    0.0664 C   0  0  0  0  0  0  0  0  0  0  0  0
    5.1213    2.6688    0.8514 C   0  0  0  0  0  0  0  0  0  0  0  0
    5.4959    4.0175    0.8194 C   0  0  0  0  0  0  0  0  0  0  0  0
    6.5293    4.4409   -0.0204 C   0  0  0  0  0  0  0  0  0  0  0  0
    6.9992    6.1706   -0.0619 S   0  0  0  0  0  0  0  0  0  0  0  0
    5.8159    6.6461   -1.3715 C   0  0  0  0  0  0  0  0  0  0  0  0
    6.2929    6.1833   -2.7444 C   0  0  0  0  0  0  0  0  0  0  0  0
    7.2315    3.5001   -0.7889 C   0  0  0  0  0  0  0  0  0  0  0  0
    6.8605    2.1531   -0.7581 C   0  0  0  0  0  0  0  0  0  0  0  0
    5.4919   -0.4964    1.1971 C   0  0  0  0  0  0  0  0  0  0  0  0
    5.0333   -1.8144    1.2336 C   0  0  0  0  0  0  0  0  0  0  0  0
    4.4322   -2.3944    0.0972 C   0  0  0  0  0  0  0  0  0  0  0  0
    3.8684   -3.7560    0.1467 C   0  0  0  0  0  0  0  0  0  0  0  0
    2.6098   -3.9785    0.7248 C   0  0  0  0  0  0  0  0  0  0  0  0
    2.1398   -5.2838    0.8998 C   0  0  0  0  0  0  0  0  0  0  0  0
    2.9289   -6.3719    0.5080 C   0  0  0  0  0  0  0  0  0  0  0  0
    2.3444   -8.0494    0.7762 S   0  0  0  0  0  0  0  0  0  0  0  0
    2.8663   -8.1328    2.5284 C   0  0  0  0  0  0  0  0  0  0  0  0
    4.3559   -8.4262    2.6458 C   0  0  0  0  0  0  0  0  0  0  0  0
    4.1699   -6.1497   -0.1047 C   0  0  0  0  0  0  0  0  0  0  0  0
    4.6390   -4.8436   -0.2819 C   0  0  0  0  0  0  0  0  0  0  0  0
    4.2557   -1.5619   -1.0240 C   0  0  0  0  0  0  0  0  0  0  0  0
    3.1877   -1.7789   -2.3074 S   0  0  0  0  0  0  0  0  0  0  0  0
    5.0516   -2.3719    2.5231 C   0  0  0  0  0  0  0  0  0  0  0  0
    5.4546   -1.4740    3.5157 C   0  0  0  0  0  0  0  0  0  0  0  0
    5.8620   -0.0175    2.7565 S   0  0  0  0  0  0  0  0  0  0  0  0
    5.0766   -1.6671    4.9359 C   0  0  0  0  0  0  0  0  0  0  0  0
    4.7198   -0.6559    5.7536 C   0  0  0  0  0  0  0  0  0  0  0  0
    5.3850    0.6473    5.8296 C   0  0  0  0  0  0  0  0  0  0  0  0
    6.5422    0.9146    5.4130 O   0  0  0  0  0  0  0  0  0  0  0  0
    4.5918    1.5308    6.6471 C   0  0  0  0  0  0  0  0  0  0  0  0
    4.7785    2.9253    6.8017 C   0  0  0  0  0  0  0  0  0  0  0  0
    3.7637    3.5507    7.4996 C   0  0  0  0  0  0  0  0  0  0  0  0
    2.6338    2.8496    8.0266 C   0  0  0  0  0  0  0  0  0  0  0  0
    2.4519    1.4826    7.8883 C   0  0  0  0  0  0  0  0  0  0  0  0
    3.4906    0.8121    7.1791 C   0  0  0  0  0  0  0  0  0  0  0  0
    3.5490   -0.6061    6.6972 C   0  0  0  0  0  0  0  0  0  0  0  0
    2.6467   -1.5908    6.9742 C   0  0  0  0  0  0  0  0  0  0  0  0
    2.5687   -2.8292    6.2461 C   0  0  0  0  0  0  0  0  0  0  0  0
    2.4842   -3.8288    5.6672 N   0  0  0  0  0  0  0  0  0  0  0  0
    1.6702   -1.4722    8.0253 C   0  0  0  0  0  0  0  0  0  0  0  0
    0.8826   -1.3977    8.8699 N   0  0  0  0  0  0  0  0  0  0  0  0
    2.0544    4.1329    8.5386 C   0  0  0  0  0  0  0  0  0  0  0  0
    2.1538    4.3776   10.0716 C   0  0  0  0  0  0  0  0  0  0  0  0
    1.8728    5.8498   10.2725 C   0  0  0  0  0  0  0  0  0  0  0  0
    2.9260    6.5084    9.7748 C   0  0  0  0  0  0  0  0  0  0  0  0
    3.8857    5.4598    9.2632 C   0  0  0  0  0  0  0  0  0  0  0  0
    3.6538    4.3927   10.3210 C   0  0  0  0  0  0  0  0  0  0  0  0
    3.2114    4.8523    7.9995 C   0  0  0  0  0  0  0  0  0  0  0  0
  -11.3542    1.1748   -1.0673 H   0  0  0  0  0  0  0  0  0  0  0  0
   -5.5944   -1.2594    0.0036 H   0  0  0  0  0  0  0  0  0  0  0  0
   -9.6056   -3.1556    2.5184 H   0  0  0  0  0  0  0  0  0  0  0  0
   -6.6021   -4.1847    3.9038 H   0  0  0  0  0  0  0  0  0  0  0  0
   -7.7294   -6.1827    2.3299 H   0  0  0  0  0  0  0  0  0  0  0  0
   -5.5428   -7.2706    3.3848 H   0  0  0  0  0  0  0  0  0  0  0  0
   -3.4597   -6.2661    2.1643 H   0  0  0  0  0  0  0  0  0  0  0  0
   -4.3218   -4.5254    0.3464 H   0  0  0  0  0  0  0  0  0  0  0  0
   -6.9798   -4.8190    0.1541 H   0  0  0  0  0  0  0  0  0  0  0  0
   -6.1627   -6.4352    0.1909 H   0  0  0  0  0  0  0  0  0  0  0  0
   -4.6965   -3.2545    2.7871 H   0  0  0  0  0  0  0  0  0  0  0  0
   -8.6690    3.1493   -1.0318 H   0  0  0  0  0  0  0  0  0  0  0  0
   -5.1768    4.7516   -1.5603 H   0  0  0  0  0  0  0  0  0  0  0  0
   -6.8695    4.7217   -0.9992 H   0  0  0  0  0  0  0  0  0  0  0  0
   -4.9605    2.2970   -0.8089 H   0  0  0  0  0  0  0  0  0  0  0  0
   -6.5858    2.4515   -0.0487 H   0  0  0  0  0  0  0  0  0  0  0  0
   -5.2337    3.4929    0.5243 H   0  0  0  0  0  0  0  0  0  0  0  0
   -8.6096    0.7879   -5.4272 H   0  0  0  0  0  0  0  0  0  0  0  0
  -10.3988    0.3185   -3.7946 H   0  0  0  0  0  0  0  0  0  0  0  0
   -6.2767    0.9195   -6.2509 H   0  0  0  0  0  0  0  0  0  0  0  0
   -3.8294    0.8668   -6.2956 H   0  0  0  0  0  0  0  0  0  0  0  0
   -3.7336    3.5899   -2.9038 H   0  0  0  0  0  0  0  0  0  0  0  0
   -2.2678    3.9681    0.1705 H   0  0  0  0  0  0  0  0  0  0  0  0
   -2.9987    2.6133    2.0722 H   0  0  0  0  0  0  0  0  0  0  0  0
   -1.7993   -1.1194    3.9901 H   0  0  0  0  0  0  0  0  0  0  0  0
   -1.2878    0.4909    3.3544 H   0  0  0  0  0  0  0  0  0  0  0  0
   -1.0906   -1.0026    2.3327 H   0  0  0  0  0  0  0  0  0  0  0  0
   -2.6246   -0.9587   -0.2829 H   0  0  0  0  0  0  0  0  0  0  0  0
   -1.8584    0.3543   -2.1865 H   0  0  0  0  0  0  0  0  0  0  0  0
   -2.0452    5.2489   -3.7747 H   0  0  0  0  0  0  0  0  0  0  0  0
   -0.9896    7.4705   -3.6004 H   0  0  0  0  0  0  0  0  0  0  0  0
    2.9745    7.1934   -2.6101 H   0  0  0  0  0  0  0  0  0  0  0  0
    3.0947    8.9140   -3.1444 H   0  0  0  0  0  0  0  0  0  0  0  0
    1.9703    7.7873   -3.9959 H   0  0  0  0  0  0  0  0  0  0  0  0
    1.3987    6.0850   -0.2995 H   0  0  0  0  0  0  0  0  0  0  0  0
    0.3515    3.8618   -0.4686 H   0  0  0  0  0  0  0  0  0  0  0  0
    3.2699    0.6052   -6.6816 H   0  0  0  0  0  0  0  0  0  0  0  0
    3.4714    0.9711   -9.1112 H   0  0  0  0  0  0  0  0  0  0  0  0
    0.7017    1.5576  -12.4481 H   0  0  0  0  0  0  0  0  0  0  0  0
    1.2161    2.0589  -10.7914 H   0  0  0  0  0  0  0  0  0  0  0  0
   -0.1359    0.8664  -11.0092 H   0  0  0  0  0  0  0  0  0  0  0  0
    0.2832   -1.8316   -9.8069 H   0  0  0  0  0  0  0  0  0  0  0  0
    0.0593   -2.1896   -7.3852 H   0  0  0  0  0  0  0  0  0  0  0  0
   -0.3345   -1.6348   -3.5323 H   0  0  0  0  0  0  0  0  0  0  0  0
   -1.0176   -3.8790   -2.8174 H   0  0  0  0  0  0  0  0  0  0  0  0
    0.6398   -5.9770   -1.4521 H   0  0  0  0  0  0  0  0  0  0  0  0
    0.8137   -7.7355   -1.8235 H   0  0  0  0  0  0  0  0  0  0  0  0
    1.9756   -6.5531   -2.5380 H   0  0  0  0  0  0  0  0  0  0  0  0
    1.9388   -5.6243   -5.4133 H   0  0  0  0  0  0  0  0  0  0  0  0
    2.6438   -3.3787   -6.1271 H   0  0  0  0  0  0  0  0  0  0  0  0
    4.3762    1.5570   -2.2411 H   0  0  0  0  0  0  0  0  0  0  0  0
    4.2951    2.3621    1.4768 H   0  0  0  0  0  0  0  0  0  0  0  0
    4.9584    4.7362    1.4252 H   0  0  0  0  0  0  0  0  0  0  0  0
    4.8059    6.2306   -1.1556 H   0  0  0  0  0  0  0  0  0  0  0  0
    5.7353    7.7527   -1.3751 H   0  0  0  0  0  0  0  0  0  0  0  0
    7.3748    6.4073   -2.8716 H   0  0  0  0  0  0  0  0  0  0  0  0
    6.1063    5.0930   -2.8636 H   0  0  0  0  0  0  0  0  0  0  0  0
    5.7214    6.7191   -3.5352 H   0  0  0  0  0  0  0  0  0  0  0  0
    8.0480    3.8173   -1.4244 H   0  0  0  0  0  0  0  0  0  0  0  0
    7.3934    1.4397   -1.3759 H   0  0  0  0  0  0  0  0  0  0  0  0
    2.0124   -3.1468    1.0732 H   0  0  0  0  0  0  0  0  0  0  0  0
    1.1758   -5.4496    1.3615 H   0  0  0  0  0  0  0  0  0  0  0  0
    2.2993   -8.9514    3.0142 H   0  0  0  0  0  0  0  0  0  0  0  0
    2.6109   -7.1839    3.0562 H   0  0  0  0  0  0  0  0  0  0  0  0
    4.5855   -9.3905    2.1492 H   0  0  0  0  0  0  0  0  0  0  0  0
    4.9523   -7.6152    2.1828 H   0  0  0  0  0  0  0  0  0  0  0  0
    4.6325   -8.4954    3.7201 H   0  0  0  0  0  0  0  0  0  0  0  0
    4.7756   -6.9852   -0.4326 H   0  0  0  0  0  0  0  0  0  0  0  0
    5.6160   -4.6855   -0.7209 H   0  0  0  0  0  0  0  0  0  0  0  0
    4.6343   -3.3438    2.7553 H   0  0  0  0  0  0  0  0  0  0  0  0
    4.7526   -2.6676    5.1563 H   0  0  0  0  0  0  0  0  0  0  0  0
    5.6058    3.4646    6.3629 H   0  0  0  0  0  0  0  0  0  0  0  0
    1.5466    1.0228    8.2492 H   0  0  0  0  0  0  0  0  0  0  0  0
    1.0823    4.4022    8.0663 H   0  0  0  0  0  0  0  0  0  0  0  0
    1.5603    3.6915   10.7116 H   0  0  0  0  0  0  0  0  0  0  0  0
    1.0286    6.2969   10.7905 H   0  0  0  0  0  0  0  0  0  0  0  0
    3.0862    7.5798    9.8246 H   0  0  0  0  0  0  0  0  0  0  0  0
    4.9362    5.7963    9.1346 H   0  0  0  0  0  0  0  0  0  0  0  0
    3.9274    4.7278   11.3520 H   0  0  0  0  0  0  0  0  0  0  0  0
    4.1669    3.4286   10.1093 H   0  0  0  0  0  0  0  0  0  0  0  0
    2.9703    5.5720    7.1862 H   0  0  0  0  0  0  0  0  0  0  0  0
  1  2  2  3
  2  3  1  0
  3  4  2  0
  3  5  1  0
  5  6  2  0
  6  7  1  0
  7  8  2  0
  8  9  1  0
  9 10  2  0
 10 11  1  0
 11 12  2  3
 12 13  1  0
 13 14  3  0
 12 15  1  0
 15 16  3  0
  8 17  1  0
 17 18  1  0
 18 19  1  0
 19 20  2  0
 20 21  1  0
 21 22  1  0
 21 23  1  0
  1 24  1  0
 24 25  2  0
 25 26  1  0
 26 27  1  0
 27 28  1  0
 28 29  1  0
 27 30  1  0
 30 31  2  0
 31 32  1  0
 32 33  1  0
 33 34  2  0
 31 35  1  0
 35 36  2  0
 36 37  1  0
 37 38  2  0
 37 39  1  0
 39 40  2  0
 40 41  1  0
 41 42  1  0
 42 43  2  0
 43 44  1  0
 44 45  2  0
 45 46  1  0
 46 47  1  0
 45 48  1  0
 48 49  2  0
 41 50  1  0
 50 51  2  0
 51 52  1  0
 52 53  2  0
 53 54  1  0
 54 55  1  0
 53 56  1  0
 56 57  2  0
 40 58  1  0
 58 59  1  0
 59 60  1  0
 60 61  2  0
 61 62  1  0
 62 63  1  0
 63 64  2  0
 64 65  1  0
 65 66  2  0
 66 67  1  0
 67 68  1  0
 66 69  1  0
 69 70  2  0
 62 71  1  0
 71 72  2  0
 72 73  1  0
 73 74  2  0
 74 75  1  0
 75 76  1  0
 74 77  1  0
 77 78  2  0
 61 79  1  0
 79 80  1  0
 60 81  1  0
 81 82  2  0
 82 83  1  0
 83 84  2  0
 84 85  1  0
 85 86  2  0
 86 87  1  0
 87 88  2  0
 88 89  1  0
 89 90  1  0
 90 91  1  0
 88 92  1  0
 92 93  2  0
 84 94  1  0
 94 95  2  0
 95 96  1  0
 96 97  1  0
 97 98  2  0
 98 99  1  0
 99100  2  0
100101  1  0
101102  1  0
102103  1  0
100104  1  0
104105  2  0
 96106  2  0
106107  1  0
 95108  1  0
108109  2  0
109110  1  0
109111  1  0
111112  2  3
112113  1  0
113114  2  0
113115  1  0
115116  2  0
116117  1  0
117118  2  0
118119  1  0
119120  2  0
120121  1  0
121122  2  3
122123  1  0
123124  3  0
122125  1  0
125126  3  0
118127  1  0
127128  1  0
128129  1  0
129130  2  0
130131  1  0
131132  1  0
131133  1  0
 11  2  1  0
 23 17  1  0
 34 24  1  0
 80 39  1  0
107 81  1  0
121112  1  0
133127  1  0
 10  5  1  0
 22 18  1  0
 32 26  2  0
 49 42  1  0
 57 50  1  0
 79 58  2  0
106 83  1  0
120115  1  0
132128  1  0
 23  7  1  0
 38 30  1  0
 70 63  1  0
 78 71  1  0
 93 85  1  0
110 94  1  0
133117  1  0
105 97  1  0
  1134  1  0
  6135  1  0
  9136  1  0
 17137  1  0
 18138  1  0
 19139  1  0
 20140  1  0
 21141  1  0
 22142  1  0
 22143  1  0
 23144  1  0
 25145  1  0
 28146  1  0
 28147  1  0
 29148  1  0
 29149  1  0
 29150  1  0
 33151  1  0
 34152  1  0
 35153  1  0
 36154  1  0
 38155  1  0
 43156  1  0
 44157  1  0
 47158  1  0
 47159  1  0
 47160  1  0
 48161  1  0
 49162  1  0
 51163  1  0
 52164  1  0
 55165  1  0
 55166  1  0
 55167  1  0
 56168  1  0
 57169  1  0
 64170  1  0
 65171  1  0
 68172  1  0
 68173  1  0
 68174  1  0
 69175  1  0
 70176  1  0
 72177  1  0
 73178  1  0
 76179  1  0
 76180  1  0
 76181  1  0
 77182  1  0
 78183  1  0
 82184  1  0
 86185  1  0
 87186  1  0
 90187  1  0
 90188  1  0
 91189  1  0
 91190  1  0
 91191  1  0
 92192  1  0
 93193  1  0
 98194  1  0
 99195  1  0
102196  1  0
102197  1  0
103198  1  0
103199  1  0
103200  1  0
104201  1  0
105202  1  0
108203  1  0
111204  1  0
116205  1  0
119206  1  0
127207  1  0
128208  1  0
129209  1  0
130210  1  0
131211  1  0
132212  1  0
132213  1  0
133214  1  0
M  END

