
     RDKit          3D

148168  0  0  0  0  0  0  0  0999 V2000
    0.8667    4.1751   -5.6735 C   0  0  0  0  0  0  0  0  0  0  0  0
    0.6911    5.4275   -6.1387 C   0  0  0  0  0  0  0  0  0  0  0  0
    1.7286    6.2923   -6.7090 C   0  0  0  0  0  0  0  0  0  0  0  0
    2.7092    5.9144   -7.4004 O   0  0  0  0  0  0  0  0  0  0  0  0
    1.4210    7.6645   -6.3644 C   0  0  0  0  0  0  0  0  0  0  0  0
    2.2901    8.7777   -6.4379 C   0  0  0  0  0  0  0  0  0  0  0  0
    1.8361    9.8903   -5.7485 C   0  0  0  0  0  0  0  0  0  0  0  0
    0.5975    9.9118   -5.0253 C   0  0  0  0  0  0  0  0  0  0  0  0
   -0.2736    8.8356   -4.9766 C   0  0  0  0  0  0  0  0  0  0  0  0
    0.1658    7.6944   -5.7027 C   0  0  0  0  0  0  0  0  0  0  0  0
   -0.4183    6.3320   -5.7213 C   0  0  0  0  0  0  0  0  0  0  0  0
   -1.7304    6.0225   -5.6122 C   0  0  0  0  0  0  0  0  0  0  0  0
   -2.7376    7.0297   -5.4011 C   0  0  0  0  0  0  0  0  0  0  0  0
   -3.5511    7.8359   -5.2375 N   0  0  0  0  0  0  0  0  0  0  0  0
   -2.2215    4.6901   -5.8517 C   0  0  0  0  0  0  0  0  0  0  0  0
   -2.6232    3.6206   -6.0432 N   0  0  0  0  0  0  0  0  0  0  0  0
    0.8905   11.2968   -4.5334 C   0  0  0  0  0  0  0  0  0  0  0  0
    0.0724   12.4492   -5.1856 C   0  0  0  0  0  0  0  0  0  0  0  0
    0.8064   13.7240   -4.8408 C   0  0  0  0  0  0  0  0  0  0  0  0
    1.9396   13.7116   -5.5532 C   0  0  0  0  0  0  0  0  0  0  0  0
    1.9402   12.4227   -6.3439 C   0  0  0  0  0  0  0  0  0  0  0  0
    0.4534   12.3481   -6.6538 C   0  0  0  0  0  0  0  0  0  0  0  0
    2.1413   11.2870   -5.2991 C   0  0  0  0  0  0  0  0  0  0  0  0
    2.1730    3.4937   -5.4841 C   0  0  0  0  0  0  0  0  0  0  0  0
    2.1852    2.0805   -5.4251 C   0  0  0  0  0  0  0  0  0  0  0  0
    3.3285    1.4294   -4.9408 C   0  0  0  0  0  0  0  0  0  0  0  0
    3.4072    0.1440   -4.5040 N   0  0  0  0  0  0  0  0  0  0  0  0
    2.3735   -0.8935   -4.6382 C   0  0  0  0  0  0  0  0  0  0  0  0
    2.2038   -1.3059   -6.0969 C   0  0  0  0  0  0  0  0  0  0  0  0
    4.5336    0.0984   -3.7389 C   0  0  0  0  0  0  0  0  0  0  0  0
    5.2140    1.3029   -3.7969 C   0  0  0  0  0  0  0  0  0  0  0  0
    4.4390    2.1521   -4.5508 C   0  0  0  0  0  0  0  0  0  0  0  0
    4.4746    3.5412   -4.6173 C   0  0  0  0  0  0  0  0  0  0  0  0
    3.3256    4.2107   -5.0625 C   0  0  0  0  0  0  0  0  0  0  0  0
    6.2561    1.6162   -2.9266 C   0  0  0  0  0  0  0  0  0  0  0  0
    6.5392    0.7155   -1.8917 C   0  0  0  0  0  0  0  0  0  0  0  0
    5.7770   -0.4615   -1.7329 C   0  0  0  0  0  0  0  0  0  0  0  0
    4.8285   -0.8236   -2.7189 C   0  0  0  0  0  0  0  0  0  0  0  0
    5.6158   -1.0067   -0.3807 C   0  0  0  0  0  0  0  0  0  0  0  0
    5.3941   -2.3432   -0.0510 C   0  0  0  0  0  0  0  0  0  0  0  0
    4.7642   -2.5175    1.2027 C   0  0  0  0  0  0  0  0  0  0  0  0
    4.3265   -3.7309    1.7952 C   0  0  0  0  0  0  0  0  0  0  0  0
    4.6778   -5.0677    1.2526 C   0  0  0  0  0  0  0  0  0  0  0  0
    5.2003   -6.1191    2.0052 C   0  0  0  0  0  0  0  0  0  0  0  0
    5.5747   -7.2281    1.2358 C   0  0  0  0  0  0  0  0  0  0  0  0
    6.3071   -8.6595    1.9429 Cl  0  0  0  0  0  0  0  0  0  0  0  0
    5.3495   -7.0581   -0.1270 C   0  0  0  0  0  0  0  0  0  0  0  0
    5.7350   -8.0058   -1.2238 C   0  0  0  0  0  0  0  0  0  0  0  0
    4.7014   -9.1113   -1.3811 C   0  0  0  0  0  0  0  0  0  0  0  0
    4.6486   -5.5466   -0.3663 S   0  0  0  0  0  0  0  0  0  0  0  0
    3.5827   -3.6094    2.9883 C   0  0  0  0  0  0  0  0  0  0  0  0
    3.3202   -2.3798    3.6015 C   0  0  0  0  0  0  0  0  0  0  0  0
    3.7857   -1.1854    3.0321 C   0  0  0  0  0  0  0  0  0  0  0  0
    3.3660    0.1329    3.5423 C   0  0  0  0  0  0  0  0  0  0  0  0
    3.8476    0.8248    4.9963 S   0  0  0  0  0  0  0  0  0  0  0  0
    2.9881    2.2601    4.7875 C   0  0  0  0  0  0  0  0  0  0  0  0
    3.0283    3.4210    5.7373 C   0  0  0  0  0  0  0  0  0  0  0  0
    4.1255    4.4056    5.3441 C   0  0  0  0  0  0  0  0  0  0  0  0
    2.3270    2.2150    3.5631 C   0  0  0  0  0  0  0  0  0  0  0  0
    2.5360    1.0228    2.8671 C   0  0  0  0  0  0  0  0  0  0  0  0
    1.3461    3.5234    2.9198 Cl  0  0  0  0  0  0  0  0  0  0  0  0
    4.5019   -1.2956    1.8344 C   0  0  0  0  0  0  0  0  0  0  0  0
    5.0500   -0.0400    0.8706 S   0  0  0  0  0  0  0  0  0  0  0  0
    2.4500   -2.4702    4.6961 C   0  0  0  0  0  0  0  0  0  0  0  0
    1.9503   -3.7562    4.9116 C   0  0  0  0  0  0  0  0  0  0  0  0
    2.6734   -4.7848    3.7758 S   0  0  0  0  0  0  0  0  0  0  0  0
    0.7497   -4.1085    5.7220 C   0  0  0  0  0  0  0  0  0  0  0  0
   -0.2859   -3.1777    5.9560 C   0  0  0  0  0  0  0  0  0  0  0  0
   -1.5412   -3.5804    6.4859 C   0  0  0  0  0  0  0  0  0  0  0  0
   -2.5183   -2.5403    6.5921 N   0  0  0  0  0  0  0  0  0  0  0  0
   -1.7025   -1.3074    6.0063 S   0  0  0  0  0  4  0  0  0  0  0  0
   -0.2365   -1.7925    5.5997 N   0  0  0  0  0  0  0  0  0  0  0  0
   -1.7976   -4.9157    6.8079 C   0  0  0  0  0  0  0  0  0  0  0  0
   -0.7469   -5.8363    6.6889 C   0  0  0  0  0  0  0  0  0  0  0  0
   -0.8874   -7.1448    7.0161 N   0  0  0  0  0  0  0  0  0  0  0  0
    0.6289   -7.7093    6.6557 S   0  0  0  0  0  0  0  0  0  0  0  0
    1.4728   -6.4140    6.0774 N   0  0  0  0  0  0  0  0  0  0  0  0
    0.5230   -5.4371    6.1575 C   0  0  0  0  0  0  0  0  0  0  0  0
   -3.1847   -5.3090    7.1186 C   0  0  0  0  0  0  0  0  0  0  0  0
   -4.0088   -5.8393    6.1867 C   0  0  0  0  0  0  0  0  0  0  0  0
   -3.5659   -6.4534    4.9223 C   0  0  0  0  0  0  0  0  0  0  0  0
   -2.3892   -6.4835    4.4711 O   0  0  0  0  0  0  0  0  0  0  0  0
   -4.7122   -6.9695    4.2214 C   0  0  0  0  0  0  0  0  0  0  0  0
   -4.7071   -7.6306    2.9705 C   0  0  0  0  0  0  0  0  0  0  0  0
   -5.9653   -7.8497    2.4494 C   0  0  0  0  0  0  0  0  0  0  0  0
   -7.1626   -7.4076    3.0990 C   0  0  0  0  0  0  0  0  0  0  0  0
   -7.1741   -6.7942    4.3396 C   0  0  0  0  0  0  0  0  0  0  0  0
   -5.8872   -6.6223    4.9303 C   0  0  0  0  0  0  0  0  0  0  0  0
   -5.5102   -5.9505    6.2126 C   0  0  0  0  0  0  0  0  0  0  0  0
   -6.3702   -5.5090    7.1751 C   0  0  0  0  0  0  0  0  0  0  0  0
   -5.9723   -4.6579    8.2663 C   0  0  0  0  0  0  0  0  0  0  0  0
   -5.6754   -3.9689    9.1483 N   0  0  0  0  0  0  0  0  0  0  0  0
   -7.7681   -5.8592    7.1838 C   0  0  0  0  0  0  0  0  0  0  0  0
   -8.8934   -6.1336    7.2137 N   0  0  0  0  0  0  0  0  0  0  0  0
   -7.9829   -7.8522    1.9233 C   0  0  0  0  0  0  0  0  0  0  0  0
   -8.4768   -6.7620    0.9208 C   0  0  0  0  0  0  0  0  0  0  0  0
   -7.4838   -5.6183    0.8431 C   0  0  0  0  0  0  0  0  0  0  0  0
   -6.3923   -6.1060    0.2463 C   0  0  0  0  0  0  0  0  0  0  0  0
   -6.6750   -7.5622   -0.0481 C   0  0  0  0  0  0  0  0  0  0  0  0
   -8.1505   -7.4527   -0.3892 C   0  0  0  0  0  0  0  0  0  0  0  0
   -6.7619   -8.3628    1.2867 C   0  0  0  0  0  0  0  0  0  0  0  0
    0.0230    3.6632   -5.2258 H   0  0  0  0  0  0  0  0  0  0  0  0
    3.2633    8.7426   -6.9105 H   0  0  0  0  0  0  0  0  0  0  0  0
   -1.1584    8.8586   -4.3607 H   0  0  0  0  0  0  0  0  0  0  0  0
    1.0255   11.3616   -3.4325 H   0  0  0  0  0  0  0  0  0  0  0  0
   -1.0112   12.4557   -4.9615 H   0  0  0  0  0  0  0  0  0  0  0  0
    0.4592   14.5400   -4.2146 H   0  0  0  0  0  0  0  0  0  0  0  0
    2.6638   14.5170   -5.6111 H   0  0  0  0  0  0  0  0  0  0  0  0
    2.6214   12.4048   -7.2181 H   0  0  0  0  0  0  0  0  0  0  0  0
    0.0899   13.2092   -7.2667 H   0  0  0  0  0  0  0  0  0  0  0  0
    0.1380   11.4007   -7.1456 H   0  0  0  0  0  0  0  0  0  0  0  0
    3.0636   11.3594   -4.6759 H   0  0  0  0  0  0  0  0  0  0  0  0
    1.2780    1.5278   -5.6265 H   0  0  0  0  0  0  0  0  0  0  0  0
    1.4119   -0.5256   -4.2267 H   0  0  0  0  0  0  0  0  0  0  0  0
    2.6442   -1.8061   -4.0685 H   0  0  0  0  0  0  0  0  0  0  0  0
    1.6084   -2.2459   -6.1505 H   0  0  0  0  0  0  0  0  0  0  0  0
    1.6635   -0.5262   -6.6665 H   0  0  0  0  0  0  0  0  0  0  0  0
    3.1911   -1.4913   -6.5654 H   0  0  0  0  0  0  0  0  0  0  0  0
    5.3065    4.0995   -4.2129 H   0  0  0  0  0  0  0  0  0  0  0  0
    3.3014    5.2874   -4.9514 H   0  0  0  0  0  0  0  0  0  0  0  0
    6.7445    2.5836   -2.9560 H   0  0  0  0  0  0  0  0  0  0  0  0
    7.2483    1.0094   -1.1264 H   0  0  0  0  0  0  0  0  0  0  0  0
    4.1961   -1.6852   -2.5534 H   0  0  0  0  0  0  0  0  0  0  0  0
    5.6470   -3.1354   -0.7405 H   0  0  0  0  0  0  0  0  0  0  0  0
    5.3419   -6.0687    3.0797 H   0  0  0  0  0  0  0  0  0  0  0  0
    6.7240   -8.4548   -0.9938 H   0  0  0  0  0  0  0  0  0  0  0  0
    5.8310   -7.4445   -2.1803 H   0  0  0  0  0  0  0  0  0  0  0  0
    3.7112   -8.6771   -1.6464 H   0  0  0  0  0  0  0  0  0  0  0  0
    5.0142   -9.7925   -2.2027 H   0  0  0  0  0  0  0  0  0  0  0  0
    4.6057   -9.6948   -0.4428 H   0  0  0  0  0  0  0  0  0  0  0  0
    3.1984    3.0574    6.7691 H   0  0  0  0  0  0  0  0  0  0  0  0
    2.0513    3.9492    5.7231 H   0  0  0  0  0  0  0  0  0  0  0  0
    4.1280    5.2627    6.0476 H   0  0  0  0  0  0  0  0  0  0  0  0
    5.1171    3.9076    5.3888 H   0  0  0  0  0  0  0  0  0  0  0  0
    3.9529    4.7875    4.3154 H   0  0  0  0  0  0  0  0  0  0  0  0
    2.0970    0.8139    1.8965 H   0  0  0  0  0  0  0  0  0  0  0  0
    2.1467   -1.6049    5.2682 H   0  0  0  0  0  0  0  0  0  0  0  0
   -3.5611   -4.9416    8.0555 H   0  0  0  0  0  0  0  0  0  0  0  0
   -3.8027   -7.8934    2.4429 H   0  0  0  0  0  0  0  0  0  0  0  0
   -8.1036   -6.4385    4.7555 H   0  0  0  0  0  0  0  0  0  0  0  0
   -8.7278   -8.6450    2.1583 H   0  0  0  0  0  0  0  0  0  0  0  0
   -9.5359   -6.4537    1.0422 H   0  0  0  0  0  0  0  0  0  0  0  0
   -7.6512   -4.5827    1.1094 H   0  0  0  0  0  0  0  0  0  0  0  0
   -5.5179   -5.5354   -0.0441 H   0  0  0  0  0  0  0  0  0  0  0  0
   -6.0332   -8.0163   -0.8308 H   0  0  0  0  0  0  0  0  0  0  0  0
   -8.6615   -8.4387   -0.5136 H   0  0  0  0  0  0  0  0  0  0  0  0
   -8.3423   -6.8174   -1.2870 H   0  0  0  0  0  0  0  0  0  0  0  0
   -6.7520   -9.4707    1.1728 H   0  0  0  0  0  0  0  0  0  0  0  0
  1  2  2  3
  2  3  1  0
  3  4  2  0
  3  5  1  0
  5  6  2  0
  6  7  1  0
  7  8  2  0
  8  9  1  0
  9 10  2  0
 10 11  1  0
 11 12  2  3
 12 13  1  0
 13 14  3  0
 12 15  1  0
 15 16  3  0
  8 17  1  0
 17 18  1  0
 18 19  1  0
 19 20  2  0
 20 21  1  0
 21 22  1  0
 21 23  1  0
  1 24  1  0
 24 25  2  0
 25 26  1  0
 26 27  1  0
 27 28  1  0
 28 29  1  0
 27 30  1  0
 30 31  2  0
 31 32  1  0
 32 33  1  0
 33 34  2  0
 31 35  1  0
 35 36  2  0
 36 37  1  0
 37 38  2  0
 37 39  1  0
 39 40  2  0
 40 41  1  0
 41 42  2  0
 42 43  1  0
 43 44  2  0
 44 45  1  0
 45 46  1  0
 45 47  2  0
 47 48  1  0
 48 49  1  0
 47 50  1  0
 42 51  1  0
 51 52  2  0
 52 53  1  0
 53 54  1  0
 54 55  1  0
 55 56  1  0
 56 57  1  0
 57 58  1  0
 56 59  2  0
 59 60  1  0
 59 61  1  0
 53 62  2  0
 62 63  1  0
 52 64  1  0
 64 65  2  0
 65 66  1  0
 65 67  1  0
 67 68  2  0
 68 69  1  0
 69 70  1  0
 70 71  2  0
 71 72  2  0
 69 73  2  0
 73 74  1  0
 74 75  2  0
 75 76  1  0
 76 77  1  0
 77 78  2  0
 73 79  1  0
 79 80  2  3
 80 81  1  0
 81 82  2  0
 81 83  1  0
 83 84  2  0
 84 85  1  0
 85 86  2  0
 86 87  1  0
 87 88  2  0
 88 89  1  0
 89 90  2  3
 90 91  1  0
 91 92  3  0
 90 93  1  0
 93 94  3  0
 86 95  1  0
 95 96  1  0
 96 97  1  0
 97 98  2  0
 98 99  1  0
 99100  1  0
 99101  1  0
 11  2  1  0
 23 17  1  0
 34 24  1  0
 63 39  1  0
 78 67  1  0
 89 80  1  0
101 95  1  0
 10  5  1  0
 22 18  1  0
 32 26  2  0
 62 41  1  0
 72 68  1  0
 78 74  1  0
 88 83  1  0
100 96  1  0
 23  7  1  0
 38 30  1  0
 50 43  1  0
 66 51  1  0
101 85  1  0
 60 54  2  0
  1102  1  0
  6103  1  0
  9104  1  0
 17105  1  0
 18106  1  0
 19107  1  0
 20108  1  0
 21109  1  0
 22110  1  0
 22111  1  0
 23112  1  0
 25113  1  0
 28114  1  0
 28115  1  0
 29116  1  0
 29117  1  0
 29118  1  0
 33119  1  0
 34120  1  0
 35121  1  0
 36122  1  0
 38123  1  0
 40124  1  0
 44125  1  0
 48126  1  0
 48127  1  0
 49128  1  0
 49129  1  0
 49130  1  0
 57131  1  0
 57132  1  0
 58133  1  0
 58134  1  0
 58135  1  0
 60136  1  0
 64137  1  0
 79138  1  0
 84139  1  0
 87140  1  0
 95141  1  0
 96142  1  0
 97143  1  0
 98144  1  0
 99145  1  0
100146  1  0
100147  1  0
101148  1  0
M  END

