
     RDKit          3D

195215  0  0  0  0  0  0  0  0999 V2000
   -7.0919   -0.9638    6.4982 C   0  0  0  0  0  0  0  0  0  0  0  0
   -7.2384   -1.0017    5.1544 C   0  0  0  0  0  0  0  0  0  0  0  0
   -6.1394   -0.9234    4.1672 C   0  0  0  0  0  0  0  0  0  0  0  0
   -4.9196   -0.7299    4.4132 O   0  0  0  0  0  0  0  0  0  0  0  0
   -6.6949   -0.9745    2.8388 C   0  0  0  0  0  0  0  0  0  0  0  0
   -5.9742   -1.1384    1.6314 C   0  0  0  0  0  0  0  0  0  0  0  0
   -6.7796   -1.3524    0.5291 C   0  0  0  0  0  0  0  0  0  0  0  0
   -8.2138   -1.3888    0.5961 C   0  0  0  0  0  0  0  0  0  0  0  0
   -8.9151   -1.2138    1.7765 C   0  0  0  0  0  0  0  0  0  0  0  0
   -8.1022   -0.9777    2.9244 C   0  0  0  0  0  0  0  0  0  0  0  0
   -8.5023   -0.9448    4.3545 C   0  0  0  0  0  0  0  0  0  0  0  0
   -9.7670   -0.7782    4.8229 C   0  0  0  0  0  0  0  0  0  0  0  0
  -10.8209   -0.2601    3.9904 C   0  0  0  0  0  0  0  0  0  0  0  0
  -11.6745    0.1627    3.3313 N   0  0  0  0  0  0  0  0  0  0  0  0
  -10.1858   -1.2963    6.0992 C   0  0  0  0  0  0  0  0  0  0  0  0
  -10.6001   -1.7652    7.0787 N   0  0  0  0  0  0  0  0  0  0  0  0
   -8.2890   -1.7206   -0.8653 C   0  0  0  0  0  0  0  0  0  0  0  0
   -8.6388   -3.1993   -1.2131 C   0  0  0  0  0  0  0  0  0  0  0  0
   -8.2708   -3.3792   -2.6635 C   0  0  0  0  0  0  0  0  0  0  0  0
   -6.9303   -3.3596   -2.7191 C   0  0  0  0  0  0  0  0  0  0  0  0
   -6.4419   -3.1539   -1.3047 C   0  0  0  0  0  0  0  0  0  0  0  0
   -7.4927   -3.9769   -0.5811 C   0  0  0  0  0  0  0  0  0  0  0  0
   -6.8250   -1.6904   -0.9287 C   0  0  0  0  0  0  0  0  0  0  0  0
   -5.7626   -0.9452    7.1394 C   0  0  0  0  0  0  0  0  0  0  0  0
   -4.8482   -2.0015    6.9125 C   0  0  0  0  0  0  0  0  0  0  0  0
   -3.4901   -1.7489    7.1182 C   0  0  0  0  0  0  0  0  0  0  0  0
   -2.4456   -2.4622    6.6184 N   0  0  0  0  0  0  0  0  0  0  0  0
   -2.5021   -3.7752    5.9662 C   0  0  0  0  0  0  0  0  0  0  0  0
   -2.7608   -3.6413    4.4661 C   0  0  0  0  0  0  0  0  0  0  0  0
   -1.3726   -1.6382    6.7138 C   0  0  0  0  0  0  0  0  0  0  0  0
   -1.7085   -0.4656    7.3560 C   0  0  0  0  0  0  0  0  0  0  0  0
   -3.0631   -0.5301    7.6095 C   0  0  0  0  0  0  0  0  0  0  0  0
   -3.9561    0.4699    7.9859 C   0  0  0  0  0  0  0  0  0  0  0  0
   -5.3222    0.2496    7.7555 C   0  0  0  0  0  0  0  0  0  0  0  0
   -0.8257    0.6016    7.4525 C   0  0  0  0  0  0  0  0  0  0  0  0
    0.4167    0.4910    6.8017 C   0  0  0  0  0  0  0  0  0  0  0  0
    0.7334   -0.6466    6.0099 C   0  0  0  0  0  0  0  0  0  0  0  0
   -0.1486   -1.7588    6.0438 C   0  0  0  0  0  0  0  0  0  0  0  0
    1.8563   -0.6399    5.0105 C   0  0  0  0  0  0  0  0  0  0  0  0
    2.7589    0.4090    4.6839 C   0  0  0  0  0  0  0  0  0  0  0  0
    2.8712    1.6789    5.3448 N   0  0  0  0  0  0  0  0  0  0  0  0
    4.0907    1.8562    6.0982 C   0  0  0  0  0  0  0  0  0  0  0  0
    5.0568    2.7995    5.6948 C   0  0  0  0  0  0  0  0  0  0  0  0
    6.3154    2.8262    6.2987 C   0  0  0  0  0  0  0  0  0  0  0  0
    6.6447    1.8936    7.2846 C   0  0  0  0  0  0  0  0  0  0  0  0
    8.2900    1.8823    7.9919 S   0  0  0  0  0  0  0  0  0  0  0  0
    8.9396    0.7058    6.7634 C   0  0  0  0  0  0  0  0  0  0  0  0
    5.6906    0.9504    7.6924 C   0  0  0  0  0  0  0  0  0  0  0  0
    4.4268    0.9323    7.1057 C   0  0  0  0  0  0  0  0  0  0  0  0
    2.0746    2.8038    4.8789 C   0  0  0  0  0  0  0  0  0  0  0  0
    1.1462    2.6429    3.8219 C   0  0  0  0  0  0  0  0  0  0  0  0
    0.4263    3.7338    3.3331 C   0  0  0  0  0  0  0  0  0  0  0  0
    0.6084    5.0002    3.8886 C   0  0  0  0  0  0  0  0  0  0  0  0
   -0.2962    6.4045    3.2267 S   0  0  0  0  0  0  0  0  0  0  0  0
   -1.6912    6.2134    4.3741 C   0  0  0  0  0  0  0  0  0  0  0  0
    1.4838    5.1728    4.9612 C   0  0  0  0  0  0  0  0  0  0  0  0
    2.1956    4.0789    5.4672 C   0  0  0  0  0  0  0  0  0  0  0  0
    3.4524    0.1656    3.5024 C   0  0  0  0  0  0  0  0  0  0  0  0
    4.2184    1.2086    2.4358 S   0  0  0  0  0  0  0  0  0  0  0  0
    4.1564    0.1432    1.1065 C   0  0  0  0  0  0  0  0  0  0  0  0
    3.4986   -1.0292    1.5110 C   0  0  0  0  0  0  0  0  0  0  0  0
    3.0392   -2.0488    0.6061 N   0  0  0  0  0  0  0  0  0  0  0  0
    2.0022   -1.6871   -0.3272 C   0  0  0  0  0  0  0  0  0  0  0  0
    2.1961   -1.8289   -1.7085 C   0  0  0  0  0  0  0  0  0  0  0  0
    1.1812   -1.4706   -2.6057 C   0  0  0  0  0  0  0  0  0  0  0  0
   -0.0456   -0.9889   -2.1217 C   0  0  0  0  0  0  0  0  0  0  0  0
   -1.3785   -0.5731   -3.2600 S   0  0  0  0  0  0  0  0  0  0  0  0
   -2.1151   -2.2406   -3.1817 C   0  0  0  0  0  0  0  0  0  0  0  0
   -0.2368   -0.8277   -0.7486 C   0  0  0  0  0  0  0  0  0  0  0  0
    0.7757   -1.1799    0.1461 C   0  0  0  0  0  0  0  0  0  0  0  0
    3.4751   -3.4240    0.7896 C   0  0  0  0  0  0  0  0  0  0  0  0
    4.4828   -3.7480    1.7338 C   0  0  0  0  0  0  0  0  0  0  0  0
    4.8580   -5.0710    1.9624 C   0  0  0  0  0  0  0  0  0  0  0  0
    4.2612   -6.1067    1.2381 C   0  0  0  0  0  0  0  0  0  0  0  0
    4.7584   -7.8024    1.5262 S   0  0  0  0  0  0  0  0  0  0  0  0
    3.4118   -8.1308    2.7094 C   0  0  0  0  0  0  0  0  0  0  0  0
    3.2973   -5.8087    0.2674 C   0  0  0  0  0  0  0  0  0  0  0  0
    2.8924   -4.4862    0.0534 C   0  0  0  0  0  0  0  0  0  0  0  0
    3.1367   -0.9842    2.8588 C   0  0  0  0  0  0  0  0  0  0  0  0
    1.9742   -1.7922    3.7470 S   0  0  0  0  0  0  0  0  0  0  0  0
    4.1472    0.6527   -0.2667 C   0  0  0  0  0  0  0  0  0  0  0  0
    4.8456    0.1469   -1.3674 C   0  0  0  0  0  0  0  0  0  0  0  0
    4.4254    0.7297   -2.5827 C   0  0  0  0  0  0  0  0  0  0  0  0
    4.9317    0.4617   -3.8750 C   0  0  0  0  0  0  0  0  0  0  0  0
    6.0261   -0.4843   -4.1168 C   0  0  0  0  0  0  0  0  0  0  0  0
    7.2689   -0.1538   -4.6482 C   0  0  0  0  0  0  0  0  0  0  0  0
    8.1048   -1.2598   -4.8290 C   0  0  0  0  0  0  0  0  0  0  0  0
    7.5027   -2.4597   -4.4611 C   0  0  0  0  0  0  0  0  0  0  0  0
    8.2625   -4.0776   -4.5780 S   0  0  0  0  0  0  0  0  0  0  0  0
    7.8218   -4.3627   -6.3314 C   0  0  0  0  0  0  0  0  0  0  0  0
    8.8468   -3.7216   -7.2640 C   0  0  0  0  0  0  0  0  0  0  0  0
    5.9493   -2.1517   -3.8846 S   0  0  0  0  0  0  0  0  0  0  0  0
    4.3340    1.1540   -4.9466 C   0  0  0  0  0  0  0  0  0  0  0  0
    3.2768    2.0532   -4.7596 C   0  0  0  0  0  0  0  0  0  0  0  0
    2.7743    2.3272   -3.4740 C   0  0  0  0  0  0  0  0  0  0  0  0
    1.6146    3.2158   -3.2548 C   0  0  0  0  0  0  0  0  0  0  0  0
    1.4599    4.5068   -3.7550 C   0  0  0  0  0  0  0  0  0  0  0  0
    0.2406    5.0969   -3.4028 C   0  0  0  0  0  0  0  0  0  0  0  0
   -0.5498    4.2755   -2.6092 C   0  0  0  0  0  0  0  0  0  0  0  0
   -2.1598    4.6803   -1.9456 S   0  0  0  0  0  0  0  0  0  0  0  0
   -1.5169    5.3599   -0.3754 C   0  0  0  0  0  0  0  0  0  0  0  0
   -1.1583    6.8313   -0.5403 C   0  0  0  0  0  0  0  0  0  0  0  0
    0.2373    2.8151   -2.3648 S   0  0  0  0  0  0  0  0  0  0  0  0
    3.3984    1.6607   -2.4088 C   0  0  0  0  0  0  0  0  0  0  0  0
    3.0244    1.7940   -0.7807 S   0  0  0  0  0  0  0  0  0  0  0  0
    2.7399    2.5289   -5.9654 C   0  0  0  0  0  0  0  0  0  0  0  0
    3.3788    2.0103   -7.0819 C   0  0  0  0  0  0  0  0  0  0  0  0
    4.6090    0.9640   -6.6031 S   0  0  0  0  0  0  0  0  0  0  0  0
    2.8984    2.2526   -8.4471 C   0  0  0  0  0  0  0  0  0  0  0  0
    1.6417    1.9051   -8.7842 C   0  0  0  0  0  0  0  0  0  0  0  0
    0.8105    0.9837   -7.9976 C   0  0  0  0  0  0  0  0  0  0  0  0
    1.2378    0.0097   -7.3130 O   0  0  0  0  0  0  0  0  0  0  0  0
   -0.5727    1.3303   -8.1760 C   0  0  0  0  0  0  0  0  0  0  0  0
   -1.6837    0.8068   -7.5091 C   0  0  0  0  0  0  0  0  0  0  0  0
   -2.9400    1.3638   -7.7651 C   0  0  0  0  0  0  0  0  0  0  0  0
   -3.0653    2.4334   -8.6727 C   0  0  0  0  0  0  0  0  0  0  0  0
   -4.2848    2.9809   -8.9018 F   0  0  0  0  0  0  0  0  0  0  0  0
   -1.9360    2.9494   -9.3326 C   0  0  0  0  0  0  0  0  0  0  0  0
   -0.6730    2.3695   -9.0868 C   0  0  0  0  0  0  0  0  0  0  0  0
    0.6860    2.7196   -9.6046 C   0  0  0  0  0  0  0  0  0  0  0  0
    0.9953    3.5444  -10.6377 C   0  0  0  0  0  0  0  0  0  0  0  0
    2.3274    3.6444  -11.1796 C   0  0  0  0  0  0  0  0  0  0  0  0
    3.3928    3.7315  -11.6207 N   0  0  0  0  0  0  0  0  0  0  0  0
    0.0117    4.3808  -11.2790 C   0  0  0  0  0  0  0  0  0  0  0  0
   -0.7678    5.0776  -11.7827 N   0  0  0  0  0  0  0  0  0  0  0  0
   -7.9429   -0.8547    7.1527 H   0  0  0  0  0  0  0  0  0  0  0  0
   -4.8912   -1.1773    1.5826 H   0  0  0  0  0  0  0  0  0  0  0  0
   -9.9815   -1.3395    1.8025 H   0  0  0  0  0  0  0  0  0  0  0  0
   -8.8002   -0.9430   -1.4783 H   0  0  0  0  0  0  0  0  0  0  0  0
   -9.6607   -3.5207   -0.9335 H   0  0  0  0  0  0  0  0  0  0  0  0
   -8.9357   -3.6096   -3.4861 H   0  0  0  0  0  0  0  0  0  0  0  0
   -6.3273   -3.5601   -3.6012 H   0  0  0  0  0  0  0  0  0  0  0  0
   -5.3874   -3.4471   -1.1279 H   0  0  0  0  0  0  0  0  0  0  0  0
   -7.4899   -5.0583   -0.8699 H   0  0  0  0  0  0  0  0  0  0  0  0
   -7.4522   -3.9093    0.5240 H   0  0  0  0  0  0  0  0  0  0  0  0
   -6.3884   -0.9021   -1.5799 H   0  0  0  0  0  0  0  0  0  0  0  0
   -5.1743   -2.9013    6.4071 H   0  0  0  0  0  0  0  0  0  0  0  0
   -1.5503   -4.3175    6.1312 H   0  0  0  0  0  0  0  0  0  0  0  0
   -3.3056   -4.3884    6.4305 H   0  0  0  0  0  0  0  0  0  0  0  0
   -3.7074   -3.0970    4.2882 H   0  0  0  0  0  0  0  0  0  0  0  0
   -2.8339   -4.6576    4.0180 H   0  0  0  0  0  0  0  0  0  0  0  0
   -1.9205   -3.1010    3.9826 H   0  0  0  0  0  0  0  0  0  0  0  0
   -3.6099    1.4289    8.3471 H   0  0  0  0  0  0  0  0  0  0  0  0
   -6.0282    1.0545    7.9430 H   0  0  0  0  0  0  0  0  0  0  0  0
   -1.1082    1.5162    7.9561 H   0  0  0  0  0  0  0  0  0  0  0  0
    1.0734    1.3402    6.8739 H   0  0  0  0  0  0  0  0  0  0  0  0
    0.0558   -2.6489    5.4718 H   0  0  0  0  0  0  0  0  0  0  0  0
    4.8487    3.4823    4.8792 H   0  0  0  0  0  0  0  0  0  0  0  0
    7.0515    3.5453    5.9684 H   0  0  0  0  0  0  0  0  0  0  0  0
    8.3458   -0.2312    6.7832 H   0  0  0  0  0  0  0  0  0  0  0  0
    9.9965    0.4596    7.0074 H   0  0  0  0  0  0  0  0  0  0  0  0
    8.8931    1.1551    5.7454 H   0  0  0  0  0  0  0  0  0  0  0  0
    5.9427    0.2081    8.4380 H   0  0  0  0  0  0  0  0  0  0  0  0
    3.7128    0.1688    7.4005 H   0  0  0  0  0  0  0  0  0  0  0  0
    0.9705    1.6824    3.3662 H   0  0  0  0  0  0  0  0  0  0  0  0
   -0.2695    3.5900    2.5181 H   0  0  0  0  0  0  0  0  0  0  0  0
   -1.3680    6.5043    5.3935 H   0  0  0  0  0  0  0  0  0  0  0  0
   -2.5185    6.8799    4.0568 H   0  0  0  0  0  0  0  0  0  0  0  0
   -2.0599    5.1666    4.3794 H   0  0  0  0  0  0  0  0  0  0  0  0
    1.6195    6.1515    5.3992 H   0  0  0  0  0  0  0  0  0  0  0  0
    2.8504    4.2412    6.3157 H   0  0  0  0  0  0  0  0  0  0  0  0
    3.1365   -2.2041   -2.0934 H   0  0  0  0  0  0  0  0  0  0  0  0
    1.3387   -1.5864   -3.6731 H   0  0  0  0  0  0  0  0  0  0  0  0
   -1.3969   -2.9839   -3.6013 H   0  0  0  0  0  0  0  0  0  0  0  0
   -3.0493   -2.2595   -3.7876 H   0  0  0  0  0  0  0  0  0  0  0  0
   -2.3573   -2.5136   -2.1267 H   0  0  0  0  0  0  0  0  0  0  0  0
   -1.1655   -0.4142   -0.3696 H   0  0  0  0  0  0  0  0  0  0  0  0
    0.6142   -1.0403    1.2045 H   0  0  0  0  0  0  0  0  0  0  0  0
    4.9818   -2.9767    2.2991 H   0  0  0  0  0  0  0  0  0  0  0  0
    5.6278   -5.2870    2.6877 H   0  0  0  0  0  0  0  0  0  0  0  0
    2.4314   -7.9117    2.2275 H   0  0  0  0  0  0  0  0  0  0  0  0
    3.5350   -7.5049    3.6200 H   0  0  0  0  0  0  0  0  0  0  0  0
    3.4369   -9.2014    3.0040 H   0  0  0  0  0  0  0  0  0  0  0  0
    2.8405   -6.6081   -0.3084 H   0  0  0  0  0  0  0  0  0  0  0  0
    2.1157   -4.3051   -0.6726 H   0  0  0  0  0  0  0  0  0  0  0  0
    5.5949   -0.6315   -1.2970 H   0  0  0  0  0  0  0  0  0  0  0  0
    7.5545    0.8619   -4.9029 H   0  0  0  0  0  0  0  0  0  0  0  0
    9.1033   -1.1875   -5.2312 H   0  0  0  0  0  0  0  0  0  0  0  0
    6.8011   -3.9837   -6.5606 H   0  0  0  0  0  0  0  0  0  0  0  0
    7.8213   -5.4611   -6.5099 H   0  0  0  0  0  0  0  0  0  0  0  0
    9.8787   -4.0072   -6.9600 H   0  0  0  0  0  0  0  0  0  0  0  0
    8.7412   -2.6123   -7.2491 H   0  0  0  0  0  0  0  0  0  0  0  0
    8.6743   -4.0671   -8.3078 H   0  0  0  0  0  0  0  0  0  0  0  0
    2.1990    5.0114   -4.3628 H   0  0  0  0  0  0  0  0  0  0  0  0
   -0.0534    6.0909   -3.7068 H   0  0  0  0  0  0  0  0  0  0  0  0
   -0.6296    4.7868   -0.0266 H   0  0  0  0  0  0  0  0  0  0  0  0
   -2.3058    5.2627    0.4002 H   0  0  0  0  0  0  0  0  0  0  0  0
   -0.8019    7.2420    0.4271 H   0  0  0  0  0  0  0  0  0  0  0  0
   -2.0536    7.4060   -0.8632 H   0  0  0  0  0  0  0  0  0  0  0  0
   -0.3509    6.9516   -1.2920 H   0  0  0  0  0  0  0  0  0  0  0  0
    1.8776    3.1712   -6.0364 H   0  0  0  0  0  0  0  0  0  0  0  0
    3.4345    3.0047   -8.9983 H   0  0  0  0  0  0  0  0  0  0  0  0
   -1.5772    0.0067   -6.7902 H   0  0  0  0  0  0  0  0  0  0  0  0
   -3.8166    0.9823   -7.2625 H   0  0  0  0  0  0  0  0  0  0  0  0
   -2.0746    3.7820   -9.9987 H   0  0  0  0  0  0  0  0  0  0  0  0
  1  2  2  3
  2  3  1  0
  3  4  2  0
  3  5  1  0
  5  6  2  0
  6  7  1  0
  7  8  2  0
  8  9  1  0
  9 10  2  0
 10 11  1  0
 11 12  2  3
 12 13  1  0
 13 14  3  0
 12 15  1  0
 15 16  3  0
  8 17  1  0
 17 18  1  0
 18 19  1  0
 19 20  2  0
 20 21  1  0
 21 22  1  0
 21 23  1  0
  1 24  1  0
 24 25  2  0
 25 26  1  0
 26 27  1  0
 27 28  1  0
 28 29  1  0
 27 30  1  0
 30 31  2  0
 31 32  1  0
 32 33  1  0
 33 34  2  0
 31 35  1  0
 35 36  2  0
 36 37  1  0
 37 38  2  0
 37 39  1  0
 39 40  2  0
 40 41  1  0
 41 42  1  0
 42 43  2  0
 43 44  1  0
 44 45  2  0
 45 46  1  0
 46 47  1  0
 45 48  1  0
 48 49  2  0
 41 50  1  0
 50 51  2  0
 51 52  1  0
 52 53  2  0
 53 54  1  0
 54 55  1  0
 53 56  1  0
 56 57  2  0
 40 58  1  0
 58 59  1  0
 59 60  1  0
 60 61  2  0
 61 62  1  0
 62 63  1  0
 63 64  2  0
 64 65  1  0
 65 66  2  0
 66 67  1  0
 67 68  1  0
 66 69  1  0
 69 70  2  0
 62 71  1  0
 71 72  2  0
 72 73  1  0
 73 74  2  0
 74 75  1  0
 75 76  1  0
 74 77  1  0
 77 78  2  0
 61 79  1  0
 79 80  1  0
 60 81  1  0
 81 82  2  0
 82 83  1  0
 83 84  2  0
 84 85  1  0
 85 86  2  0
 86 87  1  0
 87 88  2  0
 88 89  1  0
 89 90  1  0
 90 91  1  0
 88 92  1  0
 84 93  1  0
 93 94  2  0
 94 95  1  0
 95 96  1  0
 96 97  2  0
 97 98  1  0
 98 99  2  0
 99100  1  0
100101  1  0
101102  1  0
 99103  1  0
 95104  2  0
104105  1  0
 94106  1  0
106107  2  0
107108  1  0
107109  1  0
109110  2  3
110111  1  0
111112  2  0
111113  1  0
113114  2  0
114115  1  0
115116  2  0
116117  1  0
116118  1  0
118119  2  0
119120  1  0
120121  2  3
121122  1  0
122123  3  0
121124  1  0
124125  3  0
 11  2  1  0
 23 17  1  0
 34 24  1  0
 80 39  1  0
105 81  1  0
120110  1  0
 10  5  1  0
 22 18  1  0
 32 26  2  0
 49 42  1  0
 57 50  1  0
 79 58  2  0
104 83  1  0
119113  1  0
 23  7  1  0
 38 30  1  0
 70 63  1  0
 78 71  1  0
 92 85  1  0
108 93  1  0
103 96  1  0
  1126  1  0
  6127  1  0
  9128  1  0
 17129  1  0
 18130  1  0
 19131  1  0
 20132  1  0
 21133  1  0
 22134  1  0
 22135  1  0
 23136  1  0
 25137  1  0
 28138  1  0
 28139  1  0
 29140  1  0
 29141  1  0
 29142  1  0
 33143  1  0
 34144  1  0
 35145  1  0
 36146  1  0
 38147  1  0
 43148  1  0
 44149  1  0
 47150  1  0
 47151  1  0
 47152  1  0
 48153  1  0
 49154  1  0
 51155  1  0
 52156  1  0
 55157  1  0
 55158  1  0
 55159  1  0
 56160  1  0
 57161  1  0
 64162  1  0
 65163  1  0
 68164  1  0
 68165  1  0
 68166  1  0
 69167  1  0
 70168  1  0
 72169  1  0
 73170  1  0
 76171  1  0
 76172  1  0
 76173  1  0
 77174  1  0
 78175  1  0
 82176  1  0
 86177  1  0
 87178  1  0
 90179  1  0
 90180  1  0
 91181  1  0
 91182  1  0
 91183  1  0
 97184  1  0
 98185  1  0
101186  1  0
101187  1  0
102188  1  0
102189  1  0
102190  1  0
106191  1  0
109192  1  0
114193  1  0
115194  1  0
118195  1  0
M  END

