
     RDKit          3D

197218  0  0  0  0  0  0  0  0999 V2000
   -8.0068    3.4625   -1.6738 C   0  0  0  0  0  0  0  0  0  0  0  0
   -7.7510    2.3750   -2.4292 C   0  0  0  0  0  0  0  0  0  0  0  0
   -6.8331    1.2839   -2.0723 C   0  0  0  0  0  0  0  0  0  0  0  0
   -5.9702    1.3015   -1.1523 O   0  0  0  0  0  0  0  0  0  0  0  0
   -7.1094    0.1452   -2.9214 C   0  0  0  0  0  0  0  0  0  0  0  0
   -6.5341   -1.1456   -2.8397 C   0  0  0  0  0  0  0  0  0  0  0  0
   -7.0559   -2.0478   -3.7470 C   0  0  0  0  0  0  0  0  0  0  0  0
   -8.0929   -1.7074   -4.6783 C   0  0  0  0  0  0  0  0  0  0  0  0
   -8.6635   -0.4478   -4.7583 C   0  0  0  0  0  0  0  0  0  0  0  0
   -8.1208    0.5029   -3.8512 C   0  0  0  0  0  0  0  0  0  0  0  0
   -8.4724    1.9373   -3.6609 C   0  0  0  0  0  0  0  0  0  0  0  0
   -9.0451    2.7550   -4.5862 C   0  0  0  0  0  0  0  0  0  0  0  0
   -9.0583    4.1865   -4.4413 C   0  0  0  0  0  0  0  0  0  0  0  0
   -9.0701    5.3391   -4.3395 N   0  0  0  0  0  0  0  0  0  0  0  0
   -9.5393    2.2728   -5.8483 C   0  0  0  0  0  0  0  0  0  0  0  0
   -9.9314    1.9026   -6.8753 N   0  0  0  0  0  0  0  0  0  0  0  0
   -8.1061   -3.1110   -5.1995 C   0  0  0  0  0  0  0  0  0  0  0  0
   -9.3057   -3.9989   -4.7594 C   0  0  0  0  0  0  0  0  0  0  0  0
   -8.9056   -5.4201   -5.0700 C   0  0  0  0  0  0  0  0  0  0  0  0
   -7.9422   -5.7417   -4.2000 C   0  0  0  0  0  0  0  0  0  0  0  0
   -7.7271   -4.5282   -3.3302 C   0  0  0  0  0  0  0  0  0  0  0  0
   -9.1623   -4.0419   -3.2451 C   0  0  0  0  0  0  0  0  0  0  0  0
   -7.0498   -3.4614   -4.2457 C   0  0  0  0  0  0  0  0  0  0  0  0
   -7.1449    3.8379   -0.5442 C   0  0  0  0  0  0  0  0  0  0  0  0
   -5.9819    4.5847   -0.8078 C   0  0  0  0  0  0  0  0  0  0  0  0
   -5.0522    4.7475    0.2215 C   0  0  0  0  0  0  0  0  0  0  0  0
   -3.7814    5.2116    0.1192 N   0  0  0  0  0  0  0  0  0  0  0  0
   -3.1119    5.7783   -1.0576 C   0  0  0  0  0  0  0  0  0  0  0  0
   -2.9093    7.2826   -0.8883 C   0  0  0  0  0  0  0  0  0  0  0  0
   -3.2067    4.9277    1.3153 C   0  0  0  0  0  0  0  0  0  0  0  0
   -4.1078    4.3385    2.1775 C   0  0  0  0  0  0  0  0  0  0  0  0
   -5.2878    4.2160    1.4775 C   0  0  0  0  0  0  0  0  0  0  0  0
   -6.4539    3.5143    1.7806 C   0  0  0  0  0  0  0  0  0  0  0  0
   -7.3956    3.3285    0.7516 C   0  0  0  0  0  0  0  0  0  0  0  0
   -3.7209    3.8330    3.4152 C   0  0  0  0  0  0  0  0  0  0  0  0
   -2.3507    3.8590    3.7383 C   0  0  0  0  0  0  0  0  0  0  0  0
   -1.3895    4.3222    2.7967 C   0  0  0  0  0  0  0  0  0  0  0  0
   -1.8440    4.9544    1.6142 C   0  0  0  0  0  0  0  0  0  0  0  0
    0.0471    3.9336    2.8835 C   0  0  0  0  0  0  0  0  0  0  0  0
    0.5526    2.7381    3.4394 C   0  0  0  0  0  0  0  0  0  0  0  0
   -0.1743    1.8330    4.2828 N   0  0  0  0  0  0  0  0  0  0  0  0
   -1.1294    0.8952    3.7282 C   0  0  0  0  0  0  0  0  0  0  0  0
   -2.0876    0.2768    4.5574 C   0  0  0  0  0  0  0  0  0  0  0  0
   -3.0253   -0.6096    4.0218 C   0  0  0  0  0  0  0  0  0  0  0  0
   -3.0265   -0.8901    2.6529 C   0  0  0  0  0  0  0  0  0  0  0  0
   -4.2267   -2.0336    1.9669 S   0  0  0  0  0  0  0  0  0  0  0  0
   -5.4464   -0.7282    1.6181 C   0  0  0  0  0  0  0  0  0  0  0  0
   -2.0900   -0.2748    1.8156 C   0  0  0  0  0  0  0  0  0  0  0  0
   -1.1601    0.6221    2.3465 C   0  0  0  0  0  0  0  0  0  0  0  0
    0.2821    1.7363    5.6448 C   0  0  0  0  0  0  0  0  0  0  0  0
    0.7918    0.5253    6.1410 C   0  0  0  0  0  0  0  0  0  0  0  0
    1.3492    0.4678    7.4244 C   0  0  0  0  0  0  0  0  0  0  0  0
    1.3994    1.6200    8.2197 C   0  0  0  0  0  0  0  0  0  0  0  0
    2.1203    1.5550    9.8633 S   0  0  0  0  0  0  0  0  0  0  0  0
    3.7686    2.0840    9.2969 C   0  0  0  0  0  0  0  0  0  0  0  0
    0.8798    2.8242    7.7349 C   0  0  0  0  0  0  0  0  0  0  0  0
    0.3349    2.8869    6.4499 C   0  0  0  0  0  0  0  0  0  0  0  0
    1.7891    2.3909    2.8993 C   0  0  0  0  0  0  0  0  0  0  0  0
    2.5974    0.9293    2.8558 S   0  0  0  0  0  0  0  0  0  0  0  0
    3.6313    1.3788    1.5799 C   0  0  0  0  0  0  0  0  0  0  0  0
    3.3324    2.7065    1.1731 C   0  0  0  0  0  0  0  0  0  0  0  0
    3.9244    3.3825    0.0340 N   0  0  0  0  0  0  0  0  0  0  0  0
    5.2937    3.1257   -0.3360 C   0  0  0  0  0  0  0  0  0  0  0  0
    6.3028    3.0794    0.6384 C   0  0  0  0  0  0  0  0  0  0  0  0
    7.6189    2.7731    0.2834 C   0  0  0  0  0  0  0  0  0  0  0  0
    7.9503    2.5623   -1.0614 C   0  0  0  0  0  0  0  0  0  0  0  0
    9.6259    2.1295   -1.5217 S   0  0  0  0  0  0  0  0  0  0  0  0
   10.1714    3.8607   -1.6695 C   0  0  0  0  0  0  0  0  0  0  0  0
    6.9605    2.6547   -2.0450 C   0  0  0  0  0  0  0  0  0  0  0  0
    5.6389    2.9340   -1.6883 C   0  0  0  0  0  0  0  0  0  0  0  0
    3.1737    4.3467   -0.7336 C   0  0  0  0  0  0  0  0  0  0  0  0
    1.9053    4.0267   -1.2517 C   0  0  0  0  0  0  0  0  0  0  0  0
    1.1735    4.9766   -1.9696 C   0  0  0  0  0  0  0  0  0  0  0  0
    1.7101    6.2482   -2.1998 C   0  0  0  0  0  0  0  0  0  0  0  0
    0.7556    7.4699   -3.0985 S   0  0  0  0  0  0  0  0  0  0  0  0
    1.4253    6.9837   -4.7225 C   0  0  0  0  0  0  0  0  0  0  0  0
    2.9785    6.5711   -1.7034 C   0  0  0  0  0  0  0  0  0  0  0  0
    3.7073    5.6233   -0.9781 C   0  0  0  0  0  0  0  0  0  0  0  0
    2.2936    3.2325    1.9623 C   0  0  0  0  0  0  0  0  0  0  0  0
    1.2295    4.5152    1.7922 S   0  0  0  0  0  0  0  0  0  0  0  0
    4.4846    0.3728    0.8945 C   0  0  0  0  0  0  0  0  0  0  0  0
    4.0764   -0.1247   -0.3657 C   0  0  0  0  0  0  0  0  0  0  0  0
    2.6207    0.5476   -1.2063 S   0  0  0  0  0  0  0  0  0  0  0  0
    1.3891   -0.4965   -0.3409 C   0  0  0  0  0  0  0  0  0  0  0  0
    1.0520   -1.7445   -1.1450 C   0  0  0  0  0  0  0  0  0  0  0  0
    4.7684   -1.1847   -0.9642 C   0  0  0  0  0  0  0  0  0  0  0  0
    4.3319   -1.7223   -2.6426 S   0  0  0  0  0  0  0  0  0  0  0  0
    5.5143   -0.6191   -3.4852 C   0  0  0  0  0  0  0  0  0  0  0  0
    4.8029    0.1520   -4.5867 C   0  0  0  0  0  0  0  0  0  0  0  0
    5.7877   -1.8508   -0.2629 C   0  0  0  0  0  0  0  0  0  0  0  0
    6.2446   -1.3521    0.9857 C   0  0  0  0  0  0  0  0  0  0  0  0
    5.5928   -0.2214    1.5684 C   0  0  0  0  0  0  0  0  0  0  0  0
    6.0772    0.2966    2.8966 C   0  0  0  0  0  0  0  0  0  0  0  0
    5.6452    1.3718    3.3933 O   0  0  0  0  0  0  0  0  0  0  0  0
    7.1017   -0.4490    3.6326 C   0  0  0  0  0  0  0  0  0  0  0  0
    7.7311   -1.5525    3.0651 C   0  0  0  0  0  0  0  0  0  0  0  0
    7.3842   -2.0067    1.7160 C   0  0  0  0  0  0  0  0  0  0  0  0
    8.0705   -2.9303    1.1926 O   0  0  0  0  0  0  0  0  0  0  0  0
    8.6911   -2.1370    3.8848 C   0  0  0  0  0  0  0  0  0  0  0  0
    8.7354   -1.2581    5.3191 S   0  0  0  0  0  0  0  0  0  0  0  0
    7.5495   -0.1362    4.9123 C   0  0  0  0  0  0  0  0  0  0  0  0
    6.2914   -3.1269   -0.8217 C   0  0  0  0  0  0  0  0  0  0  0  0
    5.5747   -4.2684   -0.7606 C   0  0  0  0  0  0  0  0  0  0  0  0
    4.2222   -4.3822   -0.1917 C   0  0  0  0  0  0  0  0  0  0  0  0
    3.6712   -3.5687    0.5984 O   0  0  0  0  0  0  0  0  0  0  0  0
    3.6062   -5.5884   -0.6920 C   0  0  0  0  0  0  0  0  0  0  0  0
    2.2609   -5.9917   -0.5177 C   0  0  0  0  0  0  0  0  0  0  0  0
    1.9249   -7.1356   -1.2154 C   0  0  0  0  0  0  0  0  0  0  0  0
    2.8522   -7.8512   -2.0379 C   0  0  0  0  0  0  0  0  0  0  0  0
    4.1697   -7.4609   -2.2136 C   0  0  0  0  0  0  0  0  0  0  0  0
    4.5421   -6.2878   -1.4962 C   0  0  0  0  0  0  0  0  0  0  0  0
    5.8448   -5.5543   -1.4822 C   0  0  0  0  0  0  0  0  0  0  0  0
    7.0560   -6.0235   -1.8770 C   0  0  0  0  0  0  0  0  0  0  0  0
    8.2825   -5.3249   -1.5835 C   0  0  0  0  0  0  0  0  0  0  0  0
    9.2705   -4.7797   -1.3289 N   0  0  0  0  0  0  0  0  0  0  0  0
    7.2298   -7.3163   -2.4818 C   0  0  0  0  0  0  0  0  0  0  0  0
    7.3973   -8.3489   -2.9778 N   0  0  0  0  0  0  0  0  0  0  0  0
    1.7862   -8.8397   -2.4055 C   0  0  0  0  0  0  0  0  0  0  0  0
    1.8635  -10.2390   -1.7294 C   0  0  0  0  0  0  0  0  0  0  0  0
    0.5125  -10.8789   -1.9438 C   0  0  0  0  0  0  0  0  0  0  0  0
   -0.3512  -10.2044   -1.1735 C   0  0  0  0  0  0  0  0  0  0  0  0
    0.4468   -9.1371   -0.4661 C   0  0  0  0  0  0  0  0  0  0  0  0
    1.7354   -9.9126   -0.2523 C   0  0  0  0  0  0  0  0  0  0  0  0
    0.8389   -8.1048   -1.5633 C   0  0  0  0  0  0  0  0  0  0  0  0
   -8.8232    4.1255   -1.9148 H   0  0  0  0  0  0  0  0  0  0  0  0
   -5.7797   -1.4133   -2.1098 H   0  0  0  0  0  0  0  0  0  0  0  0
   -9.4763   -0.2530   -5.4394 H   0  0  0  0  0  0  0  0  0  0  0  0
   -7.8102   -3.1930   -6.2711 H   0  0  0  0  0  0  0  0  0  0  0  0
  -10.2993   -3.6942   -5.1474 H   0  0  0  0  0  0  0  0  0  0  0  0
   -9.3564   -6.0863   -5.7993 H   0  0  0  0  0  0  0  0  0  0  0  0
   -7.4818   -6.7182   -4.0968 H   0  0  0  0  0  0  0  0  0  0  0  0
   -7.2165   -4.7223   -2.3641 H   0  0  0  0  0  0  0  0  0  0  0  0
   -9.8514   -4.7729   -2.7580 H   0  0  0  0  0  0  0  0  0  0  0  0
   -9.2805   -3.0553   -2.7455 H   0  0  0  0  0  0  0  0  0  0  0  0
   -6.0855   -3.7685   -4.7102 H   0  0  0  0  0  0  0  0  0  0  0  0
   -5.7820    4.9326   -1.8130 H   0  0  0  0  0  0  0  0  0  0  0  0
   -2.1211    5.2909   -1.1989 H   0  0  0  0  0  0  0  0  0  0  0  0
   -3.6876    5.5947   -1.9846 H   0  0  0  0  0  0  0  0  0  0  0  0
   -2.4227    7.4990    0.0867 H   0  0  0  0  0  0  0  0  0  0  0  0
   -2.2584    7.6616   -1.6994 H   0  0  0  0  0  0  0  0  0  0  0  0
   -3.8844    7.8079   -0.9340 H   0  0  0  0  0  0  0  0  0  0  0  0
   -6.6028    3.0640    2.7533 H   0  0  0  0  0  0  0  0  0  0  0  0
   -8.2805    2.7318    0.9434 H   0  0  0  0  0  0  0  0  0  0  0  0
   -4.4342    3.3695    4.0834 H   0  0  0  0  0  0  0  0  0  0  0  0
   -2.0422    3.4419    4.6843 H   0  0  0  0  0  0  0  0  0  0  0  0
   -1.1509    5.3303    0.8772 H   0  0  0  0  0  0  0  0  0  0  0  0
   -2.1193    0.4891    5.6187 H   0  0  0  0  0  0  0  0  0  0  0  0
   -3.7589   -1.0726    4.6729 H   0  0  0  0  0  0  0  0  0  0  0  0
   -5.0077    0.0170    0.9257 H   0  0  0  0  0  0  0  0  0  0  0  0
   -5.7471   -0.2252    2.5609 H   0  0  0  0  0  0  0  0  0  0  0  0
   -6.3417   -1.1827    1.1450 H   0  0  0  0  0  0  0  0  0  0  0  0
   -2.0869   -0.4819    0.7535 H   0  0  0  0  0  0  0  0  0  0  0  0
   -0.4581    1.0965    1.6741 H   0  0  0  0  0  0  0  0  0  0  0  0
    0.7849   -0.3657    5.5226 H   0  0  0  0  0  0  0  0  0  0  0  0
    1.7533   -0.4657    7.7933 H   0  0  0  0  0  0  0  0  0  0  0  0
    4.1892    1.3330    8.5974 H   0  0  0  0  0  0  0  0  0  0  0  0
    3.7059    3.0698    8.7893 H   0  0  0  0  0  0  0  0  0  0  0  0
    4.4421    2.1747   10.1758 H   0  0  0  0  0  0  0  0  0  0  0  0
    0.9148    3.7186    8.3434 H   0  0  0  0  0  0  0  0  0  0  0  0
   -0.0390    3.8315    6.0774 H   0  0  0  0  0  0  0  0  0  0  0  0
    6.0660    3.2763    1.6758 H   0  0  0  0  0  0  0  0  0  0  0  0
    8.3805    2.7053    1.0476 H   0  0  0  0  0  0  0  0  0  0  0  0
   11.2145    3.8781   -2.0418 H   0  0  0  0  0  0  0  0  0  0  0  0
    9.5232    4.4179   -2.3757 H   0  0  0  0  0  0  0  0  0  0  0  0
   10.1415    4.3456   -0.6713 H   0  0  0  0  0  0  0  0  0  0  0  0
    7.2080    2.4946   -3.0870 H   0  0  0  0  0  0  0  0  0  0  0  0
    4.8772    2.9760   -2.4580 H   0  0  0  0  0  0  0  0  0  0  0  0
    1.4617    3.0618   -1.0675 H   0  0  0  0  0  0  0  0  0  0  0  0
    0.1893    4.7272   -2.3484 H   0  0  0  0  0  0  0  0  0  0  0  0
    2.5087    7.2246   -4.7662 H   0  0  0  0  0  0  0  0  0  0  0  0
    1.2813    5.8988   -4.8921 H   0  0  0  0  0  0  0  0  0  0  0  0
    0.8986    7.5453   -5.5191 H   0  0  0  0  0  0  0  0  0  0  0  0
    3.3962    7.5557   -1.8724 H   0  0  0  0  0  0  0  0  0  0  0  0
    4.6821    5.8864   -0.5896 H   0  0  0  0  0  0  0  0  0  0  0  0
    1.7402   -0.7867    0.6695 H   0  0  0  0  0  0  0  0  0  0  0  0
    0.4666    0.1095   -0.2300 H   0  0  0  0  0  0  0  0  0  0  0  0
    0.7246   -1.4638   -2.1676 H   0  0  0  0  0  0  0  0  0  0  0  0
    0.2301   -2.2935   -0.6391 H   0  0  0  0  0  0  0  0  0  0  0  0
    1.9306   -2.4147   -1.2072 H   0  0  0  0  0  0  0  0  0  0  0  0
    5.9821    0.1030   -2.7831 H   0  0  0  0  0  0  0  0  0  0  0  0
    6.3235   -1.2392   -3.9246 H   0  0  0  0  0  0  0  0  0  0  0  0
    5.5294    0.7975   -5.1208 H   0  0  0  0  0  0  0  0  0  0  0  0
    4.0136    0.7991   -4.1440 H   0  0  0  0  0  0  0  0  0  0  0  0
    4.3431   -0.5523   -5.3135 H   0  0  0  0  0  0  0  0  0  0  0  0
    9.3002   -2.9987    3.6489 H   0  0  0  0  0  0  0  0  0  0  0  0
    7.2035    0.6769    5.5371 H   0  0  0  0  0  0  0  0  0  0  0  0
    7.1990   -3.0702   -1.4006 H   0  0  0  0  0  0  0  0  0  0  0  0
    1.5523   -5.4334    0.0801 H   0  0  0  0  0  0  0  0  0  0  0  0
    4.8155   -8.0083   -2.8833 H   0  0  0  0  0  0  0  0  0  0  0  0
    1.5372   -8.8400   -3.4900 H   0  0  0  0  0  0  0  0  0  0  0  0
    2.7356  -10.8628   -2.0190 H   0  0  0  0  0  0  0  0  0  0  0  0
    0.2863  -11.7633   -2.5293 H   0  0  0  0  0  0  0  0  0  0  0  0
   -1.3954  -10.4487   -1.0246 H   0  0  0  0  0  0  0  0  0  0  0  0
   -0.0247   -8.7140    0.4446 H   0  0  0  0  0  0  0  0  0  0  0  0
    1.6075  -10.8142    0.3912 H   0  0  0  0  0  0  0  0  0  0  0  0
    2.5752   -9.3047    0.1519 H   0  0  0  0  0  0  0  0  0  0  0  0
   -0.0101   -7.6427   -2.1180 H   0  0  0  0  0  0  0  0  0  0  0  0
  1  2  2  3
  2  3  1  0
  3  4  2  0
  3  5  1  0
  5  6  2  0
  6  7  1  0
  7  8  2  0
  8  9  1  0
  9 10  2  0
 10 11  1  0
 11 12  2  3
 12 13  1  0
 13 14  3  0
 12 15  1  0
 15 16  3  0
  8 17  1  0
 17 18  1  0
 18 19  1  0
 19 20  2  0
 20 21  1  0
 21 22  1  0
 21 23  1  0
  1 24  1  0
 24 25  2  0
 25 26  1  0
 26 27  1  0
 27 28  1  0
 28 29  1  0
 27 30  1  0
 30 31  2  0
 31 32  1  0
 32 33  1  0
 33 34  2  0
 31 35  1  0
 35 36  2  0
 36 37  1  0
 37 38  2  0
 37 39  1  0
 39 40  2  0
 40 41  1  0
 41 42  1  0
 42 43  2  0
 43 44  1  0
 44 45  2  0
 45 46  1  0
 46 47  1  0
 45 48  1  0
 48 49  2  0
 41 50  1  0
 50 51  2  0
 51 52  1  0
 52 53  2  0
 53 54  1  0
 54 55  1  0
 53 56  1  0
 56 57  2  0
 40 58  1  0
 58 59  1  0
 59 60  1  0
 60 61  2  0
 61 62  1  0
 62 63  1  0
 63 64  2  0
 64 65  1  0
 65 66  2  0
 66 67  1  0
 67 68  1  0
 66 69  1  0
 69 70  2  0
 62 71  1  0
 71 72  2  0
 72 73  1  0
 73 74  2  0
 74 75  1  0
 75 76  1  0
 74 77  1  0
 77 78  2  0
 61 79  1  0
 79 80  1  0
 60 81  1  0
 81 82  2  0
 82 83  1  0
 83 84  1  0
 84 85  1  0
 82 86  1  0
 86 87  1  0
 87 88  1  0
 88 89  1  0
 86 90  2  0
 90 91  1  0
 91 92  2  0
 92 93  1  0
 93 94  2  0
 93 95  1  0
 95 96  1  0
 96 97  1  0
 97 98  2  0
 96 99  2  0
 99100  1  0
100101  1  0
 90102  1  0
102103  2  3
103104  1  0
104105  2  0
104106  1  0
106107  2  0
107108  1  0
108109  2  0
109110  1  0
110111  2  0
111112  1  0
112113  2  3
113114  1  0
114115  3  0
113116  1  0
116117  3  0
109118  1  0
118119  1  0
119120  1  0
120121  2  0
121122  1  0
122123  1  0
122124  1  0
 11  2  1  0
 23 17  1  0
 34 24  1  0
 80 39  1  0
 92 81  1  0
101 95  2  0
112103  1  0
124118  1  0
 10  5  1  0
 22 18  1  0
 32 26  2  0
 49 42  1  0
 57 50  1  0
 79 58  2  0
 97 91  1  0
111106  1  0
123119  1  0
 23  7  1  0
 38 30  1  0
 70 63  1  0
 78 71  1  0
124108  1  0
  1125  1  0
  6126  1  0
  9127  1  0
 17128  1  0
 18129  1  0
 19130  1  0
 20131  1  0
 21132  1  0
 22133  1  0
 22134  1  0
 23135  1  0
 25136  1  0
 28137  1  0
 28138  1  0
 29139  1  0
 29140  1  0
 29141  1  0
 33142  1  0
 34143  1  0
 35144  1  0
 36145  1  0
 38146  1  0
 43147  1  0
 44148  1  0
 47149  1  0
 47150  1  0
 47151  1  0
 48152  1  0
 49153  1  0
 51154  1  0
 52155  1  0
 55156  1  0
 55157  1  0
 55158  1  0
 56159  1  0
 57160  1  0
 64161  1  0
 65162  1  0
 68163  1  0
 68164  1  0
 68165  1  0
 69166  1  0
 70167  1  0
 72168  1  0
 73169  1  0
 76170  1  0
 76171  1  0
 76172  1  0
 77173  1  0
 78174  1  0
 84175  1  0
 84176  1  0
 85177  1  0
 85178  1  0
 85179  1  0
 88180  1  0
 88181  1  0
 89182  1  0
 89183  1  0
 89184  1  0
 99185  1  0
101186  1  0
102187  1  0
107188  1  0
110189  1  0
118190  1  0
119191  1  0
120192  1  0
121193  1  0
122194  1  0
123195  1  0
123196  1  0
124197  1  0
M  END

