
     RDKit          3D

195216  0  0  0  0  0  0  0  0999 V2000
   -0.2238   -8.6370    0.7843 C   0  0  0  0  0  0  0  0  0  0  0  0
   -0.5140   -8.4933    2.0924 C   0  0  0  0  0  0  0  0  0  0  0  0
    0.4850   -8.2348    3.1343 C   0  0  0  0  0  0  0  0  0  0  0  0
    1.7350   -8.3355    3.0065 O   0  0  0  0  0  0  0  0  0  0  0  0
   -0.1899   -7.9518    4.3725 C   0  0  0  0  0  0  0  0  0  0  0  0
    0.4139   -7.5307    5.5797 C   0  0  0  0  0  0  0  0  0  0  0  0
   -0.4884   -7.2083    6.5706 C   0  0  0  0  0  0  0  0  0  0  0  0
   -1.9062   -7.2801    6.3912 C   0  0  0  0  0  0  0  0  0  0  0  0
   -2.5011   -7.7022    5.2130 C   0  0  0  0  0  0  0  0  0  0  0  0
   -1.5885   -8.0729    4.1799 C   0  0  0  0  0  0  0  0  0  0  0  0
   -1.8572   -8.4916    2.7664 C   0  0  0  0  0  0  0  0  0  0  0  0
   -3.0758   -8.7658    2.2166 C   0  0  0  0  0  0  0  0  0  0  0  0
   -3.2726   -9.0779    0.8264 C   0  0  0  0  0  0  0  0  0  0  0  0
   -3.4507   -9.3322   -0.2884 N   0  0  0  0  0  0  0  0  0  0  0  0
   -4.2887   -8.7911    2.9874 C   0  0  0  0  0  0  0  0  0  0  0  0
   -5.2807   -8.8187    3.5857 N   0  0  0  0  0  0  0  0  0  0  0  0
   -2.1246   -6.7353    7.7696 C   0  0  0  0  0  0  0  0  0  0  0  0
   -2.5729   -5.2462    7.8667 C   0  0  0  0  0  0  0  0  0  0  0  0
   -2.3432   -4.8347    9.3004 C   0  0  0  0  0  0  0  0  0  0  0  0
   -1.0170   -4.7780    9.4720 C   0  0  0  0  0  0  0  0  0  0  0  0
   -0.3972   -5.1471    8.1441 C   0  0  0  0  0  0  0  0  0  0  0  0
   -1.4164   -4.4975    7.2218 C   0  0  0  0  0  0  0  0  0  0  0  0
   -0.6720   -6.6665    7.9545 C   0  0  0  0  0  0  0  0  0  0  0  0
    0.9771   -8.0512    0.1604 C   0  0  0  0  0  0  0  0  0  0  0  0
    1.4972   -8.4325   -1.0723 C   0  0  0  0  0  0  0  0  0  0  0  0
    2.4083   -7.5051   -1.6032 C   0  0  0  0  0  0  0  0  0  0  0  0
    3.1984   -7.7657   -3.1520 Cl  0  0  0  0  0  0  0  0  0  0  0  0
    2.5857   -6.3722   -0.8048 C   0  0  0  0  0  0  0  0  0  0  0  0
    1.6065   -6.5387    0.5473 S   0  0  0  0  0  0  0  0  0  0  0  0
    3.2356   -5.1014   -1.1646 C   0  0  0  0  0  0  0  0  0  0  0  0
    3.1655   -4.4952   -2.4177 C   0  0  0  0  0  0  0  0  0  0  0  0
    3.4818   -3.1273   -2.3893 C   0  0  0  0  0  0  0  0  0  0  0  0
    3.3017   -2.2196   -3.4508 C   0  0  0  0  0  0  0  0  0  0  0  0
    2.8467   -2.6423   -4.7882 C   0  0  0  0  0  0  0  0  0  0  0  0
    3.7040   -2.5036   -5.8889 C   0  0  0  0  0  0  0  0  0  0  0  0
    3.2478   -2.7918   -7.1757 C   0  0  0  0  0  0  0  0  0  0  0  0
    1.9283   -3.2182   -7.3747 C   0  0  0  0  0  0  0  0  0  0  0  0
    1.3057   -3.4677   -9.0397 S   0  0  0  0  0  0  0  0  0  0  0  0
    1.6147   -5.2690   -9.0855 C   0  0  0  0  0  0  0  0  0  0  0  0
    3.0728   -5.5643   -9.4166 C   0  0  0  0  0  0  0  0  0  0  0  0
    1.0758   -3.3759   -6.2760 C   0  0  0  0  0  0  0  0  0  0  0  0
    1.5306   -3.0869   -4.9866 C   0  0  0  0  0  0  0  0  0  0  0  0
    3.4339   -0.8581   -3.1486 C   0  0  0  0  0  0  0  0  0  0  0  0
    3.7921   -0.3934   -1.8777 C   0  0  0  0  0  0  0  0  0  0  0  0
    4.0275   -1.3031   -0.8216 C   0  0  0  0  0  0  0  0  0  0  0  0
    4.2974   -0.8667    0.5749 C   0  0  0  0  0  0  0  0  0  0  0  0
    3.4050   -0.0190    1.2547 C   0  0  0  0  0  0  0  0  0  0  0  0
    3.6447    0.3401    2.5864 C   0  0  0  0  0  0  0  0  0  0  0  0
    4.7618   -0.1693    3.2578 C   0  0  0  0  0  0  0  0  0  0  0  0
    5.0236    0.2132    4.9912 S   0  0  0  0  0  0  0  0  0  0  0  0
    3.9316   -1.1266    5.5784 C   0  0  0  0  0  0  0  0  0  0  0  0
    4.1469   -1.3673    7.0640 C   0  0  0  0  0  0  0  0  0  0  0  0
    5.6464   -1.0218    2.5921 C   0  0  0  0  0  0  0  0  0  0  0  0
    5.4221   -1.3630    1.2538 C   0  0  0  0  0  0  0  0  0  0  0  0
    3.8434   -2.6676   -1.1175 C   0  0  0  0  0  0  0  0  0  0  0  0
    3.7102   -3.9469   -0.0280 S   0  0  0  0  0  0  0  0  0  0  0  0
    3.6705    0.9979   -1.7567 C   0  0  0  0  0  0  0  0  0  0  0  0
    3.0866    1.6072   -2.8657 C   0  0  0  0  0  0  0  0  0  0  0  0
    2.8635    0.4331   -4.0534 S   0  0  0  0  0  0  0  0  0  0  0  0
    2.1480    2.7213   -2.6855 C   0  0  0  0  0  0  0  0  0  0  0  0
    2.3808    3.8405   -1.8707 C   0  0  0  0  0  0  0  0  0  0  0  0
    3.6515    4.4967   -1.7598 N   0  0  0  0  0  0  0  0  0  0  0  0
    3.9345    5.4222   -2.8232 C   0  0  0  0  0  0  0  0  0  0  0  0
    4.1939    4.9463   -4.1171 C   0  0  0  0  0  0  0  0  0  0  0  0
    4.1968    5.8242   -5.2027 C   0  0  0  0  0  0  0  0  0  0  0  0
    3.9254    7.1816   -5.0063 C   0  0  0  0  0  0  0  0  0  0  0  0
    3.7637    8.2731   -6.4188 S   0  0  0  0  0  0  0  0  0  0  0  0
    1.9887    7.9066   -6.6340 C   0  0  0  0  0  0  0  0  0  0  0  0
    3.7153    7.6723   -3.7126 C   0  0  0  0  0  0  0  0  0  0  0  0
    3.7223    6.7958   -2.6235 C   0  0  0  0  0  0  0  0  0  0  0  0
    4.4150    4.4901   -0.5273 C   0  0  0  0  0  0  0  0  0  0  0  0
    3.9373    3.8207    0.6218 C   0  0  0  0  0  0  0  0  0  0  0  0
    4.6869    3.8116    1.8045 C   0  0  0  0  0  0  0  0  0  0  0  0
    5.9137    4.4756    1.8641 C   0  0  0  0  0  0  0  0  0  0  0  0
    6.8496    4.5201    3.3980 S   0  0  0  0  0  0  0  0  0  0  0  0
    7.6309    2.8920    3.1400 C   0  0  0  0  0  0  0  0  0  0  0  0
    6.4008    5.1360    0.7328 C   0  0  0  0  0  0  0  0  0  0  0  0
    5.6622    5.1411   -0.4538 C   0  0  0  0  0  0  0  0  0  0  0  0
    1.1876    4.4204   -1.4520 C   0  0  0  0  0  0  0  0  0  0  0  0
    0.7898    5.6395   -0.3812 S   0  0  0  0  0  0  0  0  0  0  0  0
   -0.8922    5.3560   -0.4516 C   0  0  0  0  0  0  0  0  0  0  0  0
   -1.1336    4.2889   -1.3527 C   0  0  0  0  0  0  0  0  0  0  0  0
   -2.4231    3.8289   -1.7986 N   0  0  0  0  0  0  0  0  0  0  0  0
   -3.1960    4.6490   -2.7081 C   0  0  0  0  0  0  0  0  0  0  0  0
   -4.5901    4.4680   -2.8156 C   0  0  0  0  0  0  0  0  0  0  0  0
   -5.3534    5.3033   -3.6359 C   0  0  0  0  0  0  0  0  0  0  0  0
   -4.7392    6.3282   -4.3621 C   0  0  0  0  0  0  0  0  0  0  0  0
   -5.7233    7.4350   -5.3719 S   0  0  0  0  0  0  0  0  0  0  0  0
   -5.9428    8.6457   -4.0293 C   0  0  0  0  0  0  0  0  0  0  0  0
   -3.3516    6.4974   -4.2892 C   0  0  0  0  0  0  0  0  0  0  0  0
   -2.5843    5.6654   -3.4705 C   0  0  0  0  0  0  0  0  0  0  0  0
   -2.7662    2.4417   -1.6029 C   0  0  0  0  0  0  0  0  0  0  0  0
   -2.7149    1.8665   -0.3222 C   0  0  0  0  0  0  0  0  0  0  0  0
   -3.0855    0.5310   -0.1294 C   0  0  0  0  0  0  0  0  0  0  0  0
   -3.4941   -0.2535   -1.2205 C   0  0  0  0  0  0  0  0  0  0  0  0
   -3.9329   -1.9751   -0.9852 S   0  0  0  0  0  0  0  0  0  0  0  0
   -5.7093   -1.6377   -0.7622 C   0  0  0  0  0  0  0  0  0  0  0  0
   -3.5236    0.3078   -2.5005 C   0  0  0  0  0  0  0  0  0  0  0  0
   -3.1641    1.6424   -2.6928 C   0  0  0  0  0  0  0  0  0  0  0  0
    0.0622    3.8004   -1.8731 C   0  0  0  0  0  0  0  0  0  0  0  0
    0.4634    2.4878   -2.8258 S   0  0  0  0  0  0  0  0  0  0  0  0
   -1.7828    5.8640    0.6142 C   0  0  0  0  0  0  0  0  0  0  0  0
   -3.0170    5.3829    0.7785 C   0  0  0  0  0  0  0  0  0  0  0  0
   -4.1588    5.9470    0.0595 C   0  0  0  0  0  0  0  0  0  0  0  0
   -4.0924    6.7767   -0.8859 O   0  0  0  0  0  0  0  0  0  0  0  0
   -5.3747    5.5743    0.7484 C   0  0  0  0  0  0  0  0  0  0  0  0
   -6.7041    5.7636    0.2991 C   0  0  0  0  0  0  0  0  0  0  0  0
   -7.6607    5.2108    1.1315 C   0  0  0  0  0  0  0  0  0  0  0  0
   -7.3322    4.5126    2.3381 C   0  0  0  0  0  0  0  0  0  0  0  0
   -6.0368    4.3228    2.7825 C   0  0  0  0  0  0  0  0  0  0  0  0
   -5.0363    4.8979    1.9497 C   0  0  0  0  0  0  0  0  0  0  0  0
   -3.5563    4.7980    2.0414 C   0  0  0  0  0  0  0  0  0  0  0  0
   -2.8245    4.1901    3.0097 C   0  0  0  0  0  0  0  0  0  0  0  0
   -3.3809    3.7950    4.2764 C   0  0  0  0  0  0  0  0  0  0  0  0
   -3.8040    3.4830    5.3064 N   0  0  0  0  0  0  0  0  0  0  0  0
   -1.4212    3.9013    2.8308 C   0  0  0  0  0  0  0  0  0  0  0  0
   -0.2993    3.6606    2.6861 N   0  0  0  0  0  0  0  0  0  0  0  0
   -8.7752    4.2126    2.5790 C   0  0  0  0  0  0  0  0  0  0  0  0
   -9.2290    2.7497    2.3006 C   0  0  0  0  0  0  0  0  0  0  0  0
  -10.7362    2.7882    2.2311 C   0  0  0  0  0  0  0  0  0  0  0  0
  -11.0475    3.4345    1.1011 C   0  0  0  0  0  0  0  0  0  0  0  0
   -9.7396    3.8063    0.4446 C   0  0  0  0  0  0  0  0  0  0  0  0
   -8.9333    2.5745    0.8196 C   0  0  0  0  0  0  0  0  0  0  0  0
   -9.1164    4.9218    1.3418 C   0  0  0  0  0  0  0  0  0  0  0  0
   -0.9320   -9.0508    0.0913 H   0  0  0  0  0  0  0  0  0  0  0  0
    1.4811   -7.4233    5.7054 H   0  0  0  0  0  0  0  0  0  0  0  0
   -3.5705   -7.6764    5.1199 H   0  0  0  0  0  0  0  0  0  0  0  0
   -2.6410   -7.4463    8.4544 H   0  0  0  0  0  0  0  0  0  0  0  0
   -3.5797   -5.0192    7.4582 H   0  0  0  0  0  0  0  0  0  0  0  0
   -3.0916   -4.5435   10.0291 H   0  0  0  0  0  0  0  0  0  0  0  0
   -0.5028   -4.4274   10.3609 H   0  0  0  0  0  0  0  0  0  0  0  0
    0.6585   -4.8281    8.0076 H   0  0  0  0  0  0  0  0  0  0  0  0
   -1.4812   -3.3894    7.3469 H   0  0  0  0  0  0  0  0  0  0  0  0
   -1.2627   -4.7269    6.1426 H   0  0  0  0  0  0  0  0  0  0  0  0
   -0.2732   -7.3383    8.7476 H   0  0  0  0  0  0  0  0  0  0  0  0
    1.1908   -9.3284   -1.5992 H   0  0  0  0  0  0  0  0  0  0  0  0
    2.7622   -4.9925   -3.2896 H   0  0  0  0  0  0  0  0  0  0  0  0
    4.7201   -2.1510   -5.7465 H   0  0  0  0  0  0  0  0  0  0  0  0
    3.9108   -2.6592   -8.0187 H   0  0  0  0  0  0  0  0  0  0  0  0
    1.3410   -5.7457   -8.1200 H   0  0  0  0  0  0  0  0  0  0  0  0
    0.9720   -5.7021   -9.8835 H   0  0  0  0  0  0  0  0  0  0  0  0
    3.7301   -5.2644   -8.5708 H   0  0  0  0  0  0  0  0  0  0  0  0
    3.2016   -6.6533   -9.5958 H   0  0  0  0  0  0  0  0  0  0  0  0
    3.3854   -5.0136  -10.3312 H   0  0  0  0  0  0  0  0  0  0  0  0
    0.0541   -3.6961   -6.4222 H   0  0  0  0  0  0  0  0  0  0  0  0
    0.8537   -3.1831   -4.1463 H   0  0  0  0  0  0  0  0  0  0  0  0
    2.5087    0.3442    0.7681 H   0  0  0  0  0  0  0  0  0  0  0  0
    2.9457    0.9895    3.1016 H   0  0  0  0  0  0  0  0  0  0  0  0
    2.8731   -0.8397    5.4022 H   0  0  0  0  0  0  0  0  0  0  0  0
    4.1500   -2.0658    5.0273 H   0  0  0  0  0  0  0  0  0  0  0  0
    3.9928   -0.4269    7.6354 H   0  0  0  0  0  0  0  0  0  0  0  0
    3.4263   -2.1345    7.4204 H   0  0  0  0  0  0  0  0  0  0  0  0
    5.1805   -1.7384    7.2418 H   0  0  0  0  0  0  0  0  0  0  0  0
    6.5014   -1.4314    3.1137 H   0  0  0  0  0  0  0  0  0  0  0  0
    6.1081   -2.0368    0.7612 H   0  0  0  0  0  0  0  0  0  0  0  0
    3.8303    1.5219   -0.8323 H   0  0  0  0  0  0  0  0  0  0  0  0
    4.3388    3.8883   -4.2873 H   0  0  0  0  0  0  0  0  0  0  0  0
    4.3608    5.4416   -6.2023 H   0  0  0  0  0  0  0  0  0  0  0  0
    1.4237    8.2120   -5.7267 H   0  0  0  0  0  0  0  0  0  0  0  0
    1.5998    8.4680   -7.5082 H   0  0  0  0  0  0  0  0  0  0  0  0
    1.8404    6.8193   -6.8127 H   0  0  0  0  0  0  0  0  0  0  0  0
    3.4987    8.7213   -3.5556 H   0  0  0  0  0  0  0  0  0  0  0  0
    3.4935    7.1708   -1.6350 H   0  0  0  0  0  0  0  0  0  0  0  0
    2.9930    3.2977    0.6119 H   0  0  0  0  0  0  0  0  0  0  0  0
    4.3094    3.2917    2.6744 H   0  0  0  0  0  0  0  0  0  0  0  0
    6.9142    2.0891    3.4265 H   0  0  0  0  0  0  0  0  0  0  0  0
    8.5288    2.8144    3.7912 H   0  0  0  0  0  0  0  0  0  0  0  0
    7.9393    2.7571    2.0801 H   0  0  0  0  0  0  0  0  0  0  0  0
    7.3478    5.6591    0.7756 H   0  0  0  0  0  0  0  0  0  0  0  0
    6.0720    5.6543   -1.3122 H   0  0  0  0  0  0  0  0  0  0  0  0
   -5.0954    3.7083   -2.2340 H   0  0  0  0  0  0  0  0  0  0  0  0
   -6.4235    5.1625   -3.6945 H   0  0  0  0  0  0  0  0  0  0  0  0
   -6.4994    8.1831   -3.1863 H   0  0  0  0  0  0  0  0  0  0  0  0
   -6.5206    9.5123   -4.4099 H   0  0  0  0  0  0  0  0  0  0  0  0
   -4.9550    9.0059   -3.6685 H   0  0  0  0  0  0  0  0  0  0  0  0
   -2.8727    7.2876   -4.8503 H   0  0  0  0  0  0  0  0  0  0  0  0
   -1.5186    5.8330   -3.4232 H   0  0  0  0  0  0  0  0  0  0  0  0
   -2.3989    2.4571    0.5257 H   0  0  0  0  0  0  0  0  0  0  0  0
   -3.0517    0.1021    0.8642 H   0  0  0  0  0  0  0  0  0  0  0  0
   -6.0908   -0.9838   -1.5745 H   0  0  0  0  0  0  0  0  0  0  0  0
   -5.8831   -1.1562    0.2221 H   0  0  0  0  0  0  0  0  0  0  0  0
   -6.2656   -2.5960   -0.7922 H   0  0  0  0  0  0  0  0  0  0  0  0
   -3.8272   -0.2913   -3.3502 H   0  0  0  0  0  0  0  0  0  0  0  0
   -3.1933    2.0550   -3.6933 H   0  0  0  0  0  0  0  0  0  0  0  0
   -1.2446    6.1698    1.5005 H   0  0  0  0  0  0  0  0  0  0  0  0
   -6.9496    6.2525   -0.6341 H   0  0  0  0  0  0  0  0  0  0  0  0
   -5.8404    3.7407    3.6651 H   0  0  0  0  0  0  0  0  0  0  0  0
   -9.1799    4.6791    3.5064 H   0  0  0  0  0  0  0  0  0  0  0  0
   -8.8037    1.9792    2.9763 H   0  0  0  0  0  0  0  0  0  0  0  0
  -11.4372    2.3036    2.9013 H   0  0  0  0  0  0  0  0  0  0  0  0
  -12.0445    3.5600    0.6982 H   0  0  0  0  0  0  0  0  0  0  0  0
   -9.7982    4.0404   -0.6401 H   0  0  0  0  0  0  0  0  0  0  0  0
   -7.8500    2.6369    0.5625 H   0  0  0  0  0  0  0  0  0  0  0  0
   -9.3454    1.6264    0.3937 H   0  0  0  0  0  0  0  0  0  0  0  0
   -9.7375    5.8352    1.4852 H   0  0  0  0  0  0  0  0  0  0  0  0
  1  2  2  3
  2  3  1  0
  3  4  2  0
  3  5  1  0
  5  6  2  0
  6  7  1  0
  7  8  2  0
  8  9  1  0
  9 10  2  0
 10 11  1  0
 11 12  2  3
 12 13  1  0
 13 14  3  0
 12 15  1  0
 15 16  3  0
  8 17  1  0
 17 18  1  0
 18 19  1  0
 19 20  2  0
 20 21  1  0
 21 22  1  0
 21 23  1  0
  1 24  1  0
 24 25  2  0
 25 26  1  0
 26 27  1  0
 26 28  2  0
 28 29  1  0
 28 30  1  0
 30 31  2  0
 31 32  1  0
 32 33  2  0
 33 34  1  0
 34 35  2  0
 35 36  1  0
 36 37  2  0
 37 38  1  0
 38 39  1  0
 39 40  1  0
 37 41  1  0
 41 42  2  0
 33 43  1  0
 43 44  2  0
 44 45  1  0
 45 46  1  0
 46 47  2  0
 47 48  1  0
 48 49  2  0
 49 50  1  0
 50 51  1  0
 51 52  1  0
 49 53  1  0
 53 54  2  0
 45 55  2  0
 55 56  1  0
 44 57  1  0
 57 58  2  0
 58 59  1  0
 58 60  1  0
 60 61  2  0
 61 62  1  0
 62 63  1  0
 63 64  2  0
 64 65  1  0
 65 66  2  0
 66 67  1  0
 67 68  1  0
 66 69  1  0
 69 70  2  0
 62 71  1  0
 71 72  2  0
 72 73  1  0
 73 74  2  0
 74 75  1  0
 75 76  1  0
 74 77  1  0
 77 78  2  0
 61 79  1  0
 79 80  1  0
 80 81  1  0
 81 82  2  0
 82 83  1  0
 83 84  1  0
 84 85  2  0
 85 86  1  0
 86 87  2  0
 87 88  1  0
 88 89  1  0
 87 90  1  0
 90 91  2  0
 83 92  1  0
 92 93  2  0
 93 94  1  0
 94 95  2  0
 95 96  1  0
 96 97  1  0
 95 98  1  0
 98 99  2  0
 82100  1  0
100101  1  0
 81102  1  0
102103  2  3
103104  1  0
104105  2  0
104106  1  0
106107  2  0
107108  1  0
108109  2  0
109110  1  0
110111  2  0
111112  1  0
112113  2  3
113114  1  0
114115  3  0
113116  1  0
116117  3  0
109118  1  0
118119  1  0
119120  1  0
120121  2  0
121122  1  0
122123  1  0
122124  1  0
 11  2  1  0
 23 17  1  0
 29 24  1  0
 56 30  1  0
101 60  1  0
112103  1  0
124118  1  0
 10  5  1  0
 22 18  1  0
 55 32  1  0
 70 63  1  0
 78 71  1  0
100 79  2  0
111106  1  0
123119  1  0
 23  7  1  0
 42 34  1  0
 59 43  1  0
 91 84  1  0
 99 92  1  0
124108  1  0
 54 46  1  0
  1125  1  0
  6126  1  0
  9127  1  0
 17128  1  0
 18129  1  0
 19130  1  0
 20131  1  0
 21132  1  0
 22133  1  0
 22134  1  0
 23135  1  0
 25136  1  0
 31137  1  0
 35138  1  0
 36139  1  0
 39140  1  0
 39141  1  0
 40142  1  0
 40143  1  0
 40144  1  0
 41145  1  0
 42146  1  0
 47147  1  0
 48148  1  0
 51149  1  0
 51150  1  0
 52151  1  0
 52152  1  0
 52153  1  0
 53154  1  0
 54155  1  0
 57156  1  0
 64157  1  0
 65158  1  0
 68159  1  0
 68160  1  0
 68161  1  0
 69162  1  0
 70163  1  0
 72164  1  0
 73165  1  0
 76166  1  0
 76167  1  0
 76168  1  0
 77169  1  0
 78170  1  0
 85171  1  0
 86172  1  0
 89173  1  0
 89174  1  0
 89175  1  0
 90176  1  0
 91177  1  0
 93178  1  0
 94179  1  0
 97180  1  0
 97181  1  0
 97182  1  0
 98183  1  0
 99184  1  0
102185  1  0
107186  1  0
110187  1  0
118188  1  0
119189  1  0
120190  1  0
121191  1  0
122192  1  0
123193  1  0
123194  1  0
124195  1  0
M  END

