
     RDKit          3D

121134  0  0  0  0  0  0  0  0999 V2000
   -7.3602    0.7404    3.0249 C   0  0  0  0  0  0  0  0  0  0  0  0
   -6.8116    0.5394    4.2384 C   0  0  0  0  0  0  0  0  0  0  0  0
   -6.0734    1.5481    4.9977 C   0  0  0  0  0  0  0  0  0  0  0  0
   -5.9698    2.7690    4.6971 O   0  0  0  0  0  0  0  0  0  0  0  0
   -5.5713    0.9422    6.2065 C   0  0  0  0  0  0  0  0  0  0  0  0
   -4.6610    1.5214    7.1191 C   0  0  0  0  0  0  0  0  0  0  0  0
   -4.1743    0.6366    8.0583 C   0  0  0  0  0  0  0  0  0  0  0  0
   -4.5759   -0.7347    8.1210 C   0  0  0  0  0  0  0  0  0  0  0  0
   -5.4890   -1.2998    7.2507 C   0  0  0  0  0  0  0  0  0  0  0  0
   -5.9976   -0.4160    6.2590 C   0  0  0  0  0  0  0  0  0  0  0  0
   -6.8228   -0.7222    5.0474 C   0  0  0  0  0  0  0  0  0  0  0  0
   -7.2928   -1.9407    4.6602 C   0  0  0  0  0  0  0  0  0  0  0  0
   -7.7992   -2.1945    3.3386 C   0  0  0  0  0  0  0  0  0  0  0  0
   -8.1986   -2.4154    2.2761 N   0  0  0  0  0  0  0  0  0  0  0  0
   -7.2350   -3.1075    5.4952 C   0  0  0  0  0  0  0  0  0  0  0  0
   -7.1864   -4.0645    6.1417 N   0  0  0  0  0  0  0  0  0  0  0  0
   -3.5929   -0.9941    9.2197 C   0  0  0  0  0  0  0  0  0  0  0  0
   -2.2853   -1.7640    8.8517 C   0  0  0  0  0  0  0  0  0  0  0  0
   -1.8950   -1.4710    7.4220 C   0  0  0  0  0  0  0  0  0  0  0  0
   -1.5240   -0.1901    7.3828 C   0  0  0  0  0  0  0  0  0  0  0  0
   -1.6791    0.3445    8.7883 C   0  0  0  0  0  0  0  0  0  0  0  0
   -1.2644   -0.8933    9.5614 C   0  0  0  0  0  0  0  0  0  0  0  0
   -3.1879    0.4149    9.1667 C   0  0  0  0  0  0  0  0  0  0  0  0
   -6.5950    1.2705    1.8565 C   0  0  0  0  0  0  0  0  0  0  0  0
   -5.2112    1.5751    1.9374 C   0  0  0  0  0  0  0  0  0  0  0  0
   -4.4749    1.6871    0.7565 C   0  0  0  0  0  0  0  0  0  0  0  0
   -3.1246    1.7548    0.6424 N   0  0  0  0  0  0  0  0  0  0  0  0
   -2.1521    1.9675    1.7251 C   0  0  0  0  0  0  0  0  0  0  0  0
   -1.9702    3.4582    1.9794 C   0  0  0  0  0  0  0  0  0  0  0  0
   -2.8741    1.5571   -0.6767 C   0  0  0  0  0  0  0  0  0  0  0  0
   -4.0489    1.3914   -1.3887 C   0  0  0  0  0  0  0  0  0  0  0  0
   -5.0740    1.4972   -0.4729 C   0  0  0  0  0  0  0  0  0  0  0  0
   -6.4415    1.2577   -0.6009 C   0  0  0  0  0  0  0  0  0  0  0  0
   -7.2040    1.1763    0.5740 C   0  0  0  0  0  0  0  0  0  0  0  0
   -4.0525    0.9921   -2.7249 C   0  0  0  0  0  0  0  0  0  0  0  0
   -2.8146    0.7060   -3.3315 C   0  0  0  0  0  0  0  0  0  0  0  0
   -1.6078    0.8232   -2.5964 C   0  0  0  0  0  0  0  0  0  0  0  0
   -1.6340    1.3264   -1.2756 C   0  0  0  0  0  0  0  0  0  0  0  0
   -0.3613    0.1967   -3.0847 C   0  0  0  0  0  0  0  0  0  0  0  0
    0.2136   -0.8333   -2.3152 C   0  0  0  0  0  0  0  0  0  0  0  0
   -0.4161   -1.3072   -1.2079 F   0  0  0  0  0  0  0  0  0  0  0  0
    1.4557   -1.3625   -2.6578 C   0  0  0  0  0  0  0  0  0  0  0  0
    2.0132   -2.3130   -1.8622 F   0  0  0  0  0  0  0  0  0  0  0  0
    2.1471   -0.8826   -3.7779 C   0  0  0  0  0  0  0  0  0  0  0  0
    1.5598    0.1088   -4.5866 C   0  0  0  0  0  0  0  0  0  0  0  0
    2.2155    0.5983   -5.6691 N   0  0  0  0  0  0  0  0  0  0  0  0
    1.6880    1.5780   -6.4529 C   0  0  0  0  0  0  0  0  0  0  0  0
    2.5178    2.0680   -7.6088 C   0  0  0  0  0  0  0  0  0  0  0  0
    2.2134    1.2780   -8.8748 C   0  0  0  0  0  0  0  0  0  0  0  0
    0.3913    2.0683   -6.1519 C   0  0  0  0  0  0  0  0  0  0  0  0
   -0.2475    1.5972   -5.0472 N   0  0  0  0  0  0  0  0  0  0  0  0
    0.2946    0.6353   -4.2517 C   0  0  0  0  0  0  0  0  0  0  0  0
   -0.2886    3.1443   -6.9598 C   0  0  0  0  0  0  0  0  0  0  0  0
   -0.1560    4.5070   -6.2749 C   0  0  0  0  0  0  0  0  0  0  0  0
    3.5354   -1.3306   -3.9819 C   0  0  0  0  0  0  0  0  0  0  0  0
    4.5576   -0.7778   -3.2140 C   0  0  0  0  0  0  0  0  0  0  0  0
    4.4908    0.2597   -2.3632 N   0  0  0  0  0  0  0  0  0  0  0  0
    5.6741    0.2800   -1.7595 N   0  0  0  0  0  0  0  0  0  0  0  0
    6.0090    1.2220   -0.6989 C   0  0  0  0  0  0  0  0  0  0  0  0
    5.3199    0.8163    0.5994 C   0  0  0  0  0  0  0  0  0  0  0  0
    6.4774   -0.7061   -2.1529 N   0  0  0  0  0  0  0  0  0  0  0  0
    5.7758   -1.3655   -3.0918 C   0  0  0  0  0  0  0  0  0  0  0  0
    6.0854   -2.5623   -3.7371 C   0  0  0  0  0  0  0  0  0  0  0  0
    5.1021   -3.1144   -4.5936 C   0  0  0  0  0  0  0  0  0  0  0  0
    3.8326   -2.4985   -4.7145 C   0  0  0  0  0  0  0  0  0  0  0  0
    2.8687   -3.0980   -5.4562 F   0  0  0  0  0  0  0  0  0  0  0  0
    5.3415   -4.2832   -5.2386 F   0  0  0  0  0  0  0  0  0  0  0  0
    7.2685   -3.3390   -3.3369 C   0  0  0  0  0  0  0  0  0  0  0  0
    7.2107   -4.2319   -2.3365 C   0  0  0  0  0  0  0  0  0  0  0  0
    8.3331   -4.9988   -1.7875 C   0  0  0  0  0  0  0  0  0  0  0  0
    9.5259   -4.9746   -2.2040 O   0  0  0  0  0  0  0  0  0  0  0  0
    7.8485   -5.7736   -0.6501 C   0  0  0  0  0  0  0  0  0  0  0  0
    8.5433   -6.6271    0.2100 C   0  0  0  0  0  0  0  0  0  0  0  0
    7.8307   -7.2341    1.2607 C   0  0  0  0  0  0  0  0  0  0  0  0
    6.4488   -6.9806    1.4297 C   0  0  0  0  0  0  0  0  0  0  0  0
    5.7683   -6.1192    0.5510 C   0  0  0  0  0  0  0  0  0  0  0  0
    6.4960   -5.5276   -0.4820 C   0  0  0  0  0  0  0  0  0  0  0  0
    6.0500   -4.5891   -1.5019 C   0  0  0  0  0  0  0  0  0  0  0  0
    4.8714   -4.1545   -1.6255 O   0  0  0  0  0  0  0  0  0  0  0  0
   -8.2465    0.1809    2.7685 H   0  0  0  0  0  0  0  0  0  0  0  0
   -4.3013    2.5388    7.0318 H   0  0  0  0  0  0  0  0  0  0  0  0
   -5.7009   -2.3509    7.3141 H   0  0  0  0  0  0  0  0  0  0  0  0
   -4.0628   -1.2948   10.1841 H   0  0  0  0  0  0  0  0  0  0  0  0
   -2.2727   -2.8371    9.1277 H   0  0  0  0  0  0  0  0  0  0  0  0
   -1.8677   -2.1676    6.5917 H   0  0  0  0  0  0  0  0  0  0  0  0
   -1.1311    0.3321    6.5160 H   0  0  0  0  0  0  0  0  0  0  0  0
   -1.0911    1.2587    9.0108 H   0  0  0  0  0  0  0  0  0  0  0  0
   -0.2094   -1.2085    9.3681 H   0  0  0  0  0  0  0  0  0  0  0  0
   -1.4351   -0.8172   10.6593 H   0  0  0  0  0  0  0  0  0  0  0  0
   -3.4152    0.9808   10.0967 H   0  0  0  0  0  0  0  0  0  0  0  0
   -4.6884    1.5869    2.8796 H   0  0  0  0  0  0  0  0  0  0  0  0
   -2.4845    1.4642    2.6541 H   0  0  0  0  0  0  0  0  0  0  0  0
   -1.1709    1.5173    1.4729 H   0  0  0  0  0  0  0  0  0  0  0  0
   -1.2652    3.6241    2.8287 H   0  0  0  0  0  0  0  0  0  0  0  0
   -1.5557    3.9392    1.0611 H   0  0  0  0  0  0  0  0  0  0  0  0
   -2.9548    3.9255    2.2154 H   0  0  0  0  0  0  0  0  0  0  0  0
   -6.8922    1.0758   -1.5686 H   0  0  0  0  0  0  0  0  0  0  0  0
   -8.2557    0.9429    0.4888 H   0  0  0  0  0  0  0  0  0  0  0  0
   -4.9826    0.8208   -3.2561 H   0  0  0  0  0  0  0  0  0  0  0  0
   -2.8027    0.3130   -4.3376 H   0  0  0  0  0  0  0  0  0  0  0  0
   -0.7177    1.4016   -0.7055 H   0  0  0  0  0  0  0  0  0  0  0  0
    3.5949    1.9362   -7.3615 H   0  0  0  0  0  0  0  0  0  0  0  0
    2.3649    3.1520   -7.7774 H   0  0  0  0  0  0  0  0  0  0  0  0
    2.3321    0.1909   -8.6936 H   0  0  0  0  0  0  0  0  0  0  0  0
    2.9223    1.5772   -9.6787 H   0  0  0  0  0  0  0  0  0  0  0  0
    1.1751    1.4726   -9.2237 H   0  0  0  0  0  0  0  0  0  0  0  0
   -1.3684    2.8941   -7.0570 H   0  0  0  0  0  0  0  0  0  0  0  0
    0.1161    3.2027   -7.9920 H   0  0  0  0  0  0  0  0  0  0  0  0
   -0.9518    4.6108   -5.5120 H   0  0  0  0  0  0  0  0  0  0  0  0
   -0.2759    5.3151   -7.0246 H   0  0  0  0  0  0  0  0  0  0  0  0
    0.8260    4.6161   -5.7722 H   0  0  0  0  0  0  0  0  0  0  0  0
    7.1099    1.2486   -0.5403 H   0  0  0  0  0  0  0  0  0  0  0  0
    5.6736    2.2427   -0.9879 H   0  0  0  0  0  0  0  0  0  0  0  0
    4.2183    0.7847    0.4562 H   0  0  0  0  0  0  0  0  0  0  0  0
    5.5549    1.5545    1.3954 H   0  0  0  0  0  0  0  0  0  0  0  0
    5.6720   -0.1879    0.9239 H   0  0  0  0  0  0  0  0  0  0  0  0
    8.2172   -3.1310   -3.8231 H   0  0  0  0  0  0  0  0  0  0  0  0
    9.6035   -6.8158    0.0784 H   0  0  0  0  0  0  0  0  0  0  0  0
    8.3439   -7.8959    1.9465 H   0  0  0  0  0  0  0  0  0  0  0  0
    5.9133   -7.4507    2.2457 H   0  0  0  0  0  0  0  0  0  0  0  0
    4.7112   -5.9136    0.6769 H   0  0  0  0  0  0  0  0  0  0  0  0
  1  2  2  3
  2  3  1  0
  3  4  2  0
  3  5  1  0
  5  6  2  0
  6  7  1  0
  7  8  2  0
  8  9  1  0
  9 10  2  0
 10 11  1  0
 11 12  2  3
 12 13  1  0
 13 14  3  0
 12 15  1  0
 15 16  3  0
  8 17  1  0
 17 18  1  0
 18 19  1  0
 19 20  2  0
 20 21  1  0
 21 22  1  0
 21 23  1  0
  1 24  1  0
 24 25  2  0
 25 26  1  0
 26 27  1  0
 27 28  1  0
 28 29  1  0
 27 30  1  0
 30 31  2  0
 31 32  1  0
 32 33  1  0
 33 34  2  0
 31 35  1  0
 35 36  2  0
 36 37  1  0
 37 38  2  0
 37 39  1  0
 39 40  2  0
 40 41  1  0
 40 42  1  0
 42 43  1  0
 42 44  2  0
 44 45  1  0
 45 46  2  0
 46 47  1  0
 47 48  1  0
 48 49  1  0
 47 50  2  0
 50 51  1  0
 51 52  2  0
 50 53  1  0
 53 54  1  0
 44 55  1  0
 55 56  1  0
 56 57  2  0
 57 58  1  0
 58 59  1  0
 59 60  1  0
 58 61  1  0
 61 62  2  0
 62 63  1  0
 63 64  2  0
 64 65  1  0
 65 66  1  0
 64 67  1  0
 63 68  1  0
 68 69  2  3
 69 70  1  0
 70 71  2  0
 70 72  1  0
 72 73  2  0
 73 74  1  0
 74 75  2  0
 75 76  1  0
 76 77  2  0
 77 78  1  0
 78 79  2  0
 11  2  1  0
 23 17  1  0
 34 24  1  0
 52 39  1  0
 65 55  2  0
 78 69  1  0
 10  5  1  0
 22 18  1  0
 32 26  2  0
 52 45  1  0
 62 56  1  0
 77 72  1  0
 23  7  1  0
 38 30  1  0
  1 80  1  0
  6 81  1  0
  9 82  1  0
 17 83  1  0
 18 84  1  0
 19 85  1  0
 20 86  1  0
 21 87  1  0
 22 88  1  0
 22 89  1  0
 23 90  1  0
 25 91  1  0
 28 92  1  0
 28 93  1  0
 29 94  1  0
 29 95  1  0
 29 96  1  0
 33 97  1  0
 34 98  1  0
 35 99  1  0
 36100  1  0
 38101  1  0
 48102  1  0
 48103  1  0
 49104  1  0
 49105  1  0
 49106  1  0
 53107  1  0
 53108  1  0
 54109  1  0
 54110  1  0
 54111  1  0
 59112  1  0
 59113  1  0
 60114  1  0
 60115  1  0
 60116  1  0
 68117  1  0
 73118  1  0
 74119  1  0
 75120  1  0
 76121  1  0
M  END

