
     RDKit          3D

114126  0  0  0  0  0  0  0  0999 V2000
   -2.4393   -2.9258    6.0367 C   0  0  0  0  0  0  0  0  0  0  0  0
   -2.8580   -4.1884    5.8176 C   0  0  0  0  0  0  0  0  0  0  0  0
   -2.8513   -4.8658    4.5132 C   0  0  0  0  0  0  0  0  0  0  0  0
   -2.2234   -4.4949    3.4846 O   0  0  0  0  0  0  0  0  0  0  0  0
   -3.6837   -6.0446    4.5959 C   0  0  0  0  0  0  0  0  0  0  0  0
   -4.0212   -6.9247    3.5436 C   0  0  0  0  0  0  0  0  0  0  0  0
   -4.9460   -7.8882    3.8945 C   0  0  0  0  0  0  0  0  0  0  0  0
   -5.5342   -7.9695    5.1990 C   0  0  0  0  0  0  0  0  0  0  0  0
   -5.1962   -7.1180    6.2388 C   0  0  0  0  0  0  0  0  0  0  0  0
   -4.2022   -6.1517    5.9116 C   0  0  0  0  0  0  0  0  0  0  0  0
   -3.5969   -5.0869    6.7622 C   0  0  0  0  0  0  0  0  0  0  0  0
   -3.5516   -5.0717    8.1209 C   0  0  0  0  0  0  0  0  0  0  0  0
   -2.7676   -4.1193    8.8641 C   0  0  0  0  0  0  0  0  0  0  0  0
   -2.1367   -3.3646    9.4829 N   0  0  0  0  0  0  0  0  0  0  0  0
   -4.1599   -6.0984    8.9244 C   0  0  0  0  0  0  0  0  0  0  0  0
   -4.6376   -6.9233    9.5806 N   0  0  0  0  0  0  0  0  0  0  0  0
   -6.3931   -9.1174    4.7590 C   0  0  0  0  0  0  0  0  0  0  0  0
   -5.9894  -10.5240    5.2889 C   0  0  0  0  0  0  0  0  0  0  0  0
   -6.7149  -11.5184    4.4132 C   0  0  0  0  0  0  0  0  0  0  0  0
   -6.1278  -11.4636    3.2083 C   0  0  0  0  0  0  0  0  0  0  0  0
   -5.0367  -10.4244    3.3131 C   0  0  0  0  0  0  0  0  0  0  0  0
   -4.5835  -10.7054    4.7380 C   0  0  0  0  0  0  0  0  0  0  0  0
   -5.7681   -9.0527    3.4330 C   0  0  0  0  0  0  0  0  0  0  0  0
   -2.0725   -2.0141    4.9397 C   0  0  0  0  0  0  0  0  0  0  0  0
   -0.7395   -1.5741    4.7770 C   0  0  0  0  0  0  0  0  0  0  0  0
   -0.4600   -0.6919    3.7215 C   0  0  0  0  0  0  0  0  0  0  0  0
    0.7364   -0.1534    3.3636 N   0  0  0  0  0  0  0  0  0  0  0  0
    2.0391   -0.3929    3.9939 C   0  0  0  0  0  0  0  0  0  0  0  0
    2.6863   -1.6492    3.4196 C   0  0  0  0  0  0  0  0  0  0  0  0
    0.4710    0.6137    2.2722 C   0  0  0  0  0  0  0  0  0  0  0  0
   -0.8728    0.5744    1.9620 C   0  0  0  0  0  0  0  0  0  0  0  0
   -1.4641   -0.2587    2.8789 C   0  0  0  0  0  0  0  0  0  0  0  0
   -2.7857   -0.6642    3.0245 C   0  0  0  0  0  0  0  0  0  0  0  0
   -3.0868   -1.5469    4.0704 C   0  0  0  0  0  0  0  0  0  0  0  0
   -1.4146    1.2836    0.8956 C   0  0  0  0  0  0  0  0  0  0  0  0
   -0.5438    2.0588    0.1184 C   0  0  0  0  0  0  0  0  0  0  0  0
    0.8426    2.1081    0.4068 C   0  0  0  0  0  0  0  0  0  0  0  0
    1.3641    1.3656    1.4938 C   0  0  0  0  0  0  0  0  0  0  0  0
    1.7252    2.9276   -0.4561 C   0  0  0  0  0  0  0  0  0  0  0  0
    1.4467    4.2942   -0.6262 C   0  0  0  0  0  0  0  0  0  0  0  0
    0.4699    4.8902    0.1057 F   0  0  0  0  0  0  0  0  0  0  0  0
    2.1650    5.0581   -1.5493 C   0  0  0  0  0  0  0  0  0  0  0  0
    1.8724    6.3762   -1.6820 F   0  0  0  0  0  0  0  0  0  0  0  0
    3.1799    4.4748   -2.3260 C   0  0  0  0  0  0  0  0  0  0  0  0
    3.4629    3.1041   -2.1625 C   0  0  0  0  0  0  0  0  0  0  0  0
    4.3775    2.4833   -2.9510 N   0  0  0  0  0  0  0  0  0  0  0  0
    4.6564    1.1584   -2.8450 C   0  0  0  0  0  0  0  0  0  0  0  0
    5.6279    0.5610   -3.8279 C   0  0  0  0  0  0  0  0  0  0  0  0
    4.8943    0.0890   -5.0792 C   0  0  0  0  0  0  0  0  0  0  0  0
    3.9558    0.3929   -1.8832 C   0  0  0  0  0  0  0  0  0  0  0  0
    3.0262    1.0114   -1.1074 N   0  0  0  0  0  0  0  0  0  0  0  0
    2.7486    2.3373   -1.2215 C   0  0  0  0  0  0  0  0  0  0  0  0
    4.2414   -1.0601   -1.6238 C   0  0  0  0  0  0  0  0  0  0  0  0
    5.3499   -1.2059   -0.5892 C   0  0  0  0  0  0  0  0  0  0  0  0
    3.8818    5.3009   -3.3346 C   0  0  0  0  0  0  0  0  0  0  0  0
    5.2208    5.2312   -3.6769 C   0  0  0  0  0  0  0  0  0  0  0  0
    5.4135    6.1940   -4.6463 C   0  0  0  0  0  0  0  0  0  0  0  0
    4.1788    6.7739   -4.8459 C   0  0  0  0  0  0  0  0  0  0  0  0
    3.2897    6.2346   -4.0468 O   0  0  0  0  0  0  0  0  0  0  0  0
    3.8902    7.8551   -5.7980 C   0  0  0  0  0  0  0  0  0  0  0  0
    2.8505    7.8244   -6.6562 C   0  0  0  0  0  0  0  0  0  0  0  0
    2.0225    6.6430   -6.9401 C   0  0  0  0  0  0  0  0  0  0  0  0
    2.1055    5.5244   -6.3696 O   0  0  0  0  0  0  0  0  0  0  0  0
    1.0760    6.9702   -7.9889 C   0  0  0  0  0  0  0  0  0  0  0  0
    0.0988    6.1540   -8.5756 C   0  0  0  0  0  0  0  0  0  0  0  0
    0.0034    4.4366   -8.1931 Cl  0  0  0  0  0  0  0  0  0  0  0  0
   -0.8072    6.7427   -9.4768 C   0  0  0  0  0  0  0  0  0  0  0  0
   -2.0052    5.7384  -10.2946 Cl  0  0  0  0  0  0  0  0  0  0  0  0
   -0.7856    8.1399   -9.6892 C   0  0  0  0  0  0  0  0  0  0  0  0
   -2.0282    8.8945  -10.6917 Cl  0  0  0  0  0  0  0  0  0  0  0  0
    0.1957    8.9422   -9.0614 C   0  0  0  0  0  0  0  0  0  0  0  0
   -0.0490   10.6928   -8.9818 Cl  0  0  0  0  0  0  0  0  0  0  0  0
    1.2160    8.3047   -8.3245 C   0  0  0  0  0  0  0  0  0  0  0  0
    2.4058    8.8773   -7.6289 C   0  0  0  0  0  0  0  0  0  0  0  0
    3.1104    9.9642   -8.0412 C   0  0  0  0  0  0  0  0  0  0  0  0
    2.9413   10.5202   -9.3620 C   0  0  0  0  0  0  0  0  0  0  0  0
    2.8196   10.9681  -10.4232 N   0  0  0  0  0  0  0  0  0  0  0  0
    4.1365   10.5893   -7.2489 C   0  0  0  0  0  0  0  0  0  0  0  0
    4.9596   11.1056   -6.6201 N   0  0  0  0  0  0  0  0  0  0  0  0
   -2.5353   -2.4651    7.0055 H   0  0  0  0  0  0  0  0  0  0  0  0
   -3.6238   -6.8371    2.5409 H   0  0  0  0  0  0  0  0  0  0  0  0
   -5.7009   -7.1799    7.1894 H   0  0  0  0  0  0  0  0  0  0  0  0
   -7.4829   -8.8911    4.7706 H   0  0  0  0  0  0  0  0  0  0  0  0
   -6.1048  -10.6810    6.3820 H   0  0  0  0  0  0  0  0  0  0  0  0
   -7.4713  -12.2326    4.7176 H   0  0  0  0  0  0  0  0  0  0  0  0
   -6.3378  -12.1156    2.3659 H   0  0  0  0  0  0  0  0  0  0  0  0
   -4.2506  -10.4822    2.5307 H   0  0  0  0  0  0  0  0  0  0  0  0
   -3.8403   -9.9763    5.1311 H   0  0  0  0  0  0  0  0  0  0  0  0
   -4.1837  -11.7389    4.8802 H   0  0  0  0  0  0  0  0  0  0  0  0
   -6.4717   -8.8054    2.6059 H   0  0  0  0  0  0  0  0  0  0  0  0
    0.0400   -1.9226    5.4398 H   0  0  0  0  0  0  0  0  0  0  0  0
    1.9177   -0.5060    5.0957 H   0  0  0  0  0  0  0  0  0  0  0  0
    2.7138    0.4750    3.8329 H   0  0  0  0  0  0  0  0  0  0  0  0
    2.0512   -2.5383    3.6299 H   0  0  0  0  0  0  0  0  0  0  0  0
    3.6822   -1.8038    3.8875 H   0  0  0  0  0  0  0  0  0  0  0  0
    2.8187   -1.5414    2.3222 H   0  0  0  0  0  0  0  0  0  0  0  0
   -3.5589   -0.3131    2.3535 H   0  0  0  0  0  0  0  0  0  0  0  0
   -4.1107   -1.8717    4.2073 H   0  0  0  0  0  0  0  0  0  0  0  0
   -2.4713    1.2394    0.6679 H   0  0  0  0  0  0  0  0  0  0  0  0
   -0.9453    2.6127   -0.7202 H   0  0  0  0  0  0  0  0  0  0  0  0
    2.4223    1.3898    1.7202 H   0  0  0  0  0  0  0  0  0  0  0  0
    6.3754    1.3312   -4.1219 H   0  0  0  0  0  0  0  0  0  0  0  0
    6.1963   -0.2801   -3.3808 H   0  0  0  0  0  0  0  0  0  0  0  0
    4.4055    0.9516   -5.5848 H   0  0  0  0  0  0  0  0  0  0  0  0
    5.6161   -0.3752   -5.7870 H   0  0  0  0  0  0  0  0  0  0  0  0
    4.1170   -0.6589   -4.8183 H   0  0  0  0  0  0  0  0  0  0  0  0
    3.3205   -1.5516   -1.2362 H   0  0  0  0  0  0  0  0  0  0  0  0
    4.5173   -1.5963   -2.5552 H   0  0  0  0  0  0  0  0  0  0  0  0
    6.2804   -0.7109   -0.9385 H   0  0  0  0  0  0  0  0  0  0  0  0
    5.5631   -2.2811   -0.4140 H   0  0  0  0  0  0  0  0  0  0  0  0
    5.0380   -0.7468    0.3743 H   0  0  0  0  0  0  0  0  0  0  0  0
    5.9748    4.5729   -3.2626 H   0  0  0  0  0  0  0  0  0  0  0  0
    6.3418    6.4305   -5.1533 H   0  0  0  0  0  0  0  0  0  0  0  0
    4.5843    8.6721   -5.7795 H   0  0  0  0  0  0  0  0  0  0  0  0
  1  2  2  3
  2  3  1  0
  3  4  2  0
  3  5  1  0
  5  6  2  0
  6  7  1  0
  7  8  2  0
  8  9  1  0
  9 10  2  0
 10 11  1  0
 11 12  2  3
 12 13  1  0
 13 14  3  0
 12 15  1  0
 15 16  3  0
  8 17  1  0
 17 18  1  0
 18 19  1  0
 19 20  2  0
 20 21  1  0
 21 22  1  0
 21 23  1  0
  1 24  1  0
 24 25  2  0
 25 26  1  0
 26 27  1  0
 27 28  1  0
 28 29  1  0
 27 30  1  0
 30 31  2  0
 31 32  1  0
 32 33  1  0
 33 34  2  0
 31 35  1  0
 35 36  2  0
 36 37  1  0
 37 38  2  0
 37 39  1  0
 39 40  2  0
 40 41  1  0
 40 42  1  0
 42 43  1  0
 42 44  2  0
 44 45  1  0
 45 46  2  0
 46 47  1  0
 47 48  1  0
 48 49  1  0
 47 50  2  0
 50 51  1  0
 51 52  2  0
 50 53  1  0
 53 54  1  0
 44 55  1  0
 55 56  2  0
 56 57  1  0
 57 58  2  0
 58 59  1  0
 58 60  1  0
 60 61  2  3
 61 62  1  0
 62 63  2  0
 62 64  1  0
 64 65  2  0
 65 66  1  0
 65 67  1  0
 67 68  1  0
 67 69  2  0
 69 70  1  0
 69 71  1  0
 71 72  1  0
 71 73  2  0
 73 74  1  0
 74 75  2  3
 75 76  1  0
 76 77  3  0
 75 78  1  0
 78 79  3  0
 11  2  1  0
 23 17  1  0
 34 24  1  0
 52 39  1  0
 59 55  1  0
 74 61  1  0
 10  5  1  0
 22 18  1  0
 32 26  2  0
 52 45  1  0
 73 64  1  0
 23  7  1  0
 38 30  1  0
  1 80  1  0
  6 81  1  0
  9 82  1  0
 17 83  1  0
 18 84  1  0
 19 85  1  0
 20 86  1  0
 21 87  1  0
 22 88  1  0
 22 89  1  0
 23 90  1  0
 25 91  1  0
 28 92  1  0
 28 93  1  0
 29 94  1  0
 29 95  1  0
 29 96  1  0
 33 97  1  0
 34 98  1  0
 35 99  1  0
 36100  1  0
 38101  1  0
 48102  1  0
 48103  1  0
 49104  1  0
 49105  1  0
 49106  1  0
 53107  1  0
 53108  1  0
 54109  1  0
 54110  1  0
 54111  1  0
 56112  1  0
 57113  1  0
 60114  1  0
M  END

