
     RDKit          3D

174193  0  0  0  0  0  0  0  0999 V2000
   -3.7229   -2.2491    5.3175 C   0  0  0  0  0  0  0  0  0  0  0  0
   -4.7897   -1.4290    5.3497 C   0  0  0  0  0  0  0  0  0  0  0  0
   -4.7081   -0.0208    5.7351 C   0  0  0  0  0  0  0  0  0  0  0  0
   -3.8339    0.4929    6.4942 O   0  0  0  0  0  0  0  0  0  0  0  0
   -5.6909    0.7237    4.9925 C   0  0  0  0  0  0  0  0  0  0  0  0
   -5.9346    2.1158    5.0638 C   0  0  0  0  0  0  0  0  0  0  0  0
   -6.9289    2.5545    4.2113 C   0  0  0  0  0  0  0  0  0  0  0  0
   -7.6320    1.6761    3.3181 C   0  0  0  0  0  0  0  0  0  0  0  0
   -7.3764    0.3204    3.2294 C   0  0  0  0  0  0  0  0  0  0  0  0
   -6.3896   -0.1596    4.1299 C   0  0  0  0  0  0  0  0  0  0  0  0
   -5.9299   -1.5505    4.4067 C   0  0  0  0  0  0  0  0  0  0  0  0
   -6.4958   -2.7010    3.9659 C   0  0  0  0  0  0  0  0  0  0  0  0
   -7.4312   -2.7432    2.8641 C   0  0  0  0  0  0  0  0  0  0  0  0
   -8.1799   -2.7739    1.9744 N   0  0  0  0  0  0  0  0  0  0  0  0
   -6.2556   -3.9586    4.6244 C   0  0  0  0  0  0  0  0  0  0  0  0
   -6.1078   -4.9838    5.1445 N   0  0  0  0  0  0  0  0  0  0  0  0
   -8.5100    2.8016    2.8715 C   0  0  0  0  0  0  0  0  0  0  0  0
   -9.9613    2.7798    3.4397 C   0  0  0  0  0  0  0  0  0  0  0  0
  -10.5250    4.1488    3.1838 C   0  0  0  0  0  0  0  0  0  0  0  0
   -9.8706    4.9886    3.9981 C   0  0  0  0  0  0  0  0  0  0  0  0
   -8.8971    4.1461    4.7874 C   0  0  0  0  0  0  0  0  0  0  0  0
   -9.7449    2.9005    4.9441 C   0  0  0  0  0  0  0  0  0  0  0  0
   -7.7956    3.7035    3.7810 C   0  0  0  0  0  0  0  0  0  0  0  0
   -2.3421   -1.7763    5.0554 C   0  0  0  0  0  0  0  0  0  0  0  0
   -2.0964   -0.8205    4.0552 C   0  0  0  0  0  0  0  0  0  0  0  0
   -2.9857   -0.1095    3.3431 N   0  0  0  0  0  0  0  0  0  0  0  0
   -2.2766    0.4867    2.3913 N   0  0  0  0  0  0  0  0  0  0  0  0
   -2.8737    1.2678    1.3165 C   0  0  0  0  0  0  0  0  0  0  0  0
   -3.2077    0.3605    0.1471 C   0  0  0  0  0  0  0  0  0  0  0  0
   -0.9933    0.1518    2.4190 N   0  0  0  0  0  0  0  0  0  0  0  0
   -0.8774   -0.6759    3.4732 C   0  0  0  0  0  0  0  0  0  0  0  0
    0.2073   -1.4781    3.8141 C   0  0  0  0  0  0  0  0  0  0  0  0
    0.0396   -2.3764    4.8916 C   0  0  0  0  0  0  0  0  0  0  0  0
   -1.2276   -2.5275    5.5018 C   0  0  0  0  0  0  0  0  0  0  0  0
   -1.4038   -3.4933    6.4361 F   0  0  0  0  0  0  0  0  0  0  0  0
    1.0517   -3.2011    5.2570 F   0  0  0  0  0  0  0  0  0  0  0  0
    1.3447   -1.5725    2.8842 C   0  0  0  0  0  0  0  0  0  0  0  0
    2.6339   -1.0544    3.0769 C   0  0  0  0  0  0  0  0  0  0  0  0
    3.0758   -0.4429    4.2957 N   0  0  0  0  0  0  0  0  0  0  0  0
    4.1896   -1.0047    5.0153 C   0  0  0  0  0  0  0  0  0  0  0  0
    5.1423   -0.1659    5.6185 C   0  0  0  0  0  0  0  0  0  0  0  0
    6.1940   -0.7137    6.3579 C   0  0  0  0  0  0  0  0  0  0  0  0
    6.3122   -2.0984    6.4960 C   0  0  0  0  0  0  0  0  0  0  0  0
    7.6532   -2.7933    7.4639 S   0  0  0  0  0  0  0  0  0  0  0  0
    8.7582   -2.9616    6.0310 C   0  0  0  0  0  0  0  0  0  0  0  0
    5.3724   -2.9391    5.8888 C   0  0  0  0  0  0  0  0  0  0  0  0
    4.3281   -2.3978    5.1403 C   0  0  0  0  0  0  0  0  0  0  0  0
    2.3794    0.7158    4.7995 C   0  0  0  0  0  0  0  0  0  0  0  0
    1.9882    1.7468    3.9257 C   0  0  0  0  0  0  0  0  0  0  0  0
    1.3511    2.8840    4.4262 C   0  0  0  0  0  0  0  0  0  0  0  0
    1.0913    2.9998    5.7930 C   0  0  0  0  0  0  0  0  0  0  0  0
    0.3622    4.5097    6.4373 S   0  0  0  0  0  0  0  0  0  0  0  0
    1.9802    5.2548    6.8307 C   0  0  0  0  0  0  0  0  0  0  0  0
    1.4297    1.9564    6.6602 C   0  0  0  0  0  0  0  0  0  0  0  0
    2.0673    0.8166    6.1664 C   0  0  0  0  0  0  0  0  0  0  0  0
    3.3346   -0.9707    1.8666 C   0  0  0  0  0  0  0  0  0  0  0  0
    4.6566   -0.0542    1.3511 S   0  0  0  0  0  0  0  0  0  0  0  0
    4.3198   -0.2689   -0.3124 C   0  0  0  0  0  0  0  0  0  0  0  0
    3.1332   -1.0049   -0.4531 C   0  0  0  0  0  0  0  0  0  0  0  0
    2.3013   -0.9688   -1.6304 N   0  0  0  0  0  0  0  0  0  0  0  0
    2.4430   -2.0275   -2.6044 C   0  0  0  0  0  0  0  0  0  0  0  0
    2.3463   -1.7472   -3.9794 C   0  0  0  0  0  0  0  0  0  0  0  0
    2.3740   -2.7810   -4.9198 C   0  0  0  0  0  0  0  0  0  0  0  0
    2.5386   -4.1039   -4.4978 C   0  0  0  0  0  0  0  0  0  0  0  0
    2.6023   -5.4344   -5.7029 S   0  0  0  0  0  0  0  0  0  0  0  0
    0.8668   -5.9256   -5.4513 C   0  0  0  0  0  0  0  0  0  0  0  0
    2.6864   -4.3904   -3.1373 C   0  0  0  0  0  0  0  0  0  0  0  0
    2.6425   -3.3587   -2.1955 C   0  0  0  0  0  0  0  0  0  0  0  0
    1.2299    0.0140   -1.7177 C   0  0  0  0  0  0  0  0  0  0  0  0
    1.2852    1.2131   -0.9782 C   0  0  0  0  0  0  0  0  0  0  0  0
    0.2763    2.1703   -1.0759 C   0  0  0  0  0  0  0  0  0  0  0  0
   -0.8258    1.9486   -1.9057 C   0  0  0  0  0  0  0  0  0  0  0  0
   -2.1169    3.1873   -2.0458 S   0  0  0  0  0  0  0  0  0  0  0  0
   -1.1762    4.2648   -3.1705 C   0  0  0  0  0  0  0  0  0  0  0  0
   -0.9417    0.7320   -2.5838 C   0  0  0  0  0  0  0  0  0  0  0  0
    0.0684   -0.2296   -2.4885 C   0  0  0  0  0  0  0  0  0  0  0  0
    2.6334   -1.3893    0.7808 C   0  0  0  0  0  0  0  0  0  0  0  0
    1.1085   -1.9010    1.2318 S   0  0  0  0  0  0  0  0  0  0  0  0
    4.9327    0.4841   -1.4164 C   0  0  0  0  0  0  0  0  0  0  0  0
    5.4973   -0.1988   -2.4927 C   0  0  0  0  0  0  0  0  0  0  0  0
    5.9309   -1.4700   -2.5574 N   0  0  0  0  0  0  0  0  0  0  0  0
    6.3460   -1.6156   -3.8175 N   0  0  0  0  0  0  0  0  0  0  0  0
    6.9969   -2.8243   -4.3177 C   0  0  0  0  0  0  0  0  0  0  0  0
    5.9571   -3.8540   -4.7315 C   0  0  0  0  0  0  0  0  0  0  0  0
    6.1652   -0.5271   -4.5555 N   0  0  0  0  0  0  0  0  0  0  0  0
    5.6437    0.3770   -3.7127 C   0  0  0  0  0  0  0  0  0  0  0  0
    5.2141    1.6720   -3.9861 C   0  0  0  0  0  0  0  0  0  0  0  0
    4.8123    2.4585   -2.8798 C   0  0  0  0  0  0  0  0  0  0  0  0
    4.6755    1.8660   -1.5975 C   0  0  0  0  0  0  0  0  0  0  0  0
    4.2152    2.6179   -0.5697 F   0  0  0  0  0  0  0  0  0  0  0  0
    4.4880    3.7670   -3.0530 F   0  0  0  0  0  0  0  0  0  0  0  0
    5.0470    2.0898   -5.3903 C   0  0  0  0  0  0  0  0  0  0  0  0
    3.8305    2.1003   -5.9755 C   0  0  0  0  0  0  0  0  0  0  0  0
    2.5277    2.0939   -5.2890 C   0  0  0  0  0  0  0  0  0  0  0  0
    2.2697    2.5854   -4.1616 O   0  0  0  0  0  0  0  0  0  0  0  0
    1.5629    1.4303   -6.1334 C   0  0  0  0  0  0  0  0  0  0  0  0
    0.1925    1.2334   -5.8727 C   0  0  0  0  0  0  0  0  0  0  0  0
   -0.4592    0.4789   -6.8211 C   0  0  0  0  0  0  0  0  0  0  0  0
    0.2073   -0.1097   -7.9465 C   0  0  0  0  0  0  0  0  0  0  0  0
    1.5504    0.1088   -8.2302 C   0  0  0  0  0  0  0  0  0  0  0  0
    2.2080    0.9674   -7.3044 C   0  0  0  0  0  0  0  0  0  0  0  0
    3.5791    1.5440   -7.3347 C   0  0  0  0  0  0  0  0  0  0  0  0
    4.3196    1.7916   -8.4374 C   0  0  0  0  0  0  0  0  0  0  0  0
    5.3249    2.8304   -8.4405 C   0  0  0  0  0  0  0  0  0  0  0  0
    6.1130    3.6876   -8.4703 N   0  0  0  0  0  0  0  0  0  0  0  0
    3.9984    1.2435   -9.7259 C   0  0  0  0  0  0  0  0  0  0  0  0
    3.7482    0.8031  -10.7688 N   0  0  0  0  0  0  0  0  0  0  0  0
   -1.0674   -0.7799   -8.3648 C   0  0  0  0  0  0  0  0  0  0  0  0
   -1.2263   -2.2926   -8.0216 C   0  0  0  0  0  0  0  0  0  0  0  0
   -2.6895   -2.6022   -8.2184 C   0  0  0  0  0  0  0  0  0  0  0  0
   -3.3454   -1.9843   -7.2259 C   0  0  0  0  0  0  0  0  0  0  0  0
   -2.2946   -1.2915   -6.3886 C   0  0  0  0  0  0  0  0  0  0  0  0
   -1.1884   -2.3178   -6.5021 C   0  0  0  0  0  0  0  0  0  0  0  0
   -1.7613   -0.1177   -7.2531 C   0  0  0  0  0  0  0  0  0  0  0  0
   -3.8629   -3.2960    5.0933 H   0  0  0  0  0  0  0  0  0  0  0  0
   -5.4240    2.7766    5.7479 H   0  0  0  0  0  0  0  0  0  0  0  0
   -7.9275   -0.2821    2.5370 H   0  0  0  0  0  0  0  0  0  0  0  0
   -8.4074    3.0489    1.7908 H   0  0  0  0  0  0  0  0  0  0  0  0
  -10.6013    1.9294    3.1206 H   0  0  0  0  0  0  0  0  0  0  0  0
  -11.3466    4.4126    2.5231 H   0  0  0  0  0  0  0  0  0  0  0  0
  -10.0774    6.0504    4.1100 H   0  0  0  0  0  0  0  0  0  0  0  0
   -8.5276    4.6080    5.7293 H   0  0  0  0  0  0  0  0  0  0  0  0
   -9.2081    2.0361    5.3944 H   0  0  0  0  0  0  0  0  0  0  0  0
  -10.6952    3.0677    5.5102 H   0  0  0  0  0  0  0  0  0  0  0  0
   -7.2330    4.5275    3.2984 H   0  0  0  0  0  0  0  0  0  0  0  0
   -3.7919    1.7796    1.6813 H   0  0  0  0  0  0  0  0  0  0  0  0
   -2.1512    2.0450    0.9780 H   0  0  0  0  0  0  0  0  0  0  0  0
   -3.9776   -0.3811    0.4497 H   0  0  0  0  0  0  0  0  0  0  0  0
   -2.3034   -0.1812   -0.2063 H   0  0  0  0  0  0  0  0  0  0  0  0
   -3.6190    0.9585   -0.6936 H   0  0  0  0  0  0  0  0  0  0  0  0
    5.0654    0.9086    5.5181 H   0  0  0  0  0  0  0  0  0  0  0  0
    6.9172   -0.0541    6.8293 H   0  0  0  0  0  0  0  0  0  0  0  0
    8.9611   -1.9659    5.5846 H   0  0  0  0  0  0  0  0  0  0  0  0
    9.7182   -3.4096    6.3658 H   0  0  0  0  0  0  0  0  0  0  0  0
    8.2961   -3.6273    5.2696 H   0  0  0  0  0  0  0  0  0  0  0  0
    5.4603   -4.0132    5.9934 H   0  0  0  0  0  0  0  0  0  0  0  0
    3.6098   -3.0643    4.6855 H   0  0  0  0  0  0  0  0  0  0  0  0
    2.2066    1.6804    2.8678 H   0  0  0  0  0  0  0  0  0  0  0  0
    1.0730    3.6783    3.7474 H   0  0  0  0  0  0  0  0  0  0  0  0
    1.8370    6.3220    7.0921 H   0  0  0  0  0  0  0  0  0  0  0  0
    2.4302    4.7263    7.6930 H   0  0  0  0  0  0  0  0  0  0  0  0
    2.6652    5.1918    5.9586 H   0  0  0  0  0  0  0  0  0  0  0  0
    1.2052    2.0295    7.7178 H   0  0  0  0  0  0  0  0  0  0  0  0
    2.3248    0.0126    6.8466 H   0  0  0  0  0  0  0  0  0  0  0  0
    2.2141   -0.7332   -4.3169 H   0  0  0  0  0  0  0  0  0  0  0  0
    2.2810   -2.5522   -5.9730 H   0  0  0  0  0  0  0  0  0  0  0  0
    0.1938   -5.0817   -5.6943 H   0  0  0  0  0  0  0  0  0  0  0  0
    0.6289   -6.7825   -6.1171 H   0  0  0  0  0  0  0  0  0  0  0  0
    0.7117   -6.2407   -4.3985 H   0  0  0  0  0  0  0  0  0  0  0  0
    2.8338   -5.4105   -2.8073 H   0  0  0  0  0  0  0  0  0  0  0  0
    2.7268   -3.6077   -1.1469 H   0  0  0  0  0  0  0  0  0  0  0  0
    2.1130    1.4191   -0.3223 H   0  0  0  0  0  0  0  0  0  0  0  0
    0.3516    3.0882   -0.5087 H   0  0  0  0  0  0  0  0  0  0  0  0
   -1.8677    4.9914   -3.6502 H   0  0  0  0  0  0  0  0  0  0  0  0
   -0.4138    4.8281   -2.5869 H   0  0  0  0  0  0  0  0  0  0  0  0
   -0.6667    3.6805   -3.9697 H   0  0  0  0  0  0  0  0  0  0  0  0
   -1.8237    0.5284   -3.1821 H   0  0  0  0  0  0  0  0  0  0  0  0
   -0.0666   -1.1617   -3.0159 H   0  0  0  0  0  0  0  0  0  0  0  0
    7.6327   -2.5732   -5.1899 H   0  0  0  0  0  0  0  0  0  0  0  0
    7.6478   -3.2488   -3.5258 H   0  0  0  0  0  0  0  0  0  0  0  0
    6.4641   -4.7366   -5.1729 H   0  0  0  0  0  0  0  0  0  0  0  0
    5.3895   -4.1830   -3.8420 H   0  0  0  0  0  0  0  0  0  0  0  0
    5.2667   -3.4177   -5.4848 H   0  0  0  0  0  0  0  0  0  0  0  0
    5.9058    1.9120   -6.0225 H   0  0  0  0  0  0  0  0  0  0  0  0
   -0.3122    1.6409   -5.0132 H   0  0  0  0  0  0  0  0  0  0  0  0
    2.0251   -0.3433   -9.0757 H   0  0  0  0  0  0  0  0  0  0  0  0
   -1.4162   -0.4763   -9.3750 H   0  0  0  0  0  0  0  0  0  0  0  0
   -0.5184   -2.9857   -8.5368 H   0  0  0  0  0  0  0  0  0  0  0  0
   -3.1354   -3.2572   -8.9610 H   0  0  0  0  0  0  0  0  0  0  0  0
   -4.4151   -2.0494   -7.0292 H   0  0  0  0  0  0  0  0  0  0  0  0
   -2.6111   -1.0204   -5.3604 H   0  0  0  0  0  0  0  0  0  0  0  0
   -1.4640   -3.3089   -6.0620 H   0  0  0  0  0  0  0  0  0  0  0  0
   -0.2231   -1.9883   -6.0583 H   0  0  0  0  0  0  0  0  0  0  0  0
   -2.5183    0.6372   -7.5658 H   0  0  0  0  0  0  0  0  0  0  0  0
  1  2  2  3
  2  3  1  0
  3  4  2  0
  3  5  1  0
  5  6  2  0
  6  7  1  0
  7  8  2  0
  8  9  1  0
  9 10  2  0
 10 11  1  0
 11 12  2  3
 12 13  1  0
 13 14  3  0
 12 15  1  0
 15 16  3  0
  8 17  1  0
 17 18  1  0
 18 19  1  0
 19 20  2  0
 20 21  1  0
 21 22  1  0
 21 23  1  0
  1 24  1  0
 24 25  1  0
 25 26  2  0
 26 27  1  0
 27 28  1  0
 28 29  1  0
 27 30  1  0
 30 31  2  0
 31 32  1  0
 32 33  2  0
 33 34  1  0
 34 35  1  0
 33 36  1  0
 32 37  1  0
 37 38  2  0
 38 39  1  0
 39 40  1  0
 40 41  2  0
 41 42  1  0
 42 43  2  0
 43 44  1  0
 44 45  1  0
 43 46  1  0
 46 47  2  0
 39 48  1  0
 48 49  2  0
 49 50  1  0
 50 51  2  0
 51 52  1  0
 52 53  1  0
 51 54  1  0
 54 55  2  0
 38 56  1  0
 56 57  1  0
 57 58  1  0
 58 59  2  0
 59 60  1  0
 60 61  1  0
 61 62  2  0
 62 63  1  0
 63 64  2  0
 64 65  1  0
 65 66  1  0
 64 67  1  0
 67 68  2  0
 60 69  1  0
 69 70  2  0
 70 71  1  0
 71 72  2  0
 72 73  1  0
 73 74  1  0
 72 75  1  0
 75 76  2  0
 59 77  1  0
 77 78  1  0
 58 79  1  0
 79 80  1  0
 80 81  2  0
 81 82  1  0
 82 83  1  0
 83 84  1  0
 82 85  1  0
 85 86  2  0
 86 87  1  0
 87 88  2  0
 88 89  1  0
 89 90  1  0
 88 91  1  0
 87 92  1  0
 92 93  2  3
 93 94  1  0
 94 95  2  0
 94 96  1  0
 96 97  2  0
 97 98  1  0
 98 99  2  0
 99100  1  0
100101  2  0
101102  1  0
102103  2  3
103104  1  0
104105  3  0
103106  1  0
106107  3  0
 99108  1  0
108109  1  0
109110  1  0
110111  2  0
111112  1  0
112113  1  0
112114  1  0
 11  2  1  0
 23 17  1  0
 34 24  2  0
 78 37  1  0
 89 79  2  0
102 93  1  0
114108  1  0
 10  5  1  0
 22 18  1  0
 31 25  1  0
 47 40  1  0
 55 48  1  0
 77 56  2  0
 86 80  1  0
101 96  1  0
113109  1  0
 23  7  1  0
 68 61  1  0
 76 69  1  0
114 98  1  0
  1115  1  0
  6116  1  0
  9117  1  0
 17118  1  0
 18119  1  0
 19120  1  0
 20121  1  0
 21122  1  0
 22123  1  0
 22124  1  0
 23125  1  0
 28126  1  0
 28127  1  0
 29128  1  0
 29129  1  0
 29130  1  0
 41131  1  0
 42132  1  0
 45133  1  0
 45134  1  0
 45135  1  0
 46136  1  0
 47137  1  0
 49138  1  0
 50139  1  0
 53140  1  0
 53141  1  0
 53142  1  0
 54143  1  0
 55144  1  0
 62145  1  0
 63146  1  0
 66147  1  0
 66148  1  0
 66149  1  0
 67150  1  0
 68151  1  0
 70152  1  0
 71153  1  0
 74154  1  0
 74155  1  0
 74156  1  0
 75157  1  0
 76158  1  0
 83159  1  0
 83160  1  0
 84161  1  0
 84162  1  0
 84163  1  0
 92164  1  0
 97165  1  0
100166  1  0
108167  1  0
109168  1  0
110169  1  0
111170  1  0
112171  1  0
113172  1  0
113173  1  0
114174  1  0
M  END

