
     RDKit          3D

159175  0  0  0  0  0  0  0  0999 V2000
    5.8122   -4.2898   -0.6549 C   0  0  0  0  0  0  0  0  0  0  0  0
    4.4831   -4.4810   -0.4997 C   0  0  0  0  0  0  0  0  0  0  0  0
    3.5123   -3.4441   -0.1055 C   0  0  0  0  0  0  0  0  0  0  0  0
    3.7120   -2.1988   -0.0645 O   0  0  0  0  0  0  0  0  0  0  0  0
    2.2931   -4.0870    0.3240 C   0  0  0  0  0  0  0  0  0  0  0  0
    1.1547   -3.4611    0.8803 C   0  0  0  0  0  0  0  0  0  0  0  0
    0.1791   -4.3431    1.2974 C   0  0  0  0  0  0  0  0  0  0  0  0
    0.3178   -5.7627    1.2061 C   0  0  0  0  0  0  0  0  0  0  0  0
    1.4341   -6.3827    0.6688 C   0  0  0  0  0  0  0  0  0  0  0  0
    2.4384   -5.4908    0.1945 C   0  0  0  0  0  0  0  0  0  0  0  0
    3.7568   -5.7866   -0.4383 C   0  0  0  0  0  0  0  0  0  0  0  0
    4.1123   -6.9367   -1.0696 C   0  0  0  0  0  0  0  0  0  0  0  0
    5.2892   -7.0257   -1.8941 C   0  0  0  0  0  0  0  0  0  0  0  0
    6.2341   -7.1106   -2.5629 N   0  0  0  0  0  0  0  0  0  0  0  0
    3.2707   -8.1056   -1.0848 C   0  0  0  0  0  0  0  0  0  0  0  0
    2.6078   -9.0544   -1.1033 N   0  0  0  0  0  0  0  0  0  0  0  0
   -1.0275   -5.9496    1.8461 C   0  0  0  0  0  0  0  0  0  0  0  0
   -2.1863   -6.3806    0.9008 C   0  0  0  0  0  0  0  0  0  0  0  0
   -3.4591   -6.1130    1.6668 C   0  0  0  0  0  0  0  0  0  0  0  0
   -3.5921   -4.7847    1.7332 C   0  0  0  0  0  0  0  0  0  0  0  0
   -2.4033   -4.2026    1.0160 C   0  0  0  0  0  0  0  0  0  0  0  0
   -2.2666   -5.2353   -0.0896 C   0  0  0  0  0  0  0  0  0  0  0  0
   -1.1739   -4.4938    1.9253 C   0  0  0  0  0  0  0  0  0  0  0  0
    6.4012   -2.9456   -0.5938 C   0  0  0  0  0  0  0  0  0  0  0  0
    6.2038   -2.0637   -1.6739 C   0  0  0  0  0  0  0  0  0  0  0  0
    6.2832   -0.6864   -1.4316 C   0  0  0  0  0  0  0  0  0  0  0  0
    5.6560    0.2780   -2.1559 N   0  0  0  0  0  0  0  0  0  0  0  0
    4.9614    0.0863   -3.4370 C   0  0  0  0  0  0  0  0  0  0  0  0
    3.5592   -0.4824   -3.2286 C   0  0  0  0  0  0  0  0  0  0  0  0
    5.5183    1.3317   -1.3090 C   0  0  0  0  0  0  0  0  0  0  0  0
    6.1426    1.0776   -0.0983 C   0  0  0  0  0  0  0  0  0  0  0  0
    6.6345   -0.2091   -0.1776 C   0  0  0  0  0  0  0  0  0  0  0  0
    6.9753   -1.0710    0.8658 C   0  0  0  0  0  0  0  0  0  0  0  0
    6.8549   -2.4537    0.6496 C   0  0  0  0  0  0  0  0  0  0  0  0
    5.8451    1.8121    1.0527 C   0  0  0  0  0  0  0  0  0  0  0  0
    4.7692    2.7089    0.9999 C   0  0  0  0  0  0  0  0  0  0  0  0
    4.0266    2.8574   -0.1896 C   0  0  0  0  0  0  0  0  0  0  0  0
    4.5082    2.2979   -1.3882 C   0  0  0  0  0  0  0  0  0  0  0  0
    2.5715    2.8925   -0.0680 C   0  0  0  0  0  0  0  0  0  0  0  0
    1.6983    3.9880   -0.1478 C   0  0  0  0  0  0  0  0  0  0  0  0
    2.1062    5.3527    0.0314 N   0  0  0  0  0  0  0  0  0  0  0  0
    2.7546    5.6694    1.2786 C   0  0  0  0  0  0  0  0  0  0  0  0
    3.9942    6.3237    1.2939 C   0  0  0  0  0  0  0  0  0  0  0  0
    4.6623    6.5314    2.5076 C   0  0  0  0  0  0  0  0  0  0  0  0
    4.0918    6.0906    3.7068 C   0  0  0  0  0  0  0  0  0  0  0  0
    4.9595    6.3066    5.2594 S   0  0  0  0  0  0  0  0  0  0  0  0
    5.6439    4.6185    5.2380 C   0  0  0  0  0  0  0  0  0  0  0  0
    2.8422    5.4577    3.6971 C   0  0  0  0  0  0  0  0  0  0  0  0
    2.1822    5.2413    2.4903 C   0  0  0  0  0  0  0  0  0  0  0  0
    1.6952    6.3840   -0.8995 C   0  0  0  0  0  0  0  0  0  0  0  0
    1.5981    7.7315   -0.4923 C   0  0  0  0  0  0  0  0  0  0  0  0
    1.1857    8.7196   -1.3919 C   0  0  0  0  0  0  0  0  0  0  0  0
    0.8550    8.3770   -2.7070 C   0  0  0  0  0  0  0  0  0  0  0  0
    0.3312    9.6513   -3.8612 S   0  0  0  0  0  0  0  0  0  0  0  0
   -1.4129    9.5740   -3.3513 C   0  0  0  0  0  0  0  0  0  0  0  0
    0.9455    7.0467   -3.1243 C   0  0  0  0  0  0  0  0  0  0  0  0
    1.3646    6.0561   -2.2309 C   0  0  0  0  0  0  0  0  0  0  0  0
    0.3699    3.5621   -0.0609 C   0  0  0  0  0  0  0  0  0  0  0  0
   -1.1227    4.3294   -0.0118 S   0  0  0  0  0  0  0  0  0  0  0  0
   -1.9924    2.8817    0.2595 C   0  0  0  0  0  0  0  0  0  0  0  0
   -1.1015    1.8013    0.3230 C   0  0  0  0  0  0  0  0  0  0  0  0
   -1.4741    0.4407    0.6047 N   0  0  0  0  0  0  0  0  0  0  0  0
   -1.5073   -0.0279    1.9708 C   0  0  0  0  0  0  0  0  0  0  0  0
   -0.4776    0.3033    2.8705 C   0  0  0  0  0  0  0  0  0  0  0  0
   -0.5030   -0.1658    4.1854 C   0  0  0  0  0  0  0  0  0  0  0  0
   -1.5654   -0.9604    4.6288 C   0  0  0  0  0  0  0  0  0  0  0  0
   -1.5856   -1.5472    6.3248 S   0  0  0  0  0  0  0  0  0  0  0  0
   -0.9900   -3.2110    5.8925 C   0  0  0  0  0  0  0  0  0  0  0  0
   -2.6093   -1.2783    3.7512 C   0  0  0  0  0  0  0  0  0  0  0  0
   -2.5794   -0.8187    2.4307 C   0  0  0  0  0  0  0  0  0  0  0  0
   -1.6641   -0.4841   -0.4781 C   0  0  0  0  0  0  0  0  0  0  0  0
   -2.9593   -0.8265   -0.9006 C   0  0  0  0  0  0  0  0  0  0  0  0
   -3.1456   -1.7973   -1.8881 C   0  0  0  0  0  0  0  0  0  0  0  0
   -2.0403   -2.4066   -2.4909 C   0  0  0  0  0  0  0  0  0  0  0  0
   -2.2676   -3.6573   -3.7541 S   0  0  0  0  0  0  0  0  0  0  0  0
   -2.5851   -2.4362   -5.0669 C   0  0  0  0  0  0  0  0  0  0  0  0
   -0.7464   -2.0446   -2.0963 C   0  0  0  0  0  0  0  0  0  0  0  0
   -0.5613   -1.0936   -1.0895 C   0  0  0  0  0  0  0  0  0  0  0  0
    0.2034    2.2252    0.1121 C   0  0  0  0  0  0  0  0  0  0  0  0
    1.6849    1.4552    0.1270 S   0  0  0  0  0  0  0  0  0  0  0  0
   -3.4527    2.7420    0.2158 C   0  0  0  0  0  0  0  0  0  0  0  0
   -4.1847    3.3466   -0.8159 C   0  0  0  0  0  0  0  0  0  0  0  0
   -5.4642    2.9487   -1.0386 N   0  0  0  0  0  0  0  0  0  0  0  0
   -6.0611    2.0085   -0.2528 C   0  0  0  0  0  0  0  0  0  0  0  0
   -5.3759    1.5167    0.8620 C   0  0  0  0  0  0  0  0  0  0  0  0
   -4.0765    1.8662    1.0471 N   0  0  0  0  0  0  0  0  0  0  0  0
   -7.3731    1.4530   -0.6175 C   0  0  0  0  0  0  0  0  0  0  0  0
   -7.6646    0.9958   -1.8540 C   0  0  0  0  0  0  0  0  0  0  0  0
   -6.6869    0.7238   -2.9217 C   0  0  0  0  0  0  0  0  0  0  0  0
   -5.4672    1.0466   -2.9350 O   0  0  0  0  0  0  0  0  0  0  0  0
   -7.3214   -0.0909   -3.9318 C   0  0  0  0  0  0  0  0  0  0  0  0
   -6.7466   -0.6106   -5.0927 C   0  0  0  0  0  0  0  0  0  0  0  0
   -7.5398   -1.4062   -5.9303 C   0  0  0  0  0  0  0  0  0  0  0  0
   -7.0146   -1.9181   -7.0726 F   0  0  0  0  0  0  0  0  0  0  0  0
   -8.8791   -1.6655   -5.5897 C   0  0  0  0  0  0  0  0  0  0  0  0
   -9.6435   -2.4350   -6.4078 F   0  0  0  0  0  0  0  0  0  0  0  0
   -9.4362   -1.1334   -4.4169 C   0  0  0  0  0  0  0  0  0  0  0  0
   -8.6402   -0.3328   -3.5792 C   0  0  0  0  0  0  0  0  0  0  0  0
   -8.9527    0.3743   -2.3036 C   0  0  0  0  0  0  0  0  0  0  0  0
  -10.1797    0.5631   -1.7460 C   0  0  0  0  0  0  0  0  0  0  0  0
  -10.3988    1.4991   -0.6711 C   0  0  0  0  0  0  0  0  0  0  0  0
  -10.5826    2.2509    0.1893 N   0  0  0  0  0  0  0  0  0  0  0  0
  -11.3655   -0.1019   -2.2163 C   0  0  0  0  0  0  0  0  0  0  0  0
  -12.3284   -0.6325   -2.5802 N   0  0  0  0  0  0  0  0  0  0  0  0
    6.4919   -5.1216   -0.6984 H   0  0  0  0  0  0  0  0  0  0  0  0
    1.0666   -2.3923    0.9992 H   0  0  0  0  0  0  0  0  0  0  0  0
    1.5223   -7.4552    0.6666 H   0  0  0  0  0  0  0  0  0  0  0  0
   -0.9860   -6.4637    2.8298 H   0  0  0  0  0  0  0  0  0  0  0  0
   -2.1029   -7.3974    0.4656 H   0  0  0  0  0  0  0  0  0  0  0  0
   -4.1810   -6.8411    2.0232 H   0  0  0  0  0  0  0  0  0  0  0  0
   -4.4352   -4.2464    2.1516 H   0  0  0  0  0  0  0  0  0  0  0  0
   -2.5162   -3.1535    0.6825 H   0  0  0  0  0  0  0  0  0  0  0  0
   -3.1563   -5.2870   -0.7576 H   0  0  0  0  0  0  0  0  0  0  0  0
   -1.3585   -5.1112   -0.7230 H   0  0  0  0  0  0  0  0  0  0  0  0
   -1.2351   -4.0825    2.9561 H   0  0  0  0  0  0  0  0  0  0  0  0
    5.7983   -2.4390   -2.6038 H   0  0  0  0  0  0  0  0  0  0  0  0
    5.5485   -0.5990   -4.0875 H   0  0  0  0  0  0  0  0  0  0  0  0
    4.8937    1.0521   -3.9770 H   0  0  0  0  0  0  0  0  0  0  0  0
    2.9449    0.2012   -2.6070 H   0  0  0  0  0  0  0  0  0  0  0  0
    3.6076   -1.4788   -2.7425 H   0  0  0  0  0  0  0  0  0  0  0  0
    3.0612   -0.6016   -4.2121 H   0  0  0  0  0  0  0  0  0  0  0  0
    7.1792   -0.6922    1.8603 H   0  0  0  0  0  0  0  0  0  0  0  0
    6.9813   -3.1250    1.4870 H   0  0  0  0  0  0  0  0  0  0  0  0
    6.2881    1.5591    2.0077 H   0  0  0  0  0  0  0  0  0  0  0  0
    4.3855    3.1082    1.9298 H   0  0  0  0  0  0  0  0  0  0  0  0
    3.9077    2.3724   -2.2877 H   0  0  0  0  0  0  0  0  0  0  0  0
    4.4468    6.6500    0.3655 H   0  0  0  0  0  0  0  0  0  0  0  0
    5.6246    7.0251    2.5094 H   0  0  0  0  0  0  0  0  0  0  0  0
    6.3152    4.4952    4.3607 H   0  0  0  0  0  0  0  0  0  0  0  0
    6.2241    4.4464    6.1702 H   0  0  0  0  0  0  0  0  0  0  0  0
    4.8216    3.8742    5.1873 H   0  0  0  0  0  0  0  0  0  0  0  0
    2.3998    5.1065    4.6199 H   0  0  0  0  0  0  0  0  0  0  0  0
    1.2261    4.7351    2.4969 H   0  0  0  0  0  0  0  0  0  0  0  0
    1.8289    8.0267    0.5211 H   0  0  0  0  0  0  0  0  0  0  0  0
    1.1122    9.7512   -1.0662 H   0  0  0  0  0  0  0  0  0  0  0  0
   -1.5100    9.8713   -2.2828 H   0  0  0  0  0  0  0  0  0  0  0  0
   -2.0070   10.2742   -3.9736 H   0  0  0  0  0  0  0  0  0  0  0  0
   -1.8028    8.5454   -3.4891 H   0  0  0  0  0  0  0  0  0  0  0  0
    0.6909    6.7766   -4.1391 H   0  0  0  0  0  0  0  0  0  0  0  0
    1.4329    5.0334   -2.5791 H   0  0  0  0  0  0  0  0  0  0  0  0
    0.3556    0.9108    2.5624 H   0  0  0  0  0  0  0  0  0  0  0  0
    0.2962    0.0946    4.8622 H   0  0  0  0  0  0  0  0  0  0  0  0
   -1.8277   -3.7859    5.4533 H   0  0  0  0  0  0  0  0  0  0  0  0
   -0.6467   -3.7317    6.8109 H   0  0  0  0  0  0  0  0  0  0  0  0
   -0.1508   -3.1607    5.1743 H   0  0  0  0  0  0  0  0  0  0  0  0
   -3.4339   -1.8926    4.0821 H   0  0  0  0  0  0  0  0  0  0  0  0
   -3.3969   -1.0767    1.7758 H   0  0  0  0  0  0  0  0  0  0  0  0
   -3.8253   -0.3753   -0.4434 H   0  0  0  0  0  0  0  0  0  0  0  0
   -4.1497   -2.0746   -2.1848 H   0  0  0  0  0  0  0  0  0  0  0  0
   -1.8407   -1.6166   -5.0399 H   0  0  0  0  0  0  0  0  0  0  0  0
   -3.6050   -2.0273   -4.9272 H   0  0  0  0  0  0  0  0  0  0  0  0
   -2.5500   -2.9446   -6.0586 H   0  0  0  0  0  0  0  0  0  0  0  0
    0.1144   -2.5169   -2.5541 H   0  0  0  0  0  0  0  0  0  0  0  0
    0.4430   -0.8585   -0.7705 H   0  0  0  0  0  0  0  0  0  0  0  0
   -3.7138    4.0467   -1.4991 H   0  0  0  0  0  0  0  0  0  0  0  0
   -5.8344    0.7959    1.5273 H   0  0  0  0  0  0  0  0  0  0  0  0
   -8.0675    1.3077    0.1924 H   0  0  0  0  0  0  0  0  0  0  0  0
   -5.7163   -0.4044   -5.3472 H   0  0  0  0  0  0  0  0  0  0  0  0
  -10.4607   -1.3668   -4.1919 H   0  0  0  0  0  0  0  0  0  0  0  0
  1  2  2  3
  2  3  1  0
  3  4  2  0
  3  5  1  0
  5  6  2  0
  6  7  1  0
  7  8  2  0
  8  9  1  0
  9 10  2  0
 10 11  1  0
 11 12  2  3
 12 13  1  0
 13 14  3  0
 12 15  1  0
 15 16  3  0
  8 17  1  0
 17 18  1  0
 18 19  1  0
 19 20  2  0
 20 21  1  0
 21 22  1  0
 21 23  1  0
  1 24  1  0
 24 25  2  0
 25 26  1  0
 26 27  1  0
 27 28  1  0
 28 29  1  0
 27 30  1  0
 30 31  2  0
 31 32  1  0
 32 33  1  0
 33 34  2  0
 31 35  1  0
 35 36  2  0
 36 37  1  0
 37 38  2  0
 37 39  1  0
 39 40  2  0
 40 41  1  0
 41 42  1  0
 42 43  2  0
 43 44  1  0
 44 45  2  0
 45 46  1  0
 46 47  1  0
 45 48  1  0
 48 49  2  0
 41 50  1  0
 50 51  2  0
 51 52  1  0
 52 53  2  0
 53 54  1  0
 54 55  1  0
 53 56  1  0
 56 57  2  0
 40 58  1  0
 58 59  1  0
 59 60  1  0
 60 61  2  0
 61 62  1  0
 62 63  1  0
 63 64  2  0
 64 65  1  0
 65 66  2  0
 66 67  1  0
 67 68  1  0
 66 69  1  0
 69 70  2  0
 62 71  1  0
 71 72  2  0
 72 73  1  0
 73 74  2  0
 74 75  1  0
 75 76  1  0
 74 77  1  0
 77 78  2  0
 61 79  1  0
 79 80  1  0
 60 81  1  0
 81 82  2  0
 82 83  1  0
 83 84  2  0
 84 85  1  0
 85 86  2  0
 84 87  1  0
 87 88  2  3
 88 89  1  0
 89 90  2  0
 89 91  1  0
 91 92  2  0
 92 93  1  0
 93 94  1  0
 93 95  2  0
 95 96  1  0
 95 97  1  0
 97 98  2  0
 98 99  1  0
 99100  2  3
100101  1  0
101102  3  0
100103  1  0
103104  3  0
 11  2  1  0
 23 17  1  0
 34 24  1  0
 80 39  1  0
 86 81  1  0
 99 88  1  0
 10  5  1  0
 22 18  1  0
 32 26  2  0
 49 42  1  0
 57 50  1  0
 79 58  2  0
 98 91  1  0
 23  7  1  0
 38 30  1  0
 70 63  1  0
 78 71  1  0
  1105  1  0
  6106  1  0
  9107  1  0
 17108  1  0
 18109  1  0
 19110  1  0
 20111  1  0
 21112  1  0
 22113  1  0
 22114  1  0
 23115  1  0
 25116  1  0
 28117  1  0
 28118  1  0
 29119  1  0
 29120  1  0
 29121  1  0
 33122  1  0
 34123  1  0
 35124  1  0
 36125  1  0
 38126  1  0
 43127  1  0
 44128  1  0
 47129  1  0
 47130  1  0
 47131  1  0
 48132  1  0
 49133  1  0
 51134  1  0
 52135  1  0
 55136  1  0
 55137  1  0
 55138  1  0
 56139  1  0
 57140  1  0
 64141  1  0
 65142  1  0
 68143  1  0
 68144  1  0
 68145  1  0
 69146  1  0
 70147  1  0
 72148  1  0
 73149  1  0
 76150  1  0
 76151  1  0
 76152  1  0
 77153  1  0
 78154  1  0
 82155  1  0
 85156  1  0
 87157  1  0
 92158  1  0
 97159  1  0
M  END

