
     RDKit          3D

214237  0  0  0  0  0  0  0  0999 V2000
   10.2964    5.1046    3.9518 C   0  0  0  0  0  0  0  0  0  0  0  0
   10.6344    3.8188    4.1774 C   0  0  0  0  0  0  0  0  0  0  0  0
    9.7367    2.6658    4.0712 C   0  0  0  0  0  0  0  0  0  0  0  0
    8.6486    2.5772    4.6887 O   0  0  0  0  0  0  0  0  0  0  0  0
   10.5571    1.5033    3.7890 C   0  0  0  0  0  0  0  0  0  0  0  0
   10.0842    0.1939    3.5605 C   0  0  0  0  0  0  0  0  0  0  0  0
   11.0871   -0.7569    3.5084 C   0  0  0  0  0  0  0  0  0  0  0  0
   12.4740   -0.4438    3.6412 C   0  0  0  0  0  0  0  0  0  0  0  0
   12.9432    0.8517    3.8180 C   0  0  0  0  0  0  0  0  0  0  0  0
   11.9271    1.8470    3.8996 C   0  0  0  0  0  0  0  0  0  0  0  0
   12.0303    3.3010    4.2735 C   0  0  0  0  0  0  0  0  0  0  0  0
   13.0750    3.9209    4.8826 C   0  0  0  0  0  0  0  0  0  0  0  0
   14.3537    3.2832    5.0452 C   0  0  0  0  0  0  0  0  0  0  0  0
   15.3795    2.7617    5.1780 N   0  0  0  0  0  0  0  0  0  0  0  0
   12.8708    5.1170    5.6695 C   0  0  0  0  0  0  0  0  0  0  0  0
   12.6740    6.0358    6.3535 N   0  0  0  0  0  0  0  0  0  0  0  0
   12.8306   -1.8993    3.5737 C   0  0  0  0  0  0  0  0  0  0  0  0
   13.4897   -2.4017    2.2575 C   0  0  0  0  0  0  0  0  0  0  0  0
   13.3736   -3.9055    2.2874 C   0  0  0  0  0  0  0  0  0  0  0  0
   12.0765   -4.1946    2.1136 C   0  0  0  0  0  0  0  0  0  0  0  0
   11.3624   -2.8718    1.9815 C   0  0  0  0  0  0  0  0  0  0  0  0
   12.4287   -2.1051    1.2136 C   0  0  0  0  0  0  0  0  0  0  0  0
   11.4105   -2.2159    3.3999 C   0  0  0  0  0  0  0  0  0  0  0  0
    9.0156    5.4688    3.3279 C   0  0  0  0  0  0  0  0  0  0  0  0
    7.7840    5.2597    3.9872 C   0  0  0  0  0  0  0  0  0  0  0  0
    6.6084    5.3099    3.2196 C   0  0  0  0  0  0  0  0  0  0  0  0
    5.3718    4.8849    3.5713 N   0  0  0  0  0  0  0  0  0  0  0  0
    4.9289    4.4324    4.8942 C   0  0  0  0  0  0  0  0  0  0  0  0
    4.5067    5.6297    5.7391 C   0  0  0  0  0  0  0  0  0  0  0  0
    4.6459    4.9021    2.4195 C   0  0  0  0  0  0  0  0  0  0  0  0
    5.4141    5.3562    1.3626 C   0  0  0  0  0  0  0  0  0  0  0  0
    6.6662    5.6180    1.8727 C   0  0  0  0  0  0  0  0  0  0  0  0
    7.8557    5.9284    1.2252 C   0  0  0  0  0  0  0  0  0  0  0  0
    9.0370    5.8602    1.9691 C   0  0  0  0  0  0  0  0  0  0  0  0
    4.9768    5.2994    0.0430 C   0  0  0  0  0  0  0  0  0  0  0  0
    3.7384    4.6863   -0.2000 C   0  0  0  0  0  0  0  0  0  0  0  0
    2.9581    4.1762    0.8646 C   0  0  0  0  0  0  0  0  0  0  0  0
    3.3922    4.3290    2.1947 C   0  0  0  0  0  0  0  0  0  0  0  0
    1.9012    3.2000    0.5630 C   0  0  0  0  0  0  0  0  0  0  0  0
    0.5385    3.2075    0.9612 C   0  0  0  0  0  0  0  0  0  0  0  0
   -0.1827    4.3417    1.5174 N   0  0  0  0  0  0  0  0  0  0  0  0
   -1.5940    4.2758    1.7524 C   0  0  0  0  0  0  0  0  0  0  0  0
   -2.0882    3.7821    2.9690 C   0  0  0  0  0  0  0  0  0  0  0  0
   -3.4683    3.7405    3.2016 C   0  0  0  0  0  0  0  0  0  0  0  0
   -4.3626    4.2053    2.2262 C   0  0  0  0  0  0  0  0  0  0  0  0
   -6.1276    4.2120    2.5448 S   0  0  0  0  0  0  0  0  0  0  0  0
   -6.4029    2.5709    1.8075 C   0  0  0  0  0  0  0  0  0  0  0  0
   -3.8667    4.7172    1.0186 C   0  0  0  0  0  0  0  0  0  0  0  0
   -2.4904    4.7446    0.7803 C   0  0  0  0  0  0  0  0  0  0  0  0
    0.4337    5.6182    1.7235 C   0  0  0  0  0  0  0  0  0  0  0  0
    0.5417    6.1384    3.0223 C   0  0  0  0  0  0  0  0  0  0  0  0
    1.0914    7.4007    3.2335 C   0  0  0  0  0  0  0  0  0  0  0  0
    1.5074    8.1784    2.1450 C   0  0  0  0  0  0  0  0  0  0  0  0
    2.1962    9.8036    2.4344 S   0  0  0  0  0  0  0  0  0  0  0  0
    0.5787   10.6411    2.4268 C   0  0  0  0  0  0  0  0  0  0  0  0
    1.3938    7.6720    0.8437 C   0  0  0  0  0  0  0  0  0  0  0  0
    0.8418    6.4049    0.6340 C   0  0  0  0  0  0  0  0  0  0  0  0
   -0.0355    1.9505    0.7170 C   0  0  0  0  0  0  0  0  0  0  0  0
   -1.5448    1.2300    0.9418 S   0  0  0  0  0  0  0  0  0  0  0  0
   -1.0687   -0.3000    0.3740 C   0  0  0  0  0  0  0  0  0  0  0  0
    0.2580   -0.2258   -0.0507 C   0  0  0  0  0  0  0  0  0  0  0  0
    0.9876   -1.3274   -0.6186 N   0  0  0  0  0  0  0  0  0  0  0  0
    1.4760   -1.2487   -1.9790 C   0  0  0  0  0  0  0  0  0  0  0  0
    0.8123   -0.4586   -2.9377 C   0  0  0  0  0  0  0  0  0  0  0  0
    1.2678   -0.3961   -4.2553 C   0  0  0  0  0  0  0  0  0  0  0  0
    2.4254   -1.0943   -4.6291 C   0  0  0  0  0  0  0  0  0  0  0  0
    2.9970   -1.0405   -6.3292 S   0  0  0  0  0  0  0  0  0  0  0  0
    3.9719    0.4799   -6.0887 C   0  0  0  0  0  0  0  0  0  0  0  0
    3.1013   -1.8675   -3.6848 C   0  0  0  0  0  0  0  0  0  0  0  0
    2.6437   -1.9378   -2.3661 C   0  0  0  0  0  0  0  0  0  0  0  0
    1.2788   -2.4454    0.2416 C   0  0  0  0  0  0  0  0  0  0  0  0
    1.1454   -3.7673   -0.2267 C   0  0  0  0  0  0  0  0  0  0  0  0
    1.4486   -4.8437    0.6139 C   0  0  0  0  0  0  0  0  0  0  0  0
    1.8720   -4.6168    1.9296 C   0  0  0  0  0  0  0  0  0  0  0  0
    2.3135   -5.9894    2.9959 S   0  0  0  0  0  0  0  0  0  0  0  0
    0.6245   -6.2070    3.6434 C   0  0  0  0  0  0  0  0  0  0  0  0
    1.9884   -3.3078    2.4035 C   0  0  0  0  0  0  0  0  0  0  0  0
    1.6938   -2.2278    1.5668 C   0  0  0  0  0  0  0  0  0  0  0  0
    0.8001    1.0305    0.1662 C   0  0  0  0  0  0  0  0  0  0  0  0
    2.3196    1.6735   -0.0650 S   0  0  0  0  0  0  0  0  0  0  0  0
   -1.9923   -1.3289   -0.0834 C   0  0  0  0  0  0  0  0  0  0  0  0
   -2.4752   -1.3672   -1.3779 C   0  0  0  0  0  0  0  0  0  0  0  0
   -3.1659   -2.5458   -1.6678 C   0  0  0  0  0  0  0  0  0  0  0  0
   -3.7544   -2.8521   -2.8974 C   0  0  0  0  0  0  0  0  0  0  0  0
   -3.9359   -1.8160   -3.9326 C   0  0  0  0  0  0  0  0  0  0  0  0
   -2.8464   -1.3301   -4.6707 C   0  0  0  0  0  0  0  0  0  0  0  0
   -3.0280   -0.2749   -5.5720 C   0  0  0  0  0  0  0  0  0  0  0  0
   -4.2903    0.3154   -5.7156 C   0  0  0  0  0  0  0  0  0  0  0  0
   -5.3795   -0.1564   -4.9660 C   0  0  0  0  0  0  0  0  0  0  0  0
   -7.0011    0.6069   -5.1055 S   0  0  0  0  0  0  0  0  0  0  0  0
   -6.7533    1.7605   -3.7080 C   0  0  0  0  0  0  0  0  0  0  0  0
   -8.0550    1.9014   -2.9203 C   0  0  0  0  0  0  0  0  0  0  0  0
   -5.2025   -1.2349   -4.0937 C   0  0  0  0  0  0  0  0  0  0  0  0
   -4.3977   -4.0883   -2.9989 C   0  0  0  0  0  0  0  0  0  0  0  0
   -4.5704   -4.9487   -1.9097 C   0  0  0  0  0  0  0  0  0  0  0  0
   -4.0065   -4.6201   -0.6495 C   0  0  0  0  0  0  0  0  0  0  0  0
   -4.2235   -5.4590    0.5560 C   0  0  0  0  0  0  0  0  0  0  0  0
   -4.7538   -4.8842    1.7284 C   0  0  0  0  0  0  0  0  0  0  0  0
   -4.9718   -5.6710    2.8620 C   0  0  0  0  0  0  0  0  0  0  0  0
   -4.6707   -7.0350    2.8376 C   0  0  0  0  0  0  0  0  0  0  0  0
   -4.1695   -7.6244    1.6725 C   0  0  0  0  0  0  0  0  0  0  0  0
   -3.8907   -9.3941    1.6175 S   0  0  0  0  0  0  0  0  0  0  0  0
   -2.1459   -9.3302    2.1637 C   0  0  0  0  0  0  0  0  0  0  0  0
   -1.9449  -10.2736    3.3402 C   0  0  0  0  0  0  0  0  0  0  0  0
   -3.9413   -6.8368    0.5357 C   0  0  0  0  0  0  0  0  0  0  0  0
   -3.2747   -3.4151   -0.5805 C   0  0  0  0  0  0  0  0  0  0  0  0
   -2.4323   -2.7399    0.7257 S   0  0  0  0  0  0  0  0  0  0  0  0
   -5.4424   -6.0170   -2.2138 C   0  0  0  0  0  0  0  0  0  0  0  0
   -5.8851   -6.0000   -3.5358 C   0  0  0  0  0  0  0  0  0  0  0  0
   -5.2331   -4.6696   -4.3278 S   0  0  0  0  0  0  0  0  0  0  0  0
   -7.0810   -6.6577   -4.0705 C   0  0  0  0  0  0  0  0  0  0  0  0
   -8.2503   -5.9763   -4.1103 C   0  0  0  0  0  0  0  0  0  0  0  0
   -8.4603   -4.7135   -3.3853 C   0  0  0  0  0  0  0  0  0  0  0  0
   -7.9539   -4.4115   -2.2710 O   0  0  0  0  0  0  0  0  0  0  0  0
   -9.3590   -3.8806   -4.1318 C   0  0  0  0  0  0  0  0  0  0  0  0
   -9.6909   -2.5352   -3.8511 C   0  0  0  0  0  0  0  0  0  0  0  0
  -10.6194   -2.0057   -4.7276 C   0  0  0  0  0  0  0  0  0  0  0  0
  -11.2076   -2.7558   -5.7972 C   0  0  0  0  0  0  0  0  0  0  0  0
  -10.8705   -4.0697   -6.0860 C   0  0  0  0  0  0  0  0  0  0  0  0
   -9.8630   -4.6194   -5.2367 C   0  0  0  0  0  0  0  0  0  0  0  0
   -9.2124   -5.9691   -5.2633 C   0  0  0  0  0  0  0  0  0  0  0  0
   -9.3247   -6.9032   -6.2437 C   0  0  0  0  0  0  0  0  0  0  0  0
   -8.8512   -8.2506   -6.0790 C   0  0  0  0  0  0  0  0  0  0  0  0
   -8.4828   -9.3484   -5.9772 N   0  0  0  0  0  0  0  0  0  0  0  0
   -9.9124   -6.5973   -7.5226 C   0  0  0  0  0  0  0  0  0  0  0  0
  -10.3598   -6.3594   -8.5674 N   0  0  0  0  0  0  0  0  0  0  0  0
  -12.1174   -1.6105   -6.1132 C   0  0  0  0  0  0  0  0  0  0  0  0
  -13.5933   -1.7365   -5.6124 C   0  0  0  0  0  0  0  0  0  0  0  0
  -14.1833   -0.3534   -5.7261 C   0  0  0  0  0  0  0  0  0  0  0  0
  -13.5810    0.3940   -4.7941 C   0  0  0  0  0  0  0  0  0  0  0  0
  -12.6184   -0.5201   -4.0653 C   0  0  0  0  0  0  0  0  0  0  0  0
  -13.4478   -1.7980   -4.0950 C   0  0  0  0  0  0  0  0  0  0  0  0
  -11.4680   -0.8188   -5.0630 C   0  0  0  0  0  0  0  0  0  0  0  0
   11.0782    5.8615    3.9139 H   0  0  0  0  0  0  0  0  0  0  0  0
    9.0316   -0.0612    3.4793 H   0  0  0  0  0  0  0  0  0  0  0  0
   14.0035    1.0430    3.9143 H   0  0  0  0  0  0  0  0  0  0  0  0
   13.2828   -2.2877    4.5118 H   0  0  0  0  0  0  0  0  0  0  0  0
   14.5020   -2.0064    2.0390 H   0  0  0  0  0  0  0  0  0  0  0  0
   14.1842   -4.6301    2.3336 H   0  0  0  0  0  0  0  0  0  0  0  0
   11.6585   -5.1907    1.9816 H   0  0  0  0  0  0  0  0  0  0  0  0
   10.3585   -2.9163    1.5027 H   0  0  0  0  0  0  0  0  0  0  0  0
   12.6706   -2.5472    0.2090 H   0  0  0  0  0  0  0  0  0  0  0  0
   12.2059   -1.0254    1.0808 H   0  0  0  0  0  0  0  0  0  0  0  0
   10.9822   -2.8239    4.2261 H   0  0  0  0  0  0  0  0  0  0  0  0
    7.7581    4.9633    5.0255 H   0  0  0  0  0  0  0  0  0  0  0  0
    4.0814    3.7218    4.8191 H   0  0  0  0  0  0  0  0  0  0  0  0
    5.7434    3.8783    5.4084 H   0  0  0  0  0  0  0  0  0  0  0  0
    4.1933    5.2820    6.7431 H   0  0  0  0  0  0  0  0  0  0  0  0
    5.3574    6.3357    5.8449 H   0  0  0  0  0  0  0  0  0  0  0  0
    3.6552    6.1484    5.2487 H   0  0  0  0  0  0  0  0  0  0  0  0
    7.8891    6.1166    0.1572 H   0  0  0  0  0  0  0  0  0  0  0  0
    9.9781    6.0232    1.4689 H   0  0  0  0  0  0  0  0  0  0  0  0
    5.6030    5.6184   -0.7769 H   0  0  0  0  0  0  0  0  0  0  0  0
    3.4252    4.5281   -1.2263 H   0  0  0  0  0  0  0  0  0  0  0  0
    2.8169    3.8984    2.9958 H   0  0  0  0  0  0  0  0  0  0  0  0
   -1.4055    3.4221    3.7272 H   0  0  0  0  0  0  0  0  0  0  0  0
   -3.8418    3.3550    4.1417 H   0  0  0  0  0  0  0  0  0  0  0  0
   -6.0811    2.5606    0.7429 H   0  0  0  0  0  0  0  0  0  0  0  0
   -7.4853    2.3391    1.8545 H   0  0  0  0  0  0  0  0  0  0  0  0
   -5.8456    1.8012    2.3795 H   0  0  0  0  0  0  0  0  0  0  0  0
   -4.5411    5.0949    0.2619 H   0  0  0  0  0  0  0  0  0  0  0  0
   -2.1179    5.1440   -0.1562 H   0  0  0  0  0  0  0  0  0  0  0  0
    0.2105    5.5498    3.8702 H   0  0  0  0  0  0  0  0  0  0  0  0
    1.1680    7.7814    4.2446 H   0  0  0  0  0  0  0  0  0  0  0  0
    0.2123   10.7310    1.3835 H   0  0  0  0  0  0  0  0  0  0  0  0
    0.6974   11.6558    2.8537 H   0  0  0  0  0  0  0  0  0  0  0  0
   -0.1668   10.0907    3.0339 H   0  0  0  0  0  0  0  0  0  0  0  0
    1.7170    8.2662   -0.0026 H   0  0  0  0  0  0  0  0  0  0  0  0
    0.7391    6.0232   -0.3725 H   0  0  0  0  0  0  0  0  0  0  0  0
   -0.0778    0.1013   -2.6793 H   0  0  0  0  0  0  0  0  0  0  0  0
    0.7269    0.2037   -4.9781 H   0  0  0  0  0  0  0  0  0  0  0  0
    4.7410    0.3338   -5.2971 H   0  0  0  0  0  0  0  0  0  0  0  0
    4.4821    0.7393   -7.0397 H   0  0  0  0  0  0  0  0  0  0  0  0
    3.3061    1.3218   -5.8056 H   0  0  0  0  0  0  0  0  0  0  0  0
    3.9940   -2.4129   -3.9645 H   0  0  0  0  0  0  0  0  0  0  0  0
    3.1967   -2.5296   -1.6523 H   0  0  0  0  0  0  0  0  0  0  0  0
    0.8046   -3.9556   -1.2358 H   0  0  0  0  0  0  0  0  0  0  0  0
    1.3686   -5.8533    0.2338 H   0  0  0  0  0  0  0  0  0  0  0  0
    0.0157   -6.7677    2.9031 H   0  0  0  0  0  0  0  0  0  0  0  0
    0.6754   -6.7891    4.5869 H   0  0  0  0  0  0  0  0  0  0  0  0
    0.1452   -5.2299    3.8573 H   0  0  0  0  0  0  0  0  0  0  0  0
    2.3218   -3.1226    3.4164 H   0  0  0  0  0  0  0  0  0  0  0  0
    1.8024   -1.2211    1.9504 H   0  0  0  0  0  0  0  0  0  0  0  0
   -2.2930   -0.5780   -2.0949 H   0  0  0  0  0  0  0  0  0  0  0  0
   -1.8598   -1.7523   -4.5308 H   0  0  0  0  0  0  0  0  0  0  0  0
   -2.1799    0.1053   -6.1269 H   0  0  0  0  0  0  0  0  0  0  0  0
   -4.4211    1.1433   -6.3972 H   0  0  0  0  0  0  0  0  0  0  0  0
   -6.4541    2.7469   -4.1110 H   0  0  0  0  0  0  0  0  0  0  0  0
   -5.9617    1.4081   -3.0131 H   0  0  0  0  0  0  0  0  0  0  0  0
   -8.3091    0.9353   -2.4394 H   0  0  0  0  0  0  0  0  0  0  0  0
   -8.8747    2.2144   -3.5935 H   0  0  0  0  0  0  0  0  0  0  0  0
   -7.9281    2.6688   -2.1322 H   0  0  0  0  0  0  0  0  0  0  0  0
   -6.0435   -1.5899   -3.5067 H   0  0  0  0  0  0  0  0  0  0  0  0
   -5.0056   -3.8308    1.7585 H   0  0  0  0  0  0  0  0  0  0  0  0
   -5.3746   -5.2157    3.7574 H   0  0  0  0  0  0  0  0  0  0  0  0
   -4.8497   -7.6395    3.7205 H   0  0  0  0  0  0  0  0  0  0  0  0
   -1.8412   -8.3076    2.4649 H   0  0  0  0  0  0  0  0  0  0  0  0
   -1.5059   -9.6522    1.3162 H   0  0  0  0  0  0  0  0  0  0  0  0
   -2.5211   -9.9098    4.2185 H   0  0  0  0  0  0  0  0  0  0  0  0
   -0.8680  -10.3166    3.6125 H   0  0  0  0  0  0  0  0  0  0  0  0
   -2.2883  -11.2978    3.0833 H   0  0  0  0  0  0  0  0  0  0  0  0
   -3.5572   -7.2978   -0.3642 H   0  0  0  0  0  0  0  0  0  0  0  0
   -5.8242   -6.7146   -1.4796 H   0  0  0  0  0  0  0  0  0  0  0  0
   -6.8855   -7.4548   -4.7634 H   0  0  0  0  0  0  0  0  0  0  0  0
   -9.3049   -1.9860   -3.0024 H   0  0  0  0  0  0  0  0  0  0  0  0
  -11.3699   -4.6076   -6.8731 H   0  0  0  0  0  0  0  0  0  0  0  0
  -11.9825   -1.2112   -7.1382 H   0  0  0  0  0  0  0  0  0  0  0  0
  -14.1914   -2.5476   -6.0744 H   0  0  0  0  0  0  0  0  0  0  0  0
  -15.0071   -0.0381   -6.3595 H   0  0  0  0  0  0  0  0  0  0  0  0
  -13.8095    1.4316   -4.5707 H   0  0  0  0  0  0  0  0  0  0  0  0
  -12.3021   -0.1679   -3.0615 H   0  0  0  0  0  0  0  0  0  0  0  0
  -14.4174   -1.7026   -3.5485 H   0  0  0  0  0  0  0  0  0  0  0  0
  -12.9203   -2.7033   -3.7161 H   0  0  0  0  0  0  0  0  0  0  0  0
  -10.8827    0.0616   -5.4208 H   0  0  0  0  0  0  0  0  0  0  0  0
  1  2  2  3
  2  3  1  0
  3  4  2  0
  3  5  1  0
  5  6  2  0
  6  7  1  0
  7  8  2  0
  8  9  1  0
  9 10  2  0
 10 11  1  0
 11 12  2  3
 12 13  1  0
 13 14  3  0
 12 15  1  0
 15 16  3  0
  8 17  1  0
 17 18  1  0
 18 19  1  0
 19 20  2  0
 20 21  1  0
 21 22  1  0
 21 23  1  0
  1 24  1  0
 24 25  2  0
 25 26  1  0
 26 27  1  0
 27 28  1  0
 28 29  1  0
 27 30  1  0
 30 31  2  0
 31 32  1  0
 32 33  1  0
 33 34  2  0
 31 35  1  0
 35 36  2  0
 36 37  1  0
 37 38  2  0
 37 39  1  0
 39 40  2  0
 40 41  1  0
 41 42  1  0
 42 43  2  0
 43 44  1  0
 44 45  2  0
 45 46  1  0
 46 47  1  0
 45 48  1  0
 48 49  2  0
 41 50  1  0
 50 51  2  0
 51 52  1  0
 52 53  2  0
 53 54  1  0
 54 55  1  0
 53 56  1  0
 56 57  2  0
 40 58  1  0
 58 59  1  0
 59 60  1  0
 60 61  2  0
 61 62  1  0
 62 63  1  0
 63 64  2  0
 64 65  1  0
 65 66  2  0
 66 67  1  0
 67 68  1  0
 66 69  1  0
 69 70  2  0
 62 71  1  0
 71 72  2  0
 72 73  1  0
 73 74  2  0
 74 75  1  0
 75 76  1  0
 74 77  1  0
 77 78  2  0
 61 79  1  0
 79 80  1  0
 60 81  1  0
 81 82  2  0
 82 83  1  0
 83 84  2  0
 84 85  1  0
 85 86  2  0
 86 87  1  0
 87 88  2  0
 88 89  1  0
 89 90  1  0
 90 91  1  0
 91 92  1  0
 89 93  2  0
 84 94  1  0
 94 95  2  0
 95 96  1  0
 96 97  1  0
 97 98  2  0
 98 99  1  0
 99100  2  0
100101  1  0
101102  1  0
102103  1  0
103104  1  0
101105  2  0
 96106  2  0
106107  1  0
 95108  1  0
108109  2  0
109110  1  0
109111  1  0
111112  2  3
112113  1  0
113114  2  0
113115  1  0
115116  2  0
116117  1  0
117118  2  0
118119  1  0
119120  2  0
120121  1  0
121122  2  3
122123  1  0
123124  3  0
122125  1  0
125126  3  0
118127  1  0
127128  1  0
128129  1  0
129130  2  0
130131  1  0
131132  1  0
131133  1  0
 11  2  1  0
 23 17  1  0
 34 24  1  0
 80 39  1  0
107 81  1  0
121112  1  0
133127  1  0
 10  5  1  0
 22 18  1  0
 32 26  2  0
 49 42  1  0
 57 50  1  0
 79 58  2  0
106 83  1  0
120115  1  0
132128  1  0
 23  7  1  0
 38 30  1  0
 70 63  1  0
 78 71  1  0
 93 85  1  0
110 94  1  0
133117  1  0
105 97  1  0
  1134  1  0
  6135  1  0
  9136  1  0
 17137  1  0
 18138  1  0
 19139  1  0
 20140  1  0
 21141  1  0
 22142  1  0
 22143  1  0
 23144  1  0
 25145  1  0
 28146  1  0
 28147  1  0
 29148  1  0
 29149  1  0
 29150  1  0
 33151  1  0
 34152  1  0
 35153  1  0
 36154  1  0
 38155  1  0
 43156  1  0
 44157  1  0
 47158  1  0
 47159  1  0
 47160  1  0
 48161  1  0
 49162  1  0
 51163  1  0
 52164  1  0
 55165  1  0
 55166  1  0
 55167  1  0
 56168  1  0
 57169  1  0
 64170  1  0
 65171  1  0
 68172  1  0
 68173  1  0
 68174  1  0
 69175  1  0
 70176  1  0
 72177  1  0
 73178  1  0
 76179  1  0
 76180  1  0
 76181  1  0
 77182  1  0
 78183  1  0
 82184  1  0
 86185  1  0
 87186  1  0
 88187  1  0
 91188  1  0
 91189  1  0
 92190  1  0
 92191  1  0
 92192  1  0
 93193  1  0
 98194  1  0
 99195  1  0
100196  1  0
103197  1  0
103198  1  0
104199  1  0
104200  1  0
104201  1  0
105202  1  0
108203  1  0
111204  1  0
116205  1  0
119206  1  0
127207  1  0
128208  1  0
129209  1  0
130210  1  0
131211  1  0
132212  1  0
132213  1  0
133214  1  0
M  END

