
     RDKit          3D

206229  0  0  0  0  0  0  0  0999 V2000
   -2.6853    9.3266   -0.4570 C   0  0  0  0  0  0  0  0  0  0  0  0
   -3.7843    9.1662    0.3099 C   0  0  0  0  0  0  0  0  0  0  0  0
   -5.0460    8.5398   -0.1066 C   0  0  0  0  0  0  0  0  0  0  0  0
   -5.2423    7.8592   -1.1502 O   0  0  0  0  0  0  0  0  0  0  0  0
   -6.0675    8.8505    0.8699 C   0  0  0  0  0  0  0  0  0  0  0  0
   -7.4479    8.5614    0.7770 C   0  0  0  0  0  0  0  0  0  0  0  0
   -8.1877    9.0005    1.8604 C   0  0  0  0  0  0  0  0  0  0  0  0
   -7.6000    9.6833    2.9745 C   0  0  0  0  0  0  0  0  0  0  0  0
   -6.2546    9.9979    3.0581 C   0  0  0  0  0  0  0  0  0  0  0  0
   -5.4758    9.5541    1.9532 C   0  0  0  0  0  0  0  0  0  0  0  0
   -4.0131    9.7141    1.6887 C   0  0  0  0  0  0  0  0  0  0  0  0
   -3.0526   10.0250    2.6063 C   0  0  0  0  0  0  0  0  0  0  0  0
   -1.6473    9.8614    2.3462 C   0  0  0  0  0  0  0  0  0  0  0  0
   -0.5129    9.7435    2.1521 N   0  0  0  0  0  0  0  0  0  0  0  0
   -3.3550   10.4243    3.9582 C   0  0  0  0  0  0  0  0  0  0  0  0
   -3.5730   10.7547    5.0523 N   0  0  0  0  0  0  0  0  0  0  0  0
   -8.9360    9.7610    3.6540 C   0  0  0  0  0  0  0  0  0  0  0  0
   -9.1835    8.7692    4.8320 C   0  0  0  0  0  0  0  0  0  0  0  0
  -10.6748    8.7701    5.0681 C   0  0  0  0  0  0  0  0  0  0  0  0
  -11.2319    8.1629    4.0095 C   0  0  0  0  0  0  0  0  0  0  0  0
  -10.0920    7.7526    3.1071 C   0  0  0  0  0  0  0  0  0  0  0  0
   -9.0585    7.4050    4.1711 C   0  0  0  0  0  0  0  0  0  0  0  0
   -9.5379    9.0750    2.5003 C   0  0  0  0  0  0  0  0  0  0  0  0
   -2.3230    8.4314   -1.5683 C   0  0  0  0  0  0  0  0  0  0  0  0
   -1.2307    7.5675   -1.3771 C   0  0  0  0  0  0  0  0  0  0  0  0
   -0.9586    6.6095   -2.3544 C   0  0  0  0  0  0  0  0  0  0  0  0
   -0.0448    5.6106   -2.2945 N   0  0  0  0  0  0  0  0  0  0  0  0
    0.9377    5.3684   -1.2250 C   0  0  0  0  0  0  0  0  0  0  0  0
    2.1970    6.1929   -1.4693 C   0  0  0  0  0  0  0  0  0  0  0  0
   -0.2691    4.8627   -3.4019 C   0  0  0  0  0  0  0  0  0  0  0  0
   -1.3079    5.3835   -4.1535 C   0  0  0  0  0  0  0  0  0  0  0  0
   -1.7319    6.5199   -3.4892 C   0  0  0  0  0  0  0  0  0  0  0  0
   -2.7724    7.4087   -3.7491 C   0  0  0  0  0  0  0  0  0  0  0  0
   -3.0477    8.3989   -2.7858 C   0  0  0  0  0  0  0  0  0  0  0  0
   -1.8391    4.6999   -5.2448 C   0  0  0  0  0  0  0  0  0  0  0  0
   -1.3157    3.4295   -5.5486 C   0  0  0  0  0  0  0  0  0  0  0  0
   -0.2527    2.8876   -4.7846 C   0  0  0  0  0  0  0  0  0  0  0  0
    0.3169    3.6415   -3.7348 C   0  0  0  0  0  0  0  0  0  0  0  0
    0.1013    1.4629   -4.8950 C   0  0  0  0  0  0  0  0  0  0  0  0
   -0.7699    0.4162   -4.5427 C   0  0  0  0  0  0  0  0  0  0  0  0
   -2.1085    0.6208   -4.0616 N   0  0  0  0  0  0  0  0  0  0  0  0
   -2.3417    0.6928   -2.6289 C   0  0  0  0  0  0  0  0  0  0  0  0
   -3.5142    0.1603   -2.0599 C   0  0  0  0  0  0  0  0  0  0  0  0
   -3.7159    0.2036   -0.6757 C   0  0  0  0  0  0  0  0  0  0  0  0
   -2.7559    0.7841    0.1612 C   0  0  0  0  0  0  0  0  0  0  0  0
   -3.0236    0.8438    1.9338 S   0  0  0  0  0  0  0  0  0  0  0  0
   -1.9977   -0.6199    2.2696 C   0  0  0  0  0  0  0  0  0  0  0  0
   -1.5875    1.3154   -0.3926 C   0  0  0  0  0  0  0  0  0  0  0  0
   -1.3707    1.2469   -1.7696 C   0  0  0  0  0  0  0  0  0  0  0  0
   -3.1931    0.5985   -5.0114 C   0  0  0  0  0  0  0  0  0  0  0  0
   -4.2892    1.4689   -4.8736 C   0  0  0  0  0  0  0  0  0  0  0  0
   -5.3410    1.4395   -5.7975 C   0  0  0  0  0  0  0  0  0  0  0  0
   -5.2967    0.5549   -6.8816 C   0  0  0  0  0  0  0  0  0  0  0  0
   -6.6212    0.5318   -8.0908 S   0  0  0  0  0  0  0  0  0  0  0  0
   -7.4883   -0.8701   -7.3190 C   0  0  0  0  0  0  0  0  0  0  0  0
   -4.2042   -0.3039   -7.0363 C   0  0  0  0  0  0  0  0  0  0  0  0
   -3.1617   -0.2863   -6.1057 C   0  0  0  0  0  0  0  0  0  0  0  0
   -0.0808   -0.7713   -4.3312 C   0  0  0  0  0  0  0  0  0  0  0  0
   -0.4995   -2.1797   -3.5359 S   0  0  0  0  0  0  0  0  0  0  0  0
    1.1067   -2.7251   -3.3613 C   0  0  0  0  0  0  0  0  0  0  0  0
    1.9805   -1.7662   -3.9198 C   0  0  0  0  0  0  0  0  0  0  0  0
    3.4052   -1.7140   -3.7131 N   0  0  0  0  0  0  0  0  0  0  0  0
    4.2478   -1.5141   -4.8627 C   0  0  0  0  0  0  0  0  0  0  0  0
    5.1485   -0.4352   -4.9149 C   0  0  0  0  0  0  0  0  0  0  0  0
    5.9068   -0.2023   -6.0627 C   0  0  0  0  0  0  0  0  0  0  0  0
    5.7808   -1.0484   -7.1702 C   0  0  0  0  0  0  0  0  0  0  0  0
    6.7406   -0.7331   -8.6516 S   0  0  0  0  0  0  0  0  0  0  0  0
    5.4431    0.2898   -9.4189 C   0  0  0  0  0  0  0  0  0  0  0  0
    4.8967   -2.1314   -7.1212 C   0  0  0  0  0  0  0  0  0  0  0  0
    4.1238   -2.3555   -5.9797 C   0  0  0  0  0  0  0  0  0  0  0  0
    3.9451   -1.6053   -2.3749 C   0  0  0  0  0  0  0  0  0  0  0  0
    3.2080   -0.9919   -1.3426 C   0  0  0  0  0  0  0  0  0  0  0  0
    3.7251   -0.9179   -0.0477 C   0  0  0  0  0  0  0  0  0  0  0  0
    4.9835   -1.4580    0.2384 C   0  0  0  0  0  0  0  0  0  0  0  0
    5.6499   -1.3577    1.8997 S   0  0  0  0  0  0  0  0  0  0  0  0
    4.9392   -2.9536    2.4193 C   0  0  0  0  0  0  0  0  0  0  0  0
    5.7268   -2.0646   -0.7797 C   0  0  0  0  0  0  0  0  0  0  0  0
    5.2169   -2.1324   -2.0791 C   0  0  0  0  0  0  0  0  0  0  0  0
    1.2695   -0.6967   -4.4624 C   0  0  0  0  0  0  0  0  0  0  0  0
    1.7045    0.8786   -4.8464 S   0  0  0  0  0  0  0  0  0  0  0  0
    1.4694   -3.9005   -2.5506 C   0  0  0  0  0  0  0  0  0  0  0  0
    0.6660   -4.4430   -1.5469 C   0  0  0  0  0  0  0  0  0  0  0  0
    1.2979   -5.4633   -0.8196 C   0  0  0  0  0  0  0  0  0  0  0  0
    0.7670   -6.1304    0.3029 C   0  0  0  0  0  0  0  0  0  0  0  0
   -0.6220   -5.8994    0.7686 C   0  0  0  0  0  0  0  0  0  0  0  0
   -1.7602   -5.9328   -0.0352 C   0  0  0  0  0  0  0  0  0  0  0  0
   -2.9481   -5.7070    0.6714 C   0  0  0  0  0  0  0  0  0  0  0  0
   -4.5207   -5.6872   -0.1121 Cl  0  0  0  0  0  0  0  0  0  0  0  0
   -2.7548   -5.5038    2.0360 C   0  0  0  0  0  0  0  0  0  0  0  0
   -3.8182   -5.2483    3.0639 C   0  0  0  0  0  0  0  0  0  0  0  0
   -4.2819   -3.7976    3.0188 C   0  0  0  0  0  0  0  0  0  0  0  0
   -1.1047   -5.5784    2.3560 S   0  0  0  0  0  0  0  0  0  0  0  0
    1.6444   -6.9849    0.9970 C   0  0  0  0  0  0  0  0  0  0  0  0
    2.9752   -7.1843    0.6116 C   0  0  0  0  0  0  0  0  0  0  0  0
    3.4793   -6.5864   -0.5645 C   0  0  0  0  0  0  0  0  0  0  0  0
    4.8532   -6.8604   -1.0487 C   0  0  0  0  0  0  0  0  0  0  0  0
    5.4233   -8.1244   -1.1792 C   0  0  0  0  0  0  0  0  0  0  0  0
    6.7212   -8.1030   -1.7155 C   0  0  0  0  0  0  0  0  0  0  0  0
    7.1753   -6.8174   -1.9914 C   0  0  0  0  0  0  0  0  0  0  0  0
    8.4703   -6.4662   -2.6554 C   0  0  0  0  0  0  0  0  0  0  0  0
    8.3057   -6.4212   -4.1705 C   0  0  0  0  0  0  0  0  0  0  0  0
    5.9659   -5.7179   -1.5963 S   0  0  0  0  0  0  0  0  0  0  0  0
    2.6063   -5.7138   -1.2455 C   0  0  0  0  0  0  0  0  0  0  0  0
    2.9469   -4.7103   -2.5583 S   0  0  0  0  0  0  0  0  0  0  0  0
    3.7284   -7.8892    1.5675 C   0  0  0  0  0  0  0  0  0  0  0  0
    2.9870   -8.2529    2.6845 C   0  0  0  0  0  0  0  0  0  0  0  0
    1.3994   -7.7337    2.4814 S   0  0  0  0  0  0  0  0  0  0  0  0
    3.5666   -8.4879    4.0132 C   0  0  0  0  0  0  0  0  0  0  0  0
    3.7748   -7.4700    4.8758 C   0  0  0  0  0  0  0  0  0  0  0  0
    3.4481   -6.0614    4.6153 C   0  0  0  0  0  0  0  0  0  0  0  0
    3.3242   -5.5139    3.4880 O   0  0  0  0  0  0  0  0  0  0  0  0
    3.2912   -5.3795    5.8764 C   0  0  0  0  0  0  0  0  0  0  0  0
    2.7843   -4.0775    6.0715 C   0  0  0  0  0  0  0  0  0  0  0  0
    2.6155   -3.7416    7.4004 C   0  0  0  0  0  0  0  0  0  0  0  0
    2.9228   -4.6307    8.4817 C   0  0  0  0  0  0  0  0  0  0  0  0
    3.4146   -5.9147    8.2938 C   0  0  0  0  0  0  0  0  0  0  0  0
    3.6141   -6.2734    6.9310 C   0  0  0  0  0  0  0  0  0  0  0  0
    4.0515   -7.5736    6.3437 C   0  0  0  0  0  0  0  0  0  0  0  0
    4.7738   -8.5397    6.9623 C   0  0  0  0  0  0  0  0  0  0  0  0
    5.3492   -9.6493    6.2441 C   0  0  0  0  0  0  0  0  0  0  0  0
    5.8199  -10.5452    5.6789 N   0  0  0  0  0  0  0  0  0  0  0  0
    5.1807   -8.4298    8.3411 C   0  0  0  0  0  0  0  0  0  0  0  0
    5.5355   -8.3390    9.4380 N   0  0  0  0  0  0  0  0  0  0  0  0
    2.4768   -3.5999    9.4757 C   0  0  0  0  0  0  0  0  0  0  0  0
    3.5935   -2.8421   10.2486 C   0  0  0  0  0  0  0  0  0  0  0  0
    2.9279   -1.6320   10.8575 C   0  0  0  0  0  0  0  0  0  0  0  0
    2.6384   -0.8051    9.8423 C   0  0  0  0  0  0  0  0  0  0  0  0
    3.1137   -1.4868    8.5837 C   0  0  0  0  0  0  0  0  0  0  0  0
    4.3662   -2.1461    9.1400 C   0  0  0  0  0  0  0  0  0  0  0  0
    2.1557   -2.6928    8.3676 C   0  0  0  0  0  0  0  0  0  0  0  0
   -1.8866    9.9595   -0.1128 H   0  0  0  0  0  0  0  0  0  0  0  0
   -7.8958    8.0502   -0.0655 H   0  0  0  0  0  0  0  0  0  0  0  0
   -5.8729   10.5285    3.9142 H   0  0  0  0  0  0  0  0  0  0  0  0
   -9.3029   10.8011    3.8126 H   0  0  0  0  0  0  0  0  0  0  0  0
   -8.5627    8.9307    5.7375 H   0  0  0  0  0  0  0  0  0  0  0  0
  -11.2060    9.1140    5.9486 H   0  0  0  0  0  0  0  0  0  0  0  0
  -12.2815    7.9153    3.8989 H   0  0  0  0  0  0  0  0  0  0  0  0
  -10.3266    6.9497    2.3741 H   0  0  0  0  0  0  0  0  0  0  0  0
   -8.0417    7.1817    3.7729 H   0  0  0  0  0  0  0  0  0  0  0  0
   -9.3765    6.5648    4.8334 H   0  0  0  0  0  0  0  0  0  0  0  0
  -10.2684    9.6911    1.9255 H   0  0  0  0  0  0  0  0  0  0  0  0
   -0.6610    7.6038   -0.4578 H   0  0  0  0  0  0  0  0  0  0  0  0
    1.2001    4.2930   -1.1645 H   0  0  0  0  0  0  0  0  0  0  0  0
    0.5019    5.6320   -0.2430 H   0  0  0  0  0  0  0  0  0  0  0  0
    2.6915    5.8602   -2.4040 H   0  0  0  0  0  0  0  0  0  0  0  0
    2.8960    6.0592   -0.6195 H   0  0  0  0  0  0  0  0  0  0  0  0
    1.9301    7.2699   -1.5540 H   0  0  0  0  0  0  0  0  0  0  0  0
   -3.3696    7.3283   -4.6505 H   0  0  0  0  0  0  0  0  0  0  0  0
   -3.8499    9.1061   -2.9626 H   0  0  0  0  0  0  0  0  0  0  0  0
   -2.6834    5.0948   -5.7965 H   0  0  0  0  0  0  0  0  0  0  0  0
   -1.7654    2.8463   -6.3404 H   0  0  0  0  0  0  0  0  0  0  0  0
    1.1093    3.2235   -3.1318 H   0  0  0  0  0  0  0  0  0  0  0  0
   -4.2654   -0.3050   -2.6822 H   0  0  0  0  0  0  0  0  0  0  0  0
   -4.6195   -0.2127   -0.2528 H   0  0  0  0  0  0  0  0  0  0  0  0
   -2.0859   -0.8852    3.3417 H   0  0  0  0  0  0  0  0  0  0  0  0
   -2.3298   -1.4785    1.6498 H   0  0  0  0  0  0  0  0  0  0  0  0
   -0.9323   -0.3781    2.0531 H   0  0  0  0  0  0  0  0  0  0  0  0
   -0.8358    1.7655    0.2463 H   0  0  0  0  0  0  0  0  0  0  0  0
   -0.4373    1.6245   -2.1547 H   0  0  0  0  0  0  0  0  0  0  0  0
   -4.3247    2.1727   -4.0531 H   0  0  0  0  0  0  0  0  0  0  0  0
   -6.1784    2.1151   -5.6809 H   0  0  0  0  0  0  0  0  0  0  0  0
   -6.8180   -1.7540   -7.2800 H   0  0  0  0  0  0  0  0  0  0  0  0
   -7.8174   -0.5992   -6.2966 H   0  0  0  0  0  0  0  0  0  0  0  0
   -8.3709   -1.1238   -7.9358 H   0  0  0  0  0  0  0  0  0  0  0  0
   -4.1616   -0.9901   -7.8722 H   0  0  0  0  0  0  0  0  0  0  0  0
   -2.3373   -0.9736   -6.2341 H   0  0  0  0  0  0  0  0  0  0  0  0
    5.2244    0.2484   -4.0779 H   0  0  0  0  0  0  0  0  0  0  0  0
    6.5776    0.6462   -6.0921 H   0  0  0  0  0  0  0  0  0  0  0  0
    5.7740    0.5956  -10.4370 H   0  0  0  0  0  0  0  0  0  0  0  0
    5.2715    1.2024   -8.8123 H   0  0  0  0  0  0  0  0  0  0  0  0
    4.4988   -0.2874   -9.5127 H   0  0  0  0  0  0  0  0  0  0  0  0
    4.7918   -2.7857   -7.9800 H   0  0  0  0  0  0  0  0  0  0  0  0
    3.4257   -3.1847   -5.9626 H   0  0  0  0  0  0  0  0  0  0  0  0
    2.2353   -0.5650   -1.5438 H   0  0  0  0  0  0  0  0  0  0  0  0
    3.1467   -0.4415    0.7296 H   0  0  0  0  0  0  0  0  0  0  0  0
    5.3025   -3.1967    3.4370 H   0  0  0  0  0  0  0  0  0  0  0  0
    3.8319   -2.8870    2.4364 H   0  0  0  0  0  0  0  0  0  0  0  0
    5.2570   -3.7625    1.7240 H   0  0  0  0  0  0  0  0  0  0  0  0
    6.6986   -2.4933   -0.5652 H   0  0  0  0  0  0  0  0  0  0  0  0
    5.7979   -2.6219   -2.8513 H   0  0  0  0  0  0  0  0  0  0  0  0
   -0.3116   -4.0483   -1.3048 H   0  0  0  0  0  0  0  0  0  0  0  0
   -1.7373   -6.1163   -1.0975 H   0  0  0  0  0  0  0  0  0  0  0  0
   -3.4189   -5.4792    4.0774 H   0  0  0  0  0  0  0  0  0  0  0  0
   -4.6752   -5.9280    2.8835 H   0  0  0  0  0  0  0  0  0  0  0  0
   -5.1370   -3.6630    3.7166 H   0  0  0  0  0  0  0  0  0  0  0  0
   -3.4524   -3.1257    3.3322 H   0  0  0  0  0  0  0  0  0  0  0  0
   -4.6190   -3.5296    1.9989 H   0  0  0  0  0  0  0  0  0  0  0  0
    4.9128   -9.0436   -0.9177 H   0  0  0  0  0  0  0  0  0  0  0  0
    7.2933   -8.9987   -1.9166 H   0  0  0  0  0  0  0  0  0  0  0  0
    8.8105   -5.4754   -2.2867 H   0  0  0  0  0  0  0  0  0  0  0  0
    9.2429   -7.2186   -2.3852 H   0  0  0  0  0  0  0  0  0  0  0  0
    9.2670   -6.1162   -4.6366 H   0  0  0  0  0  0  0  0  0  0  0  0
    8.0222   -7.4261   -4.5505 H   0  0  0  0  0  0  0  0  0  0  0  0
    7.5260   -5.6841   -4.4549 H   0  0  0  0  0  0  0  0  0  0  0  0
    4.8031   -8.0067    1.5176 H   0  0  0  0  0  0  0  0  0  0  0  0
    3.6602   -9.5178    4.3312 H   0  0  0  0  0  0  0  0  0  0  0  0
    2.5214   -3.4127    5.2578 H   0  0  0  0  0  0  0  0  0  0  0  0
    3.5720   -6.5734    9.1338 H   0  0  0  0  0  0  0  0  0  0  0  0
    1.5995   -3.9190   10.0801 H   0  0  0  0  0  0  0  0  0  0  0  0
    4.1970   -3.4543   10.9459 H   0  0  0  0  0  0  0  0  0  0  0  0
    2.7801   -1.4218   11.9133 H   0  0  0  0  0  0  0  0  0  0  0  0
    2.2221    0.1936    9.9328 H   0  0  0  0  0  0  0  0  0  0  0  0
    3.2555   -0.8209    7.7098 H   0  0  0  0  0  0  0  0  0  0  0  0
    5.1191   -1.4117    9.5182 H   0  0  0  0  0  0  0  0  0  0  0  0
    4.8742   -2.8387    8.4326 H   0  0  0  0  0  0  0  0  0  0  0  0
    1.0751   -2.4452    8.2699 H   0  0  0  0  0  0  0  0  0  0  0  0
  1  2  2  3
  2  3  1  0
  3  4  2  0
  3  5  1  0
  5  6  2  0
  6  7  1  0
  7  8  2  0
  8  9  1  0
  9 10  2  0
 10 11  1  0
 11 12  2  3
 12 13  1  0
 13 14  3  0
 12 15  1  0
 15 16  3  0
  8 17  1  0
 17 18  1  0
 18 19  1  0
 19 20  2  0
 20 21  1  0
 21 22  1  0
 21 23  1  0
  1 24  1  0
 24 25  2  0
 25 26  1  0
 26 27  1  0
 27 28  1  0
 28 29  1  0
 27 30  1  0
 30 31  2  0
 31 32  1  0
 32 33  1  0
 33 34  2  0
 31 35  1  0
 35 36  2  0
 36 37  1  0
 37 38  2  0
 37 39  1  0
 39 40  2  0
 40 41  1  0
 41 42  1  0
 42 43  2  0
 43 44  1  0
 44 45  2  0
 45 46  1  0
 46 47  1  0
 45 48  1  0
 48 49  2  0
 41 50  1  0
 50 51  2  0
 51 52  1  0
 52 53  2  0
 53 54  1  0
 54 55  1  0
 53 56  1  0
 56 57  2  0
 40 58  1  0
 58 59  1  0
 59 60  1  0
 60 61  2  0
 61 62  1  0
 62 63  1  0
 63 64  2  0
 64 65  1  0
 65 66  2  0
 66 67  1  0
 67 68  1  0
 66 69  1  0
 69 70  2  0
 62 71  1  0
 71 72  2  0
 72 73  1  0
 73 74  2  0
 74 75  1  0
 75 76  1  0
 74 77  1  0
 77 78  2  0
 61 79  1  0
 79 80  1  0
 60 81  1  0
 81 82  2  0
 82 83  1  0
 83 84  2  0
 84 85  1  0
 85 86  2  0
 86 87  1  0
 87 88  1  0
 87 89  2  0
 89 90  1  0
 90 91  1  0
 89 92  1  0
 84 93  1  0
 93 94  2  0
 94 95  1  0
 95 96  1  0
 96 97  2  0
 97 98  1  0
 98 99  2  0
 99100  1  0
100101  1  0
 99102  1  0
 95103  2  0
103104  1  0
 94105  1  0
105106  2  0
106107  1  0
106108  1  0
108109  2  3
109110  1  0
110111  2  0
110112  1  0
112113  2  0
113114  1  0
114115  2  0
115116  1  0
116117  2  0
117118  1  0
118119  2  3
119120  1  0
120121  3  0
119122  1  0
122123  3  0
115124  1  0
124125  1  0
125126  1  0
126127  2  0
127128  1  0
128129  1  0
128130  1  0
 11  2  1  0
 23 17  1  0
 34 24  1  0
 80 39  1  0
104 81  1  0
118109  1  0
130124  1  0
 10  5  1  0
 22 18  1  0
 32 26  2  0
 49 42  1  0
 57 50  1  0
 79 58  2  0
103 83  1  0
117112  1  0
129125  1  0
 23  7  1  0
 38 30  1  0
 70 63  1  0
 78 71  1  0
 92 85  1  0
107 93  1  0
130114  1  0
102 96  1  0
  1131  1  0
  6132  1  0
  9133  1  0
 17134  1  0
 18135  1  0
 19136  1  0
 20137  1  0
 21138  1  0
 22139  1  0
 22140  1  0
 23141  1  0
 25142  1  0
 28143  1  0
 28144  1  0
 29145  1  0
 29146  1  0
 29147  1  0
 33148  1  0
 34149  1  0
 35150  1  0
 36151  1  0
 38152  1  0
 43153  1  0
 44154  1  0
 47155  1  0
 47156  1  0
 47157  1  0
 48158  1  0
 49159  1  0
 51160  1  0
 52161  1  0
 55162  1  0
 55163  1  0
 55164  1  0
 56165  1  0
 57166  1  0
 64167  1  0
 65168  1  0
 68169  1  0
 68170  1  0
 68171  1  0
 69172  1  0
 70173  1  0
 72174  1  0
 73175  1  0
 76176  1  0
 76177  1  0
 76178  1  0
 77179  1  0
 78180  1  0
 82181  1  0
 86182  1  0
 90183  1  0
 90184  1  0
 91185  1  0
 91186  1  0
 91187  1  0
 97188  1  0
 98189  1  0
100190  1  0
100191  1  0
101192  1  0
101193  1  0
101194  1  0
105195  1  0
108196  1  0
113197  1  0
116198  1  0
124199  1  0
125200  1  0
126201  1  0
127202  1  0
128203  1  0
129204  1  0
129205  1  0
130206  1  0
M  END

