
     RDKit          3D

184204  0  0  0  0  0  0  0  0999 V2000
    7.4797   -0.6782   -6.2704 C   0  0  0  0  0  0  0  0  0  0  0  0
    7.2752    0.5749   -5.7962 C   0  0  0  0  0  0  0  0  0  0  0  0
    6.2444    0.9587   -4.8189 C   0  0  0  0  0  0  0  0  0  0  0  0
    5.2076    0.3106   -4.5127 O   0  0  0  0  0  0  0  0  0  0  0  0
    6.6219    2.1989   -4.1959 C   0  0  0  0  0  0  0  0  0  0  0  0
    5.9497    2.8425   -3.1352 C   0  0  0  0  0  0  0  0  0  0  0  0
    6.6164    3.9460   -2.6405 C   0  0  0  0  0  0  0  0  0  0  0  0
    7.8788    4.3938   -3.1518 C   0  0  0  0  0  0  0  0  0  0  0  0
    8.5244    3.7801   -4.2135 C   0  0  0  0  0  0  0  0  0  0  0  0
    7.8422    2.6496   -4.7538 C   0  0  0  0  0  0  0  0  0  0  0  0
    8.2337    1.7251   -5.8602 C   0  0  0  0  0  0  0  0  0  0  0  0
    9.1234    1.9775   -6.8571 C   0  0  0  0  0  0  0  0  0  0  0  0
    9.9336    3.1650   -6.8909 C   0  0  0  0  0  0  0  0  0  0  0  0
   10.5959    4.1137   -6.9310 N   0  0  0  0  0  0  0  0  0  0  0  0
    9.2293    1.1335   -8.0196 C   0  0  0  0  0  0  0  0  0  0  0  0
    9.3222    0.4688   -8.9626 N   0  0  0  0  0  0  0  0  0  0  0  0
    7.9218    5.4876   -2.1175 C   0  0  0  0  0  0  0  0  0  0  0  0
    7.6535    6.9506   -2.5793 C   0  0  0  0  0  0  0  0  0  0  0  0
    6.7236    6.9538   -3.7691 C   0  0  0  0  0  0  0  0  0  0  0  0
    5.5354    6.5370   -3.3242 C   0  0  0  0  0  0  0  0  0  0  0  0
    5.6926    6.2740   -1.8445 C   0  0  0  0  0  0  0  0  0  0  0  0
    6.6721    7.3888   -1.5090 C   0  0  0  0  0  0  0  0  0  0  0  0
    6.6198    5.0388   -1.6126 C   0  0  0  0  0  0  0  0  0  0  0  0
    6.6062   -1.8080   -5.8965 C   0  0  0  0  0  0  0  0  0  0  0  0
    5.2483   -1.8072   -6.2883 C   0  0  0  0  0  0  0  0  0  0  0  0
    4.3439   -2.5684   -5.5306 C   0  0  0  0  0  0  0  0  0  0  0  0
    2.9987   -2.3991   -5.4493 N   0  0  0  0  0  0  0  0  0  0  0  0
    2.1530   -1.5011   -6.2605 C   0  0  0  0  0  0  0  0  0  0  0  0
    1.2275   -2.3151   -7.1537 C   0  0  0  0  0  0  0  0  0  0  0  0
    2.6257   -3.0539   -4.3190 C   0  0  0  0  0  0  0  0  0  0  0  0
    3.6982   -3.6809   -3.7284 C   0  0  0  0  0  0  0  0  0  0  0  0
    4.7972   -3.3778   -4.5002 C   0  0  0  0  0  0  0  0  0  0  0  0
    6.1533   -3.5073   -4.2001 C   0  0  0  0  0  0  0  0  0  0  0  0
    7.0643   -2.7127   -4.9115 C   0  0  0  0  0  0  0  0  0  0  0  0
    3.6159   -4.2280   -2.4484 C   0  0  0  0  0  0  0  0  0  0  0  0
    2.4110   -4.0848   -1.7399 C   0  0  0  0  0  0  0  0  0  0  0  0
    1.3110   -3.3885   -2.3001 C   0  0  0  0  0  0  0  0  0  0  0  0
    1.4124   -2.9175   -3.6339 C   0  0  0  0  0  0  0  0  0  0  0  0
    0.1529   -2.9169   -1.4909 C   0  0  0  0  0  0  0  0  0  0  0  0
   -0.6626   -3.5902   -0.5326 C   0  0  0  0  0  0  0  0  0  0  0  0
   -0.2803   -4.7446    0.2412 N   0  0  0  0  0  0  0  0  0  0  0  0
   -1.2318   -5.8118    0.4047 C   0  0  0  0  0  0  0  0  0  0  0  0
   -1.6640   -6.5566   -0.7048 C   0  0  0  0  0  0  0  0  0  0  0  0
   -2.5462   -7.6319   -0.5322 C   0  0  0  0  0  0  0  0  0  0  0  0
   -3.0139   -7.9575    0.7509 C   0  0  0  0  0  0  0  0  0  0  0  0
   -4.1160   -9.3546    0.9883 S   0  0  0  0  0  0  0  0  0  0  0  0
   -2.7676  -10.5297    1.3107 C   0  0  0  0  0  0  0  0  0  0  0  0
   -2.6094   -7.1979    1.8528 C   0  0  0  0  0  0  0  0  0  0  0  0
   -1.7219   -6.1321    1.6823 C   0  0  0  0  0  0  0  0  0  0  0  0
    0.8386   -4.6722    1.1524 C   0  0  0  0  0  0  0  0  0  0  0  0
    1.5716   -5.8326    1.4526 C   0  0  0  0  0  0  0  0  0  0  0  0
    2.7557   -5.7556    2.1860 C   0  0  0  0  0  0  0  0  0  0  0  0
    3.2333   -4.5152    2.6224 C   0  0  0  0  0  0  0  0  0  0  0  0
    4.8131   -4.4062    3.4650 S   0  0  0  0  0  0  0  0  0  0  0  0
    5.7333   -4.1286    1.9188 C   0  0  0  0  0  0  0  0  0  0  0  0
    2.4918   -3.3569    2.3709 C   0  0  0  0  0  0  0  0  0  0  0  0
    1.3089   -3.4271    1.6317 C   0  0  0  0  0  0  0  0  0  0  0  0
   -1.7611   -2.7919   -0.1659 C   0  0  0  0  0  0  0  0  0  0  0  0
   -3.0078   -2.9343    0.9522 S   0  0  0  0  0  0  0  0  0  0  0  0
   -3.5928   -1.3534    0.6913 C   0  0  0  0  0  0  0  0  0  0  0  0
   -2.7670   -0.6888   -0.2269 C   0  0  0  0  0  0  0  0  0  0  0  0
   -2.6130    0.7393   -0.2599 N   0  0  0  0  0  0  0  0  0  0  0  0
   -1.6502    1.2856    0.6592 C   0  0  0  0  0  0  0  0  0  0  0  0
   -0.3894    1.6993    0.1964 C   0  0  0  0  0  0  0  0  0  0  0  0
    0.6109    2.0478    1.1059 C   0  0  0  0  0  0  0  0  0  0  0  0
    0.3590    1.9964    2.4818 C   0  0  0  0  0  0  0  0  0  0  0  0
    1.6841    2.3011    3.6508 S   0  0  0  0  0  0  0  0  0  0  0  0
    2.1462    0.5399    3.7285 C   0  0  0  0  0  0  0  0  0  0  0  0
   -0.9166    1.6542    2.9444 C   0  0  0  0  0  0  0  0  0  0  0  0
   -1.9167    1.3012    2.0376 C   0  0  0  0  0  0  0  0  0  0  0  0
   -2.9894    1.5183   -1.4186 C   0  0  0  0  0  0  0  0  0  0  0  0
   -3.0638    0.9422   -2.6990 C   0  0  0  0  0  0  0  0  0  0  0  0
   -3.3132    1.7364   -3.8195 C   0  0  0  0  0  0  0  0  0  0  0  0
   -3.5064    3.1133   -3.6728 C   0  0  0  0  0  0  0  0  0  0  0  0
   -3.7099    4.1453   -5.1219 S   0  0  0  0  0  0  0  0  0  0  0  0
   -1.9171    4.3889   -5.3310 C   0  0  0  0  0  0  0  0  0  0  0  0
   -3.4820    3.6912   -2.4012 C   0  0  0  0  0  0  0  0  0  0  0  0
   -3.2281    2.8987   -1.2794 C   0  0  0  0  0  0  0  0  0  0  0  0
   -1.7890   -1.5504   -0.7081 C   0  0  0  0  0  0  0  0  0  0  0  0
   -0.4817   -1.3472   -1.7178 S   0  0  0  0  0  0  0  0  0  0  0  0
   -4.7556   -0.7605    1.3670 C   0  0  0  0  0  0  0  0  0  0  0  0
   -5.7669    0.0166    0.7791 C   0  0  0  0  0  0  0  0  0  0  0  0
   -5.9850    0.1695   -0.6766 C   0  0  0  0  0  0  0  0  0  0  0  0
   -5.6882   -0.7674   -1.6615 C   0  0  0  0  0  0  0  0  0  0  0  0
   -6.0304   -0.3530   -2.9538 C   0  0  0  0  0  0  0  0  0  0  0  0
   -6.6432    0.8971   -2.9845 C   0  0  0  0  0  0  0  0  0  0  0  0
   -7.0392    1.6572   -4.2117 C   0  0  0  0  0  0  0  0  0  0  0  0
   -8.0768    0.8939   -5.0273 C   0  0  0  0  0  0  0  0  0  0  0  0
   -6.7326    1.4904   -1.4118 S   0  0  0  0  0  0  0  0  0  0  0  0
   -6.6427    0.5751    1.7218 C   0  0  0  0  0  0  0  0  0  0  0  0
   -6.3262    0.2527    3.0347 C   0  0  0  0  0  0  0  0  0  0  0  0
   -4.9961   -0.7812    3.0359 S   0  0  0  0  0  0  0  0  0  0  0  0
   -7.1681    0.5879    4.1955 C   0  0  0  0  0  0  0  0  0  0  0  0
   -6.7023    1.0693    5.3646 C   0  0  0  0  0  0  0  0  0  0  0  0
   -5.3866    1.6948    5.5689 C   0  0  0  0  0  0  0  0  0  0  0  0
   -4.4011    1.6346    4.7849 O   0  0  0  0  0  0  0  0  0  0  0  0
   -5.4366    2.4995    6.7702 C   0  0  0  0  0  0  0  0  0  0  0  0
   -4.4325    3.3762    7.2530 C   0  0  0  0  0  0  0  0  0  0  0  0
   -4.8145    4.1101    8.3649 C   0  0  0  0  0  0  0  0  0  0  0  0
   -6.1047    3.9893    8.9718 C   0  0  0  0  0  0  0  0  0  0  0  0
   -7.0954    3.1493    8.4926 C   0  0  0  0  0  0  0  0  0  0  0  0
   -6.7200    2.3713    7.3630 C   0  0  0  0  0  0  0  0  0  0  0  0
   -7.5272    1.4059    6.5689 C   0  0  0  0  0  0  0  0  0  0  0  0
   -8.6697    0.7829    6.9626 C   0  0  0  0  0  0  0  0  0  0  0  0
   -9.2713   -0.2760    6.1953 C   0  0  0  0  0  0  0  0  0  0  0  0
   -9.7743   -1.1171    5.5733 N   0  0  0  0  0  0  0  0  0  0  0  0
   -9.3190    1.0584    8.2168 C   0  0  0  0  0  0  0  0  0  0  0  0
   -9.8547    1.2648    9.2240 N   0  0  0  0  0  0  0  0  0  0  0  0
   -5.7451    5.0336    9.9818 C   0  0  0  0  0  0  0  0  0  0  0  0
   -6.3865    6.4374    9.7889 C   0  0  0  0  0  0  0  0  0  0  0  0
   -5.5895    7.3803   10.6564 C   0  0  0  0  0  0  0  0  0  0  0  0
   -4.3901    7.5041   10.0802 C   0  0  0  0  0  0  0  0  0  0  0  0
   -4.4162    6.6374    8.8436 C   0  0  0  0  0  0  0  0  0  0  0  0
   -5.8604    6.8683    8.4314 C   0  0  0  0  0  0  0  0  0  0  0  0
   -4.4276    5.1646    9.3563 C   0  0  0  0  0  0  0  0  0  0  0  0
    8.4138   -0.9281   -6.7535 H   0  0  0  0  0  0  0  0  0  0  0  0
    5.0296    2.4763   -2.7039 H   0  0  0  0  0  0  0  0  0  0  0  0
    9.4709    4.1456   -4.5619 H   0  0  0  0  0  0  0  0  0  0  0  0
    8.7372    5.3673   -1.3687 H   0  0  0  0  0  0  0  0  0  0  0  0
    8.5556    7.5830   -2.6924 H   0  0  0  0  0  0  0  0  0  0  0  0
    6.9493    7.2914   -4.7749 H   0  0  0  0  0  0  0  0  0  0  0  0
    4.6210    6.4800   -3.9054 H   0  0  0  0  0  0  0  0  0  0  0  0
    4.7535    6.2787   -1.2557 H   0  0  0  0  0  0  0  0  0  0  0  0
    7.0839    7.3231   -0.4659 H   0  0  0  0  0  0  0  0  0  0  0  0
    6.2611    8.4129   -1.6770 H   0  0  0  0  0  0  0  0  0  0  0  0
    6.6510    4.6768   -0.5624 H   0  0  0  0  0  0  0  0  0  0  0  0
    4.9140   -1.0892   -7.0265 H   0  0  0  0  0  0  0  0  0  0  0  0
    2.7637   -0.8387   -6.9046 H   0  0  0  0  0  0  0  0  0  0  0  0
    1.5557   -0.8377   -5.5962 H   0  0  0  0  0  0  0  0  0  0  0  0
    1.8129   -3.0230   -7.7759 H   0  0  0  0  0  0  0  0  0  0  0  0
    0.6556   -1.6354   -7.8178 H   0  0  0  0  0  0  0  0  0  0  0  0
    0.5070   -2.8912   -6.5384 H   0  0  0  0  0  0  0  0  0  0  0  0
    6.4860   -4.1005   -3.3611 H   0  0  0  0  0  0  0  0  0  0  0  0
    8.1057   -2.7027   -4.6092 H   0  0  0  0  0  0  0  0  0  0  0  0
    4.4797   -4.6754   -1.9711 H   0  0  0  0  0  0  0  0  0  0  0  0
    2.4065   -4.4243   -0.7250 H   0  0  0  0  0  0  0  0  0  0  0  0
    0.5967   -2.3677   -4.0853 H   0  0  0  0  0  0  0  0  0  0  0  0
   -1.2899   -6.3218   -1.6942 H   0  0  0  0  0  0  0  0  0  0  0  0
   -2.8581   -8.2119   -1.3910 H   0  0  0  0  0  0  0  0  0  0  0  0
   -2.1058  -10.6019    0.4273 H   0  0  0  0  0  0  0  0  0  0  0  0
   -3.1978  -11.5311    1.5298 H   0  0  0  0  0  0  0  0  0  0  0  0
   -2.1757  -10.1986    2.1947 H   0  0  0  0  0  0  0  0  0  0  0  0
   -2.9702   -7.4402    2.8450 H   0  0  0  0  0  0  0  0  0  0  0  0
   -1.4109   -5.5606    2.5466 H   0  0  0  0  0  0  0  0  0  0  0  0
    1.2401   -6.7981    1.0854 H   0  0  0  0  0  0  0  0  0  0  0  0
    3.3293   -6.6547    2.3775 H   0  0  0  0  0  0  0  0  0  0  0  0
    5.5072   -4.9357    1.1889 H   0  0  0  0  0  0  0  0  0  0  0  0
    5.4564   -3.1461    1.4843 H   0  0  0  0  0  0  0  0  0  0  0  0
    6.8199   -4.1363    2.1310 H   0  0  0  0  0  0  0  0  0  0  0  0
    2.8610   -2.3954    2.6989 H   0  0  0  0  0  0  0  0  0  0  0  0
    0.7709   -2.5119    1.4210 H   0  0  0  0  0  0  0  0  0  0  0  0
   -0.1699    1.6986   -0.8651 H   0  0  0  0  0  0  0  0  0  0  0  0
    1.5928    2.3224    0.7436 H   0  0  0  0  0  0  0  0  0  0  0  0
    1.3230   -0.0472    4.1859 H   0  0  0  0  0  0  0  0  0  0  0  0
    3.0567    0.4258    4.3460 H   0  0  0  0  0  0  0  0  0  0  0  0
    2.3564    0.1494    2.7090 H   0  0  0  0  0  0  0  0  0  0  0  0
   -1.1239    1.6267    4.0039 H   0  0  0  0  0  0  0  0  0  0  0  0
   -2.8917    1.0186    2.4037 H   0  0  0  0  0  0  0  0  0  0  0  0
   -2.9001   -0.1149   -2.8444 H   0  0  0  0  0  0  0  0  0  0  0  0
   -3.3360    1.2846   -4.8005 H   0  0  0  0  0  0  0  0  0  0  0  0
   -1.4747    4.8128   -4.4032 H   0  0  0  0  0  0  0  0  0  0  0  0
   -1.4283    3.4213   -5.5643 H   0  0  0  0  0  0  0  0  0  0  0  0
   -1.7388    5.0923   -6.1678 H   0  0  0  0  0  0  0  0  0  0  0  0
   -3.6392    4.7574   -2.2781 H   0  0  0  0  0  0  0  0  0  0  0  0
   -3.1910    3.3652   -0.3019 H   0  0  0  0  0  0  0  0  0  0  0  0
   -5.2244   -1.7224   -1.4664 H   0  0  0  0  0  0  0  0  0  0  0  0
   -5.8308   -0.9406   -3.8371 H   0  0  0  0  0  0  0  0  0  0  0  0
   -7.4645    2.6438   -3.9187 H   0  0  0  0  0  0  0  0  0  0  0  0
   -6.1376    1.8447   -4.8377 H   0  0  0  0  0  0  0  0  0  0  0  0
   -7.6459   -0.0564   -5.4155 H   0  0  0  0  0  0  0  0  0  0  0  0
   -8.3982    1.5123   -5.8927 H   0  0  0  0  0  0  0  0  0  0  0  0
   -8.9722    0.6674   -4.4072 H   0  0  0  0  0  0  0  0  0  0  0  0
   -7.4982    1.1775    1.4534 H   0  0  0  0  0  0  0  0  0  0  0  0
   -8.2306    0.5203    4.0384 H   0  0  0  0  0  0  0  0  0  0  0  0
   -3.4680    3.4950    6.7788 H   0  0  0  0  0  0  0  0  0  0  0  0
   -8.0756    3.1591    8.9387 H   0  0  0  0  0  0  0  0  0  0  0  0
   -5.7192    4.6564   11.0301 H   0  0  0  0  0  0  0  0  0  0  0  0
   -7.4873    6.4868    9.9238 H   0  0  0  0  0  0  0  0  0  0  0  0
   -5.9340    7.9340   11.5238 H   0  0  0  0  0  0  0  0  0  0  0  0
   -3.6003    8.1798   10.3987 H   0  0  0  0  0  0  0  0  0  0  0  0
   -3.6484    6.8799    8.0784 H   0  0  0  0  0  0  0  0  0  0  0  0
   -6.2025    6.2355    7.5846 H   0  0  0  0  0  0  0  0  0  0  0  0
   -6.0869    7.9347    8.1870 H   0  0  0  0  0  0  0  0  0  0  0  0
   -3.5696    4.8806   10.0073 H   0  0  0  0  0  0  0  0  0  0  0  0
  1  2  2  3
  2  3  1  0
  3  4  2  0
  3  5  1  0
  5  6  2  0
  6  7  1  0
  7  8  2  0
  8  9  1  0
  9 10  2  0
 10 11  1  0
 11 12  2  3
 12 13  1  0
 13 14  3  0
 12 15  1  0
 15 16  3  0
  8 17  1  0
 17 18  1  0
 18 19  1  0
 19 20  2  0
 20 21  1  0
 21 22  1  0
 21 23  1  0
  1 24  1  0
 24 25  2  0
 25 26  1  0
 26 27  1  0
 27 28  1  0
 28 29  1  0
 27 30  1  0
 30 31  2  0
 31 32  1  0
 32 33  1  0
 33 34  2  0
 31 35  1  0
 35 36  2  0
 36 37  1  0
 37 38  2  0
 37 39  1  0
 39 40  2  0
 40 41  1  0
 41 42  1  0
 42 43  2  0
 43 44  1  0
 44 45  2  0
 45 46  1  0
 46 47  1  0
 45 48  1  0
 48 49  2  0
 41 50  1  0
 50 51  2  0
 51 52  1  0
 52 53  2  0
 53 54  1  0
 54 55  1  0
 53 56  1  0
 56 57  2  0
 40 58  1  0
 58 59  1  0
 59 60  1  0
 60 61  2  0
 61 62  1  0
 62 63  1  0
 63 64  2  0
 64 65  1  0
 65 66  2  0
 66 67  1  0
 67 68  1  0
 66 69  1  0
 69 70  2  0
 62 71  1  0
 71 72  2  0
 72 73  1  0
 73 74  2  0
 74 75  1  0
 75 76  1  0
 74 77  1  0
 77 78  2  0
 61 79  1  0
 79 80  1  0
 60 81  1  0
 81 82  2  0
 82 83  1  0
 83 84  2  0
 84 85  1  0
 85 86  2  0
 86 87  1  0
 87 88  1  0
 86 89  1  0
 82 90  1  0
 90 91  2  0
 91 92  1  0
 91 93  1  0
 93 94  2  3
 94 95  1  0
 95 96  2  0
 95 97  1  0
 97 98  2  0
 98 99  1  0
 99100  2  0
100101  1  0
101102  2  0
102103  1  0
103104  2  3
104105  1  0
105106  3  0
104107  1  0
107108  3  0
100109  1  0
109110  1  0
110111  1  0
111112  2  0
112113  1  0
113114  1  0
113115  1  0
 11  2  1  0
 23 17  1  0
 34 24  1  0
 80 39  1  0
 92 81  1  0
103 94  1  0
115109  1  0
 10  5  1  0
 22 18  1  0
 32 26  2  0
 49 42  1  0
 57 50  1  0
 79 58  2  0
 89 83  1  0
102 97  1  0
114110  1  0
 23  7  1  0
 38 30  1  0
 70 63  1  0
 78 71  1  0
115 99  1  0
  1116  1  0
  6117  1  0
  9118  1  0
 17119  1  0
 18120  1  0
 19121  1  0
 20122  1  0
 21123  1  0
 22124  1  0
 22125  1  0
 23126  1  0
 25127  1  0
 28128  1  0
 28129  1  0
 29130  1  0
 29131  1  0
 29132  1  0
 33133  1  0
 34134  1  0
 35135  1  0
 36136  1  0
 38137  1  0
 43138  1  0
 44139  1  0
 47140  1  0
 47141  1  0
 47142  1  0
 48143  1  0
 49144  1  0
 51145  1  0
 52146  1  0
 55147  1  0
 55148  1  0
 55149  1  0
 56150  1  0
 57151  1  0
 64152  1  0
 65153  1  0
 68154  1  0
 68155  1  0
 68156  1  0
 69157  1  0
 70158  1  0
 72159  1  0
 73160  1  0
 76161  1  0
 76162  1  0
 76163  1  0
 77164  1  0
 78165  1  0
 84166  1  0
 85167  1  0
 87168  1  0
 87169  1  0
 88170  1  0
 88171  1  0
 88172  1  0
 90173  1  0
 93174  1  0
 98175  1  0
101176  1  0
109177  1  0
110178  1  0
111179  1  0
112180  1  0
113181  1  0
114182  1  0
114183  1  0
115184  1  0
M  END

