
     RDKit          3D

131146  0  0  0  0  0  0  0  0999 V2000
    5.4329   -1.1805    1.7569 C   0  0  0  0  0  0  0  0  0  0  0  0
    5.8918   -1.6303    2.9455 C   0  0  0  0  0  0  0  0  0  0  0  0
    5.6960   -0.9934    4.2531 C   0  0  0  0  0  0  0  0  0  0  0  0
    4.8711   -0.0780    4.5238 O   0  0  0  0  0  0  0  0  0  0  0  0
    6.5375   -1.6493    5.2283 C   0  0  0  0  0  0  0  0  0  0  0  0
    6.5504   -1.4133    6.6242 C   0  0  0  0  0  0  0  0  0  0  0  0
    7.2520   -2.3594    7.3478 C   0  0  0  0  0  0  0  0  0  0  0  0
    7.9175   -3.4684    6.7406 C   0  0  0  0  0  0  0  0  0  0  0  0
    7.9377   -3.6891    5.3741 C   0  0  0  0  0  0  0  0  0  0  0  0
    7.2234   -2.7233    4.6027 C   0  0  0  0  0  0  0  0  0  0  0  0
    6.8328   -2.7786    3.1688 C   0  0  0  0  0  0  0  0  0  0  0  0
    7.1604   -3.7431    2.2734 C   0  0  0  0  0  0  0  0  0  0  0  0
    8.2550   -4.6560    2.4792 C   0  0  0  0  0  0  0  0  0  0  0  0
    9.1316   -5.3938    2.6394 N   0  0  0  0  0  0  0  0  0  0  0  0
    6.2816   -4.0820    1.1869 C   0  0  0  0  0  0  0  0  0  0  0  0
    5.5270   -4.4103    0.3660 N   0  0  0  0  0  0  0  0  0  0  0  0
    8.2658   -4.0214    8.0879 C   0  0  0  0  0  0  0  0  0  0  0  0
    9.7413   -3.8807    8.5455 C   0  0  0  0  0  0  0  0  0  0  0  0
    9.7336   -4.1434   10.0307 C   0  0  0  0  0  0  0  0  0  0  0  0
    9.1302   -3.0941   10.6001 C   0  0  0  0  0  0  0  0  0  0  0  0
    8.7460   -2.1598    9.4812 C   0  0  0  0  0  0  0  0  0  0  0  0
    9.9461   -2.3768    8.5732 C   0  0  0  0  0  0  0  0  0  0  0  0
    7.5971   -2.8758    8.7142 C   0  0  0  0  0  0  0  0  0  0  0  0
    4.5297   -0.0264    1.5949 C   0  0  0  0  0  0  0  0  0  0  0  0
    3.2971   -0.2167    0.9376 C   0  0  0  0  0  0  0  0  0  0  0  0
    2.4443    0.8817    0.7974 C   0  0  0  0  0  0  0  0  0  0  0  0
    1.2004    0.9059    0.2538 N   0  0  0  0  0  0  0  0  0  0  0  0
    0.5245   -0.1831   -0.4607 C   0  0  0  0  0  0  0  0  0  0  0  0
    1.0000   -0.2467   -1.9060 C   0  0  0  0  0  0  0  0  0  0  0  0
    0.7840    2.1916    0.3957 C   0  0  0  0  0  0  0  0  0  0  0  0
    1.7420    2.9689    1.0086 C   0  0  0  0  0  0  0  0  0  0  0  0
    2.8088    2.1314    1.2633 C   0  0  0  0  0  0  0  0  0  0  0  0
    4.0457    2.3651    1.8599 C   0  0  0  0  0  0  0  0  0  0  0  0
    4.9191    1.2745    2.0098 C   0  0  0  0  0  0  0  0  0  0  0  0
    1.5406    4.3250    1.2728 C   0  0  0  0  0  0  0  0  0  0  0  0
    0.2972    4.8894    0.9210 C   0  0  0  0  0  0  0  0  0  0  0  0
   -0.7049    4.0883    0.3230 C   0  0  0  0  0  0  0  0  0  0  0  0
   -0.4462    2.7316    0.0308 C   0  0  0  0  0  0  0  0  0  0  0  0
   -2.0335    4.6288   -0.0305 C   0  0  0  0  0  0  0  0  0  0  0  0
   -2.1550    5.5328   -1.0936 C   0  0  0  0  0  0  0  0  0  0  0  0
   -1.0572    6.1622   -1.5840 F   0  0  0  0  0  0  0  0  0  0  0  0
   -3.3783    5.6695   -1.7595 C   0  0  0  0  0  0  0  0  0  0  0  0
   -3.4372    6.4571   -2.8650 F   0  0  0  0  0  0  0  0  0  0  0  0
   -4.4911    4.8963   -1.3835 C   0  0  0  0  0  0  0  0  0  0  0  0
   -4.4152    4.1318   -0.1962 C   0  0  0  0  0  0  0  0  0  0  0  0
   -5.4747    3.4088    0.2507 N   0  0  0  0  0  0  0  0  0  0  0  0
   -5.4029    2.6104    1.3499 C   0  0  0  0  0  0  0  0  0  0  0  0
   -6.6489    1.8823    1.7899 C   0  0  0  0  0  0  0  0  0  0  0  0
   -7.4992    2.7639    2.7011 C   0  0  0  0  0  0  0  0  0  0  0  0
   -4.1849    2.5417    2.0646 C   0  0  0  0  0  0  0  0  0  0  0  0
   -3.1140    3.2208    1.5827 N   0  0  0  0  0  0  0  0  0  0  0  0
   -3.1869    4.0120    0.4802 C   0  0  0  0  0  0  0  0  0  0  0  0
   -3.9861    1.7011    3.2987 C   0  0  0  0  0  0  0  0  0  0  0  0
   -3.5135    0.2965    2.9304 C   0  0  0  0  0  0  0  0  0  0  0  0
   -5.4957    4.5634   -2.4200 C   0  0  0  0  0  0  0  0  0  0  0  0
   -6.8067    4.1368   -2.2037 C   0  0  0  0  0  0  0  0  0  0  0  0
   -7.3046    3.3064   -3.2331 C   0  0  0  0  0  0  0  0  0  0  0  0
   -8.5539    2.6743   -3.2109 O   0  0  0  0  0  0  0  0  0  0  0  0
   -9.4836    2.8153   -2.1401 C   0  0  0  0  0  0  0  0  0  0  0  0
   -6.3988    3.1009   -4.2610 C   0  0  0  0  0  0  0  0  0  0  0  0
   -5.0082    3.9669   -3.9145 S   0  0  0  0  0  0  0  0  0  0  0  0
   -6.4630    2.0345   -5.2731 C   0  0  0  0  0  0  0  0  0  0  0  0
   -5.5433    1.0391   -5.3239 C   0  0  0  0  0  0  0  0  0  0  0  0
   -4.6300    0.6905   -4.2212 C   0  0  0  0  0  0  0  0  0  0  0  0
   -4.6481    1.1650   -3.0522 O   0  0  0  0  0  0  0  0  0  0  0  0
   -3.8215   -0.4341   -4.6137 C   0  0  0  0  0  0  0  0  0  0  0  0
   -2.8227   -1.0665   -3.8373 C   0  0  0  0  0  0  0  0  0  0  0  0
   -2.2651   -2.1706   -4.4429 C   0  0  0  0  0  0  0  0  0  0  0  0
   -2.6625   -2.6380   -5.7340 C   0  0  0  0  0  0  0  0  0  0  0  0
   -3.6419   -2.0260   -6.4963 C   0  0  0  0  0  0  0  0  0  0  0  0
   -4.2178   -0.8636   -5.9050 C   0  0  0  0  0  0  0  0  0  0  0  0
   -5.2777    0.0595   -6.4307 C   0  0  0  0  0  0  0  0  0  0  0  0
   -5.7334    0.1149   -7.7121 C   0  0  0  0  0  0  0  0  0  0  0  0
   -5.2483   -0.7498   -8.7571 C   0  0  0  0  0  0  0  0  0  0  0  0
   -4.8669   -1.4322   -9.6125 N   0  0  0  0  0  0  0  0  0  0  0  0
   -6.6650    1.1167   -8.1707 C   0  0  0  0  0  0  0  0  0  0  0  0
   -7.4149    1.9073   -8.5573 N   0  0  0  0  0  0  0  0  0  0  0  0
   -1.6997   -3.7898   -5.6287 C   0  0  0  0  0  0  0  0  0  0  0  0
   -2.2778   -5.2097   -5.3385 C   0  0  0  0  0  0  0  0  0  0  0  0
   -3.5468   -5.0903   -4.5291 C   0  0  0  0  0  0  0  0  0  0  0  0
   -3.1889   -4.6453   -3.3239 C   0  0  0  0  0  0  0  0  0  0  0  0
   -1.6857   -4.4782   -3.3523 C   0  0  0  0  0  0  0  0  0  0  0  0
   -1.3326   -5.6582   -4.2385 C   0  0  0  0  0  0  0  0  0  0  0  0
   -1.2963   -3.3060   -4.3033 C   0  0  0  0  0  0  0  0  0  0  0  0
    5.6942   -1.6895    0.8418 H   0  0  0  0  0  0  0  0  0  0  0  0
    5.9812   -0.6264    7.0993 H   0  0  0  0  0  0  0  0  0  0  0  0
    8.3860   -4.5840    4.9837 H   0  0  0  0  0  0  0  0  0  0  0  0
    7.7908   -5.0029    8.2939 H   0  0  0  0  0  0  0  0  0  0  0  0
   10.4892   -4.4636    7.9683 H   0  0  0  0  0  0  0  0  0  0  0  0
   10.1514   -4.9937   10.5462 H   0  0  0  0  0  0  0  0  0  0  0  0
    8.9781   -2.9473   11.6619 H   0  0  0  0  0  0  0  0  0  0  0  0
    8.5441   -1.1120    9.7828 H   0  0  0  0  0  0  0  0  0  0  0  0
   10.9122   -2.0692    9.0419 H   0  0  0  0  0  0  0  0  0  0  0  0
    9.8575   -1.8905    7.5797 H   0  0  0  0  0  0  0  0  0  0  0  0
    6.7024   -3.1414    9.3218 H   0  0  0  0  0  0  0  0  0  0  0  0
    3.0036   -1.1993    0.5899 H   0  0  0  0  0  0  0  0  0  0  0  0
   -0.5740   -0.0426   -0.4441 H   0  0  0  0  0  0  0  0  0  0  0  0
    0.7277   -1.1538    0.0376 H   0  0  0  0  0  0  0  0  0  0  0  0
    2.0897   -0.4619   -1.9429 H   0  0  0  0  0  0  0  0  0  0  0  0
    0.8124    0.7190   -2.4147 H   0  0  0  0  0  0  0  0  0  0  0  0
    0.4599   -1.0485   -2.4516 H   0  0  0  0  0  0  0  0  0  0  0  0
    4.3317    3.3544    2.1953 H   0  0  0  0  0  0  0  0  0  0  0  0
    5.8867    1.4297    2.4671 H   0  0  0  0  0  0  0  0  0  0  0  0
    2.3145    4.9255    1.7387 H   0  0  0  0  0  0  0  0  0  0  0  0
    0.1119    5.9354    1.1287 H   0  0  0  0  0  0  0  0  0  0  0  0
   -1.2001    2.1202   -0.4488 H   0  0  0  0  0  0  0  0  0  0  0  0
   -6.4007    0.9344    2.3087 H   0  0  0  0  0  0  0  0  0  0  0  0
   -7.2482    1.6047    0.8952 H   0  0  0  0  0  0  0  0  0  0  0  0
   -6.8838    3.2005    3.5137 H   0  0  0  0  0  0  0  0  0  0  0  0
   -8.3053    2.1525    3.1611 H   0  0  0  0  0  0  0  0  0  0  0  0
   -7.9603    3.5840    2.1127 H   0  0  0  0  0  0  0  0  0  0  0  0
   -3.2119    2.1769    3.9411 H   0  0  0  0  0  0  0  0  0  0  0  0
   -4.9072    1.6472    3.9078 H   0  0  0  0  0  0  0  0  0  0  0  0
   -2.6374    0.3466    2.2506 H   0  0  0  0  0  0  0  0  0  0  0  0
   -4.3307   -0.2628    2.4353 H   0  0  0  0  0  0  0  0  0  0  0  0
   -3.2237   -0.2543    3.8563 H   0  0  0  0  0  0  0  0  0  0  0  0
   -7.3472    4.3256   -1.2838 H   0  0  0  0  0  0  0  0  0  0  0  0
  -10.3926    2.2213   -2.3694 H   0  0  0  0  0  0  0  0  0  0  0  0
   -9.7675    3.8807   -2.0240 H   0  0  0  0  0  0  0  0  0  0  0  0
   -9.0334    2.4380   -1.1938 H   0  0  0  0  0  0  0  0  0  0  0  0
   -7.2793    2.0807   -5.9636 H   0  0  0  0  0  0  0  0  0  0  0  0
   -2.5377   -0.7330   -2.8508 H   0  0  0  0  0  0  0  0  0  0  0  0
   -3.9392   -2.4514   -7.4357 H   0  0  0  0  0  0  0  0  0  0  0  0
   -0.8780   -3.7592   -6.3800 H   0  0  0  0  0  0  0  0  0  0  0  0
   -2.3420   -5.8828   -6.2191 H   0  0  0  0  0  0  0  0  0  0  0  0
   -4.5459   -5.3832   -4.8304 H   0  0  0  0  0  0  0  0  0  0  0  0
   -3.8502   -4.5125   -2.4735 H   0  0  0  0  0  0  0  0  0  0  0  0
   -1.1992   -4.4632   -2.3538 H   0  0  0  0  0  0  0  0  0  0  0  0
   -0.2631   -5.6761   -4.5521 H   0  0  0  0  0  0  0  0  0  0  0  0
   -1.6115   -6.6426   -3.7951 H   0  0  0  0  0  0  0  0  0  0  0  0
   -0.2328   -2.9870   -4.2453 H   0  0  0  0  0  0  0  0  0  0  0  0
  1  2  2  3
  2  3  1  0
  3  4  2  0
  3  5  1  0
  5  6  2  0
  6  7  1  0
  7  8  2  0
  8  9  1  0
  9 10  2  0
 10 11  1  0
 11 12  2  3
 12 13  1  0
 13 14  3  0
 12 15  1  0
 15 16  3  0
  8 17  1  0
 17 18  1  0
 18 19  1  0
 19 20  2  0
 20 21  1  0
 21 22  1  0
 21 23  1  0
  1 24  1  0
 24 25  2  0
 25 26  1  0
 26 27  1  0
 27 28  1  0
 28 29  1  0
 27 30  1  0
 30 31  2  0
 31 32  1  0
 32 33  1  0
 33 34  2  0
 31 35  1  0
 35 36  2  0
 36 37  1  0
 37 38  2  0
 37 39  1  0
 39 40  2  0
 40 41  1  0
 40 42  1  0
 42 43  1  0
 42 44  2  0
 44 45  1  0
 45 46  2  0
 46 47  1  0
 47 48  1  0
 48 49  1  0
 47 50  2  0
 50 51  1  0
 51 52  2  0
 50 53  1  0
 53 54  1  0
 44 55  1  0
 55 56  2  0
 56 57  1  0
 57 58  1  0
 58 59  1  0
 57 60  2  0
 60 61  1  0
 60 62  1  0
 62 63  2  3
 63 64  1  0
 64 65  2  0
 64 66  1  0
 66 67  2  0
 67 68  1  0
 68 69  2  0
 69 70  1  0
 70 71  2  0
 71 72  1  0
 72 73  2  3
 73 74  1  0
 74 75  3  0
 73 76  1  0
 76 77  3  0
 69 78  1  0
 78 79  1  0
 79 80  1  0
 80 81  2  0
 81 82  1  0
 82 83  1  0
 82 84  1  0
 11  2  1  0
 23 17  1  0
 34 24  1  0
 52 39  1  0
 61 55  1  0
 72 63  1  0
 84 78  1  0
 10  5  1  0
 22 18  1  0
 32 26  2  0
 52 45  1  0
 71 66  1  0
 83 79  1  0
 23  7  1  0
 38 30  1  0
 84 68  1  0
  1 85  1  0
  6 86  1  0
  9 87  1  0
 17 88  1  0
 18 89  1  0
 19 90  1  0
 20 91  1  0
 21 92  1  0
 22 93  1  0
 22 94  1  0
 23 95  1  0
 25 96  1  0
 28 97  1  0
 28 98  1  0
 29 99  1  0
 29100  1  0
 29101  1  0
 33102  1  0
 34103  1  0
 35104  1  0
 36105  1  0
 38106  1  0
 48107  1  0
 48108  1  0
 49109  1  0
 49110  1  0
 49111  1  0
 53112  1  0
 53113  1  0
 54114  1  0
 54115  1  0
 54116  1  0
 56117  1  0
 59118  1  0
 59119  1  0
 59120  1  0
 62121  1  0
 67122  1  0
 70123  1  0
 78124  1  0
 79125  1  0
 80126  1  0
 81127  1  0
 82128  1  0
 83129  1  0
 83130  1  0
 84131  1  0
M  END

