
     RDKit          3D

225248  0  0  0  0  0  0  0  0999 V2000
    3.4481    3.0165    8.6557 C   0  0  0  0  0  0  0  0  0  0  0  0
    4.5977    2.3501    8.8877 C   0  0  0  0  0  0  0  0  0  0  0  0
    4.7795    0.8979    8.7784 C   0  0  0  0  0  0  0  0  0  0  0  0
    3.9116    0.0215    9.0415 O   0  0  0  0  0  0  0  0  0  0  0  0
    6.1436    0.6290    8.3866 C   0  0  0  0  0  0  0  0  0  0  0  0
    6.6857   -0.6144    7.9859 C   0  0  0  0  0  0  0  0  0  0  0  0
    7.9646   -0.5257    7.4689 C   0  0  0  0  0  0  0  0  0  0  0  0
    8.6788    0.7121    7.3472 C   0  0  0  0  0  0  0  0  0  0  0  0
    8.1622    1.9300    7.7681 C   0  0  0  0  0  0  0  0  0  0  0  0
    6.8541    1.8560    8.3291 C   0  0  0  0  0  0  0  0  0  0  0  0
    5.9630    2.9501    8.8053 C   0  0  0  0  0  0  0  0  0  0  0  0
    6.3420    4.1829    9.2315 C   0  0  0  0  0  0  0  0  0  0  0  0
    5.4339    5.0617    9.9185 C   0  0  0  0  0  0  0  0  0  0  0  0
    4.7099    5.7673   10.4817 N   0  0  0  0  0  0  0  0  0  0  0  0
    7.7055    4.6366    9.1642 C   0  0  0  0  0  0  0  0  0  0  0  0
    8.7979    5.0172    9.1167 N   0  0  0  0  0  0  0  0  0  0  0  0
    9.8250    0.0021    6.6815 C   0  0  0  0  0  0  0  0  0  0  0  0
   11.1292   -0.2287    7.5021 C   0  0  0  0  0  0  0  0  0  0  0  0
   10.7958   -0.3470    8.9711 C   0  0  0  0  0  0  0  0  0  0  0  0
   10.1268   -1.4931    9.1167 C   0  0  0  0  0  0  0  0  0  0  0  0
   10.0315   -2.1175    7.7410 C   0  0  0  0  0  0  0  0  0  0  0  0
   11.3824   -1.6963    7.1933 C   0  0  0  0  0  0  0  0  0  0  0  0
    9.0998   -1.2659    6.8281 C   0  0  0  0  0  0  0  0  0  0  0  0
    2.2763    2.4400    7.9595 C   0  0  0  0  0  0  0  0  0  0  0  0
    1.0936    3.1416    7.7430 C   0  0  0  0  0  0  0  0  0  0  0  0
    0.3482    2.6922    6.6343 C   0  0  0  0  0  0  0  0  0  0  0  0
   -0.7281    3.5194    6.0639 C   0  0  0  0  0  0  0  0  0  0  0  0
   -1.8927    3.7741    6.8061 C   0  0  0  0  0  0  0  0  0  0  0  0
   -2.8803    4.6200    6.2928 C   0  0  0  0  0  0  0  0  0  0  0  0
   -2.6912    5.2530    5.0634 C   0  0  0  0  0  0  0  0  0  0  0  0
   -1.5193    5.0283    4.3316 C   0  0  0  0  0  0  0  0  0  0  0  0
   -0.5444    4.1593    4.8276 C   0  0  0  0  0  0  0  0  0  0  0  0
    0.9340    1.6020    5.9853 C   0  0  0  0  0  0  0  0  0  0  0  0
    2.3781    1.2680    6.7615 S   0  0  0  0  0  0  0  0  0  0  0  0
    0.6307    1.0610    4.6540 C   0  0  0  0  0  0  0  0  0  0  0  0
   -0.5950    0.5991    4.1351 C   0  0  0  0  0  0  0  0  0  0  0  0
   -1.8586    0.5967    4.8306 N   0  0  0  0  0  0  0  0  0  0  0  0
   -3.0434    0.9517    4.0828 C   0  0  0  0  0  0  0  0  0  0  0  0
   -4.1734    0.1125    4.0840 C   0  0  0  0  0  0  0  0  0  0  0  0
   -5.2424    0.3677    3.2175 C   0  0  0  0  0  0  0  0  0  0  0  0
   -5.2013    1.4686    2.3540 C   0  0  0  0  0  0  0  0  0  0  0  0
   -6.5301    1.7588    1.1828 S   0  0  0  0  0  0  0  0  0  0  0  0
   -5.6454    0.9686   -0.2007 C   0  0  0  0  0  0  0  0  0  0  0  0
   -4.1025    2.3311    2.3777 C   0  0  0  0  0  0  0  0  0  0  0  0
   -3.0247    2.0627    3.2235 C   0  0  0  0  0  0  0  0  0  0  0  0
   -1.9523    0.0759    6.1779 C   0  0  0  0  0  0  0  0  0  0  0  0
   -2.9320    0.5554    7.0634 C   0  0  0  0  0  0  0  0  0  0  0  0
   -3.0148    0.0592    8.3681 C   0  0  0  0  0  0  0  0  0  0  0  0
   -2.1320   -0.9358    8.7968 C   0  0  0  0  0  0  0  0  0  0  0  0
   -2.2315   -1.5732   10.4715 S   0  0  0  0  0  0  0  0  0  0  0  0
   -3.4600   -2.8441   10.0543 C   0  0  0  0  0  0  0  0  0  0  0  0
   -1.1558   -1.4222    7.9251 C   0  0  0  0  0  0  0  0  0  0  0  0
   -1.0656   -0.9217    6.6264 C   0  0  0  0  0  0  0  0  0  0  0  0
   -0.4311    0.1358    2.8239 C   0  0  0  0  0  0  0  0  0  0  0  0
   -1.4550   -0.5060    1.6708 S   0  0  0  0  0  0  0  0  0  0  0  0
   -0.2504   -0.6637    0.4792 C   0  0  0  0  0  0  0  0  0  0  0  0
    0.9668   -0.1348    0.9670 C   0  0  0  0  0  0  0  0  0  0  0  0
    2.1414    0.1909    0.1823 N   0  0  0  0  0  0  0  0  0  0  0  0
    2.9839    1.2874    0.5688 C   0  0  0  0  0  0  0  0  0  0  0  0
    4.2779    1.0508    1.0520 C   0  0  0  0  0  0  0  0  0  0  0  0
    5.0682    2.1176    1.4937 C   0  0  0  0  0  0  0  0  0  0  0  0
    4.5797    3.4269    1.4200 C   0  0  0  0  0  0  0  0  0  0  0  0
    5.5930    4.7987    1.9842 S   0  0  0  0  0  0  0  0  0  0  0  0
    6.4796    4.9625    0.4032 C   0  0  0  0  0  0  0  0  0  0  0  0
    3.2948    3.6681    0.9167 C   0  0  0  0  0  0  0  0  0  0  0  0
    2.4997    2.6018    0.4951 C   0  0  0  0  0  0  0  0  0  0  0  0
    2.4336   -0.4271   -1.0746 C   0  0  0  0  0  0  0  0  0  0  0  0
    1.9912    0.1605   -2.2678 C   0  0  0  0  0  0  0  0  0  0  0  0
    2.3486   -0.3926   -3.5010 C   0  0  0  0  0  0  0  0  0  0  0  0
    3.1974   -1.5042   -3.5462 C   0  0  0  0  0  0  0  0  0  0  0  0
    3.6282   -2.2342   -5.1284 S   0  0  0  0  0  0  0  0  0  0  0  0
    5.1913   -1.3162   -5.2695 C   0  0  0  0  0  0  0  0  0  0  0  0
    3.6977   -2.0486   -2.3596 C   0  0  0  0  0  0  0  0  0  0  0  0
    3.2974   -1.5297   -1.1254 C   0  0  0  0  0  0  0  0  0  0  0  0
    0.8136    0.2476    2.3061 C   0  0  0  0  0  0  0  0  0  0  0  0
    1.8329    0.8882    3.4673 S   0  0  0  0  0  0  0  0  0  0  0  0
   -0.5739   -1.0776   -0.8901 C   0  0  0  0  0  0  0  0  0  0  0  0
   -0.2390   -2.2939   -1.5382 C   0  0  0  0  0  0  0  0  0  0  0  0
    0.1704   -3.5061   -0.8494 N   0  0  0  0  0  0  0  0  0  0  0  0
   -0.1802   -3.6696    0.5350 C   0  0  0  0  0  0  0  0  0  0  0  0
   -1.5321   -3.7586    0.9088 C   0  0  0  0  0  0  0  0  0  0  0  0
   -1.8888   -3.8509    2.2548 C   0  0  0  0  0  0  0  0  0  0  0  0
   -0.8987   -3.8533    3.2424 C   0  0  0  0  0  0  0  0  0  0  0  0
   -1.3712   -3.8959    4.9677 S   0  0  0  0  0  0  0  0  0  0  0  0
   -1.4728   -5.7097    5.0361 C   0  0  0  0  0  0  0  0  0  0  0  0
    0.4537   -3.7807    2.8768 C   0  0  0  0  0  0  0  0  0  0  0  0
    0.8126   -3.6937    1.5254 C   0  0  0  0  0  0  0  0  0  0  0  0
    0.4031   -4.7162   -1.5866 C   0  0  0  0  0  0  0  0  0  0  0  0
    1.6559   -4.9682   -2.1560 C   0  0  0  0  0  0  0  0  0  0  0  0
    1.8586   -6.0994   -2.9538 C   0  0  0  0  0  0  0  0  0  0  0  0
    0.8075   -6.9986   -3.1732 C   0  0  0  0  0  0  0  0  0  0  0  0
    1.0530   -8.4427   -4.2106 S   0  0  0  0  0  0  0  0  0  0  0  0
    0.4901   -7.5995   -5.7234 C   0  0  0  0  0  0  0  0  0  0  0  0
   -0.4348   -6.7770   -2.5694 C   0  0  0  0  0  0  0  0  0  0  0  0
   -0.6418   -5.6343   -1.7922 C   0  0  0  0  0  0  0  0  0  0  0  0
   -0.6581   -2.2411   -2.8800 C   0  0  0  0  0  0  0  0  0  0  0  0
   -0.5822   -3.2723   -4.2117 S   0  0  0  0  0  0  0  0  0  0  0  0
   -1.5306   -2.2779   -5.2122 C   0  0  0  0  0  0  0  0  0  0  0  0
   -1.9774   -1.1623   -4.4774 C   0  0  0  0  0  0  0  0  0  0  0  0
   -3.1428   -0.3792   -4.8298 N   0  0  0  0  0  0  0  0  0  0  0  0
   -3.2313    1.0167   -4.4672 C   0  0  0  0  0  0  0  0  0  0  0  0
   -4.4310    1.5461   -3.9604 C   0  0  0  0  0  0  0  0  0  0  0  0
   -4.5180    2.8906   -3.5947 C   0  0  0  0  0  0  0  0  0  0  0  0
   -3.3964    3.7195   -3.7046 C   0  0  0  0  0  0  0  0  0  0  0  0
   -3.4997    5.4381   -3.1977 S   0  0  0  0  0  0  0  0  0  0  0  0
   -3.2033    5.0729   -1.4395 C   0  0  0  0  0  0  0  0  0  0  0  0
   -2.1955    3.2023   -4.2030 C   0  0  0  0  0  0  0  0  0  0  0  0
   -2.1140    1.8604   -4.5837 C   0  0  0  0  0  0  0  0  0  0  0  0
   -4.3107   -1.0587   -5.3489 C   0  0  0  0  0  0  0  0  0  0  0  0
   -4.7107   -2.2999   -4.8194 C   0  0  0  0  0  0  0  0  0  0  0  0
   -5.8277   -2.9595   -5.3330 C   0  0  0  0  0  0  0  0  0  0  0  0
   -6.5738   -2.3784   -6.3639 C   0  0  0  0  0  0  0  0  0  0  0  0
   -8.0336   -3.2103   -6.9905 S   0  0  0  0  0  0  0  0  0  0  0  0
   -9.1422   -2.4278   -5.7764 C   0  0  0  0  0  0  0  0  0  0  0  0
   -6.1844   -1.1433   -6.8962 C   0  0  0  0  0  0  0  0  0  0  0  0
   -5.0647   -0.4861   -6.3846 C   0  0  0  0  0  0  0  0  0  0  0  0
   -1.4042   -1.1481   -3.2085 C   0  0  0  0  0  0  0  0  0  0  0  0
   -1.5308   -0.1135   -1.9030 S   0  0  0  0  0  0  0  0  0  0  0  0
   -1.9151   -2.5807   -6.6010 C   0  0  0  0  0  0  0  0  0  0  0  0
   -1.8133   -1.6474   -7.5668 C   0  0  0  0  0  0  0  0  0  0  0  0
   -1.1021   -0.3755   -7.4101 C   0  0  0  0  0  0  0  0  0  0  0  0
   -0.0694   -0.1895   -6.7111 O   0  0  0  0  0  0  0  0  0  0  0  0
   -1.7892    0.6406   -8.1709 C   0  0  0  0  0  0  0  0  0  0  0  0
   -1.6423    2.0385   -8.0216 C   0  0  0  0  0  0  0  0  0  0  0  0
   -2.6471    2.7712   -8.6220 C   0  0  0  0  0  0  0  0  0  0  0  0
   -3.7317    2.1717   -9.3398 C   0  0  0  0  0  0  0  0  0  0  0  0
   -3.8714    0.8028   -9.5056 C   0  0  0  0  0  0  0  0  0  0  0  0
   -2.8424    0.0286   -8.8981 C   0  0  0  0  0  0  0  0  0  0  0  0
   -2.7911   -1.4441   -8.6738 C   0  0  0  0  0  0  0  0  0  0  0  0
   -3.3963   -2.4049   -9.4103 C   0  0  0  0  0  0  0  0  0  0  0  0
   -3.1030   -3.8010   -9.2165 C   0  0  0  0  0  0  0  0  0  0  0  0
   -2.8666   -4.9246   -9.0685 N   0  0  0  0  0  0  0  0  0  0  0  0
   -4.2580   -2.0924  -10.5211 C   0  0  0  0  0  0  0  0  0  0  0  0
   -4.9520   -1.8558  -11.4178 N   0  0  0  0  0  0  0  0  0  0  0  0
   -4.3699    3.5164   -9.5275 C   0  0  0  0  0  0  0  0  0  0  0  0
   -5.6057    3.8225   -8.6277 C   0  0  0  0  0  0  0  0  0  0  0  0
   -5.8152    5.3154   -8.7034 C   0  0  0  0  0  0  0  0  0  0  0  0
   -4.7973    5.8766   -8.0397 C   0  0  0  0  0  0  0  0  0  0  0  0
   -3.9387    4.7431   -7.5379 C   0  0  0  0  0  0  0  0  0  0  0  0
   -5.0381    3.7455   -7.2202 C   0  0  0  0  0  0  0  0  0  0  0  0
   -3.2555    4.1291   -8.7968 C   0  0  0  0  0  0  0  0  0  0  0  0
    3.4383    4.0922    8.7199 H   0  0  0  0  0  0  0  0  0  0  0  0
    6.1321   -1.5437    8.0223 H   0  0  0  0  0  0  0  0  0  0  0  0
    8.7067    2.8457    7.6022 H   0  0  0  0  0  0  0  0  0  0  0  0
    9.9837    0.3041    5.6221 H   0  0  0  0  0  0  0  0  0  0  0  0
   11.9688    0.4592    7.2626 H   0  0  0  0  0  0  0  0  0  0  0  0
   11.1074    0.3119    9.7745 H   0  0  0  0  0  0  0  0  0  0  0  0
    9.8001   -1.9195   10.0585 H   0  0  0  0  0  0  0  0  0  0  0  0
    9.8314   -3.2100    7.7326 H   0  0  0  0  0  0  0  0  0  0  0  0
   12.2442   -2.1279    7.7580 H   0  0  0  0  0  0  0  0  0  0  0  0
   11.5081   -1.9108    6.1025 H   0  0  0  0  0  0  0  0  0  0  0  0
    8.8306   -1.7405    5.8568 H   0  0  0  0  0  0  0  0  0  0  0  0
    0.8537    4.0523    8.2737 H   0  0  0  0  0  0  0  0  0  0  0  0
   -2.0329    3.3163    7.7779 H   0  0  0  0  0  0  0  0  0  0  0  0
   -3.7828    4.8005    6.8654 H   0  0  0  0  0  0  0  0  0  0  0  0
   -3.4544    5.9138    4.6720 H   0  0  0  0  0  0  0  0  0  0  0  0
   -1.3726    5.5213    3.3805 H   0  0  0  0  0  0  0  0  0  0  0  0
    0.3595    3.9972    4.2540 H   0  0  0  0  0  0  0  0  0  0  0  0
   -4.2002   -0.7722    4.7052 H   0  0  0  0  0  0  0  0  0  0  0  0
   -6.0904   -0.3033    3.2005 H   0  0  0  0  0  0  0  0  0  0  0  0
   -5.4124   -0.0876    0.0457 H   0  0  0  0  0  0  0  0  0  0  0  0
   -6.2813    1.0016   -1.1082 H   0  0  0  0  0  0  0  0  0  0  0  0
   -4.7018    1.5145   -0.4091 H   0  0  0  0  0  0  0  0  0  0  0  0
   -4.0552    3.1764    1.7033 H   0  0  0  0  0  0  0  0  0  0  0  0
   -2.1467    2.6841    3.1590 H   0  0  0  0  0  0  0  0  0  0  0  0
   -3.6327    1.3159    6.7502 H   0  0  0  0  0  0  0  0  0  0  0  0
   -3.7720    0.4415    9.0397 H   0  0  0  0  0  0  0  0  0  0  0  0
   -3.0262   -3.5659    9.3337 H   0  0  0  0  0  0  0  0  0  0  0  0
   -3.7477   -3.3843   10.9771 H   0  0  0  0  0  0  0  0  0  0  0  0
   -4.3672   -2.3777    9.6228 H   0  0  0  0  0  0  0  0  0  0  0  0
   -0.4691   -2.1965    8.2458 H   0  0  0  0  0  0  0  0  0  0  0  0
   -0.3080   -1.3210    5.9654 H   0  0  0  0  0  0  0  0  0  0  0  0
    4.6574    0.0403    1.1245 H   0  0  0  0  0  0  0  0  0  0  0  0
    6.0587    1.9221    1.8857 H   0  0  0  0  0  0  0  0  0  0  0  0
    5.7595    5.1181   -0.4254 H   0  0  0  0  0  0  0  0  0  0  0  0
    7.0757    4.0459    0.2102 H   0  0  0  0  0  0  0  0  0  0  0  0
    7.1620    5.8339    0.4541 H   0  0  0  0  0  0  0  0  0  0  0  0
    2.9133    4.6785    0.8611 H   0  0  0  0  0  0  0  0  0  0  0  0
    1.5029    2.7873    0.1195 H   0  0  0  0  0  0  0  0  0  0  0  0
    1.3554    1.0372   -2.2392 H   0  0  0  0  0  0  0  0  0  0  0  0
    1.9743    0.0473   -4.4160 H   0  0  0  0  0  0  0  0  0  0  0  0
    5.9211   -1.7009   -4.5286 H   0  0  0  0  0  0  0  0  0  0  0  0
    5.0293   -0.2342   -5.0967 H   0  0  0  0  0  0  0  0  0  0  0  0
    5.6053   -1.4661   -6.2868 H   0  0  0  0  0  0  0  0  0  0  0  0
    4.3802   -2.8886   -2.3897 H   0  0  0  0  0  0  0  0  0  0  0  0
    3.6772   -1.9674   -0.2106 H   0  0  0  0  0  0  0  0  0  0  0  0
   -2.3079   -3.7226    0.1555 H   0  0  0  0  0  0  0  0  0  0  0  0
   -2.9362   -3.8875    2.5276 H   0  0  0  0  0  0  0  0  0  0  0  0
   -0.4735   -6.1480    4.8338 H   0  0  0  0  0  0  0  0  0  0  0  0
   -1.7993   -6.0127    6.0499 H   0  0  0  0  0  0  0  0  0  0  0  0
   -2.2046   -6.0815    4.2904 H   0  0  0  0  0  0  0  0  0  0  0  0
    1.2213   -3.7680    3.6392 H   0  0  0  0  0  0  0  0  0  0  0  0
    1.8562   -3.6134    1.2507 H   0  0  0  0  0  0  0  0  0  0  0  0
    2.4726   -4.2972   -1.9775 H   0  0  0  0  0  0  0  0  0  0  0  0
    2.8297   -6.2776   -3.3978 H   0  0  0  0  0  0  0  0  0  0  0  0
    1.2192   -6.8162   -6.0090 H   0  0  0  0  0  0  0  0  0  0  0  0
    0.4189   -8.3423   -6.5408 H   0  0  0  0  0  0  0  0  0  0  0  0
   -0.5062   -7.1392   -5.5684 H   0  0  0  0  0  0  0  0  0  0  0  0
   -1.2460   -7.4754   -2.7249 H   0  0  0  0  0  0  0  0  0  0  0  0
   -1.6237   -5.4577   -1.3752 H   0  0  0  0  0  0  0  0  0  0  0  0
   -5.3026    0.9156   -3.8287 H   0  0  0  0  0  0  0  0  0  0  0  0
   -5.4547    3.2827   -3.2117 H   0  0  0  0  0  0  0  0  0  0  0  0
   -2.1903    4.6406   -1.3029 H   0  0  0  0  0  0  0  0  0  0  0  0
   -3.9659    4.3614   -1.0578 H   0  0  0  0  0  0  0  0  0  0  0  0
   -3.2698    6.0143   -0.8571 H   0  0  0  0  0  0  0  0  0  0  0  0
   -1.3250    3.8410   -4.2978 H   0  0  0  0  0  0  0  0  0  0  0  0
   -1.1760    1.4745   -4.9578 H   0  0  0  0  0  0  0  0  0  0  0  0
   -4.1591   -2.7492   -4.0046 H   0  0  0  0  0  0  0  0  0  0  0  0
   -6.1172   -3.9173   -4.9189 H   0  0  0  0  0  0  0  0  0  0  0  0
   -8.8178   -2.6789   -4.7445 H   0  0  0  0  0  0  0  0  0  0  0  0
  -10.1747   -2.7944   -5.9279 H   0  0  0  0  0  0  0  0  0  0  0  0
   -9.1347   -1.3258   -5.9148 H   0  0  0  0  0  0  0  0  0  0  0  0
   -6.7550   -0.6875   -7.6950 H   0  0  0  0  0  0  0  0  0  0  0  0
   -4.7696    0.4629   -6.8051 H   0  0  0  0  0  0  0  0  0  0  0  0
   -2.5290   -3.4554   -6.7409 H   0  0  0  0  0  0  0  0  0  0  0  0
   -0.8786    2.4952   -7.4053 H   0  0  0  0  0  0  0  0  0  0  0  0
   -4.7599    0.3899   -9.9547 H   0  0  0  0  0  0  0  0  0  0  0  0
   -4.4566    3.8279  -10.5910 H   0  0  0  0  0  0  0  0  0  0  0  0
   -6.5070    3.2062   -8.8231 H   0  0  0  0  0  0  0  0  0  0  0  0
   -6.6747    5.8361   -9.1143 H   0  0  0  0  0  0  0  0  0  0  0  0
   -4.6835    6.9338   -7.8204 H   0  0  0  0  0  0  0  0  0  0  0  0
   -3.2585    4.9952   -6.6961 H   0  0  0  0  0  0  0  0  0  0  0  0
   -4.6631    2.7475   -6.9258 H   0  0  0  0  0  0  0  0  0  0  0  0
   -5.7492    4.0968   -6.4327 H   0  0  0  0  0  0  0  0  0  0  0  0
   -2.6299    4.8274   -9.3977 H   0  0  0  0  0  0  0  0  0  0  0  0
  1  2  2  3
  2  3  1  0
  3  4  2  0
  3  5  1  0
  5  6  2  0
  6  7  1  0
  7  8  2  0
  8  9  1  0
  9 10  2  0
 10 11  1  0
 11 12  2  3
 12 13  1  0
 13 14  3  0
 12 15  1  0
 15 16  3  0
  8 17  1  0
 17 18  1  0
 18 19  1  0
 19 20  2  0
 20 21  1  0
 21 22  1  0
 21 23  1  0
  1 24  1  0
 24 25  2  0
 25 26  1  0
 26 27  1  0
 27 28  2  0
 28 29  1  0
 29 30  2  0
 30 31  1  0
 31 32  2  0
 26 33  2  0
 33 34  1  0
 33 35  1  0
 35 36  2  0
 36 37  1  0
 37 38  1  0
 38 39  2  0
 39 40  1  0
 40 41  2  0
 41 42  1  0
 42 43  1  0
 41 44  1  0
 44 45  2  0
 37 46  1  0
 46 47  2  0
 47 48  1  0
 48 49  2  0
 49 50  1  0
 50 51  1  0
 49 52  1  0
 52 53  2  0
 36 54  1  0
 54 55  1  0
 55 56  1  0
 56 57  2  0
 57 58  1  0
 58 59  1  0
 59 60  2  0
 60 61  1  0
 61 62  2  0
 62 63  1  0
 63 64  1  0
 62 65  1  0
 65 66  2  0
 58 67  1  0
 67 68  2  0
 68 69  1  0
 69 70  2  0
 70 71  1  0
 71 72  1  0
 70 73  1  0
 73 74  2  0
 57 75  1  0
 75 76  1  0
 56 77  1  0
 77 78  2  0
 78 79  1  0
 79 80  1  0
 80 81  2  0
 81 82  1  0
 82 83  2  0
 83 84  1  0
 84 85  1  0
 83 86  1  0
 86 87  2  0
 79 88  1  0
 88 89  2  0
 89 90  1  0
 90 91  2  0
 91 92  1  0
 92 93  1  0
 91 94  1  0
 94 95  2  0
 78 96  1  0
 96 97  1  0
 97 98  1  0
 98 99  2  0
 99100  1  0
100101  1  0
101102  2  0
102103  1  0
103104  2  0
104105  1  0
105106  1  0
104107  1  0
107108  2  0
100109  1  0
109110  2  0
110111  1  0
111112  2  0
112113  1  0
113114  1  0
112115  1  0
115116  2  0
 99117  1  0
117118  1  0
 98119  1  0
119120  2  3
120121  1  0
121122  2  0
121123  1  0
123124  2  0
124125  1  0
125126  2  0
126127  1  0
127128  2  0
128129  1  0
129130  2  3
130131  1  0
131132  3  0
130133  1  0
133134  3  0
126135  1  0
135136  1  0
136137  1  0
137138  2  0
138139  1  0
139140  1  0
139141  1  0
 11  2  1  0
 23 17  1  0
 34 24  1  0
 76 35  1  0
118 77  1  0
129120  1  0
141135  1  0
 10  5  1  0
 22 18  1  0
 32 27  1  0
 45 38  1  0
 53 46  1  0
 75 54  2  0
 87 80  1  0
 95 88  1  0
117 96  2  0
128123  1  0
140136  1  0
 23  7  1  0
 66 59  1  0
 74 67  1  0
108101  1  0
116109  1  0
141125  1  0
  1142  1  0
  6143  1  0
  9144  1  0
 17145  1  0
 18146  1  0
 19147  1  0
 20148  1  0
 21149  1  0
 22150  1  0
 22151  1  0
 23152  1  0
 25153  1  0
 28154  1  0
 29155  1  0
 30156  1  0
 31157  1  0
 32158  1  0
 39159  1  0
 40160  1  0
 43161  1  0
 43162  1  0
 43163  1  0
 44164  1  0
 45165  1  0
 47166  1  0
 48167  1  0
 51168  1  0
 51169  1  0
 51170  1  0
 52171  1  0
 53172  1  0
 60173  1  0
 61174  1  0
 64175  1  0
 64176  1  0
 64177  1  0
 65178  1  0
 66179  1  0
 68180  1  0
 69181  1  0
 72182  1  0
 72183  1  0
 72184  1  0
 73185  1  0
 74186  1  0
 81187  1  0
 82188  1  0
 85189  1  0
 85190  1  0
 85191  1  0
 86192  1  0
 87193  1  0
 89194  1  0
 90195  1  0
 93196  1  0
 93197  1  0
 93198  1  0
 94199  1  0
 95200  1  0
102201  1  0
103202  1  0
106203  1  0
106204  1  0
106205  1  0
107206  1  0
108207  1  0
110208  1  0
111209  1  0
114210  1  0
114211  1  0
114212  1  0
115213  1  0
116214  1  0
119215  1  0
124216  1  0
127217  1  0
135218  1  0
136219  1  0
137220  1  0
138221  1  0
139222  1  0
140223  1  0
140224  1  0
141225  1  0
M  END

