
     RDKit          3D

155172  0  0  0  0  0  0  0  0999 V2000
   -7.3090    5.3212   -3.8447 C   0  0  0  0  0  0  0  0  0  0  0  0
   -7.4017    4.3748   -4.7952 C   0  0  0  0  0  0  0  0  0  0  0  0
   -7.9396    4.6381   -6.1332 C   0  0  0  0  0  0  0  0  0  0  0  0
   -8.7384    5.5640   -6.4446 O   0  0  0  0  0  0  0  0  0  0  0  0
   -7.3045    3.7201   -7.0609 C   0  0  0  0  0  0  0  0  0  0  0  0
   -7.3613    3.7363   -8.4763 C   0  0  0  0  0  0  0  0  0  0  0  0
   -6.4722    2.8663   -9.0829 C   0  0  0  0  0  0  0  0  0  0  0  0
   -5.5711    2.0275   -8.3481 C   0  0  0  0  0  0  0  0  0  0  0  0
   -5.5324    1.9846   -6.9663 C   0  0  0  0  0  0  0  0  0  0  0  0
   -6.4645    2.8437   -6.3253 C   0  0  0  0  0  0  0  0  0  0  0  0
   -6.6450    3.0999   -4.8835 C   0  0  0  0  0  0  0  0  0  0  0  0
   -6.5352    2.1753   -3.8996 C   0  0  0  0  0  0  0  0  0  0  0  0
   -7.1663    2.3574   -2.6188 C   0  0  0  0  0  0  0  0  0  0  0  0
   -7.6960    2.5056   -1.5991 N   0  0  0  0  0  0  0  0  0  0  0  0
   -5.9310    0.8901   -4.1177 C   0  0  0  0  0  0  0  0  0  0  0  0
   -5.4383   -0.1472   -4.2754 N   0  0  0  0  0  0  0  0  0  0  0  0
   -4.9392    1.5564   -9.6224 C   0  0  0  0  0  0  0  0  0  0  0  0
   -3.5508    2.1531  -10.0045 C   0  0  0  0  0  0  0  0  0  0  0  0
   -3.4271    3.5764   -9.4978 C   0  0  0  0  0  0  0  0  0  0  0  0
   -4.2837    4.3123  -10.2102 C   0  0  0  0  0  0  0  0  0  0  0  0
   -4.9698    3.3639  -11.1707 C   0  0  0  0  0  0  0  0  0  0  0  0
   -3.7984    2.4448  -11.4757 C   0  0  0  0  0  0  0  0  0  0  0  0
   -5.8864    2.3853  -10.3756 C   0  0  0  0  0  0  0  0  0  0  0  0
   -6.2899    5.2994   -2.7791 C   0  0  0  0  0  0  0  0  0  0  0  0
   -6.4841    5.6840   -1.4640 C   0  0  0  0  0  0  0  0  0  0  0  0
   -5.3633    5.4517   -0.6428 C   0  0  0  0  0  0  0  0  0  0  0  0
   -5.4956    5.6349    1.1022 Cl  0  0  0  0  0  0  0  0  0  0  0  0
   -4.2640    4.9100   -1.3197 C   0  0  0  0  0  0  0  0  0  0  0  0
   -4.7081    4.7477   -2.9392 S   0  0  0  0  0  0  0  0  0  0  0  0
   -3.0151    4.3367   -0.7525 C   0  0  0  0  0  0  0  0  0  0  0  0
   -2.4051    3.2435   -1.4071 C   0  0  0  0  0  0  0  0  0  0  0  0
   -1.3228    2.5815   -0.8211 C   0  0  0  0  0  0  0  0  0  0  0  0
   -0.8183    2.9997    0.4139 C   0  0  0  0  0  0  0  0  0  0  0  0
   -1.3886    4.1114    1.0475 C   0  0  0  0  0  0  0  0  0  0  0  0
   -2.4513    4.7981    0.4541 C   0  0  0  0  0  0  0  0  0  0  0  0
    0.1119    2.1330    1.1368 C   0  0  0  0  0  0  0  0  0  0  0  0
    1.5184    2.1990    1.1087 C   0  0  0  0  0  0  0  0  0  0  0  0
    2.2710    3.2107    0.4285 N   0  0  0  0  0  0  0  0  0  0  0  0
    2.6777    3.0485   -0.9570 C   0  0  0  0  0  0  0  0  0  0  0  0
    2.4110    1.8481   -1.6556 C   0  0  0  0  0  0  0  0  0  0  0  0
    2.8067    1.6968   -2.9882 C   0  0  0  0  0  0  0  0  0  0  0  0
    3.4522    2.7355   -3.6534 C   0  0  0  0  0  0  0  0  0  0  0  0
    3.9315    2.5314   -5.3761 S   0  0  0  0  0  0  0  0  0  0  0  0
    5.5823    1.8747   -4.9830 C   0  0  0  0  0  0  0  0  0  0  0  0
    3.7091    3.9358   -2.9837 C   0  0  0  0  0  0  0  0  0  0  0  0
    3.3231    4.0925   -1.6495 C   0  0  0  0  0  0  0  0  0  0  0  0
    2.7695    4.2887    1.2370 C   0  0  0  0  0  0  0  0  0  0  0  0
    4.0447    4.2047    1.8133 C   0  0  0  0  0  0  0  0  0  0  0  0
    4.4698    5.1826    2.7167 C   0  0  0  0  0  0  0  0  0  0  0  0
    3.6240    6.2515    3.0498 C   0  0  0  0  0  0  0  0  0  0  0  0
    4.1554    7.4731    4.2518 S   0  0  0  0  0  0  0  0  0  0  0  0
    3.2505    6.7012    5.6362 C   0  0  0  0  0  0  0  0  0  0  0  0
    2.3642    6.3573    2.4483 C   0  0  0  0  0  0  0  0  0  0  0  0
    1.9394    5.3787    1.5460 C   0  0  0  0  0  0  0  0  0  0  0  0
    2.0762    1.0249    1.6098 C   0  0  0  0  0  0  0  0  0  0  0  0
    3.6081    0.3296    1.5036 S   0  0  0  0  0  0  0  0  0  0  0  0
    3.0970   -1.2095    2.0628 C   0  0  0  0  0  0  0  0  0  0  0  0
    1.7034   -1.1776    2.2624 C   0  0  0  0  0  0  0  0  0  0  0  0
    0.8824   -2.3488    2.3832 N   0  0  0  0  0  0  0  0  0  0  0  0
    0.6243   -2.9069    3.6906 C   0  0  0  0  0  0  0  0  0  0  0  0
    0.4656   -2.0697    4.8105 C   0  0  0  0  0  0  0  0  0  0  0  0
    0.1459   -2.6114    6.0640 C   0  0  0  0  0  0  0  0  0  0  0  0
   -0.0159   -3.9938    6.2061 C   0  0  0  0  0  0  0  0  0  0  0  0
   -0.5425   -4.6739    7.7903 S   0  0  0  0  0  0  0  0  0  0  0  0
    1.1430   -5.1462    8.2942 C   0  0  0  0  0  0  0  0  0  0  0  0
    0.1534   -4.8307    5.1012 C   0  0  0  0  0  0  0  0  0  0  0  0
    0.4764   -4.2970    3.8508 C   0  0  0  0  0  0  0  0  0  0  0  0
    0.1340   -2.7929    1.2323 C   0  0  0  0  0  0  0  0  0  0  0  0
    0.7445   -2.8701   -0.0315 C   0  0  0  0  0  0  0  0  0  0  0  0
    0.0121   -3.2785   -1.1500 C   0  0  0  0  0  0  0  0  0  0  0  0
   -1.3437   -3.6000   -1.0214 C   0  0  0  0  0  0  0  0  0  0  0  0
   -2.2717   -4.1486   -2.4581 S   0  0  0  0  0  0  0  0  0  0  0  0
   -2.8806   -2.4825   -2.8801 C   0  0  0  0  0  0  0  0  0  0  0  0
   -1.9635   -3.5132    0.2276 C   0  0  0  0  0  0  0  0  0  0  0  0
   -1.2294   -3.1147    1.3467 C   0  0  0  0  0  0  0  0  0  0  0  0
    1.1853    0.0821    2.0118 C   0  0  0  0  0  0  0  0  0  0  0  0
   -0.3778    0.6268    1.7594 S   0  0  0  0  0  0  0  0  0  0  0  0
    3.8632   -2.4340    1.8416 C   0  0  0  0  0  0  0  0  0  0  0  0
    3.8523   -3.5055    2.6560 C   0  0  0  0  0  0  0  0  0  0  0  0
    3.8915   -4.8523    2.0936 C   0  0  0  0  0  0  0  0  0  0  0  0
    3.5045   -5.1699    0.9347 O   0  0  0  0  0  0  0  0  0  0  0  0
    4.3309   -5.7785    3.0981 C   0  0  0  0  0  0  0  0  0  0  0  0
    4.5005   -7.1755    2.9456 C   0  0  0  0  0  0  0  0  0  0  0  0
    5.0332   -7.7980    4.0590 C   0  0  0  0  0  0  0  0  0  0  0  0
    5.3993   -7.0834    5.2483 C   0  0  0  0  0  0  0  0  0  0  0  0
    5.2205   -5.7181    5.4067 C   0  0  0  0  0  0  0  0  0  0  0  0
    4.6204   -5.0583    4.2893 C   0  0  0  0  0  0  0  0  0  0  0  0
    4.2354   -3.6172    4.1121 C   0  0  0  0  0  0  0  0  0  0  0  0
    4.1770   -2.6803    5.0956 C   0  0  0  0  0  0  0  0  0  0  0  0
    3.7632   -1.3185    4.8999 C   0  0  0  0  0  0  0  0  0  0  0  0
    3.4313   -0.2124    4.8037 N   0  0  0  0  0  0  0  0  0  0  0  0
    4.5809   -2.9565    6.4501 C   0  0  0  0  0  0  0  0  0  0  0  0
    4.9256   -3.1496    7.5462 N   0  0  0  0  0  0  0  0  0  0  0  0
    5.8778   -8.3581    5.8829 C   0  0  0  0  0  0  0  0  0  0  0  0
    4.9961   -8.9844    7.0021 C   0  0  0  0  0  0  0  0  0  0  0  0
    3.5419   -8.6345    6.7770 C   0  0  0  0  0  0  0  0  0  0  0  0
    3.1631   -9.2882    5.6748 C   0  0  0  0  0  0  0  0  0  0  0  0
    4.3725  -10.0696    5.1950 C   0  0  0  0  0  0  0  0  0  0  0  0
    4.9707  -10.4322    6.5411 C   0  0  0  0  0  0  0  0  0  0  0  0
    5.4755   -9.0920    4.6751 C   0  0  0  0  0  0  0  0  0  0  0  0
   -7.9129    6.2129   -3.9359 H   0  0  0  0  0  0  0  0  0  0  0  0
   -7.9783    4.4273   -9.0353 H   0  0  0  0  0  0  0  0  0  0  0  0
   -4.7996    1.3937   -6.4401 H   0  0  0  0  0  0  0  0  0  0  0  0
   -5.0513    0.4624   -9.8012 H   0  0  0  0  0  0  0  0  0  0  0  0
   -2.6794    1.5005   -9.7857 H   0  0  0  0  0  0  0  0  0  0  0  0
   -2.7302    3.9535   -8.7583 H   0  0  0  0  0  0  0  0  0  0  0  0
   -4.4081    5.3864  -10.1508 H   0  0  0  0  0  0  0  0  0  0  0  0
   -5.4368    3.8535  -12.0485 H   0  0  0  0  0  0  0  0  0  0  0  0
   -2.9418    2.9607  -11.9721 H   0  0  0  0  0  0  0  0  0  0  0  0
   -4.0959    1.5426  -12.0648 H   0  0  0  0  0  0  0  0  0  0  0  0
   -6.5932    1.7906  -11.0028 H   0  0  0  0  0  0  0  0  0  0  0  0
   -7.4265    6.0759   -1.1028 H   0  0  0  0  0  0  0  0  0  0  0  0
   -2.7933    2.8625   -2.3400 H   0  0  0  0  0  0  0  0  0  0  0  0
   -0.9013    1.7121   -1.3114 H   0  0  0  0  0  0  0  0  0  0  0  0
   -1.0271    4.4328    2.0137 H   0  0  0  0  0  0  0  0  0  0  0  0
   -2.8472    5.6681    0.9491 H   0  0  0  0  0  0  0  0  0  0  0  0
    1.9089    1.0188   -1.1782 H   0  0  0  0  0  0  0  0  0  0  0  0
    2.6074    0.7635   -3.5011 H   0  0  0  0  0  0  0  0  0  0  0  0
    6.1966    2.6629   -4.5053 H   0  0  0  0  0  0  0  0  0  0  0  0
    6.0692    1.5486   -5.9225 H   0  0  0  0  0  0  0  0  0  0  0  0
    5.5086    1.0039   -4.3037 H   0  0  0  0  0  0  0  0  0  0  0  0
    4.1963    4.7539   -3.4984 H   0  0  0  0  0  0  0  0  0  0  0  0
    3.5284    5.0359   -1.1618 H   0  0  0  0  0  0  0  0  0  0  0  0
    4.6964    3.3715    1.5779 H   0  0  0  0  0  0  0  0  0  0  0  0
    5.4517    5.1062    3.1667 H   0  0  0  0  0  0  0  0  0  0  0  0
    2.1729    6.9430    5.5414 H   0  0  0  0  0  0  0  0  0  0  0  0
    3.6251    7.1312    6.5860 H   0  0  0  0  0  0  0  0  0  0  0  0
    3.3883    5.6009    5.6505 H   0  0  0  0  0  0  0  0  0  0  0  0
    1.7114    7.1739    2.7001 H   0  0  0  0  0  0  0  0  0  0  0  0
    0.9666    5.4597    1.0954 H   0  0  0  0  0  0  0  0  0  0  0  0
    0.5542   -0.9987    4.7130 H   0  0  0  0  0  0  0  0  0  0  0  0
    0.0053   -1.9514    6.9075 H   0  0  0  0  0  0  0  0  0  0  0  0
    1.5617   -5.8887    7.5806 H   0  0  0  0  0  0  0  0  0  0  0  0
    1.7977   -4.2498    8.3292 H   0  0  0  0  0  0  0  0  0  0  0  0
    1.1007   -5.6017    9.3118 H   0  0  0  0  0  0  0  0  0  0  0  0
    0.0200   -5.9034    5.2124 H   0  0  0  0  0  0  0  0  0  0  0  0
    0.6122   -4.9704    3.0059 H   0  0  0  0  0  0  0  0  0  0  0  0
    1.7889   -2.6202   -0.1562 H   0  0  0  0  0  0  0  0  0  0  0  0
    0.5025   -3.3552   -2.1115 H   0  0  0  0  0  0  0  0  0  0  0  0
   -3.3760   -2.5311   -3.8652 H   0  0  0  0  0  0  0  0  0  0  0  0
   -2.0466   -1.7529   -2.9287 H   0  0  0  0  0  0  0  0  0  0  0  0
   -3.6167   -2.1602   -2.1151 H   0  0  0  0  0  0  0  0  0  0  0  0
   -3.0147   -3.7596    0.3287 H   0  0  0  0  0  0  0  0  0  0  0  0
   -1.7379   -3.0354    2.3004 H   0  0  0  0  0  0  0  0  0  0  0  0
    4.0526   -2.6156    0.7918 H   0  0  0  0  0  0  0  0  0  0  0  0
    4.2474   -7.7092    2.0395 H   0  0  0  0  0  0  0  0  0  0  0  0
    5.5448   -5.2398    6.3153 H   0  0  0  0  0  0  0  0  0  0  0  0
    6.9741   -8.3891    6.0743 H   0  0  0  0  0  0  0  0  0  0  0  0
    5.3641   -8.8148    8.0377 H   0  0  0  0  0  0  0  0  0  0  0  0
    2.9049   -8.0204    7.4065 H   0  0  0  0  0  0  0  0  0  0  0  0
    2.1649   -9.3006    5.2512 H   0  0  0  0  0  0  0  0  0  0  0  0
    4.1480  -10.9279    4.5240 H   0  0  0  0  0  0  0  0  0  0  0  0
    4.3027  -11.0780    7.1631 H   0  0  0  0  0  0  0  0  0  0  0  0
    5.9887  -10.8907    6.4712 H   0  0  0  0  0  0  0  0  0  0  0  0
    6.3306   -9.5753    4.1527 H   0  0  0  0  0  0  0  0  0  0  0  0
  1  2  2  3
  2  3  1  0
  3  4  2  0
  3  5  1  0
  5  6  2  0
  6  7  1  0
  7  8  2  0
  8  9  1  0
  9 10  2  0
 10 11  1  0
 11 12  2  3
 12 13  1  0
 13 14  3  0
 12 15  1  0
 15 16  3  0
  8 17  1  0
 17 18  1  0
 18 19  1  0
 19 20  2  0
 20 21  1  0
 21 22  1  0
 21 23  1  0
  1 24  1  0
 24 25  2  0
 25 26  1  0
 26 27  1  0
 26 28  2  0
 28 29  1  0
 28 30  1  0
 30 31  2  0
 31 32  1  0
 32 33  2  0
 33 34  1  0
 34 35  2  0
 33 36  1  0
 36 37  2  0
 37 38  1  0
 38 39  1  0
 39 40  2  0
 40 41  1  0
 41 42  2  0
 42 43  1  0
 43 44  1  0
 42 45  1  0
 45 46  2  0
 38 47  1  0
 47 48  2  0
 48 49  1  0
 49 50  2  0
 50 51  1  0
 51 52  1  0
 50 53  1  0
 53 54  2  0
 37 55  1  0
 55 56  1  0
 56 57  1  0
 57 58  2  0
 58 59  1  0
 59 60  1  0
 60 61  2  0
 61 62  1  0
 62 63  2  0
 63 64  1  0
 64 65  1  0
 63 66  1  0
 66 67  2  0
 59 68  1  0
 68 69  2  0
 69 70  1  0
 70 71  2  0
 71 72  1  0
 72 73  1  0
 71 74  1  0
 74 75  2  0
 58 76  1  0
 76 77  1  0
 57 78  1  0
 78 79  2  3
 79 80  1  0
 80 81  2  0
 80 82  1  0
 82 83  2  0
 83 84  1  0
 84 85  2  0
 85 86  1  0
 86 87  2  0
 87 88  1  0
 88 89  2  3
 89 90  1  0
 90 91  3  0
 89 92  1  0
 92 93  3  0
 85 94  1  0
 94 95  1  0
 95 96  1  0
 96 97  2  0
 97 98  1  0
 98 99  1  0
 98100  1  0
 11  2  1  0
 23 17  1  0
 29 24  1  0
 35 30  1  0
 77 36  1  0
 88 79  1  0
100 94  1  0
 10  5  1  0
 22 18  1  0
 46 39  1  0
 54 47  1  0
 76 55  2  0
 87 82  1  0
 99 95  1  0
 23  7  1  0
 67 60  1  0
 75 68  1  0
100 84  1  0
  1101  1  0
  6102  1  0
  9103  1  0
 17104  1  0
 18105  1  0
 19106  1  0
 20107  1  0
 21108  1  0
 22109  1  0
 22110  1  0
 23111  1  0
 25112  1  0
 31113  1  0
 32114  1  0
 34115  1  0
 35116  1  0
 40117  1  0
 41118  1  0
 44119  1  0
 44120  1  0
 44121  1  0
 45122  1  0
 46123  1  0
 48124  1  0
 49125  1  0
 52126  1  0
 52127  1  0
 52128  1  0
 53129  1  0
 54130  1  0
 61131  1  0
 62132  1  0
 65133  1  0
 65134  1  0
 65135  1  0
 66136  1  0
 67137  1  0
 69138  1  0
 70139  1  0
 73140  1  0
 73141  1  0
 73142  1  0
 74143  1  0
 75144  1  0
 78145  1  0
 83146  1  0
 86147  1  0
 94148  1  0
 95149  1  0
 96150  1  0
 97151  1  0
 98152  1  0
 99153  1  0
 99154  1  0
100155  1  0
M  END

