
     RDKit          3D

178197  0  0  0  0  0  0  0  0999 V2000
    6.8685   -3.0387    2.6682 C   0  0  0  0  0  0  0  0  0  0  0  0
    6.7266   -4.0404    1.7834 C   0  0  0  0  0  0  0  0  0  0  0  0
    7.6423   -4.3007    0.6681 C   0  0  0  0  0  0  0  0  0  0  0  0
    8.6447   -3.6036    0.3524 O   0  0  0  0  0  0  0  0  0  0  0  0
    7.3155   -5.5865    0.0883 C   0  0  0  0  0  0  0  0  0  0  0  0
    7.8616   -6.1491   -1.0899 C   0  0  0  0  0  0  0  0  0  0  0  0
    7.2416   -7.3158   -1.4906 C   0  0  0  0  0  0  0  0  0  0  0  0
    6.1603   -7.9129   -0.7661 C   0  0  0  0  0  0  0  0  0  0  0  0
    5.6391   -7.3862    0.4021 C   0  0  0  0  0  0  0  0  0  0  0  0
    6.2604   -6.1795    0.8354 C   0  0  0  0  0  0  0  0  0  0  0  0
    5.8701   -5.2570    1.9425 C   0  0  0  0  0  0  0  0  0  0  0  0
    4.8207   -5.3974    2.7960 C   0  0  0  0  0  0  0  0  0  0  0  0
    4.3225   -4.3024    3.5919 C   0  0  0  0  0  0  0  0  0  0  0  0
    3.9109   -3.4267    4.2262 N   0  0  0  0  0  0  0  0  0  0  0  0
    4.0787   -6.6219    2.9340 C   0  0  0  0  0  0  0  0  0  0  0  0
    3.4569   -7.5880    3.0606 N   0  0  0  0  0  0  0  0  0  0  0  0
    6.0130   -8.9677   -1.8171 C   0  0  0  0  0  0  0  0  0  0  0  0
    4.8100   -8.8364   -2.8009 C   0  0  0  0  0  0  0  0  0  0  0  0
    4.4700   -7.3804   -3.0246 C   0  0  0  0  0  0  0  0  0  0  0  0
    5.4901   -6.8486   -3.7004 C   0  0  0  0  0  0  0  0  0  0  0  0
    6.4885   -7.9620   -3.9168 C   0  0  0  0  0  0  0  0  0  0  0  0
    5.5185   -9.1147   -4.1128 C   0  0  0  0  0  0  0  0  0  0  0  0
    7.1303   -8.3693   -2.5552 C   0  0  0  0  0  0  0  0  0  0  0  0
    6.5738   -1.6268    2.2989 C   0  0  0  0  0  0  0  0  0  0  0  0
    6.6855   -1.1433    0.9703 C   0  0  0  0  0  0  0  0  0  0  0  0
    6.0773    0.0713    0.6433 C   0  0  0  0  0  0  0  0  0  0  0  0
    5.8723    0.5684   -0.6029 N   0  0  0  0  0  0  0  0  0  0  0  0
    6.5218    0.1249   -1.8402 C   0  0  0  0  0  0  0  0  0  0  0  0
    7.9859    0.5524   -1.8471 C   0  0  0  0  0  0  0  0  0  0  0  0
    4.9612    1.5622   -0.4436 C   0  0  0  0  0  0  0  0  0  0  0  0
    4.6543    1.7363    0.8927 C   0  0  0  0  0  0  0  0  0  0  0  0
    5.3694    0.7820    1.5841 C   0  0  0  0  0  0  0  0  0  0  0  0
    5.3023    0.3828    2.9153 C   0  0  0  0  0  0  0  0  0  0  0  0
    5.9339   -0.8184    3.2732 C   0  0  0  0  0  0  0  0  0  0  0  0
    3.6111    2.5534    1.3134 C   0  0  0  0  0  0  0  0  0  0  0  0
    2.8003    3.1411    0.3315 C   0  0  0  0  0  0  0  0  0  0  0  0
    3.0321    2.8868   -1.0429 C   0  0  0  0  0  0  0  0  0  0  0  0
    4.1683    2.1507   -1.4383 C   0  0  0  0  0  0  0  0  0  0  0  0
    1.8970    3.0365   -1.9709 C   0  0  0  0  0  0  0  0  0  0  0  0
    1.0672    1.9446   -2.2851 C   0  0  0  0  0  0  0  0  0  0  0  0
    1.4668    0.5645   -2.1840 N   0  0  0  0  0  0  0  0  0  0  0  0
    2.4212    0.0312   -3.1327 C   0  0  0  0  0  0  0  0  0  0  0  0
    3.2482   -1.0515   -2.7805 C   0  0  0  0  0  0  0  0  0  0  0  0
    4.1763   -1.5604   -3.6949 C   0  0  0  0  0  0  0  0  0  0  0  0
    4.2922   -0.9893   -4.9682 C   0  0  0  0  0  0  0  0  0  0  0  0
    5.4622   -1.6521   -6.1563 S   0  0  0  0  0  0  0  0  0  0  0  0
    6.7659   -0.4515   -5.7453 C   0  0  0  0  0  0  0  0  0  0  0  0
    3.4673    0.0794   -5.3290 C   0  0  0  0  0  0  0  0  0  0  0  0
    2.5412    0.5878   -4.4197 C   0  0  0  0  0  0  0  0  0  0  0  0
    0.6709   -0.3223   -1.3771 C   0  0  0  0  0  0  0  0  0  0  0  0
    0.4616   -0.0479   -0.0138 C   0  0  0  0  0  0  0  0  0  0  0  0
   -0.4543   -0.8054    0.7247 C   0  0  0  0  0  0  0  0  0  0  0  0
   -1.1704   -1.8350    0.1029 C   0  0  0  0  0  0  0  0  0  0  0  0
   -2.4226   -2.7383    1.0062 S   0  0  0  0  0  0  0  0  0  0  0  0
   -3.7528   -1.5878    0.5270 C   0  0  0  0  0  0  0  0  0  0  0  0
   -0.9255   -2.1443   -1.2398 C   0  0  0  0  0  0  0  0  0  0  0  0
   -0.0022   -1.4005   -1.9725 C   0  0  0  0  0  0  0  0  0  0  0  0
   -0.2345    2.3457   -2.5665 C   0  0  0  0  0  0  0  0  0  0  0  0
   -1.6969    1.5314   -2.5495 S   0  0  0  0  0  0  0  0  0  0  0  0
   -2.6532    2.9389   -2.5073 C   0  0  0  0  0  0  0  0  0  0  0  0
   -1.7990    4.0607   -2.5593 C   0  0  0  0  0  0  0  0  0  0  0  0
   -2.2549    5.4090   -2.7803 N   0  0  0  0  0  0  0  0  0  0  0  0
   -1.7269    6.4952   -1.9992 C   0  0  0  0  0  0  0  0  0  0  0  0
   -1.3771    7.7085   -2.6148 C   0  0  0  0  0  0  0  0  0  0  0  0
   -0.8868    8.7716   -1.8522 C   0  0  0  0  0  0  0  0  0  0  0  0
   -0.7461    8.6340   -0.4676 C   0  0  0  0  0  0  0  0  0  0  0  0
   -0.1465   10.0012    0.5200 S   0  0  0  0  0  0  0  0  0  0  0  0
   -1.8024   10.7414    0.7086 C   0  0  0  0  0  0  0  0  0  0  0  0
   -1.0795    7.4246    0.1522 C   0  0  0  0  0  0  0  0  0  0  0  0
   -1.5691    6.3592   -0.6083 C   0  0  0  0  0  0  0  0  0  0  0  0
   -3.2334    5.6464   -3.8159 C   0  0  0  0  0  0  0  0  0  0  0  0
   -3.1474    4.9590   -5.0428 C   0  0  0  0  0  0  0  0  0  0  0  0
   -4.1498    5.1003   -6.0024 C   0  0  0  0  0  0  0  0  0  0  0  0
   -5.2591    5.9136   -5.7469 C   0  0  0  0  0  0  0  0  0  0  0  0
   -6.5896    6.0181   -6.9447 S   0  0  0  0  0  0  0  0  0  0  0  0
   -7.4489    4.5516   -6.2795 C   0  0  0  0  0  0  0  0  0  0  0  0
   -5.3328    6.6310   -4.5486 C   0  0  0  0  0  0  0  0  0  0  0  0
   -4.3214    6.5083   -3.5894 C   0  0  0  0  0  0  0  0  0  0  0  0
   -0.4542    3.6835   -2.5461 C   0  0  0  0  0  0  0  0  0  0  0  0
    0.9643    4.4628   -2.0973 S   0  0  0  0  0  0  0  0  0  0  0  0
   -4.0140    2.9301   -1.9255 C   0  0  0  0  0  0  0  0  0  0  0  0
   -4.5542    3.9634   -1.1648 C   0  0  0  0  0  0  0  0  0  0  0  0
   -5.5672    3.5546   -0.2791 C   0  0  0  0  0  0  0  0  0  0  0  0
   -6.1627    4.3762    0.6871 O   0  0  0  0  0  0  0  0  0  0  0  0
   -5.8269    5.7475    0.8961 C   0  0  0  0  0  0  0  0  0  0  0  0
   -6.4738    6.6238   -0.1701 C   0  0  0  0  0  0  0  0  0  0  0  0
   -5.8543    2.1980   -0.3653 C   0  0  0  0  0  0  0  0  0  0  0  0
   -4.8337    1.5168   -1.5075 S   0  0  0  0  0  0  0  0  0  0  0  0
   -6.5485    1.4083    0.6597 C   0  0  0  0  0  0  0  0  0  0  0  0
   -6.0541    1.2372    1.8982 C   0  0  0  0  0  0  0  0  0  0  0  0
   -4.7213    1.6593    2.3621 C   0  0  0  0  0  0  0  0  0  0  0  0
   -3.9732    2.5188    1.8274 O   0  0  0  0  0  0  0  0  0  0  0  0
   -4.3506    0.8559    3.5030 C   0  0  0  0  0  0  0  0  0  0  0  0
   -3.1010    0.8475    4.1607 C   0  0  0  0  0  0  0  0  0  0  0  0
   -2.9811   -0.1493    5.1103 C   0  0  0  0  0  0  0  0  0  0  0  0
   -4.0194   -1.0981    5.3914 C   0  0  0  0  0  0  0  0  0  0  0  0
   -5.2514   -1.0868    4.7569 C   0  0  0  0  0  0  0  0  0  0  0  0
   -5.4067   -0.0448    3.7984 C   0  0  0  0  0  0  0  0  0  0  0  0
   -6.5601    0.2596    2.9060 C   0  0  0  0  0  0  0  0  0  0  0  0
   -7.8596   -0.0521    3.1296 C   0  0  0  0  0  0  0  0  0  0  0  0
   -8.2764   -0.9042    4.2136 C   0  0  0  0  0  0  0  0  0  0  0  0
   -8.6223   -1.5952    5.0793 N   0  0  0  0  0  0  0  0  0  0  0  0
   -8.9250    0.5872    2.3976 C   0  0  0  0  0  0  0  0  0  0  0  0
   -9.7759    1.1160    1.8220 N   0  0  0  0  0  0  0  0  0  0  0  0
   -3.1197   -1.8121    6.3554 C   0  0  0  0  0  0  0  0  0  0  0  0
   -2.4996   -3.1526    5.8613 C   0  0  0  0  0  0  0  0  0  0  0  0
   -1.3683   -3.4587    6.8144 C   0  0  0  0  0  0  0  0  0  0  0  0
   -0.4084   -2.5583    6.5670 C   0  0  0  0  0  0  0  0  0  0  0  0
   -0.9246   -1.6794    5.4544 C   0  0  0  0  0  0  0  0  0  0  0  0
   -1.6762   -2.7307    4.6560 C   0  0  0  0  0  0  0  0  0  0  0  0
   -2.0677   -0.8282    6.0788 C   0  0  0  0  0  0  0  0  0  0  0  0
    6.6559   -3.2758    3.7014 H   0  0  0  0  0  0  0  0  0  0  0  0
    8.6363   -5.6670   -1.6685 H   0  0  0  0  0  0  0  0  0  0  0  0
    4.7909   -7.8531    0.8657 H   0  0  0  0  0  0  0  0  0  0  0  0
    6.2142   -9.9992   -1.4481 H   0  0  0  0  0  0  0  0  0  0  0  0
    3.9446   -9.4927   -2.5779 H   0  0  0  0  0  0  0  0  0  0  0  0
    3.5524   -6.8697   -2.7460 H   0  0  0  0  0  0  0  0  0  0  0  0
    5.5445   -5.8320   -4.0747 H   0  0  0  0  0  0  0  0  0  0  0  0
    7.2018   -7.7942   -4.7494 H   0  0  0  0  0  0  0  0  0  0  0  0
    6.0199  -10.1107   -4.1566 H   0  0  0  0  0  0  0  0  0  0  0  0
    4.8605   -8.9925   -5.0070 H   0  0  0  0  0  0  0  0  0  0  0  0
    8.0198   -9.0309   -2.6350 H   0  0  0  0  0  0  0  0  0  0  0  0
    7.1206   -1.7380    0.1868 H   0  0  0  0  0  0  0  0  0  0  0  0
    6.4522   -0.9788   -1.9320 H   0  0  0  0  0  0  0  0  0  0  0  0
    6.0258    0.5625   -2.7281 H   0  0  0  0  0  0  0  0  0  0  0  0
    8.4655    0.2482   -2.7987 H   0  0  0  0  0  0  0  0  0  0  0  0
    8.5320    0.0719   -1.0057 H   0  0  0  0  0  0  0  0  0  0  0  0
    8.0623    1.6551   -1.7413 H   0  0  0  0  0  0  0  0  0  0  0  0
    4.7241    0.9387    3.6442 H   0  0  0  0  0  0  0  0  0  0  0  0
    5.8279   -1.1679    4.2937 H   0  0  0  0  0  0  0  0  0  0  0  0
    3.3561    2.6443    2.3612 H   0  0  0  0  0  0  0  0  0  0  0  0
    1.9104    3.6669    0.6446 H   0  0  0  0  0  0  0  0  0  0  0  0
    4.3249    1.9322   -2.4864 H   0  0  0  0  0  0  0  0  0  0  0  0
    3.1843   -1.4880   -1.7881 H   0  0  0  0  0  0  0  0  0  0  0  0
    4.8112   -2.3863   -3.4064 H   0  0  0  0  0  0  0  0  0  0  0  0
    7.6518   -0.6480   -6.3861 H   0  0  0  0  0  0  0  0  0  0  0  0
    6.4206    0.5904   -5.9209 H   0  0  0  0  0  0  0  0  0  0  0  0
    7.0682   -0.5687   -4.6867 H   0  0  0  0  0  0  0  0  0  0  0  0
    3.5483    0.5150   -6.3168 H   0  0  0  0  0  0  0  0  0  0  0  0
    1.9106    1.4095   -4.7280 H   0  0  0  0  0  0  0  0  0  0  0  0
    0.9874    0.7661    0.4678 H   0  0  0  0  0  0  0  0  0  0  0  0
   -0.6283   -0.5768    1.7704 H   0  0  0  0  0  0  0  0  0  0  0  0
   -3.8287   -1.5252   -0.5802 H   0  0  0  0  0  0  0  0  0  0  0  0
   -3.5443   -0.5787    0.9424 H   0  0  0  0  0  0  0  0  0  0  0  0
   -4.7200   -1.9528    0.9349 H   0  0  0  0  0  0  0  0  0  0  0  0
   -1.4774   -2.9367   -1.7282 H   0  0  0  0  0  0  0  0  0  0  0  0
    0.1332   -1.6140   -3.0233 H   0  0  0  0  0  0  0  0  0  0  0  0
   -1.4769    7.8246   -3.6876 H   0  0  0  0  0  0  0  0  0  0  0  0
   -0.6205    9.7023   -2.3396 H   0  0  0  0  0  0  0  0  0  0  0  0
   -2.5472    9.9711    0.9989 H   0  0  0  0  0  0  0  0  0  0  0  0
   -1.7619   11.5094    1.5040 H   0  0  0  0  0  0  0  0  0  0  0  0
   -2.1060   11.2171   -0.2450 H   0  0  0  0  0  0  0  0  0  0  0  0
   -0.9636    7.3135    1.2226 H   0  0  0  0  0  0  0  0  0  0  0  0
   -1.8356    5.4325   -0.1121 H   0  0  0  0  0  0  0  0  0  0  0  0
   -2.3075    4.3055   -5.2464 H   0  0  0  0  0  0  0  0  0  0  0  0
   -4.0818    4.5490   -6.9316 H   0  0  0  0  0  0  0  0  0  0  0  0
   -8.3733    4.3766   -6.8665 H   0  0  0  0  0  0  0  0  0  0  0  0
   -6.7981    3.6559   -6.3619 H   0  0  0  0  0  0  0  0  0  0  0  0
   -7.7233    4.7195   -5.2162 H   0  0  0  0  0  0  0  0  0  0  0  0
   -6.1840    7.2698   -4.3455 H   0  0  0  0  0  0  0  0  0  0  0  0
   -4.4017    7.0505   -2.6559 H   0  0  0  0  0  0  0  0  0  0  0  0
   -4.1362    4.9554   -1.1393 H   0  0  0  0  0  0  0  0  0  0  0  0
   -4.7242    5.8820    0.9022 H   0  0  0  0  0  0  0  0  0  0  0  0
   -6.2123    6.0567    1.8922 H   0  0  0  0  0  0  0  0  0  0  0  0
   -6.2281    6.2559   -1.1852 H   0  0  0  0  0  0  0  0  0  0  0  0
   -6.1170    7.6704   -0.0655 H   0  0  0  0  0  0  0  0  0  0  0  0
   -7.5793    6.6026   -0.0521 H   0  0  0  0  0  0  0  0  0  0  0  0
   -7.3916    0.8251    0.3289 H   0  0  0  0  0  0  0  0  0  0  0  0
   -2.2855    1.5087    3.8984 H   0  0  0  0  0  0  0  0  0  0  0  0
   -5.9852   -1.8536    4.9536 H   0  0  0  0  0  0  0  0  0  0  0  0
   -3.4946   -1.8074    7.4014 H   0  0  0  0  0  0  0  0  0  0  0  0
   -3.2156   -3.9828    5.6896 H   0  0  0  0  0  0  0  0  0  0  0  0
   -1.2925   -4.3012    7.4951 H   0  0  0  0  0  0  0  0  0  0  0  0
    0.5806   -2.5436    7.0115 H   0  0  0  0  0  0  0  0  0  0  0  0
   -0.1509   -1.1090    4.8979 H   0  0  0  0  0  0  0  0  0  0  0  0
   -1.0162   -3.5395    4.2539 H   0  0  0  0  0  0  0  0  0  0  0  0
   -2.2768   -2.3185    3.8209 H   0  0  0  0  0  0  0  0  0  0  0  0
   -1.7831   -0.1934    6.9447 H   0  0  0  0  0  0  0  0  0  0  0  0
  1  2  2  3
  2  3  1  0
  3  4  2  0
  3  5  1  0
  5  6  2  0
  6  7  1  0
  7  8  2  0
  8  9  1  0
  9 10  2  0
 10 11  1  0
 11 12  2  3
 12 13  1  0
 13 14  3  0
 12 15  1  0
 15 16  3  0
  8 17  1  0
 17 18  1  0
 18 19  1  0
 19 20  2  0
 20 21  1  0
 21 22  1  0
 21 23  1  0
  1 24  1  0
 24 25  2  0
 25 26  1  0
 26 27  1  0
 27 28  1  0
 28 29  1  0
 27 30  1  0
 30 31  2  0
 31 32  1  0
 32 33  1  0
 33 34  2  0
 31 35  1  0
 35 36  2  0
 36 37  1  0
 37 38  2  0
 37 39  1  0
 39 40  2  0
 40 41  1  0
 41 42  1  0
 42 43  2  0
 43 44  1  0
 44 45  2  0
 45 46  1  0
 46 47  1  0
 45 48  1  0
 48 49  2  0
 41 50  1  0
 50 51  2  0
 51 52  1  0
 52 53  2  0
 53 54  1  0
 54 55  1  0
 53 56  1  0
 56 57  2  0
 40 58  1  0
 58 59  1  0
 59 60  1  0
 60 61  2  0
 61 62  1  0
 62 63  1  0
 63 64  2  0
 64 65  1  0
 65 66  2  0
 66 67  1  0
 67 68  1  0
 66 69  1  0
 69 70  2  0
 62 71  1  0
 71 72  2  0
 72 73  1  0
 73 74  2  0
 74 75  1  0
 75 76  1  0
 74 77  1  0
 77 78  2  0
 61 79  1  0
 79 80  1  0
 60 81  1  0
 81 82  2  0
 82 83  1  0
 83 84  1  0
 84 85  1  0
 85 86  1  0
 83 87  2  0
 87 88  1  0
 87 89  1  0
 89 90  2  3
 90 91  1  0
 91 92  2  0
 91 93  1  0
 93 94  2  0
 94 95  1  0
 95 96  2  0
 96 97  1  0
 97 98  2  0
 98 99  1  0
 99100  2  3
100101  1  0
101102  3  0
100103  1  0
103104  3  0
 96105  1  0
105106  1  0
106107  1  0
107108  2  0
108109  1  0
109110  1  0
109111  1  0
 11  2  1  0
 23 17  1  0
 34 24  1  0
 80 39  1  0
 88 81  1  0
 99 90  1  0
111105  1  0
 10  5  1  0
 22 18  1  0
 32 26  2  0
 49 42  1  0
 57 50  1  0
 79 58  2  0
 98 93  1  0
110106  1  0
 23  7  1  0
 38 30  1  0
 70 63  1  0
 78 71  1  0
111 95  1  0
  1112  1  0
  6113  1  0
  9114  1  0
 17115  1  0
 18116  1  0
 19117  1  0
 20118  1  0
 21119  1  0
 22120  1  0
 22121  1  0
 23122  1  0
 25123  1  0
 28124  1  0
 28125  1  0
 29126  1  0
 29127  1  0
 29128  1  0
 33129  1  0
 34130  1  0
 35131  1  0
 36132  1  0
 38133  1  0
 43134  1  0
 44135  1  0
 47136  1  0
 47137  1  0
 47138  1  0
 48139  1  0
 49140  1  0
 51141  1  0
 52142  1  0
 55143  1  0
 55144  1  0
 55145  1  0
 56146  1  0
 57147  1  0
 64148  1  0
 65149  1  0
 68150  1  0
 68151  1  0
 68152  1  0
 69153  1  0
 70154  1  0
 72155  1  0
 73156  1  0
 76157  1  0
 76158  1  0
 76159  1  0
 77160  1  0
 78161  1  0
 82162  1  0
 85163  1  0
 85164  1  0
 86165  1  0
 86166  1  0
 86167  1  0
 89168  1  0
 94169  1  0
 97170  1  0
105171  1  0
106172  1  0
107173  1  0
108174  1  0
109175  1  0
110176  1  0
110177  1  0
111178  1  0
M  END

