
     RDKit          3D

236259  0  0  0  0  0  0  0  0999 V2000
    9.4254    4.2634   -5.3712 C   0  0  0  0  0  0  0  0  0  0  0  0
    8.3776    4.9007   -5.9371 C   0  0  0  0  0  0  0  0  0  0  0  0
    8.2169    6.3600   -6.0079 C   0  0  0  0  0  0  0  0  0  0  0  0
    9.0833    7.2189   -5.7006 O   0  0  0  0  0  0  0  0  0  0  0  0
    7.0344    6.6646   -6.7755 C   0  0  0  0  0  0  0  0  0  0  0  0
    6.4661    7.9454   -6.9773 C   0  0  0  0  0  0  0  0  0  0  0  0
    5.2993    7.9299   -7.7140 C   0  0  0  0  0  0  0  0  0  0  0  0
    4.7310    6.7304   -8.2508 C   0  0  0  0  0  0  0  0  0  0  0  0
    5.2870    5.4774   -8.0676 C   0  0  0  0  0  0  0  0  0  0  0  0
    6.4808    5.4621   -7.2859 C   0  0  0  0  0  0  0  0  0  0  0  0
    7.2913    4.3047   -6.7912 C   0  0  0  0  0  0  0  0  0  0  0  0
    6.9796    2.9813   -6.9184 C   0  0  0  0  0  0  0  0  0  0  0  0
    5.9081    2.5017   -7.7469 C   0  0  0  0  0  0  0  0  0  0  0  0
    5.0513    2.0829   -8.4061 N   0  0  0  0  0  0  0  0  0  0  0  0
    7.6506    1.9365   -6.1904 C   0  0  0  0  0  0  0  0  0  0  0  0
    8.1703    1.0740   -5.6132 N   0  0  0  0  0  0  0  0  0  0  0  0
    3.5658    7.5027   -8.7922 C   0  0  0  0  0  0  0  0  0  0  0  0
    2.2103    7.3700   -8.0348 C   0  0  0  0  0  0  0  0  0  0  0  0
    2.4651    7.1344   -6.5622 C   0  0  0  0  0  0  0  0  0  0  0  0
    2.9763    8.2613   -6.0717 C   0  0  0  0  0  0  0  0  0  0  0  0
    3.0683    9.2253   -7.2306 C   0  0  0  0  0  0  0  0  0  0  0  0
    1.8054    8.8294   -7.9741 C   0  0  0  0  0  0  0  0  0  0  0  0
    4.1478    8.7355   -8.2484 C   0  0  0  0  0  0  0  0  0  0  0  0
    9.6662    4.3300   -3.8998 C   0  0  0  0  0  0  0  0  0  0  0  0
    9.6398    3.1107   -3.1853 C   0  0  0  0  0  0  0  0  0  0  0  0
    9.4802    3.1368   -1.7961 C   0  0  0  0  0  0  0  0  0  0  0  0
    9.0636    2.1126   -1.0123 N   0  0  0  0  0  0  0  0  0  0  0  0
    8.8972    0.7115   -1.4320 C   0  0  0  0  0  0  0  0  0  0  0  0
   10.2491    0.0120   -1.4935 C   0  0  0  0  0  0  0  0  0  0  0  0
    8.6749    2.6925    0.1543 C   0  0  0  0  0  0  0  0  0  0  0  0
    8.9115    4.0573    0.1287 C   0  0  0  0  0  0  0  0  0  0  0  0
    9.4267    4.3367   -1.1192 C   0  0  0  0  0  0  0  0  0  0  0  0
    9.5802    5.5572   -1.7703 C   0  0  0  0  0  0  0  0  0  0  0  0
    9.7169    5.5462   -3.1689 C   0  0  0  0  0  0  0  0  0  0  0  0
    8.3536    4.9261    1.0672 C   0  0  0  0  0  0  0  0  0  0  0  0
    7.4295    4.3995    1.9797 C   0  0  0  0  0  0  0  0  0  0  0  0
    7.0987    3.0276    1.9507 C   0  0  0  0  0  0  0  0  0  0  0  0
    7.8088    2.1464    1.1091 C   0  0  0  0  0  0  0  0  0  0  0  0
    5.7279    2.6351    2.2843 C   0  0  0  0  0  0  0  0  0  0  0  0
    4.7525    2.6344    1.2929 C   0  0  0  0  0  0  0  0  0  0  0  0
    3.6974    1.7585    1.5511 C   0  0  0  0  0  0  0  0  0  0  0  0
    2.6524    1.4256    0.6639 C   0  0  0  0  0  0  0  0  0  0  0  0
    2.3581    2.1863   -0.5754 C   0  0  0  0  0  0  0  0  0  0  0  0
    3.2443    2.5770   -1.5886 C   0  0  0  0  0  0  0  0  0  0  0  0
    2.6178    3.3061   -2.6169 C   0  0  0  0  0  0  0  0  0  0  0  0
    3.5071    3.9343   -3.9994 Cl  0  0  0  0  0  0  0  0  0  0  0  0
    1.2392    3.4491   -2.4390 C   0  0  0  0  0  0  0  0  0  0  0  0
   -0.0158    4.2043   -3.5620 Si  0  0  0  0  0  4  0  0  0  0  0  0
   -1.7156    3.8261   -2.8400 C   0  0  0  0  0  0  0  0  0  0  0  0
   -2.8480    4.3343   -3.7219 C   0  0  0  0  0  0  0  0  0  0  0  0
    0.2816    6.0604   -3.6052 C   0  0  0  0  0  0  0  0  0  0  0  0
    0.0338    6.7003   -2.2447 C   0  0  0  0  0  0  0  0  0  0  0  0
    0.1364    3.3884   -5.2557 C   0  0  0  0  0  0  0  0  0  0  0  0
   -0.3558    4.2827   -6.3899 C   0  0  0  0  0  0  0  0  0  0  0  0
    0.8279    2.7491   -0.9766 S   0  0  0  0  0  0  0  0  0  0  0  0
    1.7658    0.4315    1.0994 C   0  0  0  0  0  0  0  0  0  0  0  0
    1.7795   -0.0947    2.3933 C   0  0  0  0  0  0  0  0  0  0  0  0
    2.7969    0.2843    3.3025 C   0  0  0  0  0  0  0  0  0  0  0  0
    2.7548   -0.1052    4.7204 C   0  0  0  0  0  0  0  0  0  0  0  0
    2.5245   -1.6665    5.2999 S   0  0  0  0  0  0  0  0  0  0  0  0
    2.1019   -1.2490    6.8731 C   0  0  0  0  0  0  0  0  0  0  0  0
    1.2301   -2.4157    8.0309 Si  0  0  0  0  0  4  0  0  0  0  0  0
    1.7077   -4.2090    7.6752 C   0  0  0  0  0  0  0  0  0  0  0  0
    1.0826   -4.7623    6.4000 C   0  0  0  0  0  0  0  0  0  0  0  0
   -0.6294   -2.1651    7.8510 C   0  0  0  0  0  0  0  0  0  0  0  0
   -1.0297   -1.7701    6.4294 C   0  0  0  0  0  0  0  0  0  0  0  0
    1.6986   -2.0162    9.8141 C   0  0  0  0  0  0  0  0  0  0  0  0
    1.2136   -3.0780   10.7954 C   0  0  0  0  0  0  0  0  0  0  0  0
    2.1323    0.1468    6.9565 C   0  0  0  0  0  0  0  0  0  0  0  0
    2.5042    0.7779    5.7610 C   0  0  0  0  0  0  0  0  0  0  0  0
    1.5549    1.0739    8.3278 Cl  0  0  0  0  0  0  0  0  0  0  0  0
    3.7836    1.1626    2.8147 C   0  0  0  0  0  0  0  0  0  0  0  0
    5.2461    1.6152    3.5380 S   0  0  0  0  0  0  0  0  0  0  0  0
    0.6633   -0.9175    2.6526 C   0  0  0  0  0  0  0  0  0  0  0  0
   -0.1481   -1.1086    1.5328 C   0  0  0  0  0  0  0  0  0  0  0  0
    0.4545   -0.1973    0.2707 S   0  0  0  0  0  0  0  0  0  0  0  0
   -1.5319   -1.5807    1.5660 C   0  0  0  0  0  0  0  0  0  0  0  0
   -2.1245   -2.5565    0.7411 C   0  0  0  0  0  0  0  0  0  0  0  0
   -1.4418   -3.3656   -0.2364 N   0  0  0  0  0  0  0  0  0  0  0  0
   -1.7282   -4.7787   -0.2655 C   0  0  0  0  0  0  0  0  0  0  0  0
   -1.5904   -5.5503    0.8985 C   0  0  0  0  0  0  0  0  0  0  0  0
   -1.8693   -6.9236    0.8683 C   0  0  0  0  0  0  0  0  0  0  0  0
   -2.2893   -7.5281   -0.3211 C   0  0  0  0  0  0  0  0  0  0  0  0
   -2.5642   -9.2989   -0.3815 S   0  0  0  0  0  0  0  0  0  0  0  0
   -0.8865   -9.6510   -1.0002 C   0  0  0  0  0  0  0  0  0  0  0  0
   -2.4787   -6.7528   -1.4713 C   0  0  0  0  0  0  0  0  0  0  0  0
   -2.1912   -5.3868   -1.4461 C   0  0  0  0  0  0  0  0  0  0  0  0
   -0.8206   -2.7421   -1.3798 C   0  0  0  0  0  0  0  0  0  0  0  0
    0.3354   -3.3074   -1.9481 C   0  0  0  0  0  0  0  0  0  0  0  0
    0.9140   -2.7412   -3.0878 C   0  0  0  0  0  0  0  0  0  0  0  0
    0.3390   -1.6119   -3.6815 C   0  0  0  0  0  0  0  0  0  0  0  0
    1.0752   -0.8859   -5.1490 S   0  0  0  0  0  0  0  0  0  0  0  0
    2.1509    0.2384   -4.2098 C   0  0  0  0  0  0  0  0  0  0  0  0
   -0.8217   -1.0502   -3.1305 C   0  0  0  0  0  0  0  0  0  0  0  0
   -1.4054   -1.6152   -1.9942 C   0  0  0  0  0  0  0  0  0  0  0  0
   -3.5058   -2.5814    0.9195 C   0  0  0  0  0  0  0  0  0  0  0  0
   -4.7427   -3.4647    0.2384 S   0  0  0  0  0  0  0  0  0  0  0  0
   -5.9715   -2.6533    1.1000 C   0  0  0  0  0  0  0  0  0  0  0  0
   -5.4039   -1.6152    1.8684 C   0  0  0  0  0  0  0  0  0  0  0  0
   -6.1184   -0.4778    2.4041 N   0  0  0  0  0  0  0  0  0  0  0  0
   -5.5135    0.8231    2.2934 C   0  0  0  0  0  0  0  0  0  0  0  0
   -5.1266    1.3154    1.0351 C   0  0  0  0  0  0  0  0  0  0  0  0
   -4.4149    2.5150    0.9370 C   0  0  0  0  0  0  0  0  0  0  0  0
   -4.0753    3.2232    2.0957 C   0  0  0  0  0  0  0  0  0  0  0  0
   -3.0668    4.7006    1.9732 S   0  0  0  0  0  0  0  0  0  0  0  0
   -1.5013    3.7689    2.0057 C   0  0  0  0  0  0  0  0  0  0  0  0
   -4.4930    2.7551    3.3486 C   0  0  0  0  0  0  0  0  0  0  0  0
   -5.2177    1.5625    3.4461 C   0  0  0  0  0  0  0  0  0  0  0  0
   -7.5100   -0.5375    2.7426 C   0  0  0  0  0  0  0  0  0  0  0  0
   -7.9225   -1.1734    3.9206 C   0  0  0  0  0  0  0  0  0  0  0  0
   -9.2551   -1.0909    4.3326 C   0  0  0  0  0  0  0  0  0  0  0  0
  -10.1822   -0.3767    3.5650 C   0  0  0  0  0  0  0  0  0  0  0  0
  -11.8728   -0.1946    4.1279 S   0  0  0  0  0  0  0  0  0  0  0  0
  -11.5534    1.4278    4.8918 C   0  0  0  0  0  0  0  0  0  0  0  0
   -9.7861    0.2175    2.3596 C   0  0  0  0  0  0  0  0  0  0  0  0
   -8.4503    0.1481    1.9576 C   0  0  0  0  0  0  0  0  0  0  0  0
   -4.0070   -1.6614    1.7759 C   0  0  0  0  0  0  0  0  0  0  0  0
   -2.7464   -0.7647    2.4325 S   0  0  0  0  0  0  0  0  0  0  0  0
   -7.3336   -3.2001    1.1976 C   0  0  0  0  0  0  0  0  0  0  0  0
   -7.5284   -4.4503    1.6724 C   0  0  0  0  0  0  0  0  0  0  0  0
   -6.4747   -5.2860    2.2655 C   0  0  0  0  0  0  0  0  0  0  0  0
   -5.4615   -4.8736    2.8937 O   0  0  0  0  0  0  0  0  0  0  0  0
   -6.7945   -6.6731    2.0388 C   0  0  0  0  0  0  0  0  0  0  0  0
   -5.9228   -7.7774    2.1800 C   0  0  0  0  0  0  0  0  0  0  0  0
   -6.4415   -8.9581    1.6842 C   0  0  0  0  0  0  0  0  0  0  0  0
   -7.7389   -9.0557    1.0819 C   0  0  0  0  0  0  0  0  0  0  0  0
   -8.5953   -7.9730    0.9404 C   0  0  0  0  0  0  0  0  0  0  0  0
   -8.0857   -6.7493    1.4577 C   0  0  0  0  0  0  0  0  0  0  0  0
   -8.6510   -5.3742    1.3440 C   0  0  0  0  0  0  0  0  0  0  0  0
   -9.9582   -5.0519    1.1860 C   0  0  0  0  0  0  0  0  0  0  0  0
  -10.9920   -6.0529    1.1890 C   0  0  0  0  0  0  0  0  0  0  0  0
  -11.8279   -6.8489    1.2163 N   0  0  0  0  0  0  0  0  0  0  0  0
  -10.4116   -3.6855    1.1744 C   0  0  0  0  0  0  0  0  0  0  0  0
  -10.7860   -2.5920    1.1609 N   0  0  0  0  0  0  0  0  0  0  0  0
   -7.5198  -10.5162    0.8102 C   0  0  0  0  0  0  0  0  0  0  0  0
   -8.2704  -11.5174    1.7331 C   0  0  0  0  0  0  0  0  0  0  0  0
   -7.5961  -12.8556    1.5368 C   0  0  0  0  0  0  0  0  0  0  0  0
   -6.3839  -12.7575    2.0970 C   0  0  0  0  0  0  0  0  0  0  0  0
   -6.2851  -11.3574    2.6582 C   0  0  0  0  0  0  0  0  0  0  0  0
   -7.7240  -11.1855    3.1119 C   0  0  0  0  0  0  0  0  0  0  0  0
   -6.1931  -10.4111    1.4257 C   0  0  0  0  0  0  0  0  0  0  0  0
    9.7069    3.3201   -5.8061 H   0  0  0  0  0  0  0  0  0  0  0  0
    6.8796    8.8502   -6.5530 H   0  0  0  0  0  0  0  0  0  0  0  0
    4.7973    4.6109   -8.4759 H   0  0  0  0  0  0  0  0  0  0  0  0
    3.4885    7.4917   -9.9045 H   0  0  0  0  0  0  0  0  0  0  0  0
    1.4705    6.6854   -8.4994 H   0  0  0  0  0  0  0  0  0  0  0  0
    2.2903    6.2226   -6.0085 H   0  0  0  0  0  0  0  0  0  0  0  0
    3.2580    8.4380   -5.0376 H   0  0  0  0  0  0  0  0  0  0  0  0
    3.1387   10.2953   -6.9436 H   0  0  0  0  0  0  0  0  0  0  0  0
    0.8715    9.0050   -7.3896 H   0  0  0  0  0  0  0  0  0  0  0  0
    1.7101    9.3092   -8.9786 H   0  0  0  0  0  0  0  0  0  0  0  0
    4.4329    9.4802   -9.0247 H   0  0  0  0  0  0  0  0  0  0  0  0
    9.5996    2.1710   -3.7185 H   0  0  0  0  0  0  0  0  0  0  0  0
    8.2457    0.1537   -0.7386 H   0  0  0  0  0  0  0  0  0  0  0  0
    8.4022    0.6685   -2.4256 H   0  0  0  0  0  0  0  0  0  0  0  0
   10.7077   -0.0142   -0.4823 H   0  0  0  0  0  0  0  0  0  0  0  0
   10.1143   -1.0311   -1.8554 H   0  0  0  0  0  0  0  0  0  0  0  0
   10.9259    0.5453   -2.1917 H   0  0  0  0  0  0  0  0  0  0  0  0
    9.5139    6.4979   -1.2368 H   0  0  0  0  0  0  0  0  0  0  0  0
    9.8286    6.4923   -3.6584 H   0  0  0  0  0  0  0  0  0  0  0  0
    8.5079    5.9953    1.0020 H   0  0  0  0  0  0  0  0  0  0  0  0
    6.8532    5.0821    2.5942 H   0  0  0  0  0  0  0  0  0  0  0  0
    7.4960    1.1142    1.0454 H   0  0  0  0  0  0  0  0  0  0  0  0
    4.8928    3.1710    0.3686 H   0  0  0  0  0  0  0  0  0  0  0  0
    4.2942    2.3254   -1.6095 H   0  0  0  0  0  0  0  0  0  0  0  0
   -1.8090    2.7257   -2.7194 H   0  0  0  0  0  0  0  0  0  0  0  0
   -1.7926    4.2908   -1.8338 H   0  0  0  0  0  0  0  0  0  0  0  0
   -3.8174    4.1637   -3.2068 H   0  0  0  0  0  0  0  0  0  0  0  0
   -2.7354    5.4219   -3.9176 H   0  0  0  0  0  0  0  0  0  0  0  0
   -2.8640    3.7729   -4.6801 H   0  0  0  0  0  0  0  0  0  0  0  0
   -0.3855    6.5257   -4.3604 H   0  0  0  0  0  0  0  0  0  0  0  0
    1.3359    6.2418   -3.8946 H   0  0  0  0  0  0  0  0  0  0  0  0
    0.6652    6.2230   -1.4633 H   0  0  0  0  0  0  0  0  0  0  0  0
    0.2838    7.7838   -2.2919 H   0  0  0  0  0  0  0  0  0  0  0  0
   -1.0350    6.6078   -1.9582 H   0  0  0  0  0  0  0  0  0  0  0  0
   -0.4574    2.4478   -5.2418 H   0  0  0  0  0  0  0  0  0  0  0  0
    1.1948    3.1208   -5.4438 H   0  0  0  0  0  0  0  0  0  0  0  0
   -1.3693    4.6763   -6.1874 H   0  0  0  0  0  0  0  0  0  0  0  0
   -0.3841    3.7001   -7.3310 H   0  0  0  0  0  0  0  0  0  0  0  0
    0.3328    5.1353   -6.5302 H   0  0  0  0  0  0  0  0  0  0  0  0
    1.3653   -4.8420    8.5142 H   0  0  0  0  0  0  0  0  0  0  0  0
    2.8110   -4.2693    7.6143 H   0  0  0  0  0  0  0  0  0  0  0  0
    1.3630   -4.1590    5.5171 H   0  0  0  0  0  0  0  0  0  0  0  0
   -0.0209   -4.7942    6.4839 H   0  0  0  0  0  0  0  0  0  0  0  0
    1.4420   -5.7984    6.2355 H   0  0  0  0  0  0  0  0  0  0  0  0
   -0.9443   -1.3606    8.5473 H   0  0  0  0  0  0  0  0  0  0  0  0
   -1.1493   -3.1004    8.1411 H   0  0  0  0  0  0  0  0  0  0  0  0
   -0.5660   -0.8008    6.1458 H   0  0  0  0  0  0  0  0  0  0  0  0
   -0.7233   -2.5477    5.7003 H   0  0  0  0  0  0  0  0  0  0  0  0
   -2.1324   -1.6519    6.3761 H   0  0  0  0  0  0  0  0  0  0  0  0
    1.2406   -1.0464   10.0912 H   0  0  0  0  0  0  0  0  0  0  0  0
    2.8040   -1.9245    9.8906 H   0  0  0  0  0  0  0  0  0  0  0  0
    1.3766   -2.7201   11.8362 H   0  0  0  0  0  0  0  0  0  0  0  0
    1.7906   -4.0178   10.6653 H   0  0  0  0  0  0  0  0  0  0  0  0
    0.1307   -3.2777   10.6589 H   0  0  0  0  0  0  0  0  0  0  0  0
    2.4875    1.8554    5.6403 H   0  0  0  0  0  0  0  0  0  0  0  0
    0.4068   -1.2932    3.6281 H   0  0  0  0  0  0  0  0  0  0  0  0
   -1.2435   -5.0975    1.8196 H   0  0  0  0  0  0  0  0  0  0  0  0
   -1.7460   -7.5149    1.7672 H   0  0  0  0  0  0  0  0  0  0  0  0
   -0.7154   -9.1273   -1.9665 H   0  0  0  0  0  0  0  0  0  0  0  0
   -0.1300   -9.3202   -0.2586 H   0  0  0  0  0  0  0  0  0  0  0  0
   -0.7721  -10.7396   -1.1692 H   0  0  0  0  0  0  0  0  0  0  0  0
   -2.8071   -7.2131   -2.3944 H   0  0  0  0  0  0  0  0  0  0  0  0
   -2.3477   -4.7997   -2.3424 H   0  0  0  0  0  0  0  0  0  0  0  0
    0.7904   -4.1869   -1.5048 H   0  0  0  0  0  0  0  0  0  0  0  0
    1.8053   -3.1840   -3.5147 H   0  0  0  0  0  0  0  0  0  0  0  0
    1.5513    0.7848   -3.4532 H   0  0  0  0  0  0  0  0  0  0  0  0
    2.6160    0.9692   -4.9028 H   0  0  0  0  0  0  0  0  0  0  0  0
    2.9521   -0.3386   -3.7039 H   0  0  0  0  0  0  0  0  0  0  0  0
   -1.2772   -0.1768   -3.5876 H   0  0  0  0  0  0  0  0  0  0  0  0
   -2.3085   -1.1703   -1.5898 H   0  0  0  0  0  0  0  0  0  0  0  0
   -5.3427    0.7487    0.1372 H   0  0  0  0  0  0  0  0  0  0  0  0
   -4.0962    2.8704   -0.0348 H   0  0  0  0  0  0  0  0  0  0  0  0
   -1.4385    3.0886    1.1303 H   0  0  0  0  0  0  0  0  0  0  0  0
   -1.4224    3.1787    2.9450 H   0  0  0  0  0  0  0  0  0  0  0  0
   -0.6585    4.4869    1.9618 H   0  0  0  0  0  0  0  0  0  0  0  0
   -4.2300    3.2957    4.2484 H   0  0  0  0  0  0  0  0  0  0  0  0
   -5.4972    1.1804    4.4192 H   0  0  0  0  0  0  0  0  0  0  0  0
   -7.2004   -1.6933    4.5378 H   0  0  0  0  0  0  0  0  0  0  0  0
   -9.5629   -1.5587    5.2613 H   0  0  0  0  0  0  0  0  0  0  0  0
  -10.7970    1.3283    5.7000 H   0  0  0  0  0  0  0  0  0  0  0  0
  -12.4943    1.8217    5.3262 H   0  0  0  0  0  0  0  0  0  0  0  0
  -11.1882    2.1483    4.1249 H   0  0  0  0  0  0  0  0  0  0  0  0
  -10.5009    0.7564    1.7529 H   0  0  0  0  0  0  0  0  0  0  0  0
   -8.1432    0.6450    1.0456 H   0  0  0  0  0  0  0  0  0  0  0  0
   -8.1138   -2.6618    0.6859 H   0  0  0  0  0  0  0  0  0  0  0  0
   -4.9208   -7.6955    2.5837 H   0  0  0  0  0  0  0  0  0  0  0  0
   -9.5331   -8.0649    0.4119 H   0  0  0  0  0  0  0  0  0  0  0  0
   -7.5062  -10.7746   -0.2702 H   0  0  0  0  0  0  0  0  0  0  0  0
   -9.3770  -11.5285    1.6360 H   0  0  0  0  0  0  0  0  0  0  0  0
   -8.0345  -13.7571    1.1209 H   0  0  0  0  0  0  0  0  0  0  0  0
   -5.6677  -13.5657    2.2106 H   0  0  0  0  0  0  0  0  0  0  0  0
   -5.5079  -11.2103    3.4359 H   0  0  0  0  0  0  0  0  0  0  0  0
   -8.0319  -11.9183    3.8951 H   0  0  0  0  0  0  0  0  0  0  0  0
   -7.9707  -10.1599    3.4657 H   0  0  0  0  0  0  0  0  0  0  0  0
   -5.3474  -10.6008    0.7271 H   0  0  0  0  0  0  0  0  0  0  0  0
  1  2  2  3
  2  3  1  0
  3  4  2  0
  3  5  1  0
  5  6  2  0
  6  7  1  0
  7  8  2  0
  8  9  1  0
  9 10  2  0
 10 11  1  0
 11 12  2  3
 12 13  1  0
 13 14  3  0
 12 15  1  0
 15 16  3  0
  8 17  1  0
 17 18  1  0
 18 19  1  0
 19 20  2  0
 20 21  1  0
 21 22  1  0
 21 23  1  0
  1 24  1  0
 24 25  2  0
 25 26  1  0
 26 27  1  0
 27 28  1  0
 28 29  1  0
 27 30  1  0
 30 31  2  0
 31 32  1  0
 32 33  1  0
 33 34  2  0
 31 35  1  0
 35 36  2  0
 36 37  1  0
 37 38  2  0
 37 39  1  0
 39 40  2  0
 40 41  1  0
 41 42  2  0
 42 43  1  0
 43 44  2  0
 44 45  1  0
 45 46  1  0
 45 47  2  0
 47 48  1  0
 48 49  1  0
 49 50  1  0
 48 51  1  0
 51 52  1  0
 48 53  1  0
 53 54  1  0
 47 55  1  0
 42 56  1  0
 56 57  2  0
 57 58  1  0
 58 59  1  0
 59 60  1  0
 60 61  1  0
 61 62  1  0
 62 63  1  0
 63 64  1  0
 62 65  1  0
 65 66  1  0
 62 67  1  0
 67 68  1  0
 61 69  2  0
 69 70  1  0
 69 71  1  0
 58 72  2  0
 72 73  1  0
 57 74  1  0
 74 75  2  0
 75 76  1  0
 75 77  1  0
 77 78  2  0
 78 79  1  0
 79 80  1  0
 80 81  2  0
 81 82  1  0
 82 83  2  0
 83 84  1  0
 84 85  1  0
 83 86  1  0
 86 87  2  0
 79 88  1  0
 88 89  2  0
 89 90  1  0
 90 91  2  0
 91 92  1  0
 92 93  1  0
 91 94  1  0
 94 95  2  0
 78 96  1  0
 96 97  1  0
 97 98  1  0
 98 99  2  0
 99100  1  0
100101  1  0
101102  2  0
102103  1  0
103104  2  0
104105  1  0
105106  1  0
104107  1  0
107108  2  0
100109  1  0
109110  2  0
110111  1  0
111112  2  0
112113  1  0
113114  1  0
112115  1  0
115116  2  0
 99117  1  0
117118  1  0
 98119  1  0
119120  2  3
120121  1  0
121122  2  0
121123  1  0
123124  2  0
124125  1  0
125126  2  0
126127  1  0
127128  2  0
128129  1  0
129130  2  3
130131  1  0
131132  3  0
130133  1  0
133134  3  0
126135  1  0
135136  1  0
136137  1  0
137138  2  0
138139  1  0
139140  1  0
139141  1  0
 11  2  1  0
 23 17  1  0
 34 24  1  0
 73 39  1  0
118 77  1  0
129120  1  0
141135  1  0
 10  5  1  0
 22 18  1  0
 32 26  2  0
 72 41  1  0
 87 80  1  0
 95 88  1  0
117 96  2  0
128123  1  0
140136  1  0
 23  7  1  0
 38 30  1  0
 55 43  1  0
 76 56  1  0
108101  1  0
116109  1  0
141125  1  0
 70 59  2  0
  1142  1  0
  6143  1  0
  9144  1  0
 17145  1  0
 18146  1  0
 19147  1  0
 20148  1  0
 21149  1  0
 22150  1  0
 22151  1  0
 23152  1  0
 25153  1  0
 28154  1  0
 28155  1  0
 29156  1  0
 29157  1  0
 29158  1  0
 33159  1  0
 34160  1  0
 35161  1  0
 36162  1  0
 38163  1  0
 40164  1  0
 44165  1  0
 49166  1  0
 49167  1  0
 50168  1  0
 50169  1  0
 50170  1  0
 51171  1  0
 51172  1  0
 52173  1  0
 52174  1  0
 52175  1  0
 53176  1  0
 53177  1  0
 54178  1  0
 54179  1  0
 54180  1  0
 63181  1  0
 63182  1  0
 64183  1  0
 64184  1  0
 64185  1  0
 65186  1  0
 65187  1  0
 66188  1  0
 66189  1  0
 66190  1  0
 67191  1  0
 67192  1  0
 68193  1  0
 68194  1  0
 68195  1  0
 70196  1  0
 74197  1  0
 81198  1  0
 82199  1  0
 85200  1  0
 85201  1  0
 85202  1  0
 86203  1  0
 87204  1  0
 89205  1  0
 90206  1  0
 93207  1  0
 93208  1  0
 93209  1  0
 94210  1  0
 95211  1  0
102212  1  0
103213  1  0
106214  1  0
106215  1  0
106216  1  0
107217  1  0
108218  1  0
110219  1  0
111220  1  0
114221  1  0
114222  1  0
114223  1  0
115224  1  0
116225  1  0
119226  1  0
124227  1  0
127228  1  0
135229  1  0
136230  1  0
137231  1  0
138232  1  0
139233  1  0
140234  1  0
140235  1  0
141236  1  0
M  END

