
     RDKit          3D

217240  0  0  0  0  0  0  0  0999 V2000
   -6.7002    3.0322    5.4883 C   0  0  0  0  0  0  0  0  0  0  0  0
   -7.1890    3.2917    4.2599 C   0  0  0  0  0  0  0  0  0  0  0  0
   -6.5071    3.0443    2.9827 C   0  0  0  0  0  0  0  0  0  0  0  0
   -5.2777    2.8175    2.8204 O   0  0  0  0  0  0  0  0  0  0  0  0
   -7.4885    3.0825    1.9214 C   0  0  0  0  0  0  0  0  0  0  0  0
   -7.2731    2.8259    0.5453 C   0  0  0  0  0  0  0  0  0  0  0  0
   -8.4179    2.9109   -0.2256 C   0  0  0  0  0  0  0  0  0  0  0  0
   -9.7077    3.2058    0.3226 C   0  0  0  0  0  0  0  0  0  0  0  0
   -9.9281    3.4385    1.6695 C   0  0  0  0  0  0  0  0  0  0  0  0
   -8.7568    3.3965    2.4774 C   0  0  0  0  0  0  0  0  0  0  0  0
   -8.5954    3.6668    3.9336 C   0  0  0  0  0  0  0  0  0  0  0  0
   -9.4237    4.4082    4.7144 C   0  0  0  0  0  0  0  0  0  0  0  0
   -8.9595    5.0220    5.9332 C   0  0  0  0  0  0  0  0  0  0  0  0
   -8.5802    5.5371    6.8941 N   0  0  0  0  0  0  0  0  0  0  0  0
  -10.7453    4.8011    4.3001 C   0  0  0  0  0  0  0  0  0  0  0  0
  -11.8102    5.1281    3.9831 N   0  0  0  0  0  0  0  0  0  0  0  0
  -10.3314    3.1002   -1.0344 C   0  0  0  0  0  0  0  0  0  0  0  0
  -11.1513    1.8113   -1.3292 C   0  0  0  0  0  0  0  0  0  0  0  0
  -11.3307    1.7763   -2.8279 C   0  0  0  0  0  0  0  0  0  0  0  0
  -10.1254    1.5090   -3.3484 C   0  0  0  0  0  0  0  0  0  0  0  0
   -9.1762    1.3725   -2.1814 C   0  0  0  0  0  0  0  0  0  0  0  0
  -10.1177    0.7065   -1.1933 C   0  0  0  0  0  0  0  0  0  0  0  0
   -9.0102    2.8045   -1.5990 C   0  0  0  0  0  0  0  0  0  0  0  0
   -5.2966    2.6879    5.7255 C   0  0  0  0  0  0  0  0  0  0  0  0
   -4.3068    3.6136    5.9857 C   0  0  0  0  0  0  0  0  0  0  0  0
   -3.0121    3.0887    5.9174 C   0  0  0  0  0  0  0  0  0  0  0  0
   -1.8602    3.9927    6.0500 C   0  0  0  0  0  0  0  0  0  0  0  0
   -1.0296    3.8236    6.9770 O   0  0  0  0  0  0  0  0  0  0  0  0
   -1.7847    5.1234    5.2311 O   0  0  0  0  0  0  0  0  0  0  0  0
   -0.7612    6.1025    5.3660 C   0  0  0  0  0  0  0  0  0  0  0  0
   -2.9774    1.7163    5.5813 C   0  0  0  0  0  0  0  0  0  0  0  0
   -4.5791    1.2132    5.3840 S   0  0  0  0  0  0  0  0  0  0  0  0
   -1.8498    0.9680    4.9737 C   0  0  0  0  0  0  0  0  0  0  0  0
   -0.4723    1.1446    5.2229 C   0  0  0  0  0  0  0  0  0  0  0  0
    0.0543    1.3005    6.5600 N   0  0  0  0  0  0  0  0  0  0  0  0
    1.3380    1.9263    6.7882 C   0  0  0  0  0  0  0  0  0  0  0  0
    1.7689    2.9878    5.9717 C   0  0  0  0  0  0  0  0  0  0  0  0
    3.0338    3.5521    6.1476 C   0  0  0  0  0  0  0  0  0  0  0  0
    3.8867    3.0665    7.1421 C   0  0  0  0  0  0  0  0  0  0  0  0
    5.5348    3.7450    7.3236 S   0  0  0  0  0  0  0  0  0  0  0  0
    6.2795    2.5473    6.1744 C   0  0  0  0  0  0  0  0  0  0  0  0
    3.4608    2.0292    7.9789 C   0  0  0  0  0  0  0  0  0  0  0  0
    2.1965    1.4622    7.8054 C   0  0  0  0  0  0  0  0  0  0  0  0
   -0.6226    0.5991    7.6305 C   0  0  0  0  0  0  0  0  0  0  0  0
   -0.9895   -0.7507    7.4723 C   0  0  0  0  0  0  0  0  0  0  0  0
   -1.7234   -1.4082    8.4649 C   0  0  0  0  0  0  0  0  0  0  0  0
   -2.0994   -0.7251    9.6273 C   0  0  0  0  0  0  0  0  0  0  0  0
   -3.0509   -1.5667   10.8956 S   0  0  0  0  0  0  0  0  0  0  0  0
   -4.6549   -1.1848   10.1275 C   0  0  0  0  0  0  0  0  0  0  0  0
   -1.7112    0.6075    9.8066 C   0  0  0  0  0  0  0  0  0  0  0  0
   -0.9699    1.2636    8.8185 C   0  0  0  0  0  0  0  0  0  0  0  0
    0.2804    0.5835    4.1837 C   0  0  0  0  0  0  0  0  0  0  0  0
    1.8896    0.6337    3.7029 S   0  0  0  0  0  0  0  0  0  0  0  0
    1.6499   -0.3217    2.3089 C   0  0  0  0  0  0  0  0  0  0  0  0
    0.3093   -0.7402    2.2655 C   0  0  0  0  0  0  0  0  0  0  0  0
   -0.0387   -2.0399    1.7536 N   0  0  0  0  0  0  0  0  0  0  0  0
   -0.6869   -2.1363    0.4750 C   0  0  0  0  0  0  0  0  0  0  0  0
   -2.0862   -2.1294    0.3981 C   0  0  0  0  0  0  0  0  0  0  0  0
   -2.7255   -2.3941   -0.8189 C   0  0  0  0  0  0  0  0  0  0  0  0
   -1.9678   -2.6594   -1.9685 C   0  0  0  0  0  0  0  0  0  0  0  0
   -2.7840   -3.0948   -3.5104 S   0  0  0  0  0  0  0  0  0  0  0  0
   -2.6475   -4.8879   -3.2205 C   0  0  0  0  0  0  0  0  0  0  0  0
   -0.5700   -2.6328   -1.9020 C   0  0  0  0  0  0  0  0  0  0  0  0
    0.0694   -2.3775   -0.6849 C   0  0  0  0  0  0  0  0  0  0  0  0
    0.4012   -3.2364    2.4626 C   0  0  0  0  0  0  0  0  0  0  0  0
    0.8063   -3.1672    3.8152 C   0  0  0  0  0  0  0  0  0  0  0  0
    1.3100   -4.2907    4.4749 C   0  0  0  0  0  0  0  0  0  0  0  0
    1.4141   -5.5126    3.8091 C   0  0  0  0  0  0  0  0  0  0  0  0
    2.1742   -6.9166    4.6293 S   0  0  0  0  0  0  0  0  0  0  0  0
    0.6339   -7.4647    5.4273 C   0  0  0  0  0  0  0  0  0  0  0  0
    0.9715   -5.6174    2.4853 C   0  0  0  0  0  0  0  0  0  0  0  0
    0.4625   -4.4934    1.8203 C   0  0  0  0  0  0  0  0  0  0  0  0
   -0.4253   -0.1402    3.2806 C   0  0  0  0  0  0  0  0  0  0  0  0
   -2.0558   -0.0498    3.6184 S   0  0  0  0  0  0  0  0  0  0  0  0
    2.3967   -0.0965    1.0617 C   0  0  0  0  0  0  0  0  0  0  0  0
    1.7790    0.2718   -0.1272 C   0  0  0  0  0  0  0  0  0  0  0  0
    2.6710    0.4892   -1.1799 C   0  0  0  0  0  0  0  0  0  0  0  0
    2.3073    0.8296   -2.4960 C   0  0  0  0  0  0  0  0  0  0  0  0
    0.8995    0.8326   -2.9468 C   0  0  0  0  0  0  0  0  0  0  0  0
    0.3626   -0.0623   -3.8647 C   0  0  0  0  0  0  0  0  0  0  0  0
   -1.0134    0.0900   -4.0508 C   0  0  0  0  0  0  0  0  0  0  0  0
   -1.5815    1.0932   -3.2700 C   0  0  0  0  0  0  0  0  0  0  0  0
   -3.0225    1.4357   -3.3299 C   0  0  0  0  0  0  0  0  0  0  0  0
   -3.7231    2.2332   -2.5082 C   0  0  0  0  0  0  0  0  0  0  0  0
   -3.2479    2.8551   -1.2667 C   0  0  0  0  0  0  0  0  0  0  0  0
   -3.5857    4.1438   -0.8647 C   0  0  0  0  0  0  0  0  0  0  0  0
   -3.1231    4.4654    0.4137 C   0  0  0  0  0  0  0  0  0  0  0  0
   -2.4426    3.4206    1.0144 C   0  0  0  0  0  0  0  0  0  0  0  0
   -1.6793    3.4685    2.6256 S   0  0  0  0  0  0  0  0  0  0  0  0
   -0.1751    4.3567    2.0923 C   0  0  0  0  0  0  0  0  0  0  0  0
    0.7134    3.4844    1.2180 C   0  0  0  0  0  0  0  0  0  0  0  0
   -2.4629    2.0786    0.0062 S   0  0  0  0  0  0  0  0  0  0  0  0
   -0.3392    1.8341   -2.3936 S   0  0  0  0  0  0  0  0  0  0  0  0
    3.3477    0.9373   -3.4213 C   0  0  0  0  0  0  0  0  0  0  0  0
    4.6843    0.6792   -3.1058 C   0  0  0  0  0  0  0  0  0  0  0  0
    5.0641    0.3939   -1.7678 C   0  0  0  0  0  0  0  0  0  0  0  0
    6.4886    0.2796   -1.3867 C   0  0  0  0  0  0  0  0  0  0  0  0
    7.4759    1.1817   -1.7735 C   0  0  0  0  0  0  0  0  0  0  0  0
    8.7285    0.9132   -1.2151 C   0  0  0  0  0  0  0  0  0  0  0  0
    8.7452   -0.2177   -0.4093 C   0  0  0  0  0  0  0  0  0  0  0  0
    9.8669   -0.5880    0.4613 C   0  0  0  0  0  0  0  0  0  0  0  0
   10.3731   -1.8203    0.6214 C   0  0  0  0  0  0  0  0  0  0  0  0
   10.0699   -3.0196   -0.1890 C   0  0  0  0  0  0  0  0  0  0  0  0
    9.5491   -3.0811   -1.4819 C   0  0  0  0  0  0  0  0  0  0  0  0
    9.5937   -4.3674   -2.0397 C   0  0  0  0  0  0  0  0  0  0  0  0
   10.1618   -5.3088   -1.1972 C   0  0  0  0  0  0  0  0  0  0  0  0
   10.5782   -6.9928   -1.6579 S   0  0  0  0  0  0  0  0  0  0  0  0
    9.2128   -7.7781   -0.7323 C   0  0  0  0  0  0  0  0  0  0  0  0
    9.7198   -8.2817    0.6124 C   0  0  0  0  0  0  0  0  0  0  0  0
   10.6270   -4.5530    0.2259 S   0  0  0  0  0  0  0  0  0  0  0  0
    7.1829   -0.8552   -0.3447 S   0  0  0  0  0  0  0  0  0  0  0  0
    4.0140    0.2938   -0.8245 C   0  0  0  0  0  0  0  0  0  0  0  0
    4.0716   -0.0992    0.8283 S   0  0  0  0  0  0  0  0  0  0  0  0
    5.5111    0.6163   -4.2500 C   0  0  0  0  0  0  0  0  0  0  0  0
    4.8111    0.8772   -5.4301 C   0  0  0  0  0  0  0  0  0  0  0  0
    3.1966    1.1779   -5.0696 S   0  0  0  0  0  0  0  0  0  0  0  0
    5.2174    0.4854   -6.7857 C   0  0  0  0  0  0  0  0  0  0  0  0
    4.7067   -0.6348   -7.3304 C   0  0  0  0  0  0  0  0  0  0  0  0
    3.9881   -1.6545   -6.5508 C   0  0  0  0  0  0  0  0  0  0  0  0
    4.3060   -2.0628   -5.4004 O   0  0  0  0  0  0  0  0  0  0  0  0
    2.8249   -2.0788   -7.2921 C   0  0  0  0  0  0  0  0  0  0  0  0
    1.6920   -2.7381   -6.7630 C   0  0  0  0  0  0  0  0  0  0  0  0
    0.5859   -2.6930   -7.5870 C   0  0  0  0  0  0  0  0  0  0  0  0
    0.5857   -2.0559   -8.8707 C   0  0  0  0  0  0  0  0  0  0  0  0
    1.7047   -1.4356   -9.4086 C   0  0  0  0  0  0  0  0  0  0  0  0
    2.8561   -1.4664   -8.5711 C   0  0  0  0  0  0  0  0  0  0  0  0
    4.1182   -0.6870   -8.6957 C   0  0  0  0  0  0  0  0  0  0  0  0
    4.6920   -0.2324   -9.8345 C   0  0  0  0  0  0  0  0  0  0  0  0
    5.9873    0.3973   -9.8271 C   0  0  0  0  0  0  0  0  0  0  0  0
    7.0278    0.9016   -9.8259 N   0  0  0  0  0  0  0  0  0  0  0  0
    4.1087   -0.4671  -11.1310 C   0  0  0  0  0  0  0  0  0  0  0  0
    3.6572   -0.6633  -12.1779 N   0  0  0  0  0  0  0  0  0  0  0  0
   -0.8836   -2.3343   -9.0238 C   0  0  0  0  0  0  0  0  0  0  0  0
   -1.3262   -3.4649   -9.9990 C   0  0  0  0  0  0  0  0  0  0  0  0
   -0.2538   -4.5275  -10.0735 C   0  0  0  0  0  0  0  0  0  0  0  0
   -0.2336   -5.1325   -8.8852 C   0  0  0  0  0  0  0  0  0  0  0  0
   -1.2955   -4.4639   -8.0430 C   0  0  0  0  0  0  0  0  0  0  0  0
   -2.3279   -4.1972   -9.1225 C   0  0  0  0  0  0  0  0  0  0  0  0
   -0.8762   -2.9992   -7.7156 C   0  0  0  0  0  0  0  0  0  0  0  0
   -7.3313    3.1096    6.3621 H   0  0  0  0  0  0  0  0  0  0  0  0
   -6.3041    2.5878    0.1265 H   0  0  0  0  0  0  0  0  0  0  0  0
  -10.9231    3.6175    2.0377 H   0  0  0  0  0  0  0  0  0  0  0  0
  -10.7846    4.0520   -1.3929 H   0  0  0  0  0  0  0  0  0  0  0  0
  -12.0815    1.6863   -0.7334 H   0  0  0  0  0  0  0  0  0  0  0  0
  -12.2568    1.8560   -3.3846 H   0  0  0  0  0  0  0  0  0  0  0  0
   -9.9099    1.3361   -4.3960 H   0  0  0  0  0  0  0  0  0  0  0  0
   -8.2324    0.8286   -2.3970 H   0  0  0  0  0  0  0  0  0  0  0  0
  -10.4875   -0.2882   -1.5402 H   0  0  0  0  0  0  0  0  0  0  0  0
   -9.7003    0.5966   -0.1686 H   0  0  0  0  0  0  0  0  0  0  0  0
   -8.6266    3.5711   -2.3082 H   0  0  0  0  0  0  0  0  0  0  0  0
   -4.5156    4.6645    6.1515 H   0  0  0  0  0  0  0  0  0  0  0  0
    0.2398    5.6350    5.2606 H   0  0  0  0  0  0  0  0  0  0  0  0
   -0.8819    6.8679    4.5718 H   0  0  0  0  0  0  0  0  0  0  0  0
   -0.8364    6.5959    6.3570 H   0  0  0  0  0  0  0  0  0  0  0  0
    1.1315    3.3617    5.1808 H   0  0  0  0  0  0  0  0  0  0  0  0
    3.3553    4.3505    5.4935 H   0  0  0  0  0  0  0  0  0  0  0  0
    5.8626    2.6931    5.1525 H   0  0  0  0  0  0  0  0  0  0  0  0
    7.3767    2.7064    6.1434 H   0  0  0  0  0  0  0  0  0  0  0  0
    6.0748    1.5084    6.5175 H   0  0  0  0  0  0  0  0  0  0  0  0
    4.1180    1.6501    8.7511 H   0  0  0  0  0  0  0  0  0  0  0  0
    1.9028    0.6385    8.4455 H   0  0  0  0  0  0  0  0  0  0  0  0
   -0.7188   -1.2917    6.5745 H   0  0  0  0  0  0  0  0  0  0  0  0
   -2.0130   -2.4432    8.3218 H   0  0  0  0  0  0  0  0  0  0  0  0
   -5.4671   -1.5619   10.7821 H   0  0  0  0  0  0  0  0  0  0  0  0
   -4.7723   -0.0874   10.0063 H   0  0  0  0  0  0  0  0  0  0  0  0
   -4.7309   -1.6835    9.1384 H   0  0  0  0  0  0  0  0  0  0  0  0
   -1.9964    1.1393   10.7041 H   0  0  0  0  0  0  0  0  0  0  0  0
   -0.6857    2.2933    8.9707 H   0  0  0  0  0  0  0  0  0  0  0  0
   -2.6794   -1.9688    1.2898 H   0  0  0  0  0  0  0  0  0  0  0  0
   -3.8074   -2.4207   -0.8632 H   0  0  0  0  0  0  0  0  0  0  0  0
   -3.1599   -5.4354   -4.0410 H   0  0  0  0  0  0  0  0  0  0  0  0
   -3.1182   -5.1596   -2.2517 H   0  0  0  0  0  0  0  0  0  0  0  0
   -1.5766   -5.1847   -3.2073 H   0  0  0  0  0  0  0  0  0  0  0  0
    0.0222   -2.8426   -2.7845 H   0  0  0  0  0  0  0  0  0  0  0  0
    1.1506   -2.4151   -0.6341 H   0  0  0  0  0  0  0  0  0  0  0  0
    0.7431   -2.2464    4.3775 H   0  0  0  0  0  0  0  0  0  0  0  0
    1.6351   -4.2021    5.5045 H   0  0  0  0  0  0  0  0  0  0  0  0
    0.8688   -8.3014    6.1169 H   0  0  0  0  0  0  0  0  0  0  0  0
   -0.0809   -7.8199    4.6549 H   0  0  0  0  0  0  0  0  0  0  0  0
    0.1816   -6.6345    6.0136 H   0  0  0  0  0  0  0  0  0  0  0  0
    1.0431   -6.5641    1.9632 H   0  0  0  0  0  0  0  0  0  0  0  0
    0.1545   -4.6161    0.7906 H   0  0  0  0  0  0  0  0  0  0  0  0
    0.7080    0.3785   -0.2195 H   0  0  0  0  0  0  0  0  0  0  0  0
    0.9451   -0.8162   -4.3784 H   0  0  0  0  0  0  0  0  0  0  0  0
   -1.5818   -0.5214   -4.7426 H   0  0  0  0  0  0  0  0  0  0  0  0
   -3.5662    1.0154   -4.1663 H   0  0  0  0  0  0  0  0  0  0  0  0
   -4.7460    2.4534   -2.7891 H   0  0  0  0  0  0  0  0  0  0  0  0
   -4.1601    4.8305   -1.4759 H   0  0  0  0  0  0  0  0  0  0  0  0
   -3.2817    5.4296    0.8806 H   0  0  0  0  0  0  0  0  0  0  0  0
    0.3958    4.6440    2.9978 H   0  0  0  0  0  0  0  0  0  0  0  0
   -0.4518    5.2868    1.5506 H   0  0  0  0  0  0  0  0  0  0  0  0
    0.2584    3.3535    0.2158 H   0  0  0  0  0  0  0  0  0  0  0  0
    0.8564    2.4931    1.6897 H   0  0  0  0  0  0  0  0  0  0  0  0
    1.7045    3.9674    1.0915 H   0  0  0  0  0  0  0  0  0  0  0  0
    7.2867    2.0414   -2.4034 H   0  0  0  0  0  0  0  0  0  0  0  0
    9.5892    1.5496   -1.3690 H   0  0  0  0  0  0  0  0  0  0  0  0
   10.3147    0.2102    1.0369 H   0  0  0  0  0  0  0  0  0  0  0  0
   11.1330   -1.9410    1.3808 H   0  0  0  0  0  0  0  0  0  0  0  0
    9.2063   -2.2257   -2.0464 H   0  0  0  0  0  0  0  0  0  0  0  0
    9.2662   -4.5879   -3.0468 H   0  0  0  0  0  0  0  0  0  0  0  0
    8.8466   -8.6439   -1.3235 H   0  0  0  0  0  0  0  0  0  0  0  0
    8.3640   -7.0788   -0.5796 H   0  0  0  0  0  0  0  0  0  0  0  0
   10.1138   -7.4399    1.2190 H   0  0  0  0  0  0  0  0  0  0  0  0
    8.8918   -8.7713    1.1675 H   0  0  0  0  0  0  0  0  0  0  0  0
   10.5301   -9.0260    0.4595 H   0  0  0  0  0  0  0  0  0  0  0  0
    6.5436    0.2887   -4.2360 H   0  0  0  0  0  0  0  0  0  0  0  0
    5.5527    1.2938   -7.4212 H   0  0  0  0  0  0  0  0  0  0  0  0
    1.6532   -3.1428   -5.7596 H   0  0  0  0  0  0  0  0  0  0  0  0
    1.6421   -0.8823  -10.3305 H   0  0  0  0  0  0  0  0  0  0  0  0
   -1.5163   -1.4189   -9.0486 H   0  0  0  0  0  0  0  0  0  0  0  0
   -1.7108   -3.1162  -10.9804 H   0  0  0  0  0  0  0  0  0  0  0  0
    0.3343   -4.8087  -10.9431 H   0  0  0  0  0  0  0  0  0  0  0  0
    0.3749   -5.9929   -8.6215 H   0  0  0  0  0  0  0  0  0  0  0  0
   -1.6522   -5.0611   -7.1767 H   0  0  0  0  0  0  0  0  0  0  0  0
   -2.7300   -5.1244   -9.5911 H   0  0  0  0  0  0  0  0  0  0  0  0
   -3.1716   -3.5548   -8.7813 H   0  0  0  0  0  0  0  0  0  0  0  0
   -1.5065   -2.4938   -6.9476 H   0  0  0  0  0  0  0  0  0  0  0  0
  1  2  2  3
  2  3  1  0
  3  4  2  0
  3  5  1  0
  5  6  2  0
  6  7  1  0
  7  8  2  0
  8  9  1  0
  9 10  2  0
 10 11  1  0
 11 12  2  3
 12 13  1  0
 13 14  3  0
 12 15  1  0
 15 16  3  0
  8 17  1  0
 17 18  1  0
 18 19  1  0
 19 20  2  0
 20 21  1  0
 21 22  1  0
 21 23  1  0
  1 24  1  0
 24 25  2  0
 25 26  1  0
 26 27  1  0
 27 28  2  0
 27 29  1  0
 29 30  1  0
 26 31  2  0
 31 32  1  0
 31 33  1  0
 33 34  2  0
 34 35  1  0
 35 36  1  0
 36 37  2  0
 37 38  1  0
 38 39  2  0
 39 40  1  0
 40 41  1  0
 39 42  1  0
 42 43  2  0
 35 44  1  0
 44 45  2  0
 45 46  1  0
 46 47  2  0
 47 48  1  0
 48 49  1  0
 47 50  1  0
 50 51  2  0
 34 52  1  0
 52 53  1  0
 53 54  1  0
 54 55  2  0
 55 56  1  0
 56 57  1  0
 57 58  2  0
 58 59  1  0
 59 60  2  0
 60 61  1  0
 61 62  1  0
 60 63  1  0
 63 64  2  0
 56 65  1  0
 65 66  2  0
 66 67  1  0
 67 68  2  0
 68 69  1  0
 69 70  1  0
 68 71  1  0
 71 72  2  0
 55 73  1  0
 73 74  1  0
 54 75  1  0
 75 76  2  0
 76 77  1  0
 77 78  2  0
 78 79  1  0
 79 80  2  0
 80 81  1  0
 81 82  2  0
 82 83  1  0
 83 84  2  3
 84 85  1  0
 85 86  2  0
 86 87  1  0
 87 88  2  0
 88 89  1  0
 89 90  1  0
 90 91  1  0
 88 92  1  0
 82 93  1  0
 78 94  1  0
 94 95  2  0
 95 96  1  0
 96 97  1  0
 97 98  2  0
 98 99  1  0
 99100  2  0
100101  1  0
101102  2  3
102103  1  0
103104  2  0
104105  1  0
105106  2  0
106107  1  0
107108  1  0
108109  1  0
106110  1  0
100111  1  0
 96112  2  0
112113  1  0
 95114  1  0
114115  2  0
115116  1  0
115117  1  0
117118  2  3
118119  1  0
119120  2  0
119121  1  0
121122  2  0
122123  1  0
123124  2  0
124125  1  0
125126  2  0
126127  1  0
127128  2  3
128129  1  0
129130  3  0
128131  1  0
131132  3  0
124133  1  0
133134  1  0
134135  1  0
135136  2  0
136137  1  0
137138  1  0
137139  1  0
 11  2  1  0
 23 17  1  0
 32 24  1  0
 74 33  1  0
113 75  1  0
127118  1  0
139133  1  0
 10  5  1  0
 22 18  1  0
 43 36  1  0
 51 44  1  0
 73 52  2  0
112 77  1  0
126121  1  0
138134  1  0
 23  7  1  0
 64 57  1  0
 72 65  1  0
 93 79  1  0
116 94  1  0
139123  1  0
 92 85  1  0
111 97  1  0
110103  1  0
  1140  1  0
  6141  1  0
  9142  1  0
 17143  1  0
 18144  1  0
 19145  1  0
 20146  1  0
 21147  1  0
 22148  1  0
 22149  1  0
 23150  1  0
 25151  1  0
 30152  1  0
 30153  1  0
 30154  1  0
 37155  1  0
 38156  1  0
 41157  1  0
 41158  1  0
 41159  1  0
 42160  1  0
 43161  1  0
 45162  1  0
 46163  1  0
 49164  1  0
 49165  1  0
 49166  1  0
 50167  1  0
 51168  1  0
 58169  1  0
 59170  1  0
 62171  1  0
 62172  1  0
 62173  1  0
 63174  1  0
 64175  1  0
 66176  1  0
 67177  1  0
 70178  1  0
 70179  1  0
 70180  1  0
 71181  1  0
 72182  1  0
 76183  1  0
 80184  1  0
 81185  1  0
 83186  1  0
 84187  1  0
 86188  1  0
 87189  1  0
 90190  1  0
 90191  1  0
 91192  1  0
 91193  1  0
 91194  1  0
 98195  1  0
 99196  1  0
101197  1  0
102198  1  0
104199  1  0
105200  1  0
108201  1  0
108202  1  0
109203  1  0
109204  1  0
109205  1  0
114206  1  0
117207  1  0
122208  1  0
125209  1  0
133210  1  0
134211  1  0
135212  1  0
136213  1  0
137214  1  0
138215  1  0
138216  1  0
139217  1  0
M  END

