
     RDKit          3D

234257  0  0  0  0  0  0  0  0999 V2000
    4.0495    2.0299    8.1802 C   0  0  0  0  0  0  0  0  0  0  0  0
    5.3058    1.6536    7.8525 C   0  0  0  0  0  0  0  0  0  0  0  0
    5.9751    2.0538    6.6129 C   0  0  0  0  0  0  0  0  0  0  0  0
    5.9147    3.1957    6.0817 O   0  0  0  0  0  0  0  0  0  0  0  0
    6.7165    0.9310    6.0963 C   0  0  0  0  0  0  0  0  0  0  0  0
    7.1622    0.7637    4.7691 C   0  0  0  0  0  0  0  0  0  0  0  0
    7.5552   -0.5220    4.4724 C   0  0  0  0  0  0  0  0  0  0  0  0
    7.5486   -1.5894    5.4272 C   0  0  0  0  0  0  0  0  0  0  0  0
    7.1229   -1.4275    6.7402 C   0  0  0  0  0  0  0  0  0  0  0  0
    6.6916   -0.1083    7.0597 C   0  0  0  0  0  0  0  0  0  0  0  0
    5.9440    0.3702    8.2556 C   0  0  0  0  0  0  0  0  0  0  0  0
    5.9878   -0.1557    9.5010 C   0  0  0  0  0  0  0  0  0  0  0  0
    6.8749   -1.2394    9.8345 C   0  0  0  0  0  0  0  0  0  0  0  0
    7.6120   -2.0827   10.1196 N   0  0  0  0  0  0  0  0  0  0  0  0
    5.3437    0.4910   10.6140 C   0  0  0  0  0  0  0  0  0  0  0  0
    4.8430    1.0148   11.5195 N   0  0  0  0  0  0  0  0  0  0  0  0
    8.0101   -2.5542    4.3697 C   0  0  0  0  0  0  0  0  0  0  0  0
    9.5059   -2.9851    4.4038 C   0  0  0  0  0  0  0  0  0  0  0  0
    9.7801   -3.6085    3.0517 C   0  0  0  0  0  0  0  0  0  0  0  0
    9.7614   -2.6103    2.1603 C   0  0  0  0  0  0  0  0  0  0  0  0
    9.4790   -1.3459    2.9377 C   0  0  0  0  0  0  0  0  0  0  0  0
   10.2478   -1.6721    4.2090 C   0  0  0  0  0  0  0  0  0  0  0  0
    7.9943   -1.4586    3.3928 C   0  0  0  0  0  0  0  0  0  0  0  0
    3.1258    2.5909    7.1701 C   0  0  0  0  0  0  0  0  0  0  0  0
    2.0250    3.4119    7.4025 C   0  0  0  0  0  0  0  0  0  0  0  0
    1.2279    3.6150    6.2520 C   0  0  0  0  0  0  0  0  0  0  0  0
    0.0476    4.5110    6.2328 C   0  0  0  0  0  0  0  0  0  0  0  0
   -1.1052    4.2047    7.0007 C   0  0  0  0  0  0  0  0  0  0  0  0
   -2.2678    4.9798    6.8494 C   0  0  0  0  0  0  0  0  0  0  0  0
   -2.3044    6.0492    5.9490 C   0  0  0  0  0  0  0  0  0  0  0  0
   -3.5535    6.8701    5.7971 C   0  0  0  0  0  0  0  0  0  0  0  0
   -1.1414    6.4127    5.2633 C   0  0  0  0  0  0  0  0  0  0  0  0
    0.0406    5.6726    5.4143 C   0  0  0  0  0  0  0  0  0  0  0  0
    1.2743    6.1824    4.7107 C   0  0  0  0  0  0  0  0  0  0  0  0
   -1.0962    3.1232    8.0504 C   0  0  0  0  0  0  0  0  0  0  0  0
    1.6908    2.9128    5.1355 C   0  0  0  0  0  0  0  0  0  0  0  0
    3.0717    2.0928    5.5685 S   0  0  0  0  0  0  0  0  0  0  0  0
    1.1400    2.8689    3.7758 C   0  0  0  0  0  0  0  0  0  0  0  0
    0.2460    1.8890    3.2983 C   0  0  0  0  0  0  0  0  0  0  0  0
   -0.3370    0.8545    4.1042 N   0  0  0  0  0  0  0  0  0  0  0  0
    0.2541   -0.4730    4.0681 C   0  0  0  0  0  0  0  0  0  0  0  0
    1.6435   -0.6303    3.9055 C   0  0  0  0  0  0  0  0  0  0  0  0
    2.2333   -1.8942    3.9376 C   0  0  0  0  0  0  0  0  0  0  0  0
    1.4391   -3.0356    4.0593 C   0  0  0  0  0  0  0  0  0  0  0  0
    2.2027   -4.6591    4.1403 S   0  0  0  0  0  0  0  0  0  0  0  0
    2.7293   -4.6669    2.3984 C   0  0  0  0  0  0  0  0  0  0  0  0
    0.0496   -2.9046    4.1539 C   0  0  0  0  0  0  0  0  0  0  0  0
   -0.5411   -1.6358    4.1578 C   0  0  0  0  0  0  0  0  0  0  0  0
   -1.5863    1.1265    4.7827 C   0  0  0  0  0  0  0  0  0  0  0  0
   -1.8907    0.5029    6.0065 C   0  0  0  0  0  0  0  0  0  0  0  0
   -3.0957    0.7733    6.6592 C   0  0  0  0  0  0  0  0  0  0  0  0
   -4.0100    1.6759    6.1044 C   0  0  0  0  0  0  0  0  0  0  0  0
   -5.5539    2.0157    6.9521 S   0  0  0  0  0  0  0  0  0  0  0  0
   -6.4354    0.6533    6.1259 C   0  0  0  0  0  0  0  0  0  0  0  0
   -3.7184    2.3066    4.8927 C   0  0  0  0  0  0  0  0  0  0  0  0
   -2.5161    2.0330    4.2320 C   0  0  0  0  0  0  0  0  0  0  0  0
    0.2611    1.8163    1.9111 C   0  0  0  0  0  0  0  0  0  0  0  0
   -0.3952    0.7322    0.8219 S   0  0  0  0  0  0  0  0  0  0  0  0
    0.5004    1.3074   -0.5098 C   0  0  0  0  0  0  0  0  0  0  0  0
    1.3547    2.3425   -0.0730 C   0  0  0  0  0  0  0  0  0  0  0  0
    2.3842    2.9571   -0.8652 N   0  0  0  0  0  0  0  0  0  0  0  0
    2.0002    3.7575   -2.0085 C   0  0  0  0  0  0  0  0  0  0  0  0
    0.7728    4.4507   -2.0189 C   0  0  0  0  0  0  0  0  0  0  0  0
    0.4249    5.2545   -3.1042 C   0  0  0  0  0  0  0  0  0  0  0  0
    1.2822    5.3679   -4.2043 C   0  0  0  0  0  0  0  0  0  0  0  0
    0.7965    6.3441   -5.6281 S   0  0  0  0  0  0  0  0  0  0  0  0
    1.3359    7.9135   -4.8823 C   0  0  0  0  0  0  0  0  0  0  0  0
    2.5106    4.6962   -4.1969 C   0  0  0  0  0  0  0  0  0  0  0  0
    2.8635    3.8902   -3.1107 C   0  0  0  0  0  0  0  0  0  0  0  0
    3.7295    3.0250   -0.3313 C   0  0  0  0  0  0  0  0  0  0  0  0
    4.4900    4.2018   -0.4415 C   0  0  0  0  0  0  0  0  0  0  0  0
    5.7571    4.2854    0.1358 C   0  0  0  0  0  0  0  0  0  0  0  0
    6.2705    3.2100    0.8651 C   0  0  0  0  0  0  0  0  0  0  0  0
    7.8700    3.3586    1.6658 S   0  0  0  0  0  0  0  0  0  0  0  0
    7.2038    4.2957    3.0829 C   0  0  0  0  0  0  0  0  0  0  0  0
    5.5275    2.0291    0.9835 C   0  0  0  0  0  0  0  0  0  0  0  0
    4.2720    1.9287    0.3723 C   0  0  0  0  0  0  0  0  0  0  0  0
    1.1570    2.6134    1.2852 C   0  0  0  0  0  0  0  0  0  0  0  0
    1.9853    3.5094    2.4370 S   0  0  0  0  0  0  0  0  0  0  0  0
    0.5509    0.5369   -1.7591 C   0  0  0  0  0  0  0  0  0  0  0  0
   -0.5506    0.5354   -2.6344 C   0  0  0  0  0  0  0  0  0  0  0  0
   -1.1106    1.7101   -3.2365 N   0  0  0  0  0  0  0  0  0  0  0  0
   -0.6604    1.9999   -4.5794 C   0  0  0  0  0  0  0  0  0  0  0  0
    0.7190    2.0242   -4.8638 C   0  0  0  0  0  0  0  0  0  0  0  0
    1.1766    2.2616   -6.1599 C   0  0  0  0  0  0  0  0  0  0  0  0
    0.2617    2.4268   -7.2069 C   0  0  0  0  0  0  0  0  0  0  0  0
    0.8569    2.6991   -8.8776 S   0  0  0  0  0  0  0  0  0  0  0  0
    1.0395    0.9208   -9.2373 C   0  0  0  0  0  0  0  0  0  0  0  0
   -1.1134    2.3687   -6.9490 C   0  0  0  0  0  0  0  0  0  0  0  0
   -1.5737    2.1549   -5.6435 C   0  0  0  0  0  0  0  0  0  0  0  0
   -2.2736    2.3580   -2.6630 C   0  0  0  0  0  0  0  0  0  0  0  0
   -3.0582    1.7058   -1.6925 C   0  0  0  0  0  0  0  0  0  0  0  0
   -4.1795    2.3378   -1.1415 C   0  0  0  0  0  0  0  0  0  0  0  0
   -4.5227    3.6329   -1.5391 C   0  0  0  0  0  0  0  0  0  0  0  0
   -5.9396    4.4532   -0.8090 S   0  0  0  0  0  0  0  0  0  0  0  0
   -7.0838    3.9102   -2.1144 C   0  0  0  0  0  0  0  0  0  0  0  0
   -3.7472    4.2918   -2.4948 C   0  0  0  0  0  0  0  0  0  0  0  0
   -2.6390    3.6577   -3.0596 C   0  0  0  0  0  0  0  0  0  0  0  0
   -0.8456   -0.7289   -3.1168 C   0  0  0  0  0  0  0  0  0  0  0  0
   -2.2347   -1.3809   -3.7822 S   0  0  0  0  0  0  0  0  0  0  0  0
   -1.7317   -3.0073   -3.6276 C   0  0  0  0  0  0  0  0  0  0  0  0
   -0.4617   -3.0041   -3.0123 C   0  0  0  0  0  0  0  0  0  0  0  0
    0.3001   -4.1828   -2.7103 N   0  0  0  0  0  0  0  0  0  0  0  0
    1.3030   -4.5919   -3.6650 C   0  0  0  0  0  0  0  0  0  0  0  0
    2.5470   -5.0849   -3.2335 C   0  0  0  0  0  0  0  0  0  0  0  0
    3.5013   -5.5070   -4.1676 C   0  0  0  0  0  0  0  0  0  0  0  0
    3.2306   -5.4176   -5.5392 C   0  0  0  0  0  0  0  0  0  0  0  0
    4.4275   -6.0100   -6.7367 S   0  0  0  0  0  0  0  0  0  0  0  0
    3.6092   -7.6308   -6.9118 C   0  0  0  0  0  0  0  0  0  0  0  0
    2.0165   -4.8832   -5.9767 C   0  0  0  0  0  0  0  0  0  0  0  0
    1.0543   -4.4810   -5.0483 C   0  0  0  0  0  0  0  0  0  0  0  0
    0.0683   -4.9060   -1.4811 C   0  0  0  0  0  0  0  0  0  0  0  0
   -0.3627   -4.2313   -0.3205 C   0  0  0  0  0  0  0  0  0  0  0  0
   -0.5541   -4.9261    0.8766 C   0  0  0  0  0  0  0  0  0  0  0  0
   -0.3038   -6.2978    0.9385 C   0  0  0  0  0  0  0  0  0  0  0  0
   -0.4794   -7.1720    2.4945 S   0  0  0  0  0  0  0  0  0  0  0  0
   -2.2373   -7.5502    2.2157 C   0  0  0  0  0  0  0  0  0  0  0  0
    0.1023   -6.9854   -0.2103 C   0  0  0  0  0  0  0  0  0  0  0  0
    0.2813   -6.2967   -1.4141 C   0  0  0  0  0  0  0  0  0  0  0  0
   -0.0153   -1.7145   -2.7298 C   0  0  0  0  0  0  0  0  0  0  0  0
    1.1365   -1.0706   -1.6947 S   0  0  0  0  0  0  0  0  0  0  0  0
   -2.5829   -4.2171   -3.7428 C   0  0  0  0  0  0  0  0  0  0  0  0
   -3.8751   -4.2568   -4.1404 C   0  0  0  0  0  0  0  0  0  0  0  0
   -4.5233   -3.3522   -5.1046 C   0  0  0  0  0  0  0  0  0  0  0  0
   -3.9706   -2.4277   -5.7590 O   0  0  0  0  0  0  0  0  0  0  0  0
   -5.8577   -3.8371   -5.3757 C   0  0  0  0  0  0  0  0  0  0  0  0
   -6.8375   -3.2003   -6.1738 C   0  0  0  0  0  0  0  0  0  0  0  0
   -8.0527   -3.8576   -6.2072 C   0  0  0  0  0  0  0  0  0  0  0  0
   -8.2902   -5.0846   -5.5121 C   0  0  0  0  0  0  0  0  0  0  0  0
   -7.3330   -5.7211   -4.7428 C   0  0  0  0  0  0  0  0  0  0  0  0
   -6.0716   -5.0551   -4.6811 C   0  0  0  0  0  0  0  0  0  0  0  0
   -4.8641   -5.3566   -3.8605 C   0  0  0  0  0  0  0  0  0  0  0  0
   -4.7700   -6.3096   -2.8916 C   0  0  0  0  0  0  0  0  0  0  0  0
   -3.7711   -6.2714   -1.8605 C   0  0  0  0  0  0  0  0  0  0  0  0
   -3.0045   -6.2345   -0.9934 N   0  0  0  0  0  0  0  0  0  0  0  0
   -5.6830   -7.4178   -2.7866 C   0  0  0  0  0  0  0  0  0  0  0  0
   -6.4116   -8.3101   -2.6829 N   0  0  0  0  0  0  0  0  0  0  0  0
   -9.6964   -5.1262   -6.0261 C   0  0  0  0  0  0  0  0  0  0  0  0
   -9.9846   -6.1408   -7.1736 C   0  0  0  0  0  0  0  0  0  0  0  0
  -11.3141   -5.7302   -7.7567 C   0  0  0  0  0  0  0  0  0  0  0  0
  -11.1058   -4.5745   -8.3978 C   0  0  0  0  0  0  0  0  0  0  0  0
   -9.6417   -4.2475   -8.2278 C   0  0  0  0  0  0  0  0  0  0  0  0
   -9.0785   -5.6556   -8.2933 C   0  0  0  0  0  0  0  0  0  0  0  0
   -9.4585   -3.8647   -6.7305 C   0  0  0  0  0  0  0  0  0  0  0  0
    3.5864    1.6698    9.0863 H   0  0  0  0  0  0  0  0  0  0  0  0
    7.0915    1.5271    4.0129 H   0  0  0  0  0  0  0  0  0  0  0  0
    7.0286   -2.2753    7.4042 H   0  0  0  0  0  0  0  0  0  0  0  0
    7.2785   -3.3664    4.1597 H   0  0  0  0  0  0  0  0  0  0  0  0
    9.8115   -3.5953    5.2801 H   0  0  0  0  0  0  0  0  0  0  0  0
   10.0163   -4.6456    2.8372 H   0  0  0  0  0  0  0  0  0  0  0  0
    9.9764   -2.6978    1.0992 H   0  0  0  0  0  0  0  0  0  0  0  0
    9.7555   -0.3967    2.4307 H   0  0  0  0  0  0  0  0  0  0  0  0
   11.3452   -1.8004    4.0415 H   0  0  0  0  0  0  0  0  0  0  0  0
   10.0938   -0.9393    5.0351 H   0  0  0  0  0  0  0  0  0  0  0  0
    7.2488   -1.5758    2.5734 H   0  0  0  0  0  0  0  0  0  0  0  0
    1.8183    3.8579    8.3666 H   0  0  0  0  0  0  0  0  0  0  0  0
   -3.1510    4.7485    7.4363 H   0  0  0  0  0  0  0  0  0  0  0  0
   -3.5704    7.6686    6.5653 H   0  0  0  0  0  0  0  0  0  0  0  0
   -4.4505    6.2286    5.9152 H   0  0  0  0  0  0  0  0  0  0  0  0
   -3.5949    7.3342    4.7896 H   0  0  0  0  0  0  0  0  0  0  0  0
   -1.1504    7.2841    4.6181 H   0  0  0  0  0  0  0  0  0  0  0  0
    1.3741    7.2755    4.8717 H   0  0  0  0  0  0  0  0  0  0  0  0
    1.1859    5.9984    3.6223 H   0  0  0  0  0  0  0  0  0  0  0  0
    2.2037    5.7131    5.0947 H   0  0  0  0  0  0  0  0  0  0  0  0
   -2.1281    2.8249    8.3328 H   0  0  0  0  0  0  0  0  0  0  0  0
   -0.5671    2.2157    7.6924 H   0  0  0  0  0  0  0  0  0  0  0  0
   -0.5888    3.5021    8.9616 H   0  0  0  0  0  0  0  0  0  0  0  0
    2.2797    0.2237    3.7498 H   0  0  0  0  0  0  0  0  0  0  0  0
    3.3071   -1.9816    3.8436 H   0  0  0  0  0  0  0  0  0  0  0  0
    3.6160   -4.0088    2.2782 H   0  0  0  0  0  0  0  0  0  0  0  0
    1.9206   -4.3149    1.7283 H   0  0  0  0  0  0  0  0  0  0  0  0
    3.0165   -5.7017    2.1109 H   0  0  0  0  0  0  0  0  0  0  0  0
   -0.5749   -3.7860    4.2400 H   0  0  0  0  0  0  0  0  0  0  0  0
   -1.6201   -1.5651    4.2215 H   0  0  0  0  0  0  0  0  0  0  0  0
   -1.1837   -0.1756    6.4662 H   0  0  0  0  0  0  0  0  0  0  0  0
   -3.3095    0.2914    7.6034 H   0  0  0  0  0  0  0  0  0  0  0  0
   -6.5116    0.8504    5.0366 H   0  0  0  0  0  0  0  0  0  0  0  0
   -7.4539    0.5708    6.5568 H   0  0  0  0  0  0  0  0  0  0  0  0
   -5.9038   -0.3059    6.2956 H   0  0  0  0  0  0  0  0  0  0  0  0
   -4.4255    2.9987    4.4550 H   0  0  0  0  0  0  0  0  0  0  0  0
   -2.3236    2.5155    3.2841 H   0  0  0  0  0  0  0  0  0  0  0  0
    0.0918    4.3886   -1.1792 H   0  0  0  0  0  0  0  0  0  0  0  0
   -0.5104    5.7990   -3.0855 H   0  0  0  0  0  0  0  0  0  0  0  0
    1.1387    8.7340   -5.5980 H   0  0  0  0  0  0  0  0  0  0  0  0
    2.4197    7.8735   -4.6548 H   0  0  0  0  0  0  0  0  0  0  0  0
    0.7654    8.1027   -3.9488 H   0  0  0  0  0  0  0  0  0  0  0  0
    3.1766    4.7696   -5.0458 H   0  0  0  0  0  0  0  0  0  0  0  0
    3.8051    3.3561   -3.1329 H   0  0  0  0  0  0  0  0  0  0  0  0
    4.0904    5.0746   -0.9415 H   0  0  0  0  0  0  0  0  0  0  0  0
    6.3251    5.2033    0.0476 H   0  0  0  0  0  0  0  0  0  0  0  0
    8.0009    4.4292    3.8427 H   0  0  0  0  0  0  0  0  0  0  0  0
    6.8526    5.2923    2.7462 H   0  0  0  0  0  0  0  0  0  0  0  0
    6.3530    3.7482    3.5390 H   0  0  0  0  0  0  0  0  0  0  0  0
    5.9199    1.1894    1.5460 H   0  0  0  0  0  0  0  0  0  0  0  0
    3.7060    1.0108    0.4696 H   0  0  0  0  0  0  0  0  0  0  0  0
    1.4375    1.8473   -4.0788 H   0  0  0  0  0  0  0  0  0  0  0  0
    2.2431    2.3017   -6.3527 H   0  0  0  0  0  0  0  0  0  0  0  0
    1.3714    0.7938  -10.2897 H   0  0  0  0  0  0  0  0  0  0  0  0
    0.0703    0.4008   -9.0931 H   0  0  0  0  0  0  0  0  0  0  0  0
    1.8027    0.4774   -8.5611 H   0  0  0  0  0  0  0  0  0  0  0  0
   -1.8252    2.4900   -7.7569 H   0  0  0  0  0  0  0  0  0  0  0  0
   -2.6407    2.0855   -5.4679 H   0  0  0  0  0  0  0  0  0  0  0  0
   -2.8222    0.7021   -1.3645 H   0  0  0  0  0  0  0  0  0  0  0  0
   -4.7816    1.8149   -0.4075 H   0  0  0  0  0  0  0  0  0  0  0  0
   -6.7630    4.3209   -3.0943 H   0  0  0  0  0  0  0  0  0  0  0  0
   -7.1146    2.8027   -2.1601 H   0  0  0  0  0  0  0  0  0  0  0  0
   -8.1001    4.2846   -1.8813 H   0  0  0  0  0  0  0  0  0  0  0  0
   -4.0036    5.2943   -2.8076 H   0  0  0  0  0  0  0  0  0  0  0  0
   -2.0667    4.1865   -3.8076 H   0  0  0  0  0  0  0  0  0  0  0  0
    2.7783   -5.1419   -2.1774 H   0  0  0  0  0  0  0  0  0  0  0  0
    4.4484   -5.9065   -3.8229 H   0  0  0  0  0  0  0  0  0  0  0  0
    4.2019   -8.2612   -7.6085 H   0  0  0  0  0  0  0  0  0  0  0  0
    2.5839   -7.4984   -7.3249 H   0  0  0  0  0  0  0  0  0  0  0  0
    3.5499   -8.1385   -5.9239 H   0  0  0  0  0  0  0  0  0  0  0  0
    1.8062   -4.8003   -7.0372 H   0  0  0  0  0  0  0  0  0  0  0  0
    0.1099   -4.0972   -5.4138 H   0  0  0  0  0  0  0  0  0  0  0  0
   -0.5259   -3.1613   -0.3298 H   0  0  0  0  0  0  0  0  0  0  0  0
   -0.8514   -4.3845    1.7662 H   0  0  0  0  0  0  0  0  0  0  0  0
   -2.8154   -6.6107    2.0819 H   0  0  0  0  0  0  0  0  0  0  0  0
   -2.3486   -8.1908    1.3150 H   0  0  0  0  0  0  0  0  0  0  0  0
   -2.6325   -8.0944    3.0974 H   0  0  0  0  0  0  0  0  0  0  0  0
    0.2918   -8.0512   -0.1694 H   0  0  0  0  0  0  0  0  0  0  0  0
    0.5850   -6.8500   -2.2937 H   0  0  0  0  0  0  0  0  0  0  0  0
   -2.1476   -5.1117   -3.3335 H   0  0  0  0  0  0  0  0  0  0  0  0
   -6.6652   -2.2635   -6.6841 H   0  0  0  0  0  0  0  0  0  0  0  0
   -7.5772   -6.6331   -4.2331 H   0  0  0  0  0  0  0  0  0  0  0  0
  -10.4671   -5.0673   -5.2266 H   0  0  0  0  0  0  0  0  0  0  0  0
   -9.8951   -7.2132   -6.8995 H   0  0  0  0  0  0  0  0  0  0  0  0
  -12.2307   -6.3096   -7.7724 H   0  0  0  0  0  0  0  0  0  0  0  0
  -11.8252   -4.0542   -9.0234 H   0  0  0  0  0  0  0  0  0  0  0  0
   -9.2328   -3.5259   -8.9632 H   0  0  0  0  0  0  0  0  0  0  0  0
   -7.9922   -5.7246   -8.0678 H   0  0  0  0  0  0  0  0  0  0  0  0
   -9.2728   -6.1607   -9.2689 H   0  0  0  0  0  0  0  0  0  0  0  0
  -10.0717   -3.0062   -6.3711 H   0  0  0  0  0  0  0  0  0  0  0  0
  1  2  2  3
  2  3  1  0
  3  4  2  0
  3  5  1  0
  5  6  2  0
  6  7  1  0
  7  8  2  0
  8  9  1  0
  9 10  2  0
 10 11  1  0
 11 12  2  3
 12 13  1  0
 13 14  3  0
 12 15  1  0
 15 16  3  0
  8 17  1  0
 17 18  1  0
 18 19  1  0
 19 20  2  0
 20 21  1  0
 21 22  1  0
 21 23  1  0
  1 24  1  0
 24 25  2  0
 25 26  1  0
 26 27  1  0
 27 28  2  0
 28 29  1  0
 29 30  2  0
 30 31  1  0
 30 32  1  0
 32 33  2  0
 33 34  1  0
 28 35  1  0
 26 36  2  0
 36 37  1  0
 36 38  1  0
 38 39  2  0
 39 40  1  0
 40 41  1  0
 41 42  2  0
 42 43  1  0
 43 44  2  0
 44 45  1  0
 45 46  1  0
 44 47  1  0
 47 48  2  0
 40 49  1  0
 49 50  2  0
 50 51  1  0
 51 52  2  0
 52 53  1  0
 53 54  1  0
 52 55  1  0
 55 56  2  0
 39 57  1  0
 57 58  1  0
 58 59  1  0
 59 60  2  0
 60 61  1  0
 61 62  1  0
 62 63  2  0
 63 64  1  0
 64 65  2  0
 65 66  1  0
 66 67  1  0
 65 68  1  0
 68 69  2  0
 61 70  1  0
 70 71  2  0
 71 72  1  0
 72 73  2  0
 73 74  1  0
 74 75  1  0
 73 76  1  0
 76 77  2  0
 60 78  1  0
 78 79  1  0
 59 80  1  0
 80 81  2  0
 81 82  1  0
 82 83  1  0
 83 84  2  0
 84 85  1  0
 85 86  2  0
 86 87  1  0
 87 88  1  0
 86 89  1  0
 89 90  2  0
 82 91  1  0
 91 92  2  0
 92 93  1  0
 93 94  2  0
 94 95  1  0
 95 96  1  0
 94 97  1  0
 97 98  2  0
 81 99  1  0
 99100  1  0
100101  1  0
101102  2  0
102103  1  0
103104  1  0
104105  2  0
105106  1  0
106107  2  0
107108  1  0
108109  1  0
107110  1  0
110111  2  0
103112  1  0
112113  2  0
113114  1  0
114115  2  0
115116  1  0
116117  1  0
115118  1  0
118119  2  0
102120  1  0
120121  1  0
101122  1  0
122123  2  3
123124  1  0
124125  2  0
124126  1  0
126127  2  0
127128  1  0
128129  2  0
129130  1  0
130131  2  0
131132  1  0
132133  2  3
133134  1  0
134135  3  0
133136  1  0
136137  3  0
129138  1  0
138139  1  0
139140  1  0
140141  2  0
141142  1  0
142143  1  0
142144  1  0
 11  2  1  0
 23 17  1  0
 37 24  1  0
 79 38  1  0
121 80  1  0
132123  1  0
144138  1  0
 10  5  1  0
 22 18  1  0
 33 27  1  0
 48 41  1  0
 56 49  1  0
 78 57  2  0
 90 83  1  0
 98 91  1  0
120 99  2  0
131126  1  0
143139  1  0
 23  7  1  0
 69 62  1  0
 77 70  1  0
111104  1  0
119112  1  0
144128  1  0
  1145  1  0
  6146  1  0
  9147  1  0
 17148  1  0
 18149  1  0
 19150  1  0
 20151  1  0
 21152  1  0
 22153  1  0
 22154  1  0
 23155  1  0
 25156  1  0
 29157  1  0
 31158  1  0
 31159  1  0
 31160  1  0
 32161  1  0
 34162  1  0
 34163  1  0
 34164  1  0
 35165  1  0
 35166  1  0
 35167  1  0
 42168  1  0
 43169  1  0
 46170  1  0
 46171  1  0
 46172  1  0
 47173  1  0
 48174  1  0
 50175  1  0
 51176  1  0
 54177  1  0
 54178  1  0
 54179  1  0
 55180  1  0
 56181  1  0
 63182  1  0
 64183  1  0
 67184  1  0
 67185  1  0
 67186  1  0
 68187  1  0
 69188  1  0
 71189  1  0
 72190  1  0
 75191  1  0
 75192  1  0
 75193  1  0
 76194  1  0
 77195  1  0
 84196  1  0
 85197  1  0
 88198  1  0
 88199  1  0
 88200  1  0
 89201  1  0
 90202  1  0
 92203  1  0
 93204  1  0
 96205  1  0
 96206  1  0
 96207  1  0
 97208  1  0
 98209  1  0
105210  1  0
106211  1  0
109212  1  0
109213  1  0
109214  1  0
110215  1  0
111216  1  0
113217  1  0
114218  1  0
117219  1  0
117220  1  0
117221  1  0
118222  1  0
119223  1  0
122224  1  0
127225  1  0
130226  1  0
138227  1  0
139228  1  0
140229  1  0
141230  1  0
142231  1  0
143232  1  0
143233  1  0
144234  1  0
M  END

