
     RDKit          3D

177195  0  0  0  0  0  0  0  0999 V2000
    6.6376   -3.9520   -2.5113 C   0  0  0  0  0  0  0  0  0  0  0  0
    6.2730   -5.1522   -2.9687 C   0  0  0  0  0  0  0  0  0  0  0  0
    4.9373   -5.7008   -2.9854 C   0  0  0  0  0  0  0  0  0  0  0  0
    3.9214   -4.8851   -3.0002 O   0  0  0  0  0  0  0  0  0  0  0  0
    4.9247   -7.1070   -2.9894 C   0  0  0  0  0  0  0  0  0  0  0  0
    3.8594   -7.9884   -2.6611 C   0  0  0  0  0  0  0  0  0  0  0  0
    4.1340   -9.2641   -2.3349 C   0  0  0  0  0  0  0  0  0  0  0  0
    5.3970   -9.6689   -2.3463 C   0  0  0  0  0  0  0  0  0  0  0  0
    6.4777   -8.8970   -2.6713 C   0  0  0  0  0  0  0  0  0  0  0  0
    6.2222   -7.5062   -3.0018 C   0  0  0  0  0  0  0  0  0  0  0  0
    7.1795   -6.3101   -3.0057 C   0  0  0  0  0  0  0  0  0  0  0  0
    8.4105   -6.5234   -2.5998 C   0  0  0  0  0  0  0  0  0  0  0  0
    9.0942   -5.4095   -1.8826 C   0  0  0  0  0  0  0  0  0  0  0  0
    9.6414   -4.5055   -1.2790 N   0  0  0  0  0  0  0  0  0  0  0  0
    9.1441   -7.5794   -3.0749 C   0  0  0  0  0  0  0  0  0  0  0  0
    9.8401   -8.6134   -3.5285 N   0  0  0  0  0  0  0  0  0  0  0  0
    5.0762  -11.0232   -1.6687 C   0  0  0  0  0  0  0  0  0  0  0  0
    5.3895  -10.8832   -0.1946 C   0  0  0  0  0  0  0  0  0  0  0  0
    4.6992  -11.8699    0.6400 C   0  0  0  0  0  0  0  0  0  0  0  0
    3.3809  -11.6682    0.3576 C   0  0  0  0  0  0  0  0  0  0  0  0
    3.2015  -10.4046   -0.3253 C   0  0  0  0  0  0  0  0  0  0  0  0
    4.4913   -9.6665    0.1221 C   0  0  0  0  0  0  0  0  0  0  0  0
    3.6110  -10.6092   -1.7675 C   0  0  0  0  0  0  0  0  0  0  0  0
    5.7211   -3.0919   -1.9223 C   0  0  0  0  0  0  0  0  0  0  0  0
    5.8768   -1.4346   -2.0530 C   0  0  0  0  0  0  0  0  0  0  0  0
    4.9006   -1.2766   -1.1970 C   0  0  0  0  0  0  0  0  0  0  0  0
    5.5307    0.4314   -0.7019 C   0  0  0  0  0  0  0  0  0  0  0  0
    6.3844   -0.0073    0.3654 C   0  0  0  0  0  0  0  0  0  0  0  0
    4.0631   -1.3085   -0.4679 C   0  0  0  0  0  0  0  0  0  0  0  0
    4.3290   -3.3951   -0.7358 Se  0  0  0  0  0  2  0  0  0  0  0  0
    2.9625   -1.0813    0.5383 C   0  0  0  0  0  0  0  0  0  0  0  0
    3.1353    0.1264    1.2224 C   0  0  0  0  0  0  0  0  0  0  0  0
    4.1804    0.8091    1.5470 F   0  0  0  0  0  0  0  0  0  0  0  0
    1.8869    0.5824    1.6761 C   0  0  0  0  0  0  0  0  0  0  0  0
    2.0352    1.8119    2.4082 F   0  0  0  0  0  0  0  0  0  0  0  0
    0.6774    0.0956    1.5659 C   0  0  0  0  0  0  0  0  0  0  0  0
    0.5366   -1.1357    0.9199 C   0  0  0  0  0  0  0  0  0  0  0  0
   -0.6186   -1.7386    0.8656 N   0  0  0  0  0  0  0  0  0  0  0  0
   -0.6543   -3.0171    0.2939 C   0  0  0  0  0  0  0  0  0  0  0  0
   -1.9591   -3.7272    0.2825 C   0  0  0  0  0  0  0  0  0  0  0  0
   -2.1280   -4.7530    1.3355 C   0  0  0  0  0  0  0  0  0  0  0  0
    0.4778   -3.4754   -0.1559 C   0  0  0  0  0  0  0  0  0  0  0  0
    1.6715   -2.8785   -0.1248 N   0  0  0  0  0  0  0  0  0  0  0  0
    1.7282   -1.6326    0.4376 C   0  0  0  0  0  0  0  0  0  0  0  0
    0.4901   -4.8438   -0.8555 C   0  0  0  0  0  0  0  0  0  0  0  0
   -0.0230   -4.7287   -2.2245 C   0  0  0  0  0  0  0  0  0  0  0  0
   -0.4354    1.0741    1.8038 C   0  0  0  0  0  0  0  0  0  0  0  0
   -1.5484    1.4383    2.2783 C   0  0  0  0  0  0  0  0  0  0  0  0
   -2.2817    0.4748    3.1364 N   0  0  0  0  0  0  0  0  0  0  0  0
   -1.7452    0.4473    4.4960 C   0  0  0  0  0  0  0  0  0  0  0  0
   -0.3870    0.4441    4.7925 C   0  0  0  0  0  0  0  0  0  0  0  0
    0.0695    0.6336    6.1055 C   0  0  0  0  0  0  0  0  0  0  0  0
   -0.8083    0.8315    7.0893 C   0  0  0  0  0  0  0  0  0  0  0  0
   -0.2370    1.3284    8.7096 S   0  0  0  0  0  0  0  0  0  0  0  0
    0.1161   -0.0907    9.7504 C   0  0  0  0  0  0  0  0  0  0  0  0
   -2.1977    0.8243    6.8621 C   0  0  0  0  0  0  0  0  0  0  0  0
   -2.5807    0.6346    5.6330 C   0  0  0  0  0  0  0  0  0  0  0  0
   -3.4579   -0.2040    2.8620 C   0  0  0  0  0  0  0  0  0  0  0  0
   -4.5849    0.2425    2.3982 C   0  0  0  0  0  0  0  0  0  0  0  0
   -5.7803   -0.2249    2.0662 C   0  0  0  0  0  0  0  0  0  0  0  0
   -5.8690   -1.6652    2.2695 C   0  0  0  0  0  0  0  0  0  0  0  0
   -7.4143   -2.4461    1.8693 S   0  0  0  0  0  0  0  0  0  0  0  0
   -8.5949   -2.3919    3.1964 C   0  0  0  0  0  0  0  0  0  0  0  0
   -4.7274   -2.2870    2.7482 C   0  0  0  0  0  0  0  0  0  0  0  0
   -3.5377   -1.6667    3.0549 C   0  0  0  0  0  0  0  0  0  0  0  0
   -2.0059    2.7139    2.2465 C   0  0  0  0  0  0  0  0  0  0  0  0
   -3.3874    3.7968    2.5846 S   0  0  0  0  0  0  0  0  0  0  0  0
   -2.8389    5.2576    2.0244 C   0  0  0  0  0  0  0  0  0  0  0  0
   -1.5446    4.9409    1.5949 C   0  0  0  0  0  0  0  0  0  0  0  0
   -0.5766    5.9170    1.1868 N   0  0  0  0  0  0  0  0  0  0  0  0
   -0.3090    6.3299   -0.0926 C   0  0  0  0  0  0  0  0  0  0  0  0
   -0.1193    5.3103   -1.0444 C   0  0  0  0  0  0  0  0  0  0  0  0
    0.3156    5.6643   -2.3215 C   0  0  0  0  0  0  0  0  0  0  0  0
    0.5436    6.8531   -2.6539 C   0  0  0  0  0  0  0  0  0  0  0  0
    1.3122    7.1857   -4.3210 S   0  0  0  0  0  0  0  0  0  0  0  0
    1.7696    5.5598   -5.0632 C   0  0  0  0  0  0  0  0  0  0  0  0
    0.3801    7.9926   -1.8439 C   0  0  0  0  0  0  0  0  0  0  0  0
   -0.0624    7.6154   -0.5346 C   0  0  0  0  0  0  0  0  0  0  0  0
    0.3532    6.1814    2.2344 C   0  0  0  0  0  0  0  0  0  0  0  0
    1.7197    6.2730    1.9276 C   0  0  0  0  0  0  0  0  0  0  0  0
    2.7285    6.2172    2.8924 C   0  0  0  0  0  0  0  0  0  0  0  0
    2.3074    6.0520    4.2193 C   0  0  0  0  0  0  0  0  0  0  0  0
    3.6740    5.8575    5.4014 S   0  0  0  0  0  0  0  0  0  0  0  0
    4.1544    4.0745    5.4722 C   0  0  0  0  0  0  0  0  0  0  0  0
    1.0779    5.9781    4.4994 C   0  0  0  0  0  0  0  0  0  0  0  0
   -0.0044    6.0256    3.5925 C   0  0  0  0  0  0  0  0  0  0  0  0
   -1.2077    3.6430    1.7071 C   0  0  0  0  0  0  0  0  0  0  0  0
    0.1435    2.6919    1.2242 S   0  0  0  0  0  0  0  0  0  0  0  0
   -3.3357    6.6386    1.5416 C   0  0  0  0  0  0  0  0  0  0  0  0
   -3.9848    6.4503    0.3885 C   0  0  0  0  0  0  0  0  0  0  0  0
   -4.1979    5.1548   -0.2265 C   0  0  0  0  0  0  0  0  0  0  0  0
   -4.0840    4.0195    0.2850 O   0  0  0  0  0  0  0  0  0  0  0  0
   -4.5629    5.3943   -1.6038 C   0  0  0  0  0  0  0  0  0  0  0  0
   -4.8276    4.3342   -2.5040 C   0  0  0  0  0  0  0  0  0  0  0  0
   -5.1260    4.7276   -3.8364 C   0  0  0  0  0  0  0  0  0  0  0  0
   -5.1277    5.9644   -4.1387 C   0  0  0  0  0  0  0  0  0  0  0  0
   -4.8911    7.0795   -3.2902 C   0  0  0  0  0  0  0  0  0  0  0  0
   -4.5899    6.6546   -1.9253 C   0  0  0  0  0  0  0  0  0  0  0  0
   -4.2541    7.4512   -0.7032 C   0  0  0  0  0  0  0  0  0  0  0  0
   -4.0730    8.7619   -0.5806 C   0  0  0  0  0  0  0  0  0  0  0  0
   -4.4762    9.5320   -1.9531 C   0  0  0  0  0  0  0  0  0  0  0  0
   -4.7122   10.0100   -2.7729 N   0  0  0  0  0  0  0  0  0  0  0  0
   -3.4714    9.3884    0.4088 C   0  0  0  0  0  0  0  0  0  0  0  0
   -2.8697   10.0090    1.4260 N   0  0  0  0  0  0  0  0  0  0  0  0
   -5.2658    5.6605   -5.6367 C   0  0  0  0  0  0  0  0  0  0  0  0
   -6.5543    6.1711   -6.1424 C   0  0  0  0  0  0  0  0  0  0  0  0
   -7.0516    5.2885   -7.2153 C   0  0  0  0  0  0  0  0  0  0  0  0
   -7.4878    4.0922   -6.6740 C   0  0  0  0  0  0  0  0  0  0  0  0
   -7.0723    4.1580   -5.2791 C   0  0  0  0  0  0  0  0  0  0  0  0
   -7.4619    5.6248   -4.9863 C   0  0  0  0  0  0  0  0  0  0  0  0
   -5.6007    4.2065   -5.1702 C   0  0  0  0  0  0  0  0  0  0  0  0
    7.6654   -3.6725   -2.6274 H   0  0  0  0  0  0  0  0  0  0  0  0
    2.8297   -7.6166   -2.6501 H   0  0  0  0  0  0  0  0  0  0  0  0
    7.4604   -9.2527   -2.6830 H   0  0  0  0  0  0  0  0  0  0  0  0
    5.4619  -11.7917   -2.2465 H   0  0  0  0  0  0  0  0  0  0  0  0
    6.4173  -10.6743    0.0856 H   0  0  0  0  0  0  0  0  0  0  0  0
    5.1078  -12.5535    1.3378 H   0  0  0  0  0  0  0  0  0  0  0  0
    2.5978  -12.3389    0.6162 H   0  0  0  0  0  0  0  0  0  0  0  0
    2.2842   -9.8271   -0.2189 H   0  0  0  0  0  0  0  0  0  0  0  0
    4.7343   -8.8124   -0.5018 H   0  0  0  0  0  0  0  0  0  0  0  0
    4.5067   -9.4649    1.1798 H   0  0  0  0  0  0  0  0  0  0  0  0
    2.9579  -11.1535   -2.3930 H   0  0  0  0  0  0  0  0  0  0  0  0
    6.6071   -1.2637   -2.6953 H   0  0  0  0  0  0  0  0  0  0  0  0
    6.0329    0.6620   -1.5910 H   0  0  0  0  0  0  0  0  0  0  0  0
    4.5891    0.8669   -0.7007 H   0  0  0  0  0  0  0  0  0  0  0  0
    6.7397    0.7721    1.0891 H   0  0  0  0  0  0  0  0  0  0  0  0
    7.4186   -0.3930   -0.0352 H   0  0  0  0  0  0  0  0  0  0  0  0
    5.9973   -0.9205    0.9149 H   0  0  0  0  0  0  0  0  0  0  0  0
   -2.8140   -2.9808    0.3248 H   0  0  0  0  0  0  0  0  0  0  0  0
   -2.0484   -4.2964   -0.6938 H   0  0  0  0  0  0  0  0  0  0  0  0
   -1.2971   -4.5306    2.0976 H   0  0  0  0  0  0  0  0  0  0  0  0
   -2.0719   -5.8500    1.0087 H   0  0  0  0  0  0  0  0  0  0  0  0
   -3.0801   -4.6043    1.8249 H   0  0  0  0  0  0  0  0  0  0  0  0
    1.5187   -5.2143   -0.7949 H   0  0  0  0  0  0  0  0  0  0  0  0
   -0.0934   -5.5500   -0.2123 H   0  0  0  0  0  0  0  0  0  0  0  0
    0.8480   -4.7885   -2.9879 H   0  0  0  0  0  0  0  0  0  0  0  0
   -0.4313   -3.6954   -2.5012 H   0  0  0  0  0  0  0  0  0  0  0  0
   -0.7194   -5.5553   -2.4916 H   0  0  0  0  0  0  0  0  0  0  0  0
    0.3552    0.2929    4.0446 H   0  0  0  0  0  0  0  0  0  0  0  0
    1.1744    0.5975    6.2683 H   0  0  0  0  0  0  0  0  0  0  0  0
   -0.6868   -0.7635    9.7971 H   0  0  0  0  0  0  0  0  0  0  0  0
    0.3187    0.3538   10.7787 H   0  0  0  0  0  0  0  0  0  0  0  0
    1.0839   -0.6466    9.3949 H   0  0  0  0  0  0  0  0  0  0  0  0
   -2.8723    0.9489    7.7173 H   0  0  0  0  0  0  0  0  0  0  0  0
   -3.6743    0.6667    5.4369 H   0  0  0  0  0  0  0  0  0  0  0  0
   -4.5307    1.4334    2.1708 H   0  0  0  0  0  0  0  0  0  0  0  0
   -6.6286    0.2689    1.7001 H   0  0  0  0  0  0  0  0  0  0  0  0
   -9.1983   -3.3554    3.1501 H   0  0  0  0  0  0  0  0  0  0  0  0
   -9.4166   -1.6269    3.0409 H   0  0  0  0  0  0  0  0  0  0  0  0
   -8.1869   -2.2580    4.1707 H   0  0  0  0  0  0  0  0  0  0  0  0
   -4.7802   -3.4145    2.7965 H   0  0  0  0  0  0  0  0  0  0  0  0
   -2.7067   -2.1670    3.4069 H   0  0  0  0  0  0  0  0  0  0  0  0
   -0.3387    4.3145   -0.7786 H   0  0  0  0  0  0  0  0  0  0  0  0
    0.4530    4.7886   -2.9936 H   0  0  0  0  0  0  0  0  0  0  0  0
    2.7189    5.7065   -5.6764 H   0  0  0  0  0  0  0  0  0  0  0  0
    1.0297    5.2321   -5.7972 H   0  0  0  0  0  0  0  0  0  0  0  0
    2.0324    4.8080   -4.3244 H   0  0  0  0  0  0  0  0  0  0  0  0
    0.5767    8.9372   -2.1718 H   0  0  0  0  0  0  0  0  0  0  0  0
   -0.1997    8.4972    0.1407 H   0  0  0  0  0  0  0  0  0  0  0  0
    2.0465    6.3890    0.9156 H   0  0  0  0  0  0  0  0  0  0  0  0
    3.7788    6.2640    2.6737 H   0  0  0  0  0  0  0  0  0  0  0  0
    3.9070    3.6291    6.5198 H   0  0  0  0  0  0  0  0  0  0  0  0
    5.2476    4.0375    5.4379 H   0  0  0  0  0  0  0  0  0  0  0  0
    3.6271    3.5887    4.7139 H   0  0  0  0  0  0  0  0  0  0  0  0
    0.7149    5.8252    5.5296 H   0  0  0  0  0  0  0  0  0  0  0  0
   -1.0070    5.9475    3.8323 H   0  0  0  0  0  0  0  0  0  0  0  0
   -3.2138    7.4604    2.1032 H   0  0  0  0  0  0  0  0  0  0  0  0
   -4.7949    3.3224   -2.2440 H   0  0  0  0  0  0  0  0  0  0  0  0
   -4.8876    8.0153   -3.6009 H   0  0  0  0  0  0  0  0  0  0  0  0
   -4.3837    5.7337   -6.2111 H   0  0  0  0  0  0  0  0  0  0  0  0
   -6.6976    7.2236   -6.3181 H   0  0  0  0  0  0  0  0  0  0  0  0
   -6.9774    5.5681   -8.2397 H   0  0  0  0  0  0  0  0  0  0  0  0
   -8.0206    3.3923   -7.3120 H   0  0  0  0  0  0  0  0  0  0  0  0
   -7.6224    3.4853   -4.5829 H   0  0  0  0  0  0  0  0  0  0  0  0
   -7.1081    6.0272   -4.0625 H   0  0  0  0  0  0  0  0  0  0  0  0
   -8.5398    5.7992   -5.2324 H   0  0  0  0  0  0  0  0  0  0  0  0
   -4.9517    3.5060   -5.6344 H   0  0  0  0  0  0  0  0  0  0  0  0
  1  2  2  3
  2  3  1  0
  3  4  2  0
  3  5  1  0
  5  6  2  0
  6  7  1  0
  7  8  2  0
  8  9  1  0
  9 10  2  0
 10 11  1  0
 11 12  2  3
 12 13  1  0
 13 14  3  0
 12 15  1  0
 15 16  3  0
  8 17  1  0
 17 18  1  0
 18 19  1  0
 19 20  2  0
 20 21  1  0
 21 22  1  0
 21 23  1  0
  1 24  1  0
 24 25  2  0
 25 26  1  0
 26 27  1  0
 27 28  1  0
 26 29  2  0
 29 30  1  0
 29 31  1  0
 31 32  2  0
 32 33  1  0
 32 34  1  0
 34 35  1  0
 34 36  2  0
 36 37  1  0
 37 38  2  0
 38 39  1  0
 39 40  1  0
 40 41  1  0
 39 42  2  0
 42 43  1  0
 43 44  2  0
 42 45  1  0
 45 46  1  0
 36 47  1  0
 47 48  2  0
 48 49  1  0
 49 50  1  0
 50 51  2  0
 51 52  1  0
 52 53  2  0
 53 54  1  0
 54 55  1  0
 53 56  1  0
 56 57  2  0
 49 58  1  0
 58 59  2  0
 59 60  1  0
 60 61  2  0
 61 62  1  0
 62 63  1  0
 61 64  1  0
 64 65  2  0
 48 66  1  0
 66 67  1  0
 67 68  1  0
 68 69  2  0
 69 70  1  0
 70 71  1  0
 71 72  2  0
 72 73  1  0
 73 74  2  0
 74 75  1  0
 75 76  1  0
 74 77  1  0
 77 78  2  0
 70 79  1  0
 79 80  2  0
 80 81  1  0
 81 82  2  0
 82 83  1  0
 83 84  1  0
 82 85  1  0
 85 86  2  0
 69 87  1  0
 87 88  1  0
 68 89  1  0
 89 90  2  3
 90 91  1  0
 91 92  2  0
 91 93  1  0
 93 94  2  0
 94 95  1  0
 95 96  2  0
 96 97  1  0
 97 98  2  0
 98 99  1  0
 99100  2  3
100101  1  0
101102  3  0
100103  1  0
103104  3  0
 96105  1  0
105106  1  0
106107  1  0
107108  2  0
108109  1  0
109110  1  0
109111  1  0
 11  2  1  0
 23 17  1  0
 30 24  1  0
 44 31  1  0
 88 47  1  0
 99 90  1  0
111105  1  0
 10  5  1  0
 22 18  1  0
 44 37  1  0
 57 50  1  0
 65 58  1  0
 87 66  2  0
 98 93  1  0
110106  1  0
 23  7  1  0
 78 71  1  0
 86 79  1  0
111 95  1  0
  1112  1  0
  6113  1  0
  9114  1  0
 17115  1  0
 18116  1  0
 19117  1  0
 20118  1  0
 21119  1  0
 22120  1  0
 22121  1  0
 23122  1  0
 25123  1  0
 27124  1  0
 27125  1  0
 28126  1  0
 28127  1  0
 28128  1  0
 40129  1  0
 40130  1  0
 41131  1  0
 41132  1  0
 41133  1  0
 45134  1  0
 45135  1  0
 46136  1  0
 46137  1  0
 46138  1  0
 51139  1  0
 52140  1  0
 55141  1  0
 55142  1  0
 55143  1  0
 56144  1  0
 57145  1  0
 59146  1  0
 60147  1  0
 63148  1  0
 63149  1  0
 63150  1  0
 64151  1  0
 65152  1  0
 72153  1  0
 73154  1  0
 76155  1  0
 76156  1  0
 76157  1  0
 77158  1  0
 78159  1  0
 80160  1  0
 81161  1  0
 84162  1  0
 84163  1  0
 84164  1  0
 85165  1  0
 86166  1  0
 89167  1  0
 94168  1  0
 97169  1  0
105170  1  0
106171  1  0
107172  1  0
108173  1  0
109174  1  0
110175  1  0
110176  1  0
111177  1  0
M  END

