
     RDKit          3D

174192  0  0  0  0  0  0  0  0999 V2000
   -4.0026   -5.9247    5.7066 C   0  0  0  0  0  0  0  0  0  0  0  0
   -4.8796   -6.2639    4.7430 C   0  0  0  0  0  0  0  0  0  0  0  0
   -4.7711   -5.8971    3.3191 C   0  0  0  0  0  0  0  0  0  0  0  0
   -3.7206   -5.5525    2.7180 O   0  0  0  0  0  0  0  0  0  0  0  0
   -6.0844   -5.9504    2.7208 C   0  0  0  0  0  0  0  0  0  0  0  0
   -6.4589   -5.4689    1.4466 C   0  0  0  0  0  0  0  0  0  0  0  0
   -7.8222   -5.4495    1.2377 C   0  0  0  0  0  0  0  0  0  0  0  0
   -8.7763   -5.8681    2.2235 C   0  0  0  0  0  0  0  0  0  0  0  0
   -8.4126   -6.3532    3.4728 C   0  0  0  0  0  0  0  0  0  0  0  0
   -7.0093   -6.4119    3.6926 C   0  0  0  0  0  0  0  0  0  0  0  0
   -6.2741   -6.7609    4.9363 C   0  0  0  0  0  0  0  0  0  0  0  0
   -6.6933   -7.6184    5.8975 C   0  0  0  0  0  0  0  0  0  0  0  0
   -7.9520   -8.3149    5.7921 C   0  0  0  0  0  0  0  0  0  0  0  0
   -8.9402   -8.9005    5.6865 N   0  0  0  0  0  0  0  0  0  0  0  0
   -5.8336   -8.0555    6.9696 C   0  0  0  0  0  0  0  0  0  0  0  0
   -5.1465   -8.4103    7.8331 N   0  0  0  0  0  0  0  0  0  0  0  0
   -9.9018   -5.4635    1.3174 C   0  0  0  0  0  0  0  0  0  0  0  0
  -10.6622   -4.1352    1.6390 C   0  0  0  0  0  0  0  0  0  0  0  0
   -9.7285   -3.1570    2.3067 C   0  0  0  0  0  0  0  0  0  0  0  0
   -8.8367   -2.7806    1.3910 C   0  0  0  0  0  0  0  0  0  0  0  0
   -9.1938   -3.5283    0.1256 C   0  0  0  0  0  0  0  0  0  0  0  0
  -10.7086   -3.5145    0.2519 C   0  0  0  0  0  0  0  0  0  0  0  0
   -8.9220   -5.0484    0.3052 C   0  0  0  0  0  0  0  0  0  0  0  0
   -2.7660   -5.1866    5.3989 C   0  0  0  0  0  0  0  0  0  0  0  0
   -1.6780   -5.8373    4.7881 C   0  0  0  0  0  0  0  0  0  0  0  0
   -1.6790   -7.1881    4.6325 F   0  0  0  0  0  0  0  0  0  0  0  0
   -0.6447   -5.0795    4.2254 C   0  0  0  0  0  0  0  0  0  0  0  0
   -0.6814   -3.6790    4.2852 C   0  0  0  0  0  0  0  0  0  0  0  0
   -1.7041   -3.0412    5.0011 C   0  0  0  0  0  0  0  0  0  0  0  0
   -2.7381   -3.7949    5.5671 C   0  0  0  0  0  0  0  0  0  0  0  0
    0.1804   -2.8917    3.3853 C   0  0  0  0  0  0  0  0  0  0  0  0
    1.4541   -2.4835    3.7756 C   0  0  0  0  0  0  0  0  0  0  0  0
    1.9090   -2.7838    5.0203 F   0  0  0  0  0  0  0  0  0  0  0  0
    2.2432   -1.7096    2.9192 C   0  0  0  0  0  0  0  0  0  0  0  0
    3.4031   -1.2352    3.4199 F   0  0  0  0  0  0  0  0  0  0  0  0
    1.8037   -1.3801    1.6136 C   0  0  0  0  0  0  0  0  0  0  0  0
    0.5053   -1.8072    1.2241 C   0  0  0  0  0  0  0  0  0  0  0  0
   -0.0067   -1.5028    0.0035 N   0  0  0  0  0  0  0  0  0  0  0  0
   -1.2839   -1.7974   -0.3575 C   0  0  0  0  0  0  0  0  0  0  0  0
   -1.7443   -1.4043   -1.7343 C   0  0  0  0  0  0  0  0  0  0  0  0
   -1.4850   -2.5332   -2.7338 C   0  0  0  0  0  0  0  0  0  0  0  0
   -2.0990   -2.4967    0.5536 C   0  0  0  0  0  0  0  0  0  0  0  0
   -1.5777   -2.8421    1.7602 N   0  0  0  0  0  0  0  0  0  0  0  0
   -0.3061   -2.5258    2.1226 C   0  0  0  0  0  0  0  0  0  0  0  0
   -3.5432   -2.8265    0.2954 C   0  0  0  0  0  0  0  0  0  0  0  0
   -4.4607   -1.7128    0.8019 C   0  0  0  0  0  0  0  0  0  0  0  0
    2.6074   -0.4521    0.7466 C   0  0  0  0  0  0  0  0  0  0  0  0
    3.9750   -0.1100    0.9013 C   0  0  0  0  0  0  0  0  0  0  0  0
    4.9797   -1.0686    1.2925 N   0  0  0  0  0  0  0  0  0  0  0  0
    6.1237   -0.6547    2.0735 C   0  0  0  0  0  0  0  0  0  0  0  0
    5.9819    0.3165    3.0883 C   0  0  0  0  0  0  0  0  0  0  0  0
    7.0907    0.7277    3.8331 C   0  0  0  0  0  0  0  0  0  0  0  0
    8.3526    0.1795    3.5756 C   0  0  0  0  0  0  0  0  0  0  0  0
    9.7815    0.6929    4.5442 S   0  0  0  0  0  0  0  0  0  0  0  0
    9.5686   -0.6229    5.7861 C   0  0  0  0  0  0  0  0  0  0  0  0
    8.5073   -0.7631    2.5497 C   0  0  0  0  0  0  0  0  0  0  0  0
    7.4037   -1.1856    1.8081 C   0  0  0  0  0  0  0  0  0  0  0  0
    4.9152   -2.3749    0.6823 C   0  0  0  0  0  0  0  0  0  0  0  0
    5.0047   -3.5326    1.4696 C   0  0  0  0  0  0  0  0  0  0  0  0
    4.8353   -4.7967    0.8855 C   0  0  0  0  0  0  0  0  0  0  0  0
    4.5810   -4.9080   -0.4895 C   0  0  0  0  0  0  0  0  0  0  0  0
    4.3510   -6.5186   -1.2379 S   0  0  0  0  0  0  0  0  0  0  0  0
    2.5489   -6.5469   -0.9527 C   0  0  0  0  0  0  0  0  0  0  0  0
    4.5228   -3.7582   -1.2808 C   0  0  0  0  0  0  0  0  0  0  0  0
    4.6913   -2.5003   -0.7023 C   0  0  0  0  0  0  0  0  0  0  0  0
    4.3071    0.9979    0.1170 C   0  0  0  0  0  0  0  0  0  0  0  0
    5.4563    2.2196    0.3122 S   0  0  0  0  0  0  0  0  0  0  0  0
    4.6717    3.3021   -0.7442 C   0  0  0  0  0  0  0  0  0  0  0  0
    3.5597    2.6666   -1.3301 C   0  0  0  0  0  0  0  0  0  0  0  0
    2.9370    3.1087   -2.5633 N   0  0  0  0  0  0  0  0  0  0  0  0
    1.8942    2.3363   -3.1699 C   0  0  0  0  0  0  0  0  0  0  0  0
    0.5841    2.8354   -3.2317 C   0  0  0  0  0  0  0  0  0  0  0  0
   -0.4060    2.1239   -3.9202 C   0  0  0  0  0  0  0  0  0  0  0  0
   -0.0869    0.9180   -4.5587 C   0  0  0  0  0  0  0  0  0  0  0  0
   -1.3273    0.0606   -5.5246 S   0  0  0  0  0  0  0  0  0  0  0  0
   -0.9101    0.9609   -7.0503 C   0  0  0  0  0  0  0  0  0  0  0  0
    1.2116    0.4018   -4.4714 C   0  0  0  0  0  0  0  0  0  0  0  0
    2.1994    1.1154   -3.7920 C   0  0  0  0  0  0  0  0  0  0  0  0
    3.7309    3.8663   -3.4964 C   0  0  0  0  0  0  0  0  0  0  0  0
    3.2513    5.0689   -4.0324 C   0  0  0  0  0  0  0  0  0  0  0  0
    4.0442    5.8163   -4.9110 C   0  0  0  0  0  0  0  0  0  0  0  0
    5.3099    5.3483   -5.2876 C   0  0  0  0  0  0  0  0  0  0  0  0
    6.3410    6.3133   -6.3978 S   0  0  0  0  0  0  0  0  0  0  0  0
    7.3397    7.0133   -5.0533 C   0  0  0  0  0  0  0  0  0  0  0  0
    5.7733    4.1261   -4.7893 C   0  0  0  0  0  0  0  0  0  0  0  0
    4.9941    3.3888   -3.8966 C   0  0  0  0  0  0  0  0  0  0  0  0
    3.3324    1.4359   -0.7264 C   0  0  0  0  0  0  0  0  0  0  0  0
    1.9334    0.5798   -0.4381 S   0  0  0  0  0  0  0  0  0  0  0  0
    4.8604    4.7708   -0.7252 C   0  0  0  0  0  0  0  0  0  0  0  0
    3.8210    5.6112   -0.5312 C   0  0  0  0  0  0  0  0  0  0  0  0
    3.7412    6.9210   -1.1760 C   0  0  0  0  0  0  0  0  0  0  0  0
    4.7156    7.6226   -1.5625 O   0  0  0  0  0  0  0  0  0  0  0  0
    2.3356    7.2255   -1.4176 C   0  0  0  0  0  0  0  0  0  0  0  0
    1.7982    8.2820   -2.1991 C   0  0  0  0  0  0  0  0  0  0  0  0
    0.4327    8.1761   -2.4201 C   0  0  0  0  0  0  0  0  0  0  0  0
   -0.3614    7.1025   -1.9058 C   0  0  0  0  0  0  0  0  0  0  0  0
    0.1491    6.0813   -1.1296 C   0  0  0  0  0  0  0  0  0  0  0  0
    1.5416    6.1787   -0.8804 C   0  0  0  0  0  0  0  0  0  0  0  0
    2.4221    5.2326   -0.1638 C   0  0  0  0  0  0  0  0  0  0  0  0
    2.0640    4.4500    0.8841 C   0  0  0  0  0  0  0  0  0  0  0  0
    0.6951    4.1267    1.1806 C   0  0  0  0  0  0  0  0  0  0  0  0
   -0.4012    3.8391    1.4156 N   0  0  0  0  0  0  0  0  0  0  0  0
    3.0294    3.9986    1.8557 C   0  0  0  0  0  0  0  0  0  0  0  0
    3.7919    3.6451    2.6513 N   0  0  0  0  0  0  0  0  0  0  0  0
   -1.5716    7.6307   -2.6133 C   0  0  0  0  0  0  0  0  0  0  0  0
   -2.0338    6.8849   -3.9061 C   0  0  0  0  0  0  0  0  0  0  0  0
   -0.8365    6.2830   -4.6132 C   0  0  0  0  0  0  0  0  0  0  0  0
   -0.1173    7.3048   -5.0823 C   0  0  0  0  0  0  0  0  0  0  0  0
   -0.8395    8.5683   -4.6730 C   0  0  0  0  0  0  0  0  0  0  0  0
   -2.2719    8.0727   -4.8203 C   0  0  0  0  0  0  0  0  0  0  0  0
   -0.7669    8.7462   -3.1232 C   0  0  0  0  0  0  0  0  0  0  0  0
   -4.2789   -6.0052    6.7488 H   0  0  0  0  0  0  0  0  0  0  0  0
   -5.7526   -5.1002    0.7247 H   0  0  0  0  0  0  0  0  0  0  0  0
   -9.1504   -6.5941    4.2241 H   0  0  0  0  0  0  0  0  0  0  0  0
  -10.5501   -6.3069    0.9940 H   0  0  0  0  0  0  0  0  0  0  0  0
  -11.6460   -4.2639    2.1355 H   0  0  0  0  0  0  0  0  0  0  0  0
   -9.8015   -2.7722    3.3194 H   0  0  0  0  0  0  0  0  0  0  0  0
   -8.0625   -2.0337    1.5242 H   0  0  0  0  0  0  0  0  0  0  0  0
   -8.7921   -3.0868   -0.8125 H   0  0  0  0  0  0  0  0  0  0  0  0
  -11.1437   -2.4890    0.2320 H   0  0  0  0  0  0  0  0  0  0  0  0
  -11.2272   -4.1501   -0.5019 H   0  0  0  0  0  0  0  0  0  0  0  0
   -8.9612   -5.6519   -0.6315 H   0  0  0  0  0  0  0  0  0  0  0  0
    0.1335   -5.5756    3.6624 H   0  0  0  0  0  0  0  0  0  0  0  0
   -1.7451   -1.9639    5.0547 H   0  0  0  0  0  0  0  0  0  0  0  0
   -3.5752   -3.2838    6.0332 H   0  0  0  0  0  0  0  0  0  0  0  0
   -1.1897   -0.4983   -2.0677 H   0  0  0  0  0  0  0  0  0  0  0  0
   -2.8203   -1.1366   -1.7382 H   0  0  0  0  0  0  0  0  0  0  0  0
   -1.9209   -3.4857   -2.3632 H   0  0  0  0  0  0  0  0  0  0  0  0
   -1.9622   -2.2840   -3.7041 H   0  0  0  0  0  0  0  0  0  0  0  0
   -0.3891   -2.6740   -2.8856 H   0  0  0  0  0  0  0  0  0  0  0  0
   -3.7389   -3.0204   -0.7787 H   0  0  0  0  0  0  0  0  0  0  0  0
   -3.7914   -3.7591    0.8338 H   0  0  0  0  0  0  0  0  0  0  0  0
   -5.5016   -2.0979    0.8452 H   0  0  0  0  0  0  0  0  0  0  0  0
   -4.1668   -1.3980    1.8247 H   0  0  0  0  0  0  0  0  0  0  0  0
   -4.4295   -0.8403    0.1193 H   0  0  0  0  0  0  0  0  0  0  0  0
    5.0159    0.7549    3.2956 H   0  0  0  0  0  0  0  0  0  0  0  0
    6.9683    1.4761    4.6033 H   0  0  0  0  0  0  0  0  0  0  0  0
    8.6929   -0.3958    6.4283 H   0  0  0  0  0  0  0  0  0  0  0  0
    9.4280   -1.6097    5.2911 H   0  0  0  0  0  0  0  0  0  0  0  0
   10.4791   -0.6667    6.4203 H   0  0  0  0  0  0  0  0  0  0  0  0
    9.4831   -1.1786    2.3430 H   0  0  0  0  0  0  0  0  0  0  0  0
    7.5490   -1.9184    1.0247 H   0  0  0  0  0  0  0  0  0  0  0  0
    5.1711   -3.4511    2.5384 H   0  0  0  0  0  0  0  0  0  0  0  0
    4.8861   -5.6857    1.5080 H   0  0  0  0  0  0  0  0  0  0  0  0
    2.0913   -7.3010   -1.6278 H   0  0  0  0  0  0  0  0  0  0  0  0
    2.3533   -6.8506    0.0938 H   0  0  0  0  0  0  0  0  0  0  0  0
    2.0892   -5.5579   -1.1598 H   0  0  0  0  0  0  0  0  0  0  0  0
    4.3367   -3.8416   -2.3446 H   0  0  0  0  0  0  0  0  0  0  0  0
    4.6321   -1.6210   -1.3351 H   0  0  0  0  0  0  0  0  0  0  0  0
    0.3445    3.7767   -2.7629 H   0  0  0  0  0  0  0  0  0  0  0  0
   -1.4072    2.5253   -3.9770 H   0  0  0  0  0  0  0  0  0  0  0  0
    0.1273    0.7123   -7.3666 H   0  0  0  0  0  0  0  0  0  0  0  0
   -1.6185    0.6630   -7.8552 H   0  0  0  0  0  0  0  0  0  0  0  0
   -1.0011    2.0541   -6.8716 H   0  0  0  0  0  0  0  0  0  0  0  0
    1.4613   -0.5311   -4.9652 H   0  0  0  0  0  0  0  0  0  0  0  0
    3.2060    0.7186   -3.7549 H   0  0  0  0  0  0  0  0  0  0  0  0
    2.2706    5.4363   -3.7515 H   0  0  0  0  0  0  0  0  0  0  0  0
    3.6765    6.7604   -5.2977 H   0  0  0  0  0  0  0  0  0  0  0  0
    6.7059    7.6292   -4.3805 H   0  0  0  0  0  0  0  0  0  0  0  0
    7.8153    6.1949   -4.4743 H   0  0  0  0  0  0  0  0  0  0  0  0
    8.1393    7.6476   -5.4899 H   0  0  0  0  0  0  0  0  0  0  0  0
    6.7495    3.7572   -5.0834 H   0  0  0  0  0  0  0  0  0  0  0  0
    5.3728    2.4456   -3.5194 H   0  0  0  0  0  0  0  0  0  0  0  0
    5.8209    5.1618   -1.0383 H   0  0  0  0  0  0  0  0  0  0  0  0
    2.4066    9.0525   -2.6493 H   0  0  0  0  0  0  0  0  0  0  0  0
   -0.4712    5.2520   -0.8241 H   0  0  0  0  0  0  0  0  0  0  0  0
   -2.3941    7.9468   -1.9321 H   0  0  0  0  0  0  0  0  0  0  0  0
   -2.8969    6.1985   -3.7723 H   0  0  0  0  0  0  0  0  0  0  0  0
   -0.6205    5.2321   -4.7747 H   0  0  0  0  0  0  0  0  0  0  0  0
    0.7794    7.2268   -5.6882 H   0  0  0  0  0  0  0  0  0  0  0  0
   -0.5848    9.4688   -5.2642 H   0  0  0  0  0  0  0  0  0  0  0  0
   -3.0348    8.7896   -4.4235 H   0  0  0  0  0  0  0  0  0  0  0  0
   -2.5372    7.7864   -5.8682 H   0  0  0  0  0  0  0  0  0  0  0  0
   -1.0933    9.7422   -2.7423 H   0  0  0  0  0  0  0  0  0  0  0  0
  1  2  2  3
  2  3  1  0
  3  4  2  0
  3  5  1  0
  5  6  2  0
  6  7  1  0
  7  8  2  0
  8  9  1  0
  9 10  2  0
 10 11  1  0
 11 12  2  3
 12 13  1  0
 13 14  3  0
 12 15  1  0
 15 16  3  0
  8 17  1  0
 17 18  1  0
 18 19  1  0
 19 20  2  0
 20 21  1  0
 21 22  1  0
 21 23  1  0
  1 24  1  0
 24 25  2  0
 25 26  1  0
 25 27  1  0
 27 28  2  0
 28 29  1  0
 29 30  2  0
 28 31  1  0
 31 32  2  0
 32 33  1  0
 32 34  1  0
 34 35  1  0
 34 36  2  0
 36 37  1  0
 37 38  2  0
 38 39  1  0
 39 40  1  0
 40 41  1  0
 39 42  2  0
 42 43  1  0
 43 44  2  0
 42 45  1  0
 45 46  1  0
 36 47  1  0
 47 48  2  0
 48 49  1  0
 49 50  1  0
 50 51  2  0
 51 52  1  0
 52 53  2  0
 53 54  1  0
 54 55  1  0
 53 56  1  0
 56 57  2  0
 49 58  1  0
 58 59  2  0
 59 60  1  0
 60 61  2  0
 61 62  1  0
 62 63  1  0
 61 64  1  0
 64 65  2  0
 48 66  1  0
 66 67  1  0
 67 68  1  0
 68 69  2  0
 69 70  1  0
 70 71  1  0
 71 72  2  0
 72 73  1  0
 73 74  2  0
 74 75  1  0
 75 76  1  0
 74 77  1  0
 77 78  2  0
 70 79  1  0
 79 80  2  0
 80 81  1  0
 81 82  2  0
 82 83  1  0
 83 84  1  0
 82 85  1  0
 85 86  2  0
 69 87  1  0
 87 88  1  0
 68 89  1  0
 89 90  2  3
 90 91  1  0
 91 92  2  0
 91 93  1  0
 93 94  2  0
 94 95  1  0
 95 96  2  0
 96 97  1  0
 97 98  2  0
 98 99  1  0
 99100  2  3
100101  1  0
101102  3  0
100103  1  0
103104  3  0
 96105  1  0
105106  1  0
106107  1  0
107108  2  0
108109  1  0
109110  1  0
109111  1  0
 11  2  1  0
 23 17  1  0
 30 24  1  0
 44 31  1  0
 88 47  1  0
 99 90  1  0
111105  1  0
 10  5  1  0
 22 18  1  0
 44 37  1  0
 57 50  1  0
 65 58  1  0
 87 66  2  0
 98 93  1  0
110106  1  0
 23  7  1  0
 78 71  1  0
 86 79  1  0
111 95  1  0
  1112  1  0
  6113  1  0
  9114  1  0
 17115  1  0
 18116  1  0
 19117  1  0
 20118  1  0
 21119  1  0
 22120  1  0
 22121  1  0
 23122  1  0
 27123  1  0
 29124  1  0
 30125  1  0
 40126  1  0
 40127  1  0
 41128  1  0
 41129  1  0
 41130  1  0
 45131  1  0
 45132  1  0
 46133  1  0
 46134  1  0
 46135  1  0
 51136  1  0
 52137  1  0
 55138  1  0
 55139  1  0
 55140  1  0
 56141  1  0
 57142  1  0
 59143  1  0
 60144  1  0
 63145  1  0
 63146  1  0
 63147  1  0
 64148  1  0
 65149  1  0
 72150  1  0
 73151  1  0
 76152  1  0
 76153  1  0
 76154  1  0
 77155  1  0
 78156  1  0
 80157  1  0
 81158  1  0
 84159  1  0
 84160  1  0
 84161  1  0
 85162  1  0
 86163  1  0
 89164  1  0
 94165  1  0
 97166  1  0
105167  1  0
106168  1  0
107169  1  0
108170  1  0
109171  1  0
110172  1  0
110173  1  0
111174  1  0
M  END

