
     RDKit          3D

176196  0  0  0  0  0  0  0  0999 V2000
   -3.2958   -0.5702   -4.3676 C   0  0  0  0  0  0  0  0  0  0  0  0
   -2.5480    0.1937   -5.1977 C   0  0  0  0  0  0  0  0  0  0  0  0
   -1.5654    1.2289   -4.8295 C   0  0  0  0  0  0  0  0  0  0  0  0
   -0.7873    1.2086   -3.8393 O   0  0  0  0  0  0  0  0  0  0  0  0
   -1.5085    2.2097   -5.8936 C   0  0  0  0  0  0  0  0  0  0  0  0
   -0.8820    3.4790   -5.8683 C   0  0  0  0  0  0  0  0  0  0  0  0
   -1.1686    4.2652   -6.9730 C   0  0  0  0  0  0  0  0  0  0  0  0
   -2.0065    3.8274   -8.0482 C   0  0  0  0  0  0  0  0  0  0  0  0
   -2.5882    2.5729   -8.0975 C   0  0  0  0  0  0  0  0  0  0  0  0
   -2.2986    1.7470   -6.9776 C   0  0  0  0  0  0  0  0  0  0  0  0
   -2.8235    0.3987   -6.6522 C   0  0  0  0  0  0  0  0  0  0  0  0
   -3.2112   -0.5485   -7.5465 C   0  0  0  0  0  0  0  0  0  0  0  0
   -3.4623   -1.9112   -7.1582 C   0  0  0  0  0  0  0  0  0  0  0  0
   -3.6686   -3.0182   -6.8658 N   0  0  0  0  0  0  0  0  0  0  0  0
   -3.2441   -0.2945   -8.9638 C   0  0  0  0  0  0  0  0  0  0  0  0
   -3.2753   -0.0969  -10.1040 N   0  0  0  0  0  0  0  0  0  0  0  0
   -1.8763    5.1629   -8.7174 C   0  0  0  0  0  0  0  0  0  0  0  0
   -0.9588    5.2686   -9.9704 C   0  0  0  0  0  0  0  0  0  0  0  0
    0.1757    4.2723   -9.8714 C   0  0  0  0  0  0  0  0  0  0  0  0
    0.9548    4.6870   -8.8717 C   0  0  0  0  0  0  0  0  0  0  0  0
    0.3299    5.9491   -8.3267 C   0  0  0  0  0  0  0  0  0  0  0  0
   -0.2016    6.5341   -9.6241 C   0  0  0  0  0  0  0  0  0  0  0  0
   -1.0152    5.6111   -7.6190 C   0  0  0  0  0  0  0  0  0  0  0  0
   -3.2922   -0.5493   -2.8891 C   0  0  0  0  0  0  0  0  0  0  0  0
   -3.8294   -1.5467   -2.0810 C   0  0  0  0  0  0  0  0  0  0  0  0
   -3.7575   -1.2724   -0.7005 C   0  0  0  0  0  0  0  0  0  0  0  0
   -4.1907   -2.2515    0.3237 C   0  0  0  0  0  0  0  0  0  0  0  0
   -3.4278   -3.4259    0.5520 C   0  0  0  0  0  0  0  0  0  0  0  0
   -3.8265   -4.3312    1.5492 C   0  0  0  0  0  0  0  0  0  0  0  0
   -4.9593   -4.0825    2.3306 C   0  0  0  0  0  0  0  0  0  0  0  0
   -5.4041   -5.1018    3.3362 C   0  0  0  0  0  0  0  0  0  0  0  0
   -5.6969   -2.9102    2.1232 C   0  0  0  0  0  0  0  0  0  0  0  0
   -5.3368   -1.9982    1.1185 C   0  0  0  0  0  0  0  0  0  0  0  0
   -6.1457   -0.7368    0.9632 C   0  0  0  0  0  0  0  0  0  0  0  0
   -2.1521   -3.6931   -0.2092 C   0  0  0  0  0  0  0  0  0  0  0  0
   -3.2042   -0.0191   -0.4115 C   0  0  0  0  0  0  0  0  0  0  0  0
   -2.8062    0.6943   -1.8799 S   0  0  0  0  0  0  0  0  0  0  0  0
   -2.7366    0.4947    0.8971 C   0  0  0  0  0  0  0  0  0  0  0  0
   -2.0867    1.7291    1.0717 C   0  0  0  0  0  0  0  0  0  0  0  0
   -2.4152    2.9147    0.3166 N   0  0  0  0  0  0  0  0  0  0  0  0
   -1.4079    3.9026    0.0484 C   0  0  0  0  0  0  0  0  0  0  0  0
   -0.2358    3.5517   -0.6412 C   0  0  0  0  0  0  0  0  0  0  0  0
    0.7931    4.4873   -0.7937 C   0  0  0  0  0  0  0  0  0  0  0  0
    0.6577    5.7706   -0.2497 C   0  0  0  0  0  0  0  0  0  0  0  0
    2.0136    6.9404   -0.3527 S   0  0  0  0  0  0  0  0  0  0  0  0
    2.7334    6.4176    1.2386 C   0  0  0  0  0  0  0  0  0  0  0  0
   -0.5365    6.1466    0.3695 C   0  0  0  0  0  0  0  0  0  0  0  0
   -1.5618    5.2112    0.5297 C   0  0  0  0  0  0  0  0  0  0  0  0
   -3.8000    3.2096    0.0339 C   0  0  0  0  0  0  0  0  0  0  0  0
   -4.1736    3.7065   -1.2286 C   0  0  0  0  0  0  0  0  0  0  0  0
   -5.5254    3.8592   -1.5509 C   0  0  0  0  0  0  0  0  0  0  0  0
   -6.5148    3.5365   -0.6097 C   0  0  0  0  0  0  0  0  0  0  0  0
   -8.2470    3.6635   -1.0475 S   0  0  0  0  0  0  0  0  0  0  0  0
   -8.3402    1.9436   -1.6442 C   0  0  0  0  0  0  0  0  0  0  0  0
   -6.1455    3.0954    0.6650 C   0  0  0  0  0  0  0  0  0  0  0  0
   -4.7991    2.9351    0.9865 C   0  0  0  0  0  0  0  0  0  0  0  0
   -1.3055    1.7439    2.2301 C   0  0  0  0  0  0  0  0  0  0  0  0
    0.2348    2.3650    2.4449 S   0  0  0  0  0  0  0  0  0  0  0  0
    0.7411    1.2242    3.6002 C   0  0  0  0  0  0  0  0  0  0  0  0
   -0.3496    0.3782    3.8880 C   0  0  0  0  0  0  0  0  0  0  0  0
   -0.3747   -0.6390    4.9193 N   0  0  0  0  0  0  0  0  0  0  0  0
    0.6718   -0.7082    5.9019 C   0  0  0  0  0  0  0  0  0  0  0  0
    1.3546   -1.9124    6.1317 C   0  0  0  0  0  0  0  0  0  0  0  0
    2.3425   -1.9844    7.1172 C   0  0  0  0  0  0  0  0  0  0  0  0
    2.6561   -0.8556    7.8848 C   0  0  0  0  0  0  0  0  0  0  0  0
    3.8975   -0.9593    9.1734 S   0  0  0  0  0  0  0  0  0  0  0  0
    2.6852   -1.3572   10.4753 C   0  0  0  0  0  0  0  0  0  0  0  0
    1.9983    0.3571    7.6422 C   0  0  0  0  0  0  0  0  0  0  0  0
    1.0008    0.4257    6.6661 C   0  0  0  0  0  0  0  0  0  0  0  0
   -1.6455   -1.1866    5.3206 C   0  0  0  0  0  0  0  0  0  0  0  0
   -1.8908   -2.5666    5.2378 C   0  0  0  0  0  0  0  0  0  0  0  0
   -3.1522   -3.0764    5.5748 C   0  0  0  0  0  0  0  0  0  0  0  0
   -4.1747   -2.2105    5.9803 C   0  0  0  0  0  0  0  0  0  0  0  0
   -5.8251   -2.8428    6.2949 S   0  0  0  0  0  0  0  0  0  0  0  0
   -5.6509   -2.8131    8.1096 C   0  0  0  0  0  0  0  0  0  0  0  0
   -3.9291   -0.8393    6.0776 C   0  0  0  0  0  0  0  0  0  0  0  0
   -2.6618   -0.3336    5.7786 C   0  0  0  0  0  0  0  0  0  0  0  0
   -1.4174    0.6324    3.0186 C   0  0  0  0  0  0  0  0  0  0  0  0
   -2.3961   -0.4787    2.2421 S   0  0  0  0  0  0  0  0  0  0  0  0
    2.1548    0.7963    3.6376 C   0  0  0  0  0  0  0  0  0  0  0  0
    2.5318   -0.4722    3.1535 C   0  0  0  0  0  0  0  0  0  0  0  0
    3.8880   -0.7995    2.9178 C   0  0  0  0  0  0  0  0  0  0  0  0
    4.1060   -2.1296    2.4383 N   0  0  0  0  0  0  0  0  0  0  0  0
    2.6042   -2.6568    2.3307 S   0  0  0  0  0  4  0  0  0  0  0  0
    1.6069   -1.5108    2.8078 N   0  0  0  0  0  0  0  0  0  0  0  0
    4.9082    0.1521    3.0891 C   0  0  0  0  0  0  0  0  0  0  0  0
    4.5543    1.3910    3.6618 C   0  0  0  0  0  0  0  0  0  0  0  0
    5.4622    2.3526    3.9490 N   0  0  0  0  0  0  0  0  0  0  0  0
    4.4691    3.5567    4.4982 S   0  0  0  0  0  0  0  0  0  0  0  0
    2.9341    2.9562    4.4114 N   0  0  0  0  0  0  0  0  0  0  0  0
    3.1810    1.7180    3.9145 C   0  0  0  0  0  0  0  0  0  0  0  0
    6.2993   -0.0919    2.6377 C   0  0  0  0  0  0  0  0  0  0  0  0
    6.6606   -0.5926    1.4376 C   0  0  0  0  0  0  0  0  0  0  0  0
    7.9935   -1.1512    1.1970 C   0  0  0  0  0  0  0  0  0  0  0  0
    9.0110   -0.9493    1.9006 O   0  0  0  0  0  0  0  0  0  0  0  0
    7.9194   -2.0683    0.0766 C   0  0  0  0  0  0  0  0  0  0  0  0
    8.9441   -2.9160   -0.4127 C   0  0  0  0  0  0  0  0  0  0  0  0
    8.5308   -3.7686   -1.4255 C   0  0  0  0  0  0  0  0  0  0  0  0
    7.1894   -3.7969   -1.9200 C   0  0  0  0  0  0  0  0  0  0  0  0
    6.1870   -2.9635   -1.4534 C   0  0  0  0  0  0  0  0  0  0  0  0
    6.5958   -2.0583   -0.4330 C   0  0  0  0  0  0  0  0  0  0  0  0
    5.8071   -1.0187    0.2843 C   0  0  0  0  0  0  0  0  0  0  0  0
    4.7244   -0.3640   -0.2133 C   0  0  0  0  0  0  0  0  0  0  0  0
    4.3476    0.9480    0.2480 C   0  0  0  0  0  0  0  0  0  0  0  0
    4.0353    2.0054    0.6020 N   0  0  0  0  0  0  0  0  0  0  0  0
    3.9790   -0.8480   -1.3431 C   0  0  0  0  0  0  0  0  0  0  0  0
    3.3570   -1.2465   -2.2376 N   0  0  0  0  0  0  0  0  0  0  0  0
    7.5482   -4.9059   -2.8681 C   0  0  0  0  0  0  0  0  0  0  0  0
    7.7026   -4.5189   -4.3682 C   0  0  0  0  0  0  0  0  0  0  0  0
    8.4223   -5.6715   -5.0235 C   0  0  0  0  0  0  0  0  0  0  0  0
    9.6781   -5.6473   -4.5548 C   0  0  0  0  0  0  0  0  0  0  0  0
    9.7637   -4.4744   -3.6108 C   0  0  0  0  0  0  0  0  0  0  0  0
    8.8410   -3.5091   -4.3446 C   0  0  0  0  0  0  0  0  0  0  0  0
    8.9237   -4.8774   -2.3582 C   0  0  0  0  0  0  0  0  0  0  0  0
   -4.0408   -1.2232   -4.7944 H   0  0  0  0  0  0  0  0  0  0  0  0
   -0.3050    3.8398   -5.0260 H   0  0  0  0  0  0  0  0  0  0  0  0
   -3.2648    2.3007   -8.8920 H   0  0  0  0  0  0  0  0  0  0  0  0
   -2.8386    5.7196   -8.7888 H   0  0  0  0  0  0  0  0  0  0  0  0
   -1.4918    5.2798  -10.9450 H   0  0  0  0  0  0  0  0  0  0  0  0
    0.3762    3.4289  -10.5221 H   0  0  0  0  0  0  0  0  0  0  0  0
    1.8944    4.2398   -8.5694 H   0  0  0  0  0  0  0  0  0  0  0  0
    1.0175    6.6076   -7.7569 H   0  0  0  0  0  0  0  0  0  0  0  0
    0.5949    6.7884  -10.3585 H   0  0  0  0  0  0  0  0  0  0  0  0
   -0.8649    7.4205   -9.4744 H   0  0  0  0  0  0  0  0  0  0  0  0
   -1.4543    6.4444   -7.0227 H   0  0  0  0  0  0  0  0  0  0  0  0
   -4.2495   -2.4644   -2.4751 H   0  0  0  0  0  0  0  0  0  0  0  0
   -3.2455   -5.2279    1.7261 H   0  0  0  0  0  0  0  0  0  0  0  0
   -5.8736   -5.9627    2.8124 H   0  0  0  0  0  0  0  0  0  0  0  0
   -6.1414   -4.6748    4.0473 H   0  0  0  0  0  0  0  0  0  0  0  0
   -4.5307   -5.4685    3.9156 H   0  0  0  0  0  0  0  0  0  0  0  0
   -6.5680   -2.7111    2.7390 H   0  0  0  0  0  0  0  0  0  0  0  0
   -7.1889   -0.8854    1.3147 H   0  0  0  0  0  0  0  0  0  0  0  0
   -6.1968   -0.4191   -0.0995 H   0  0  0  0  0  0  0  0  0  0  0  0
   -5.6826    0.0705    1.5659 H   0  0  0  0  0  0  0  0  0  0  0  0
   -1.6945   -4.6607    0.0848 H   0  0  0  0  0  0  0  0  0  0  0  0
   -1.4181   -2.8826   -0.0096 H   0  0  0  0  0  0  0  0  0  0  0  0
   -2.3615   -3.7389   -1.2967 H   0  0  0  0  0  0  0  0  0  0  0  0
   -0.1118    2.5490   -1.0301 H   0  0  0  0  0  0  0  0  0  0  0  0
    1.7083    4.1973   -1.2946 H   0  0  0  0  0  0  0  0  0  0  0  0
    3.5559    7.1158    1.5045 H   0  0  0  0  0  0  0  0  0  0  0  0
    3.1450    5.3884    1.1522 H   0  0  0  0  0  0  0  0  0  0  0  0
    1.9700    6.4482    2.0487 H   0  0  0  0  0  0  0  0  0  0  0  0
   -0.6597    7.1464    0.7684 H   0  0  0  0  0  0  0  0  0  0  0  0
   -2.4664    5.4986    1.0516 H   0  0  0  0  0  0  0  0  0  0  0  0
   -3.4236    3.9248   -1.9770 H   0  0  0  0  0  0  0  0  0  0  0  0
   -5.8081    4.2079   -2.5359 H   0  0  0  0  0  0  0  0  0  0  0  0
   -7.6354    1.7952   -2.4905 H   0  0  0  0  0  0  0  0  0  0  0  0
   -9.3765    1.7364   -1.9920 H   0  0  0  0  0  0  0  0  0  0  0  0
   -8.0903    1.2412   -0.8202 H   0  0  0  0  0  0  0  0  0  0  0  0
   -6.9031    2.8573    1.4022 H   0  0  0  0  0  0  0  0  0  0  0  0
   -4.5285    2.5801    1.9728 H   0  0  0  0  0  0  0  0  0  0  0  0
    1.1290   -2.7916    5.5479 H   0  0  0  0  0  0  0  0  0  0  0  0
    2.8554   -2.9223    7.2979 H   0  0  0  0  0  0  0  0  0  0  0  0
    1.9094   -0.5625   10.5280 H   0  0  0  0  0  0  0  0  0  0  0  0
    2.2093   -2.3364   10.2569 H   0  0  0  0  0  0  0  0  0  0  0  0
    3.2060   -1.4147   11.4549 H   0  0  0  0  0  0  0  0  0  0  0  0
    2.2440    1.2396    8.2220 H   0  0  0  0  0  0  0  0  0  0  0  0
    0.4757    1.3603    6.5058 H   0  0  0  0  0  0  0  0  0  0  0  0
   -1.1230   -3.2411    4.8849 H   0  0  0  0  0  0  0  0  0  0  0  0
   -3.3342   -4.1403    5.5029 H   0  0  0  0  0  0  0  0  0  0  0  0
   -5.3372   -1.8031    8.4518 H   0  0  0  0  0  0  0  0  0  0  0  0
   -4.9018   -3.5694    8.4312 H   0  0  0  0  0  0  0  0  0  0  0  0
   -6.6325   -3.0542    8.5669 H   0  0  0  0  0  0  0  0  0  0  0  0
   -4.7138   -0.1611    6.3873 H   0  0  0  0  0  0  0  0  0  0  0  0
   -2.4834    0.7293    5.8668 H   0  0  0  0  0  0  0  0  0  0  0  0
    7.0729    0.1384    3.3566 H   0  0  0  0  0  0  0  0  0  0  0  0
    9.9505   -2.9299   -0.0156 H   0  0  0  0  0  0  0  0  0  0  0  0
    5.1799   -3.0592   -1.8219 H   0  0  0  0  0  0  0  0  0  0  0  0
    6.9987   -5.8574   -2.6731 H   0  0  0  0  0  0  0  0  0  0  0  0
    6.7734   -4.1871   -4.8790 H   0  0  0  0  0  0  0  0  0  0  0  0
    8.0440   -6.3273   -5.8008 H   0  0  0  0  0  0  0  0  0  0  0  0
   10.4879   -6.2901   -4.8861 H   0  0  0  0  0  0  0  0  0  0  0  0
   10.7895   -4.1066   -3.4019 H   0  0  0  0  0  0  0  0  0  0  0  0
    9.2115   -3.2329   -5.3602 H   0  0  0  0  0  0  0  0  0  0  0  0
    8.6256   -2.5784   -3.7762 H   0  0  0  0  0  0  0  0  0  0  0  0
    9.2468   -5.8057   -1.8414 H   0  0  0  0  0  0  0  0  0  0  0  0
  1  2  2  3
  2  3  1  0
  3  4  2  0
  3  5  1  0
  5  6  2  0
  6  7  1  0
  7  8  2  0
  8  9  1  0
  9 10  2  0
 10 11  1  0
 11 12  2  3
 12 13  1  0
 13 14  3  0
 12 15  1  0
 15 16  3  0
  8 17  1  0
 17 18  1  0
 18 19  1  0
 19 20  2  0
 20 21  1  0
 21 22  1  0
 21 23  1  0
  1 24  1  0
 24 25  2  0
 25 26  1  0
 26 27  1  0
 27 28  2  0
 28 29  1  0
 29 30  2  0
 30 31  1  0
 30 32  1  0
 32 33  2  0
 33 34  1  0
 28 35  1  0
 26 36  2  0
 36 37  1  0
 36 38  1  0
 38 39  2  0
 39 40  1  0
 40 41  1  0
 41 42  2  0
 42 43  1  0
 43 44  2  0
 44 45  1  0
 45 46  1  0
 44 47  1  0
 47 48  2  0
 40 49  1  0
 49 50  2  0
 50 51  1  0
 51 52  2  0
 52 53  1  0
 53 54  1  0
 52 55  1  0
 55 56  2  0
 39 57  1  0
 57 58  1  0
 58 59  1  0
 59 60  2  0
 60 61  1  0
 61 62  1  0
 62 63  2  0
 63 64  1  0
 64 65  2  0
 65 66  1  0
 66 67  1  0
 65 68  1  0
 68 69  2  0
 61 70  1  0
 70 71  2  0
 71 72  1  0
 72 73  2  0
 73 74  1  0
 74 75  1  0
 73 76  1  0
 76 77  2  0
 60 78  1  0
 78 79  1  0
 59 80  1  0
 80 81  2  0
 81 82  1  0
 82 83  1  0
 83 84  2  0
 84 85  2  0
 82 86  2  0
 86 87  1  0
 87 88  2  0
 88 89  1  0
 89 90  1  0
 90 91  2  0
 86 92  1  0
 92 93  2  3
 93 94  1  0
 94 95  2  0
 94 96  1  0
 96 97  2  0
 97 98  1  0
 98 99  2  0
 99100  1  0
100101  2  0
101102  1  0
102103  2  3
103104  1  0
104105  3  0
103106  1  0
106107  3  0
 99108  1  0
108109  1  0
109110  1  0
110111  2  0
111112  1  0
112113  1  0
112114  1  0
 11  2  1  0
 23 17  1  0
 37 24  1  0
 79 38  1  0
 91 80  1  0
102 93  1  0
114108  1  0
 10  5  1  0
 22 18  1  0
 33 27  1  0
 48 41  1  0
 56 49  1  0
 78 57  2  0
 85 81  1  0
 91 87  1  0
101 96  1  0
113109  1  0
 23  7  1  0
 69 62  1  0
 77 70  1  0
114 98  1  0
  1115  1  0
  6116  1  0
  9117  1  0
 17118  1  0
 18119  1  0
 19120  1  0
 20121  1  0
 21122  1  0
 22123  1  0
 22124  1  0
 23125  1  0
 25126  1  0
 29127  1  0
 31128  1  0
 31129  1  0
 31130  1  0
 32131  1  0
 34132  1  0
 34133  1  0
 34134  1  0
 35135  1  0
 35136  1  0
 35137  1  0
 42138  1  0
 43139  1  0
 46140  1  0
 46141  1  0
 46142  1  0
 47143  1  0
 48144  1  0
 50145  1  0
 51146  1  0
 54147  1  0
 54148  1  0
 54149  1  0
 55150  1  0
 56151  1  0
 63152  1  0
 64153  1  0
 67154  1  0
 67155  1  0
 67156  1  0
 68157  1  0
 69158  1  0
 71159  1  0
 72160  1  0
 75161  1  0
 75162  1  0
 75163  1  0
 76164  1  0
 77165  1  0
 92166  1  0
 97167  1  0
100168  1  0
108169  1  0
109170  1  0
110171  1  0
111172  1  0
112173  1  0
113174  1  0
113175  1  0
114176  1  0
M  END

