
     RDKit          3D

190211  0  0  0  0  0  0  0  0999 V2000
   -2.1351   -9.0601    5.3169 C   0  0  0  0  0  0  0  0  0  0  0  0
   -2.5603   -7.7788    5.3894 C   0  0  0  0  0  0  0  0  0  0  0  0
   -1.8610   -6.6211    4.8122 C   0  0  0  0  0  0  0  0  0  0  0  0
   -0.9994   -6.6409    3.8976 O   0  0  0  0  0  0  0  0  0  0  0  0
   -2.3181   -5.4237    5.4690 C   0  0  0  0  0  0  0  0  0  0  0  0
   -1.7712   -4.1259    5.3312 C   0  0  0  0  0  0  0  0  0  0  0  0
   -2.3116   -3.2011    6.1993 C   0  0  0  0  0  0  0  0  0  0  0  0
   -3.3349   -3.5203    7.1505 C   0  0  0  0  0  0  0  0  0  0  0  0
   -3.8775   -4.7911    7.2864 C   0  0  0  0  0  0  0  0  0  0  0  0
   -3.3428   -5.7618    6.3895 C   0  0  0  0  0  0  0  0  0  0  0  0
   -3.6218   -7.2232    6.2841 C   0  0  0  0  0  0  0  0  0  0  0  0
   -4.7503   -7.8627    6.6847 C   0  0  0  0  0  0  0  0  0  0  0  0
   -5.8008   -7.1947    7.4027 C   0  0  0  0  0  0  0  0  0  0  0  0
   -6.6594   -6.6728    7.9788 N   0  0  0  0  0  0  0  0  0  0  0  0
   -5.0476   -9.2102    6.2693 C   0  0  0  0  0  0  0  0  0  0  0  0
   -5.3001  -10.2917    5.9328 N   0  0  0  0  0  0  0  0  0  0  0  0
   -3.3209   -2.1068    7.6591 C   0  0  0  0  0  0  0  0  0  0  0  0
   -4.5081   -1.1948    7.2359 C   0  0  0  0  0  0  0  0  0  0  0  0
   -4.0658    0.2227    7.5168 C   0  0  0  0  0  0  0  0  0  0  0  0
   -3.1164    0.5112    6.6191 C   0  0  0  0  0  0  0  0  0  0  0  0
   -2.9517   -0.7205    5.7645 C   0  0  0  0  0  0  0  0  0  0  0  0
   -4.4021   -1.1730    5.7217 C   0  0  0  0  0  0  0  0  0  0  0  0
   -2.2773   -1.7844    6.6801 C   0  0  0  0  0  0  0  0  0  0  0  0
   -0.9324   -9.4097    4.5441 C   0  0  0  0  0  0  0  0  0  0  0  0
    0.3296   -9.2055    5.1204 C   0  0  0  0  0  0  0  0  0  0  0  0
    0.4570   -9.0732    6.4660 F   0  0  0  0  0  0  0  0  0  0  0  0
    1.4189   -8.8914    4.3009 C   0  0  0  0  0  0  0  0  0  0  0  0
    1.2403   -8.7630    2.9124 C   0  0  0  0  0  0  0  0  0  0  0  0
    0.0484   -9.2475    2.3390 C   0  0  0  0  0  0  0  0  0  0  0  0
   -1.0401   -9.5617    3.1565 C   0  0  0  0  0  0  0  0  0  0  0  0
    1.9860   -7.6980    2.2068 C   0  0  0  0  0  0  0  0  0  0  0  0
    1.9697   -7.4930    0.8218 C   0  0  0  0  0  0  0  0  0  0  0  0
    2.0552   -6.1334    0.4533 C   0  0  0  0  0  0  0  0  0  0  0  0
    1.8743   -5.5941   -0.8436 C   0  0  0  0  0  0  0  0  0  0  0  0
    1.8411   -6.4262   -2.0635 C   0  0  0  0  0  0  0  0  0  0  0  0
    0.7754   -7.6941   -2.3879 S   0  0  0  0  0  0  0  0  0  0  0  0
    1.3867   -8.0474   -3.9192 C   0  0  0  0  0  0  0  0  0  0  0  0
    0.9168   -9.1649   -4.8003 C   0  0  0  0  0  0  0  0  0  0  0  0
    1.9330  -10.3022   -4.8307 C   0  0  0  0  0  0  0  0  0  0  0  0
    2.4280   -7.1707   -4.1961 C   0  0  0  0  0  0  0  0  0  0  0  0
    3.1470   -7.1986   -5.3458 F   0  0  0  0  0  0  0  0  0  0  0  0
    2.6784   -6.2639   -3.1639 C   0  0  0  0  0  0  0  0  0  0  0  0
    3.6650   -5.3341   -3.2228 F   0  0  0  0  0  0  0  0  0  0  0  0
    1.7360   -4.1933   -0.9310 C   0  0  0  0  0  0  0  0  0  0  0  0
    1.8157   -3.3548    0.1868 C   0  0  0  0  0  0  0  0  0  0  0  0
    2.0661   -3.8862    1.4653 C   0  0  0  0  0  0  0  0  0  0  0  0
    2.0599   -3.0439    2.6785 C   0  0  0  0  0  0  0  0  0  0  0  0
    3.3216   -2.9250    3.7915 S   0  0  0  0  0  0  0  0  0  0  0  0
    2.5398   -1.8482    4.8250 C   0  0  0  0  0  0  0  0  0  0  0  0
    3.0967   -1.3386    6.1164 C   0  0  0  0  0  0  0  0  0  0  0  0
    2.6594   -2.2160    7.2840 C   0  0  0  0  0  0  0  0  0  0  0  0
    1.2694   -1.5946    4.3244 C   0  0  0  0  0  0  0  0  0  0  0  0
    1.0011   -2.2606    3.1255 C   0  0  0  0  0  0  0  0  0  0  0  0
   -0.1952   -2.1729    2.4870 F   0  0  0  0  0  0  0  0  0  0  0  0
    0.3683   -0.7916    4.9408 F   0  0  0  0  0  0  0  0  0  0  0  0
    2.1889   -5.2796    1.5555 C   0  0  0  0  0  0  0  0  0  0  0  0
    2.1982   -6.1973    2.9529 S   0  0  0  0  0  0  0  0  0  0  0  0
    1.5632   -2.0077   -0.1095 C   0  0  0  0  0  0  0  0  0  0  0  0
    1.2375   -1.8048   -1.4400 C   0  0  0  0  0  0  0  0  0  0  0  0
    1.3072   -3.2693   -2.2742 S   0  0  0  0  0  0  0  0  0  0  0  0
    0.8095   -0.5228   -1.9860 C   0  0  0  0  0  0  0  0  0  0  0  0
   -0.5079   -0.1631   -2.3105 C   0  0  0  0  0  0  0  0  0  0  0  0
   -1.6302   -1.0599   -2.2661 N   0  0  0  0  0  0  0  0  0  0  0  0
   -1.8085   -1.9795   -3.3584 C   0  0  0  0  0  0  0  0  0  0  0  0
   -1.9031   -1.4993   -4.6748 C   0  0  0  0  0  0  0  0  0  0  0  0
   -2.1381   -2.3809   -5.7314 C   0  0  0  0  0  0  0  0  0  0  0  0
   -2.2788   -3.7534   -5.4829 C   0  0  0  0  0  0  0  0  0  0  0  0
   -2.5863   -4.8888   -6.8370 S   0  0  0  0  0  0  0  0  0  0  0  0
   -4.3848   -4.6098   -6.8210 C   0  0  0  0  0  0  0  0  0  0  0  0
   -2.1575   -4.2422   -4.1744 C   0  0  0  0  0  0  0  0  0  0  0  0
   -1.9298   -3.3580   -3.1154 C   0  0  0  0  0  0  0  0  0  0  0  0
   -2.5832   -1.0001   -1.1733 C   0  0  0  0  0  0  0  0  0  0  0  0
   -3.8743   -1.5571   -1.3081 C   0  0  0  0  0  0  0  0  0  0  0  0
   -4.7895   -1.5009   -0.2542 C   0  0  0  0  0  0  0  0  0  0  0  0
   -4.4449   -0.8691    0.9446 C   0  0  0  0  0  0  0  0  0  0  0  0
   -5.6327   -0.7839    2.2843 S   0  0  0  0  0  0  0  0  0  0  0  0
   -6.3238    0.8047    1.7257 C   0  0  0  0  0  0  0  0  0  0  0  0
   -3.1694   -0.3119    1.0953 C   0  0  0  0  0  0  0  0  0  0  0  0
   -2.2453   -0.3794    0.0492 C   0  0  0  0  0  0  0  0  0  0  0  0
   -0.6066    1.2046   -2.5518 C   0  0  0  0  0  0  0  0  0  0  0  0
   -1.8272    2.2333   -3.0681 S   0  0  0  0  0  0  0  0  0  0  0  0
   -0.8271    3.6179   -3.1142 C   0  0  0  0  0  0  0  0  0  0  0  0
    0.4859    3.2464   -2.7486 C   0  0  0  0  0  0  0  0  0  0  0  0
    1.6603    4.0651   -2.8935 N   0  0  0  0  0  0  0  0  0  0  0  0
    2.3519    4.5801   -1.7234 C   0  0  0  0  0  0  0  0  0  0  0  0
    1.9582    4.2178   -0.4156 C   0  0  0  0  0  0  0  0  0  0  0  0
    2.6351    4.7170    0.6999 C   0  0  0  0  0  0  0  0  0  0  0  0
    3.7260    5.5704    0.5357 C   0  0  0  0  0  0  0  0  0  0  0  0
    4.6205    6.1663    1.9754 S   0  0  0  0  0  0  0  0  0  0  0  0
    3.7042    7.7352    2.0654 C   0  0  0  0  0  0  0  0  0  0  0  0
    4.1358    5.9347   -0.7494 C   0  0  0  0  0  0  0  0  0  0  0  0
    3.4408    5.4650   -1.8670 C   0  0  0  0  0  0  0  0  0  0  0  0
    2.3720    3.9420   -4.1386 C   0  0  0  0  0  0  0  0  0  0  0  0
    3.5699    3.2101   -4.1933 C   0  0  0  0  0  0  0  0  0  0  0  0
    4.2479    3.0505   -5.4047 C   0  0  0  0  0  0  0  0  0  0  0  0
    3.7332    3.6177   -6.5742 C   0  0  0  0  0  0  0  0  0  0  0  0
    4.5976    3.4008   -8.1299 S   0  0  0  0  0  0  0  0  0  0  0  0
    3.7599    1.8294   -8.5115 C   0  0  0  0  0  0  0  0  0  0  0  0
    2.5463    4.3604   -6.5263 C   0  0  0  0  0  0  0  0  0  0  0  0
    1.8685    4.5236   -5.3138 C   0  0  0  0  0  0  0  0  0  0  0  0
    0.5559    1.8940   -2.4398 C   0  0  0  0  0  0  0  0  0  0  0  0
    1.8019    0.8569   -2.0063 S   0  0  0  0  0  0  0  0  0  0  0  0
   -1.2246    4.8693   -3.7851 C   0  0  0  0  0  0  0  0  0  0  0  0
   -0.9382    6.0964   -3.3177 C   0  0  0  0  0  0  0  0  0  0  0  0
   -0.3309    6.3843   -2.0186 C   0  0  0  0  0  0  0  0  0  0  0  0
   -0.4901    5.7171   -0.9635 O   0  0  0  0  0  0  0  0  0  0  0  0
    0.4035    7.6281   -2.1190 C   0  0  0  0  0  0  0  0  0  0  0  0
    1.3526    8.1429   -1.2000 C   0  0  0  0  0  0  0  0  0  0  0  0
    2.0483    9.2414   -1.6693 C   0  0  0  0  0  0  0  0  0  0  0  0
    1.8162    9.8159   -2.9605 C   0  0  0  0  0  0  0  0  0  0  0  0
    0.8882    9.3247   -3.8601 C   0  0  0  0  0  0  0  0  0  0  0  0
    0.1594    8.1952   -3.3961 C   0  0  0  0  0  0  0  0  0  0  0  0
   -0.8100    7.3399   -4.1305 C   0  0  0  0  0  0  0  0  0  0  0  0
   -1.5598    7.6989   -5.2046 C   0  0  0  0  0  0  0  0  0  0  0  0
   -1.4473    8.9912   -5.8287 C   0  0  0  0  0  0  0  0  0  0  0  0
   -1.3690   10.0291   -6.3381 N   0  0  0  0  0  0  0  0  0  0  0  0
   -2.6181    6.8674   -5.7098 C   0  0  0  0  0  0  0  0  0  0  0  0
   -3.4717    6.2036   -6.1240 N   0  0  0  0  0  0  0  0  0  0  0  0
    2.9085   10.8119   -2.7364 C   0  0  0  0  0  0  0  0  0  0  0  0
    4.2389   10.5562   -3.5059 C   0  0  0  0  0  0  0  0  0  0  0  0
    5.2734   11.4318   -2.8412 C   0  0  0  0  0  0  0  0  0  0  0  0
    5.4996   10.9019   -1.6348 C   0  0  0  0  0  0  0  0  0  0  0  0
    4.6117    9.6865   -1.5279 C   0  0  0  0  0  0  0  0  0  0  0  0
    4.6935    9.2108   -2.9701 C   0  0  0  0  0  0  0  0  0  0  0  0
    3.1520   10.2244   -1.4125 C   0  0  0  0  0  0  0  0  0  0  0  0
   -2.5827   -9.8296    5.9223 H   0  0  0  0  0  0  0  0  0  0  0  0
   -0.9661   -3.8897    4.6485 H   0  0  0  0  0  0  0  0  0  0  0  0
   -4.5995   -5.0045    8.0566 H   0  0  0  0  0  0  0  0  0  0  0  0
   -2.9985   -2.0195    8.7217 H   0  0  0  0  0  0  0  0  0  0  0  0
   -5.4991   -1.4743    7.6508 H   0  0  0  0  0  0  0  0  0  0  0  0
   -4.4841    0.9125    8.2401 H   0  0  0  0  0  0  0  0  0  0  0  0
   -2.6359    1.4756    6.4859 H   0  0  0  0  0  0  0  0  0  0  0  0
   -2.4670   -0.5536    4.7762 H   0  0  0  0  0  0  0  0  0  0  0  0
   -4.5550   -2.1621    5.2340 H   0  0  0  0  0  0  0  0  0  0  0  0
   -5.0862   -0.4321    5.2446 H   0  0  0  0  0  0  0  0  0  0  0  0
   -1.3020   -1.4853    7.1293 H   0  0  0  0  0  0  0  0  0  0  0  0
    2.3342   -8.5455    4.7668 H   0  0  0  0  0  0  0  0  0  0  0  0
   -0.1155   -9.1873    1.2676 H   0  0  0  0  0  0  0  0  0  0  0  0
   -2.0074   -9.7375    2.6995 H   0  0  0  0  0  0  0  0  0  0  0  0
    1.7636   -8.2905    0.1229 H   0  0  0  0  0  0  0  0  0  0  0  0
    0.7598   -8.7826   -5.8332 H   0  0  0  0  0  0  0  0  0  0  0  0
   -0.0547   -9.5526   -4.4285 H   0  0  0  0  0  0  0  0  0  0  0  0
    1.5665  -11.1094   -5.4997 H   0  0  0  0  0  0  0  0  0  0  0  0
    2.0758  -10.7212   -3.8097 H   0  0  0  0  0  0  0  0  0  0  0  0
    2.9108   -9.9429   -5.2165 H   0  0  0  0  0  0  0  0  0  0  0  0
    4.2059   -1.3224    6.0597 H   0  0  0  0  0  0  0  0  0  0  0  0
    2.7500   -0.2965    6.2863 H   0  0  0  0  0  0  0  0  0  0  0  0
    3.0386   -3.2510    7.1458 H   0  0  0  0  0  0  0  0  0  0  0  0
    1.5523   -2.2304    7.3641 H   0  0  0  0  0  0  0  0  0  0  0  0
    3.0731   -1.8043    8.2274 H   0  0  0  0  0  0  0  0  0  0  0  0
    1.5676   -1.2108    0.6233 H   0  0  0  0  0  0  0  0  0  0  0  0
   -1.8134   -0.4404   -4.8771 H   0  0  0  0  0  0  0  0  0  0  0  0
   -2.2262   -1.9999   -6.7410 H   0  0  0  0  0  0  0  0  0  0  0  0
   -4.8567   -5.2540   -7.5887 H   0  0  0  0  0  0  0  0  0  0  0  0
   -4.8046   -4.8633   -5.8270 H   0  0  0  0  0  0  0  0  0  0  0  0
   -4.6034   -3.5488   -7.0610 H   0  0  0  0  0  0  0  0  0  0  0  0
   -2.2507   -5.3026   -3.9776 H   0  0  0  0  0  0  0  0  0  0  0  0
   -1.8489   -3.7430   -2.1045 H   0  0  0  0  0  0  0  0  0  0  0  0
   -4.1862   -2.0276   -2.2327 H   0  0  0  0  0  0  0  0  0  0  0  0
   -5.7740   -1.9380   -0.3768 H   0  0  0  0  0  0  0  0  0  0  0  0
   -6.7495    0.7004    0.7031 H   0  0  0  0  0  0  0  0  0  0  0  0
   -7.1323    1.1114    2.4206 H   0  0  0  0  0  0  0  0  0  0  0  0
   -5.5338    1.5849    1.7249 H   0  0  0  0  0  0  0  0  0  0  0  0
   -2.8962    0.1779    2.0232 H   0  0  0  0  0  0  0  0  0  0  0  0
   -1.2646    0.0530    0.1982 H   0  0  0  0  0  0  0  0  0  0  0  0
    1.1222    3.5529   -0.2436 H   0  0  0  0  0  0  0  0  0  0  0  0
    2.3153    4.4265    1.6930 H   0  0  0  0  0  0  0  0  0  0  0  0
    4.0091    8.2800    2.9812 H   0  0  0  0  0  0  0  0  0  0  0  0
    2.6117    7.5534    2.1018 H   0  0  0  0  0  0  0  0  0  0  0  0
    3.9473    8.3583    1.1881 H   0  0  0  0  0  0  0  0  0  0  0  0
    4.9931    6.5806   -0.8854 H   0  0  0  0  0  0  0  0  0  0  0  0
    3.7621    5.7907   -2.8486 H   0  0  0  0  0  0  0  0  0  0  0  0
    3.9712    2.7544   -3.2962 H   0  0  0  0  0  0  0  0  0  0  0  0
    5.1664    2.4789   -5.4300 H   0  0  0  0  0  0  0  0  0  0  0  0
    2.6605    1.9853   -8.5645 H   0  0  0  0  0  0  0  0  0  0  0  0
    3.9914    1.0729   -7.7304 H   0  0  0  0  0  0  0  0  0  0  0  0
    4.1159    1.4536   -9.4939 H   0  0  0  0  0  0  0  0  0  0  0  0
    2.1515    4.8125   -7.4266 H   0  0  0  0  0  0  0  0  0  0  0  0
    0.9648    5.1122   -5.2961 H   0  0  0  0  0  0  0  0  0  0  0  0
   -1.6155    4.7423   -4.7829 H   0  0  0  0  0  0  0  0  0  0  0  0
    1.5701    7.6764   -0.2495 H   0  0  0  0  0  0  0  0  0  0  0  0
    0.8130    9.7374   -4.8542 H   0  0  0  0  0  0  0  0  0  0  0  0
    2.5499   11.8660   -2.7246 H   0  0  0  0  0  0  0  0  0  0  0  0
    4.1813   10.6476   -4.6095 H   0  0  0  0  0  0  0  0  0  0  0  0
    5.8131   12.2642   -3.2805 H   0  0  0  0  0  0  0  0  0  0  0  0
    6.2503   11.2303   -0.9247 H   0  0  0  0  0  0  0  0  0  0  0  0
    4.9287    8.9481   -0.7661 H   0  0  0  0  0  0  0  0  0  0  0  0
    5.7299    8.9358   -3.2889 H   0  0  0  0  0  0  0  0  0  0  0  0
    4.0094    8.3690   -3.2121 H   0  0  0  0  0  0  0  0  0  0  0  0
    2.9568   10.9121   -0.5585 H   0  0  0  0  0  0  0  0  0  0  0  0
  1  2  2  3
  2  3  1  0
  3  4  2  0
  3  5  1  0
  5  6  2  0
  6  7  1  0
  7  8  2  0
  8  9  1  0
  9 10  2  0
 10 11  1  0
 11 12  2  3
 12 13  1  0
 13 14  3  0
 12 15  1  0
 15 16  3  0
  8 17  1  0
 17 18  1  0
 18 19  1  0
 19 20  2  0
 20 21  1  0
 21 22  1  0
 21 23  1  0
  1 24  1  0
 24 25  2  0
 25 26  1  0
 25 27  1  0
 27 28  2  0
 28 29  1  0
 29 30  2  0
 28 31  1  0
 31 32  2  0
 32 33  1  0
 33 34  2  0
 34 35  1  0
 35 36  1  0
 36 37  1  0
 37 38  1  0
 38 39  1  0
 37 40  2  0
 40 41  1  0
 40 42  1  0
 42 43  1  0
 34 44  1  0
 44 45  2  0
 45 46  1  0
 46 47  1  0
 47 48  1  0
 48 49  1  0
 49 50  1  0
 50 51  1  0
 49 52  2  0
 52 53  1  0
 53 54  1  0
 52 55  1  0
 46 56  2  0
 56 57  1  0
 45 58  1  0
 58 59  2  0
 59 60  1  0
 59 61  1  0
 61 62  2  0
 62 63  1  0
 63 64  1  0
 64 65  2  0
 65 66  1  0
 66 67  2  0
 67 68  1  0
 68 69  1  0
 67 70  1  0
 70 71  2  0
 63 72  1  0
 72 73  2  0
 73 74  1  0
 74 75  2  0
 75 76  1  0
 76 77  1  0
 75 78  1  0
 78 79  2  0
 62 80  1  0
 80 81  1  0
 81 82  1  0
 82 83  2  0
 83 84  1  0
 84 85  1  0
 85 86  2  0
 86 87  1  0
 87 88  2  0
 88 89  1  0
 89 90  1  0
 88 91  1  0
 91 92  2  0
 84 93  1  0
 93 94  2  0
 94 95  1  0
 95 96  2  0
 96 97  1  0
 97 98  1  0
 96 99  1  0
 99100  2  0
 83101  1  0
101102  1  0
 82103  1  0
103104  2  3
104105  1  0
105106  2  0
105107  1  0
107108  2  0
108109  1  0
109110  2  0
110111  1  0
111112  2  0
112113  1  0
113114  2  3
114115  1  0
115116  3  0
114117  1  0
117118  3  0
110119  1  0
119120  1  0
120121  1  0
121122  2  0
122123  1  0
123124  1  0
123125  1  0
 11  2  1  0
 23 17  1  0
 30 24  1  0
 57 31  1  0
102 61  1  0
113104  1  0
125119  1  0
 10  5  1  0
 22 18  1  0
 56 33  1  0
 71 64  1  0
 79 72  1  0
101 80  2  0
112107  1  0
124120  1  0
 23  7  1  0
 42 35  2  0
 60 44  1  0
 92 85  1  0
100 93  1  0
125109  1  0
 53 47  2  0
  1126  1  0
  6127  1  0
  9128  1  0
 17129  1  0
 18130  1  0
 19131  1  0
 20132  1  0
 21133  1  0
 22134  1  0
 22135  1  0
 23136  1  0
 27137  1  0
 29138  1  0
 30139  1  0
 32140  1  0
 38141  1  0
 38142  1  0
 39143  1  0
 39144  1  0
 39145  1  0
 50146  1  0
 50147  1  0
 51148  1  0
 51149  1  0
 51150  1  0
 58151  1  0
 65152  1  0
 66153  1  0
 69154  1  0
 69155  1  0
 69156  1  0
 70157  1  0
 71158  1  0
 73159  1  0
 74160  1  0
 77161  1  0
 77162  1  0
 77163  1  0
 78164  1  0
 79165  1  0
 86166  1  0
 87167  1  0
 90168  1  0
 90169  1  0
 90170  1  0
 91171  1  0
 92172  1  0
 94173  1  0
 95174  1  0
 98175  1  0
 98176  1  0
 98177  1  0
 99178  1  0
100179  1  0
103180  1  0
108181  1  0
111182  1  0
119183  1  0
120184  1  0
121185  1  0
122186  1  0
123187  1  0
124188  1  0
124189  1  0
125190  1  0
M  END

