
     RDKit          3D

145159  0  0  0  0  0  0  0  0999 V2000
    3.5726   -6.1712   -1.2589 C   0  0  0  0  0  0  0  0  0  0  0  0
    4.6204   -5.5979   -0.6278 C   0  0  0  0  0  0  0  0  0  0  0  0
    4.5117   -4.5283    0.3721 C   0  0  0  0  0  0  0  0  0  0  0  0
    3.4725   -3.8958    0.6838 O   0  0  0  0  0  0  0  0  0  0  0  0
    5.8184   -4.2638    0.9177 C   0  0  0  0  0  0  0  0  0  0  0  0
    6.1440   -3.2565    1.8503 C   0  0  0  0  0  0  0  0  0  0  0  0
    7.4997   -3.0902    2.0468 C   0  0  0  0  0  0  0  0  0  0  0  0
    8.4909   -3.8685    1.3741 C   0  0  0  0  0  0  0  0  0  0  0  0
    8.1795   -4.8902    0.4885 C   0  0  0  0  0  0  0  0  0  0  0  0
    6.7785   -5.0886    0.2746 C   0  0  0  0  0  0  0  0  0  0  0  0
    6.0756   -5.9490   -0.7368 C   0  0  0  0  0  0  0  0  0  0  0  0
    6.6600   -6.6965   -1.7108 C   0  0  0  0  0  0  0  0  0  0  0  0
    8.0584   -7.0404   -1.7075 C   0  0  0  0  0  0  0  0  0  0  0  0
    9.1826   -7.3099   -1.7322 N   0  0  0  0  0  0  0  0  0  0  0  0
    5.9803   -6.9935   -2.9455 C   0  0  0  0  0  0  0  0  0  0  0  0
    5.4564   -7.1893   -3.9628 N   0  0  0  0  0  0  0  0  0  0  0  0
    9.5830   -3.0555    2.0079 C   0  0  0  0  0  0  0  0  0  0  0  0
   10.3945   -3.7359    3.1475 C   0  0  0  0  0  0  0  0  0  0  0  0
   11.0935   -2.6177    3.8852 C   0  0  0  0  0  0  0  0  0  0  0  0
   10.1490   -1.9358    4.5466 C   0  0  0  0  0  0  0  0  0  0  0  0
    8.8429   -2.6174    4.2245 C   0  0  0  0  0  0  0  0  0  0  0  0
    9.3274   -4.0551    4.1811 C   0  0  0  0  0  0  0  0  0  0  0  0
    8.5664   -2.2875    2.7240 C   0  0  0  0  0  0  0  0  0  0  0  0
    2.2475   -5.5274   -1.2929 C   0  0  0  0  0  0  0  0  0  0  0  0
    1.9652   -4.6078   -2.3175 C   0  0  0  0  0  0  0  0  0  0  0  0
    2.8280   -4.4573   -3.3503 F   0  0  0  0  0  0  0  0  0  0  0  0
    0.8698   -3.7504   -2.2083 C   0  0  0  0  0  0  0  0  0  0  0  0
    0.0483   -3.8015   -1.0718 C   0  0  0  0  0  0  0  0  0  0  0  0
    0.2618   -4.7966   -0.1065 C   0  0  0  0  0  0  0  0  0  0  0  0
    1.3578   -5.6595   -0.2159 C   0  0  0  0  0  0  0  0  0  0  0  0
   -0.8207   -2.6494   -0.7724 C   0  0  0  0  0  0  0  0  0  0  0  0
   -0.4641   -1.6310    0.1250 C   0  0  0  0  0  0  0  0  0  0  0  0
    0.4266   -1.8076    1.2382 N   0  0  0  0  0  0  0  0  0  0  0  0
   -0.0684   -2.5352    2.3945 C   0  0  0  0  0  0  0  0  0  0  0  0
   -1.4468   -2.5369    2.7023 C   0  0  0  0  0  0  0  0  0  0  0  0
   -1.9210   -3.2354    3.8116 C   0  0  0  0  0  0  0  0  0  0  0  0
   -1.0421   -3.9414    4.6326 C   0  0  0  0  0  0  0  0  0  0  0  0
   -1.6739   -4.8242    6.0590 S   0  0  0  0  0  0  0  0  0  0  0  0
   -1.5903   -3.3813    7.1596 C   0  0  0  0  0  0  0  0  0  0  0  0
    0.3269   -3.9512    4.3362 C   0  0  0  0  0  0  0  0  0  0  0  0
    0.8128   -3.2645    3.2172 C   0  0  0  0  0  0  0  0  0  0  0  0
    1.6841   -1.0935    1.2547 C   0  0  0  0  0  0  0  0  0  0  0  0
    2.4162   -0.9164    0.0630 C   0  0  0  0  0  0  0  0  0  0  0  0
    3.6107   -0.1937    0.0657 C   0  0  0  0  0  0  0  0  0  0  0  0
    4.0951    0.3578    1.2554 C   0  0  0  0  0  0  0  0  0  0  0  0
    5.6181    1.3162    1.2449 S   0  0  0  0  0  0  0  0  0  0  0  0
    4.7459    2.9162    1.2139 C   0  0  0  0  0  0  0  0  0  0  0  0
    3.3912    0.1682    2.4482 C   0  0  0  0  0  0  0  0  0  0  0  0
    2.1831   -0.5390    2.4460 C   0  0  0  0  0  0  0  0  0  0  0  0
   -1.2296   -0.4986   -0.0575 C   0  0  0  0  0  0  0  0  0  0  0  0
   -1.2379    1.0222    0.6474 S   0  0  0  0  0  0  0  0  0  0  0  0
   -2.5387    1.5667   -0.3099 C   0  0  0  0  0  0  0  0  0  0  0  0
   -2.9703    0.5405   -1.1715 C   0  0  0  0  0  0  0  0  0  0  0  0
   -4.1712    0.5949   -1.9538 N   0  0  0  0  0  0  0  0  0  0  0  0
   -5.3969    0.0624   -1.3845 C   0  0  0  0  0  0  0  0  0  0  0  0
   -6.3773   -0.5365   -2.2089 C   0  0  0  0  0  0  0  0  0  0  0  0
   -7.5361   -1.0888   -1.6483 C   0  0  0  0  0  0  0  0  0  0  0  0
   -7.7230   -1.0751   -0.2599 C   0  0  0  0  0  0  0  0  0  0  0  0
   -9.1521   -1.8847    0.4704 S   0  0  0  0  0  0  0  0  0  0  0  0
  -10.1858   -0.3833    0.4972 C   0  0  0  0  0  0  0  0  0  0  0  0
   -6.7679   -0.4767    0.5591 C   0  0  0  0  0  0  0  0  0  0  0  0
   -5.6119    0.0789    0.0079 C   0  0  0  0  0  0  0  0  0  0  0  0
   -4.1187    1.0654   -3.3129 C   0  0  0  0  0  0  0  0  0  0  0  0
   -3.1401    0.5806   -4.2033 C   0  0  0  0  0  0  0  0  0  0  0  0
   -3.1991    0.9026   -5.5643 C   0  0  0  0  0  0  0  0  0  0  0  0
   -4.2137    1.7441   -6.0422 C   0  0  0  0  0  0  0  0  0  0  0  0
   -4.3318    2.0938   -7.8002 S   0  0  0  0  0  0  0  0  0  0  0  0
   -5.4591    0.7019   -8.1162 C   0  0  0  0  0  0  0  0  0  0  0  0
   -5.1471    2.2879   -5.1512 C   0  0  0  0  0  0  0  0  0  0  0  0
   -5.1045    1.9450   -3.7971 C   0  0  0  0  0  0  0  0  0  0  0  0
   -2.1952   -0.6024   -1.0077 C   0  0  0  0  0  0  0  0  0  0  0  0
   -2.1047   -2.1059   -1.7615 S   0  0  0  0  0  0  0  0  0  0  0  0
   -2.9548    2.9687   -0.3564 C   0  0  0  0  0  0  0  0  0  0  0  0
   -2.2489    3.8579   -1.1772 C   0  0  0  0  0  0  0  0  0  0  0  0
   -1.2939    3.3979   -2.0294 F   0  0  0  0  0  0  0  0  0  0  0  0
   -2.4846    5.2318   -1.0872 C   0  0  0  0  0  0  0  0  0  0  0  0
   -3.5047    5.7257   -0.2501 C   0  0  0  0  0  0  0  0  0  0  0  0
   -4.2028    4.8282    0.5691 C   0  0  0  0  0  0  0  0  0  0  0  0
   -3.9169    3.4596    0.5321 C   0  0  0  0  0  0  0  0  0  0  0  0
   -3.7387    7.1777   -0.1040 C   0  0  0  0  0  0  0  0  0  0  0  0
   -3.6691    8.0789   -1.1092 C   0  0  0  0  0  0  0  0  0  0  0  0
   -3.7767    7.7795   -2.5413 C   0  0  0  0  0  0  0  0  0  0  0  0
   -3.9344    6.6365   -3.0584 O   0  0  0  0  0  0  0  0  0  0  0  0
   -3.8808    9.0244   -3.2690 C   0  0  0  0  0  0  0  0  0  0  0  0
   -3.9365    9.2181   -4.6531 C   0  0  0  0  0  0  0  0  0  0  0  0
   -3.8648    7.8846   -5.7969 Cl  0  0  0  0  0  0  0  0  0  0  0  0
   -4.0290   10.5319   -5.1358 C   0  0  0  0  0  0  0  0  0  0  0  0
   -4.0761   11.6121   -4.2413 C   0  0  0  0  0  0  0  0  0  0  0  0
   -4.0083   11.3963   -2.8545 C   0  0  0  0  0  0  0  0  0  0  0  0
   -3.8948   10.0801   -2.3735 C   0  0  0  0  0  0  0  0  0  0  0  0
   -3.7023    9.5688   -0.9853 C   0  0  0  0  0  0  0  0  0  0  0  0
   -3.3818   10.2935    0.1224 C   0  0  0  0  0  0  0  0  0  0  0  0
   -3.4588   11.7367    0.1750 C   0  0  0  0  0  0  0  0  0  0  0  0
   -3.5055   12.8920    0.2472 N   0  0  0  0  0  0  0  0  0  0  0  0
   -2.8063    9.6835    1.2944 C   0  0  0  0  0  0  0  0  0  0  0  0
   -2.3312    9.1769    2.2262 N   0  0  0  0  0  0  0  0  0  0  0  0
    3.7114   -7.0274   -1.8986 H   0  0  0  0  0  0  0  0  0  0  0  0
    5.4010   -2.6167    2.3092 H   0  0  0  0  0  0  0  0  0  0  0  0
    8.9673   -5.4328   -0.0064 H   0  0  0  0  0  0  0  0  0  0  0  0
   10.1779   -2.4607    1.2766 H   0  0  0  0  0  0  0  0  0  0  0  0
   11.0364   -4.5856    2.8332 H   0  0  0  0  0  0  0  0  0  0  0  0
   12.1634   -2.4383    3.9440 H   0  0  0  0  0  0  0  0  0  0  0  0
   10.3171   -1.1109    5.2286 H   0  0  0  0  0  0  0  0  0  0  0  0
    8.0099   -2.3962    4.9278 H   0  0  0  0  0  0  0  0  0  0  0  0
    9.7581   -4.4074    5.1514 H   0  0  0  0  0  0  0  0  0  0  0  0
    8.5532   -4.7746    3.8296 H   0  0  0  0  0  0  0  0  0  0  0  0
    8.5328   -1.2070    2.4777 H   0  0  0  0  0  0  0  0  0  0  0  0
    0.7425   -2.9682   -2.9454 H   0  0  0  0  0  0  0  0  0  0  0  0
   -0.3672   -4.8467    0.7689 H   0  0  0  0  0  0  0  0  0  0  0  0
    1.5664   -6.3636    0.5838 H   0  0  0  0  0  0  0  0  0  0  0  0
   -2.1557   -1.9940    2.0914 H   0  0  0  0  0  0  0  0  0  0  0  0
   -2.9833   -3.2224    4.0259 H   0  0  0  0  0  0  0  0  0  0  0  0
   -2.1538   -2.5242    6.7257 H   0  0  0  0  0  0  0  0  0  0  0  0
   -2.0509   -3.6425    8.1376 H   0  0  0  0  0  0  0  0  0  0  0  0
   -0.5362   -3.0957    7.3217 H   0  0  0  0  0  0  0  0  0  0  0  0
    1.0120   -4.4941    4.9765 H   0  0  0  0  0  0  0  0  0  0  0  0
    1.8704   -3.3016    2.9960 H   0  0  0  0  0  0  0  0  0  0  0  0
    2.0658   -1.3476   -0.8680 H   0  0  0  0  0  0  0  0  0  0  0  0
    4.1635   -0.0563   -0.8603 H   0  0  0  0  0  0  0  0  0  0  0  0
    3.9864    2.9281    0.4070 H   0  0  0  0  0  0  0  0  0  0  0  0
    4.2430    3.0881    2.1850 H   0  0  0  0  0  0  0  0  0  0  0  0
    5.4766    3.7289    1.0339 H   0  0  0  0  0  0  0  0  0  0  0  0
    3.7637    0.5875    3.3724 H   0  0  0  0  0  0  0  0  0  0  0  0
    1.6281   -0.6200    3.3710 H   0  0  0  0  0  0  0  0  0  0  0  0
   -6.2390   -0.5843   -3.2786 H   0  0  0  0  0  0  0  0  0  0  0  0
   -8.2734   -1.5536   -2.2934 H   0  0  0  0  0  0  0  0  0  0  0  0
  -10.6794   -0.2547   -0.4936 H   0  0  0  0  0  0  0  0  0  0  0  0
   -9.5860    0.5213    0.7395 H   0  0  0  0  0  0  0  0  0  0  0  0
  -10.9743   -0.4948    1.2787 H   0  0  0  0  0  0  0  0  0  0  0  0
   -6.9175   -0.4598    1.6343 H   0  0  0  0  0  0  0  0  0  0  0  0
   -4.8943    0.5220    0.6789 H   0  0  0  0  0  0  0  0  0  0  0  0
   -2.3690   -0.0942   -3.8570 H   0  0  0  0  0  0  0  0  0  0  0  0
   -2.4727    0.4831   -6.2476 H   0  0  0  0  0  0  0  0  0  0  0  0
   -6.4297    0.8686   -7.5984 H   0  0  0  0  0  0  0  0  0  0  0  0
   -5.0033   -0.2492   -7.7642 H   0  0  0  0  0  0  0  0  0  0  0  0
   -5.6463    0.6251   -9.2097 H   0  0  0  0  0  0  0  0  0  0  0  0
   -5.9354    2.9299   -5.5181 H   0  0  0  0  0  0  0  0  0  0  0  0
   -5.8504    2.3448   -3.1249 H   0  0  0  0  0  0  0  0  0  0  0  0
   -1.8845    5.9104   -1.6744 H   0  0  0  0  0  0  0  0  0  0  0  0
   -4.9643    5.1857    1.2518 H   0  0  0  0  0  0  0  0  0  0  0  0
   -4.4324    2.7895    1.2076 H   0  0  0  0  0  0  0  0  0  0  0  0
   -3.9820    7.5194    0.8891 H   0  0  0  0  0  0  0  0  0  0  0  0
   -4.0707   10.7206   -6.2031 H   0  0  0  0  0  0  0  0  0  0  0  0
   -4.1634   12.6202   -4.6264 H   0  0  0  0  0  0  0  0  0  0  0  0
   -4.0718   12.2473   -2.2084 H   0  0  0  0  0  0  0  0  0  0  0  0
  1  2  2  3
  2  3  1  0
  3  4  2  0
  3  5  1  0
  5  6  2  0
  6  7  1  0
  7  8  2  0
  8  9  1  0
  9 10  2  0
 10 11  1  0
 11 12  2  3
 12 13  1  0
 13 14  3  0
 12 15  1  0
 15 16  3  0
  8 17  1  0
 17 18  1  0
 18 19  1  0
 19 20  2  0
 20 21  1  0
 21 22  1  0
 21 23  1  0
  1 24  1  0
 24 25  2  0
 25 26  1  0
 25 27  1  0
 27 28  2  0
 28 29  1  0
 29 30  2  0
 28 31  1  0
 31 32  2  0
 32 33  1  0
 33 34  1  0
 34 35  2  0
 35 36  1  0
 36 37  2  0
 37 38  1  0
 38 39  1  0
 37 40  1  0
 40 41  2  0
 33 42  1  0
 42 43  2  0
 43 44  1  0
 44 45  2  0
 45 46  1  0
 46 47  1  0
 45 48  1  0
 48 49  2  0
 32 50  1  0
 50 51  1  0
 51 52  1  0
 52 53  2  0
 53 54  1  0
 54 55  1  0
 55 56  2  0
 56 57  1  0
 57 58  2  0
 58 59  1  0
 59 60  1  0
 58 61  1  0
 61 62  2  0
 54 63  1  0
 63 64  2  0
 64 65  1  0
 65 66  2  0
 66 67  1  0
 67 68  1  0
 66 69  1  0
 69 70  2  0
 53 71  1  0
 71 72  1  0
 52 73  1  0
 73 74  2  0
 74 75  1  0
 74 76  1  0
 76 77  2  0
 77 78  1  0
 78 79  2  0
 77 80  1  0
 80 81  2  3
 81 82  1  0
 82 83  2  0
 82 84  1  0
 84 85  2  0
 85 86  1  0
 85 87  1  0
 87 88  2  0
 88 89  1  0
 89 90  2  0
 90 91  1  0
 91 92  2  3
 92 93  1  0
 93 94  3  0
 92 95  1  0
 95 96  3  0
 11  2  1  0
 23 17  1  0
 30 24  1  0
 72 31  1  0
 79 73  1  0
 91 81  1  0
 10  5  1  0
 22 18  1  0
 41 34  1  0
 49 42  1  0
 71 50  2  0
 90 84  1  0
 23  7  1  0
 62 55  1  0
 70 63  1  0
  1 97  1  0
  6 98  1  0
  9 99  1  0
 17100  1  0
 18101  1  0
 19102  1  0
 20103  1  0
 21104  1  0
 22105  1  0
 22106  1  0
 23107  1  0
 27108  1  0
 29109  1  0
 30110  1  0
 35111  1  0
 36112  1  0
 39113  1  0
 39114  1  0
 39115  1  0
 40116  1  0
 41117  1  0
 43118  1  0
 44119  1  0
 47120  1  0
 47121  1  0
 47122  1  0
 48123  1  0
 49124  1  0
 56125  1  0
 57126  1  0
 60127  1  0
 60128  1  0
 60129  1  0
 61130  1  0
 62131  1  0
 64132  1  0
 65133  1  0
 68134  1  0
 68135  1  0
 68136  1  0
 69137  1  0
 70138  1  0
 76139  1  0
 78140  1  0
 79141  1  0
 80142  1  0
 87143  1  0
 88144  1  0
 89145  1  0
M  END

