
     RDKit          3D

146160  0  0  0  0  0  0  0  0999 V2000
    7.6412   -1.9112    2.0364 C   0  0  0  0  0  0  0  0  0  0  0  0
    7.0501   -1.8627    3.2498 C   0  0  0  0  0  0  0  0  0  0  0  0
    5.5984   -1.7135    3.4672 C   0  0  0  0  0  0  0  0  0  0  0  0
    4.6750   -1.9815    2.6477 O   0  0  0  0  0  0  0  0  0  0  0  0
    5.3743   -1.2006    4.7927 C   0  0  0  0  0  0  0  0  0  0  0  0
    4.1422   -0.7506    5.3169 C   0  0  0  0  0  0  0  0  0  0  0  0
    4.2395   -0.2043    6.5767 C   0  0  0  0  0  0  0  0  0  0  0  0
    5.4677   -0.1199    7.3039 C   0  0  0  0  0  0  0  0  0  0  0  0
    6.6845   -0.5558    6.7920 C   0  0  0  0  0  0  0  0  0  0  0  0
    6.6113   -1.1131    5.4793 C   0  0  0  0  0  0  0  0  0  0  0  0
    7.6992   -1.6118    4.5771 C   0  0  0  0  0  0  0  0  0  0  0  0
    8.9737   -1.9348    4.9279 C   0  0  0  0  0  0  0  0  0  0  0  0
    9.8655   -2.6199    4.0246 C   0  0  0  0  0  0  0  0  0  0  0  0
   10.5864   -3.1686    3.3049 N   0  0  0  0  0  0  0  0  0  0  0  0
    9.4855   -1.7371    6.2596 C   0  0  0  0  0  0  0  0  0  0  0  0
    9.9213   -1.5896    7.3227 N   0  0  0  0  0  0  0  0  0  0  0  0
    4.7514    0.5203    8.4608 C   0  0  0  0  0  0  0  0  0  0  0  0
    4.4641   -0.3828    9.6995 C   0  0  0  0  0  0  0  0  0  0  0  0
    3.4221    0.3512   10.5121 C   0  0  0  0  0  0  0  0  0  0  0  0
    2.2841    0.2961    9.8094 C   0  0  0  0  0  0  0  0  0  0  0  0
    2.5947   -0.4785    8.5528 C   0  0  0  0  0  0  0  0  0  0  0  0
    3.5816   -1.4814    9.1316 C   0  0  0  0  0  0  0  0  0  0  0  0
    3.5027    0.4515    7.6988 C   0  0  0  0  0  0  0  0  0  0  0  0
    6.8315   -1.8608    0.8057 C   0  0  0  0  0  0  0  0  0  0  0  0
    6.4330   -0.6078    0.3196 C   0  0  0  0  0  0  0  0  0  0  0  0
    7.0780    0.5182    0.7166 F   0  0  0  0  0  0  0  0  0  0  0  0
    5.2377   -0.4903   -0.3876 C   0  0  0  0  0  0  0  0  0  0  0  0
    4.4474   -1.6241   -0.6280 C   0  0  0  0  0  0  0  0  0  0  0  0
    4.9603   -2.8975   -0.3446 C   0  0  0  0  0  0  0  0  0  0  0  0
    6.1538   -3.0167    0.3739 C   0  0  0  0  0  0  0  0  0  0  0  0
    2.9935   -1.4440   -0.7086 C   0  0  0  0  0  0  0  0  0  0  0  0
    2.1174   -1.8866   -1.7071 C   0  0  0  0  0  0  0  0  0  0  0  0
    2.5316   -2.4008   -2.9808 N   0  0  0  0  0  0  0  0  0  0  0  0
    2.7785   -3.8170   -3.1525 C   0  0  0  0  0  0  0  0  0  0  0  0
    3.6594   -4.2712   -4.1509 C   0  0  0  0  0  0  0  0  0  0  0  0
    3.8568   -5.6415   -4.3546 C   0  0  0  0  0  0  0  0  0  0  0  0
    3.1941   -6.5741   -3.5495 C   0  0  0  0  0  0  0  0  0  0  0  0
    3.4203   -8.3322   -3.8267 S   0  0  0  0  0  0  0  0  0  0  0  0
    1.9418   -8.4725   -4.8790 C   0  0  0  0  0  0  0  0  0  0  0  0
    2.3576   -6.1321   -2.5226 C   0  0  0  0  0  0  0  0  0  0  0  0
    2.1453   -4.7647   -2.3247 C   0  0  0  0  0  0  0  0  0  0  0  0
    2.5101   -1.4937   -4.1040 C   0  0  0  0  0  0  0  0  0  0  0  0
    1.8764   -1.8563   -5.3065 C   0  0  0  0  0  0  0  0  0  0  0  0
    1.7955   -0.9420   -6.3631 C   0  0  0  0  0  0  0  0  0  0  0  0
    2.3473    0.3357   -6.2292 C   0  0  0  0  0  0  0  0  0  0  0  0
    2.2341    1.5077   -7.5829 S   0  0  0  0  0  0  0  0  0  0  0  0
    0.7832    2.3643   -6.8934 C   0  0  0  0  0  0  0  0  0  0  0  0
    2.9956    0.6932   -5.0462 C   0  0  0  0  0  0  0  0  0  0  0  0
    3.0658   -0.2098   -3.9823 C   0  0  0  0  0  0  0  0  0  0  0  0
    0.8026   -1.5407   -1.4007 C   0  0  0  0  0  0  0  0  0  0  0  0
   -0.6739   -1.6602   -2.1860 S   0  0  0  0  0  0  0  0  0  0  0  0
   -1.5461   -0.8279   -0.9700 C   0  0  0  0  0  0  0  0  0  0  0  0
   -0.6511   -0.4628    0.0526 C   0  0  0  0  0  0  0  0  0  0  0  0
   -0.9715    0.3549    1.1853 N   0  0  0  0  0  0  0  0  0  0  0  0
   -0.4601    1.7046    1.2291 C   0  0  0  0  0  0  0  0  0  0  0  0
   -0.4568    2.4950    0.0664 C   0  0  0  0  0  0  0  0  0  0  0  0
    0.0811    3.7822    0.0850 C   0  0  0  0  0  0  0  0  0  0  0  0
    0.6448    4.2917    1.2589 C   0  0  0  0  0  0  0  0  0  0  0  0
    1.3633    5.9342    1.2651 S   0  0  0  0  0  0  0  0  0  0  0  0
    3.0008    5.3542    0.7112 C   0  0  0  0  0  0  0  0  0  0  0  0
    0.6467    3.5152    2.4227 C   0  0  0  0  0  0  0  0  0  0  0  0
    0.0981    2.2275    2.4101 C   0  0  0  0  0  0  0  0  0  0  0  0
   -1.6821   -0.2196    2.3017 C   0  0  0  0  0  0  0  0  0  0  0  0
   -2.6386    0.5358    3.0013 C   0  0  0  0  0  0  0  0  0  0  0  0
   -3.3428   -0.0245    4.0700 C   0  0  0  0  0  0  0  0  0  0  0  0
   -3.0969   -1.3466    4.4559 C   0  0  0  0  0  0  0  0  0  0  0  0
   -4.0137   -2.0733    5.8143 S   0  0  0  0  0  0  0  0  0  0  0  0
   -5.3327   -2.7020    4.7310 C   0  0  0  0  0  0  0  0  0  0  0  0
   -2.1281   -2.0993    3.7834 C   0  0  0  0  0  0  0  0  0  0  0  0
   -1.4274   -1.5402    2.7112 C   0  0  0  0  0  0  0  0  0  0  0  0
    0.6408   -0.8795   -0.2310 C   0  0  0  0  0  0  0  0  0  0  0  0
    2.1167   -0.6522    0.5176 S   0  0  0  0  0  0  0  0  0  0  0  0
   -2.9424   -0.3686   -1.0992 C   0  0  0  0  0  0  0  0  0  0  0  0
   -3.8248   -0.9579   -2.0143 C   0  0  0  0  0  0  0  0  0  0  0  0
   -5.0960   -0.4151   -2.1841 C   0  0  0  0  0  0  0  0  0  0  0  0
   -5.4519    0.7250   -1.4529 C   0  0  0  0  0  0  0  0  0  0  0  0
   -4.5753    1.2369   -0.5475 N   0  0  0  0  0  0  0  0  0  0  0  0
   -3.3651    0.7092   -0.3777 N   0  0  0  0  0  0  0  0  0  0  0  0
   -6.7381    1.3967   -1.6544 C   0  0  0  0  0  0  0  0  0  0  0  0
   -7.0091    2.1704   -2.7226 C   0  0  0  0  0  0  0  0  0  0  0  0
   -6.1676    2.3050   -3.9201 C   0  0  0  0  0  0  0  0  0  0  0  0
   -4.9783    1.9008   -4.0582 O   0  0  0  0  0  0  0  0  0  0  0  0
   -6.9665    2.8949   -4.9718 C   0  0  0  0  0  0  0  0  0  0  0  0
   -6.6216    3.0853   -6.3115 C   0  0  0  0  0  0  0  0  0  0  0  0
   -7.6044    3.5513   -7.1944 C   0  0  0  0  0  0  0  0  0  0  0  0
   -8.9232    3.7738   -6.7409 C   0  0  0  0  0  0  0  0  0  0  0  0
  -10.0007    4.1765   -7.7019 C   0  0  0  0  0  0  0  0  0  0  0  0
   -9.2416    3.5730   -5.3811 C   0  0  0  0  0  0  0  0  0  0  0  0
   -8.2361    3.1625   -4.4935 C   0  0  0  0  0  0  0  0  0  0  0  0
   -8.3001    2.8533   -3.0364 C   0  0  0  0  0  0  0  0  0  0  0  0
   -9.2087    3.3351   -2.1477 C   0  0  0  0  0  0  0  0  0  0  0  0
  -10.3237    4.1563   -2.5486 C   0  0  0  0  0  0  0  0  0  0  0  0
  -11.2234    4.8197   -2.8526 N   0  0  0  0  0  0  0  0  0  0  0  0
   -9.0434    3.1989   -0.7241 C   0  0  0  0  0  0  0  0  0  0  0  0
   -8.9130    3.0884    0.4215 N   0  0  0  0  0  0  0  0  0  0  0  0
    8.7102   -1.7853    1.9251 H   0  0  0  0  0  0  0  0  0  0  0  0
    3.2119   -0.7951    4.7680 H   0  0  0  0  0  0  0  0  0  0  0  0
    7.5924   -0.4191    7.3526 H   0  0  0  0  0  0  0  0  0  0  0  0
    5.1044    1.5513    8.6866 H   0  0  0  0  0  0  0  0  0  0  0  0
    5.3523   -0.7219   10.2736 H   0  0  0  0  0  0  0  0  0  0  0  0
    3.5328    0.7674   11.5079 H   0  0  0  0  0  0  0  0  0  0  0  0
    1.3131    0.6569   10.1353 H   0  0  0  0  0  0  0  0  0  0  0  0
    1.7142   -0.9094    8.0290 H   0  0  0  0  0  0  0  0  0  0  0  0
    4.0801   -2.1241    8.3685 H   0  0  0  0  0  0  0  0  0  0  0  0
    3.1289   -2.1408    9.9113 H   0  0  0  0  0  0  0  0  0  0  0  0
    3.0694    1.4376    7.4263 H   0  0  0  0  0  0  0  0  0  0  0  0
    4.8506    0.4999   -0.6021 H   0  0  0  0  0  0  0  0  0  0  0  0
    4.3550   -3.7794   -0.5090 H   0  0  0  0  0  0  0  0  0  0  0  0
    6.4504   -3.9902    0.7500 H   0  0  0  0  0  0  0  0  0  0  0  0
    4.1844   -3.5668   -4.7869 H   0  0  0  0  0  0  0  0  0  0  0  0
    4.5200   -5.9741   -5.1417 H   0  0  0  0  0  0  0  0  0  0  0  0
    1.0438   -8.1174   -4.3300 H   0  0  0  0  0  0  0  0  0  0  0  0
    1.7914   -9.5346   -5.1561 H   0  0  0  0  0  0  0  0  0  0  0  0
    2.0725   -7.8697   -5.8028 H   0  0  0  0  0  0  0  0  0  0  0  0
    1.8486   -6.8516   -1.8898 H   0  0  0  0  0  0  0  0  0  0  0  0
    1.4599   -4.4551   -1.5465 H   0  0  0  0  0  0  0  0  0  0  0  0
    1.4305   -2.8364   -5.4171 H   0  0  0  0  0  0  0  0  0  0  0  0
    1.2942   -1.2276   -7.2776 H   0  0  0  0  0  0  0  0  0  0  0  0
    0.4946    3.1981   -7.5653 H   0  0  0  0  0  0  0  0  0  0  0  0
   -0.0738    1.6577   -6.8025 H   0  0  0  0  0  0  0  0  0  0  0  0
    1.0333    2.7789   -5.8893 H   0  0  0  0  0  0  0  0  0  0  0  0
    3.4270    1.6785   -4.9365 H   0  0  0  0  0  0  0  0  0  0  0  0
    3.5554    0.0923   -3.0693 H   0  0  0  0  0  0  0  0  0  0  0  0
   -0.8779    2.1180   -0.8555 H   0  0  0  0  0  0  0  0  0  0  0  0
    0.0750    4.3782   -0.8179 H   0  0  0  0  0  0  0  0  0  0  0  0
    3.4430    4.6919    1.4805 H   0  0  0  0  0  0  0  0  0  0  0  0
    3.6655    6.2254    0.5615 H   0  0  0  0  0  0  0  0  0  0  0  0
    2.9080    4.8039   -0.2499 H   0  0  0  0  0  0  0  0  0  0  0  0
    1.0836    3.8990    3.3351 H   0  0  0  0  0  0  0  0  0  0  0  0
    0.1330    1.6328    3.3123 H   0  0  0  0  0  0  0  0  0  0  0  0
   -2.8601    1.5505    2.7007 H   0  0  0  0  0  0  0  0  0  0  0  0
   -4.0893    0.5627    4.5897 H   0  0  0  0  0  0  0  0  0  0  0  0
   -6.0995   -3.2167    5.3475 H   0  0  0  0  0  0  0  0  0  0  0  0
   -5.8107   -1.8615    4.1859 H   0  0  0  0  0  0  0  0  0  0  0  0
   -4.9104   -3.4241    4.0025 H   0  0  0  0  0  0  0  0  0  0  0  0
   -1.9259   -3.1200    4.0833 H   0  0  0  0  0  0  0  0  0  0  0  0
   -0.6806   -2.1372    2.2061 H   0  0  0  0  0  0  0  0  0  0  0  0
   -3.5308   -1.8222   -2.5964 H   0  0  0  0  0  0  0  0  0  0  0  0
   -5.7788   -0.8509   -2.9064 H   0  0  0  0  0  0  0  0  0  0  0  0
   -7.4803    1.2442   -0.8869 H   0  0  0  0  0  0  0  0  0  0  0  0
   -5.6193    2.8669   -6.6626 H   0  0  0  0  0  0  0  0  0  0  0  0
   -7.3530    3.6995   -8.2369 H   0  0  0  0  0  0  0  0  0  0  0  0
   -9.5751    4.4846   -8.6809 H   0  0  0  0  0  0  0  0  0  0  0  0
  -10.6905    3.3249   -7.8691 H   0  0  0  0  0  0  0  0  0  0  0  0
  -10.5860    5.0298   -7.2928 H   0  0  0  0  0  0  0  0  0  0  0  0
  -10.2621    3.7180   -5.0543 H   0  0  0  0  0  0  0  0  0  0  0  0
  1  2  2  3
  2  3  1  0
  3  4  2  0
  3  5  1  0
  5  6  2  0
  6  7  1  0
  7  8  2  0
  8  9  1  0
  9 10  2  0
 10 11  1  0
 11 12  2  3
 12 13  1  0
 13 14  3  0
 12 15  1  0
 15 16  3  0
  8 17  1  0
 17 18  1  0
 18 19  1  0
 19 20  2  0
 20 21  1  0
 21 22  1  0
 21 23  1  0
  1 24  1  0
 24 25  2  0
 25 26  1  0
 25 27  1  0
 27 28  2  0
 28 29  1  0
 29 30  2  0
 28 31  1  0
 31 32  2  0
 32 33  1  0
 33 34  1  0
 34 35  2  0
 35 36  1  0
 36 37  2  0
 37 38  1  0
 38 39  1  0
 37 40  1  0
 40 41  2  0
 33 42  1  0
 42 43  2  0
 43 44  1  0
 44 45  2  0
 45 46  1  0
 46 47  1  0
 45 48  1  0
 48 49  2  0
 32 50  1  0
 50 51  1  0
 51 52  1  0
 52 53  2  0
 53 54  1  0
 54 55  1  0
 55 56  2  0
 56 57  1  0
 57 58  2  0
 58 59  1  0
 59 60  1  0
 58 61  1  0
 61 62  2  0
 54 63  1  0
 63 64  2  0
 64 65  1  0
 65 66  2  0
 66 67  1  0
 67 68  1  0
 66 69  1  0
 69 70  2  0
 53 71  1  0
 71 72  1  0
 52 73  1  0
 73 74  2  0
 74 75  1  0
 75 76  2  0
 76 77  1  0
 77 78  2  0
 76 79  1  0
 79 80  2  3
 80 81  1  0
 81 82  2  0
 81 83  1  0
 83 84  2  0
 84 85  1  0
 85 86  2  0
 86 87  1  0
 86 88  1  0
 88 89  2  0
 89 90  1  0
 90 91  2  3
 91 92  1  0
 92 93  3  0
 91 94  1  0
 94 95  3  0
 11  2  1  0
 23 17  1  0
 30 24  1  0
 72 31  1  0
 78 73  1  0
 90 80  1  0
 10  5  1  0
 22 18  1  0
 41 34  1  0
 49 42  1  0
 71 50  2  0
 89 83  1  0
 23  7  1  0
 62 55  1  0
 70 63  1  0
  1 96  1  0
  6 97  1  0
  9 98  1  0
 17 99  1  0
 18100  1  0
 19101  1  0
 20102  1  0
 21103  1  0
 22104  1  0
 22105  1  0
 23106  1  0
 27107  1  0
 29108  1  0
 30109  1  0
 35110  1  0
 36111  1  0
 39112  1  0
 39113  1  0
 39114  1  0
 40115  1  0
 41116  1  0
 43117  1  0
 44118  1  0
 47119  1  0
 47120  1  0
 47121  1  0
 48122  1  0
 49123  1  0
 56124  1  0
 57125  1  0
 60126  1  0
 60127  1  0
 60128  1  0
 61129  1  0
 62130  1  0
 64131  1  0
 65132  1  0
 68133  1  0
 68134  1  0
 68135  1  0
 69136  1  0
 70137  1  0
 74138  1  0
 75139  1  0
 79140  1  0
 84141  1  0
 85142  1  0
 87143  1  0
 87144  1  0
 87145  1  0
 88146  1  0
M  END

