
     RDKit          3D

107118  0  0  0  0  0  0  0  0999 V2000
    4.5124    3.0594    3.9573 C   0  0  0  0  0  0  0  0  0  0  0  0
    5.1419    4.2485    3.8896 C   0  0  0  0  0  0  0  0  0  0  0  0
    5.6867    4.8733    2.6776 C   0  0  0  0  0  0  0  0  0  0  0  0
    5.9501    4.2923    1.5901 O   0  0  0  0  0  0  0  0  0  0  0  0
    5.8854    6.2857    2.9335 C   0  0  0  0  0  0  0  0  0  0  0  0
    6.2386    7.2891    1.9988 C   0  0  0  0  0  0  0  0  0  0  0  0
    6.2055    8.5717    2.5159 C   0  0  0  0  0  0  0  0  0  0  0  0
    5.8362    8.8598    3.8697 C   0  0  0  0  0  0  0  0  0  0  0  0
    5.4825    7.8852    4.7836 C   0  0  0  0  0  0  0  0  0  0  0  0
    5.5549    6.5549    4.2852 C   0  0  0  0  0  0  0  0  0  0  0  0
    5.2238    5.2770    4.9746 C   0  0  0  0  0  0  0  0  0  0  0  0
    5.2317    5.0657    6.3200 C   0  0  0  0  0  0  0  0  0  0  0  0
    5.1364    3.7490    6.8985 C   0  0  0  0  0  0  0  0  0  0  0  0
    5.0606    2.6954    7.3759 N   0  0  0  0  0  0  0  0  0  0  0  0
    5.5215    6.1120    7.2646 C   0  0  0  0  0  0  0  0  0  0  0  0
    5.7645    6.9360    8.0389 N   0  0  0  0  0  0  0  0  0  0  0  0
    5.9883   10.3310    3.6197 C   0  0  0  0  0  0  0  0  0  0  0  0
    4.6921   11.1870    3.4694 C   0  0  0  0  0  0  0  0  0  0  0  0
    3.5793   10.3453    2.8855 C   0  0  0  0  0  0  0  0  0  0  0  0
    3.9273   10.0757    1.6265 C   0  0  0  0  0  0  0  0  0  0  0  0
    5.2628   10.7451    1.3923 C   0  0  0  0  0  0  0  0  0  0  0  0
    5.0540   11.9945    2.2332 C   0  0  0  0  0  0  0  0  0  0  0  0
    6.3688   10.0371    2.2321 C   0  0  0  0  0  0  0  0  0  0  0  0
    4.2195    2.1741    2.8107 C   0  0  0  0  0  0  0  0  0  0  0  0
    3.4816    2.6309    1.7009 C   0  0  0  0  0  0  0  0  0  0  0  0
    3.1461    3.9408    1.5810 F   0  0  0  0  0  0  0  0  0  0  0  0
    2.9587    1.7168    0.7786 C   0  0  0  0  0  0  0  0  0  0  0  0
    3.0966    0.3333    0.9879 C   0  0  0  0  0  0  0  0  0  0  0  0
    3.9028   -0.1169    2.0438 C   0  0  0  0  0  0  0  0  0  0  0  0
    4.4538    0.7968    2.9500 C   0  0  0  0  0  0  0  0  0  0  0  0
    2.1946   -0.6252    0.2920 C   0  0  0  0  0  0  0  0  0  0  0  0
    2.6950   -1.8008   -0.2939 C   0  0  0  0  0  0  0  0  0  0  0  0
    4.0330   -2.0130   -0.3668 F   0  0  0  0  0  0  0  0  0  0  0  0
    1.8192   -2.7738   -0.7980 C   0  0  0  0  0  0  0  0  0  0  0  0
    2.3324   -3.8947   -1.3672 F   0  0  0  0  0  0  0  0  0  0  0  0
    0.4242   -2.5967   -0.7114 C   0  0  0  0  0  0  0  0  0  0  0  0
   -0.0813   -1.4208   -0.1266 C   0  0  0  0  0  0  0  0  0  0  0  0
   -1.4207   -1.2272    0.0233 N   0  0  0  0  0  0  0  0  0  0  0  0
   -1.9393   -0.1094    0.5990 C   0  0  0  0  0  0  0  0  0  0  0  0
   -3.4361    0.0105    0.7025 C   0  0  0  0  0  0  0  0  0  0  0  0
   -4.0260    0.5716   -0.5886 C   0  0  0  0  0  0  0  0  0  0  0  0
   -1.0573    0.9006    1.0370 C   0  0  0  0  0  0  0  0  0  0  0  0
    0.2783    0.6808    0.9256 N   0  0  0  0  0  0  0  0  0  0  0  0
    0.7984   -0.4363    0.3563 C   0  0  0  0  0  0  0  0  0  0  0  0
   -1.5462    2.1822    1.6697 C   0  0  0  0  0  0  0  0  0  0  0  0
   -0.4574    3.2569    1.7534 C   0  0  0  0  0  0  0  0  0  0  0  0
   -0.5090   -3.6700   -1.1508 C   0  0  0  0  0  0  0  0  0  0  0  0
   -0.4544   -4.9562   -0.5820 C   0  0  0  0  0  0  0  0  0  0  0  0
    0.5324   -5.2848    0.2899 F   0  0  0  0  0  0  0  0  0  0  0  0
   -1.4831   -5.8747   -0.8161 C   0  0  0  0  0  0  0  0  0  0  0  0
   -2.5863   -5.5257   -1.6117 C   0  0  0  0  0  0  0  0  0  0  0  0
   -2.6023   -4.2700   -2.2368 C   0  0  0  0  0  0  0  0  0  0  0  0
   -1.5690   -3.3563   -2.0165 C   0  0  0  0  0  0  0  0  0  0  0  0
   -3.8148   -6.3656   -1.5981 C   0  0  0  0  0  0  0  0  0  0  0  0
   -4.3497   -6.6959   -0.3427 C   0  0  0  0  0  0  0  0  0  0  0  0
   -5.6063   -7.2796   -0.2306 C   0  0  0  0  0  0  0  0  0  0  0  0
   -6.3744   -7.5434   -1.3730 C   0  0  0  0  0  0  0  0  0  0  0  0
   -7.7514   -8.0724   -1.2346 C   0  0  0  0  0  0  0  0  0  0  0  0
   -8.2243   -8.3027   -0.0829 O   0  0  0  0  0  0  0  0  0  0  0  0
   -8.5599   -8.2956   -2.4032 N   0  0  0  0  0  0  0  0  0  0  0  0
  -10.0040   -8.5450   -2.2647 C   0  0  0  0  0  0  0  0  0  0  0  0
  -10.7600   -7.2264   -2.1385 C   0  0  0  0  0  0  0  0  0  0  0  0
   -7.9755   -8.0808   -3.7023 C   0  0  0  0  0  0  0  0  0  0  0  0
   -8.6490   -8.3325   -4.7418 O   0  0  0  0  0  0  0  0  0  0  0  0
   -6.5930   -7.5573   -3.8196 C   0  0  0  0  0  0  0  0  0  0  0  0
   -6.0322   -7.3246   -5.0854 C   0  0  0  0  0  0  0  0  0  0  0  0
   -4.7413   -6.8098   -5.2006 C   0  0  0  0  0  0  0  0  0  0  0  0
   -3.9982   -6.4999   -4.0604 C   0  0  0  0  0  0  0  0  0  0  0  0
   -4.5370   -6.7063   -2.7724 C   0  0  0  0  0  0  0  0  0  0  0  0
   -5.8390   -7.2745   -2.6545 C   0  0  0  0  0  0  0  0  0  0  0  0
    4.0967    2.7230    4.8902 H   0  0  0  0  0  0  0  0  0  0  0  0
    6.4688    7.0779    0.9628 H   0  0  0  0  0  0  0  0  0  0  0  0
    5.1324    8.1530    5.7690 H   0  0  0  0  0  0  0  0  0  0  0  0
    6.7980   10.8118    4.2162 H   0  0  0  0  0  0  0  0  0  0  0  0
    4.4105   11.7832    4.3630 H   0  0  0  0  0  0  0  0  0  0  0  0
    2.6425   10.0681    3.3585 H   0  0  0  0  0  0  0  0  0  0  0  0
    3.3259    9.5403    0.8983 H   0  0  0  0  0  0  0  0  0  0  0  0
    5.5177   10.9329    0.3282 H   0  0  0  0  0  0  0  0  0  0  0  0
    5.9734   12.6143    2.3638 H   0  0  0  0  0  0  0  0  0  0  0  0
    4.2169   12.6442    1.8687 H   0  0  0  0  0  0  0  0  0  0  0  0
    7.4106   10.3387    1.9874 H   0  0  0  0  0  0  0  0  0  0  0  0
    2.3449    2.0885   -0.0348 H   0  0  0  0  0  0  0  0  0  0  0  0
    4.0151   -1.1788    2.2288 H   0  0  0  0  0  0  0  0  0  0  0  0
    4.9933    0.4207    3.8101 H   0  0  0  0  0  0  0  0  0  0  0  0
   -3.7395    0.6459    1.5589 H   0  0  0  0  0  0  0  0  0  0  0  0
   -3.8714   -0.9981    0.8848 H   0  0  0  0  0  0  0  0  0  0  0  0
   -3.7780   -0.0958   -1.4475 H   0  0  0  0  0  0  0  0  0  0  0  0
   -5.1337    0.6296   -0.4939 H   0  0  0  0  0  0  0  0  0  0  0  0
   -3.6272    1.5903   -0.7906 H   0  0  0  0  0  0  0  0  0  0  0  0
   -2.3779    2.6026    1.0620 H   0  0  0  0  0  0  0  0  0  0  0  0
   -1.9231    1.9685    2.6946 H   0  0  0  0  0  0  0  0  0  0  0  0
   -0.0302    3.4543    0.7468 H   0  0  0  0  0  0  0  0  0  0  0  0
    0.3572    2.9285    2.4321 H   0  0  0  0  0  0  0  0  0  0  0  0
   -0.8835    4.2010    2.1461 H   0  0  0  0  0  0  0  0  0  0  0  0
   -1.4547   -6.8372   -0.3175 H   0  0  0  0  0  0  0  0  0  0  0  0
   -3.4568   -3.9625   -2.8286 H   0  0  0  0  0  0  0  0  0  0  0  0
   -1.6359   -2.3709   -2.4648 H   0  0  0  0  0  0  0  0  0  0  0  0
   -3.8145   -6.4407    0.5635 H   0  0  0  0  0  0  0  0  0  0  0  0
   -5.9901   -7.4908    0.7582 H   0  0  0  0  0  0  0  0  0  0  0  0
  -10.3891   -9.1044   -3.1438 H   0  0  0  0  0  0  0  0  0  0  0  0
  -10.2033   -9.1757   -1.3710 H   0  0  0  0  0  0  0  0  0  0  0  0
  -11.8476   -7.4218   -2.0645 H   0  0  0  0  0  0  0  0  0  0  0  0
  -10.5661   -6.5878   -3.0245 H   0  0  0  0  0  0  0  0  0  0  0  0
  -10.4310   -6.6846   -1.2243 H   0  0  0  0  0  0  0  0  0  0  0  0
   -6.5881   -7.5362   -5.9931 H   0  0  0  0  0  0  0  0  0  0  0  0
   -4.3126   -6.6465   -6.1805 H   0  0  0  0  0  0  0  0  0  0  0  0
   -2.9926   -6.1175   -4.1951 H   0  0  0  0  0  0  0  0  0  0  0  0
  1  2  2  3
  2  3  1  0
  3  4  2  0
  3  5  1  0
  5  6  2  0
  6  7  1  0
  7  8  2  0
  8  9  1  0
  9 10  2  0
 10 11  1  0
 11 12  2  3
 12 13  1  0
 13 14  3  0
 12 15  1  0
 15 16  3  0
  8 17  1  0
 17 18  1  0
 18 19  1  0
 19 20  2  0
 20 21  1  0
 21 22  1  0
 21 23  1  0
  1 24  1  0
 24 25  2  0
 25 26  1  0
 25 27  1  0
 27 28  2  0
 28 29  1  0
 29 30  2  0
 28 31  1  0
 31 32  2  0
 32 33  1  0
 32 34  1  0
 34 35  1  0
 34 36  2  0
 36 37  1  0
 37 38  2  0
 38 39  1  0
 39 40  1  0
 40 41  1  0
 39 42  2  0
 42 43  1  0
 43 44  2  0
 42 45  1  0
 45 46  1  0
 36 47  1  0
 47 48  2  0
 48 49  1  0
 48 50  1  0
 50 51  2  0
 51 52  1  0
 52 53  2  0
 51 54  1  0
 54 55  2  0
 55 56  1  0
 56 57  2  0
 57 58  1  0
 58 59  2  0
 58 60  1  0
 60 61  1  0
 61 62  1  0
 60 63  1  0
 63 64  2  0
 63 65  1  0
 65 66  1  0
 66 67  2  0
 67 68  1  0
 68 69  2  0
 69 70  1  0
 11  2  1  0
 23 17  1  0
 30 24  1  0
 44 31  1  0
 53 47  1  0
 69 54  1  0
 10  5  1  0
 22 18  1  0
 44 37  1  0
 70 57  1  0
 23  7  1  0
 70 65  2  0
  1 71  1  0
  6 72  1  0
  9 73  1  0
 17 74  1  0
 18 75  1  0
 19 76  1  0
 20 77  1  0
 21 78  1  0
 22 79  1  0
 22 80  1  0
 23 81  1  0
 27 82  1  0
 29 83  1  0
 30 84  1  0
 40 85  1  0
 40 86  1  0
 41 87  1  0
 41 88  1  0
 41 89  1  0
 45 90  1  0
 45 91  1  0
 46 92  1  0
 46 93  1  0
 46 94  1  0
 50 95  1  0
 52 96  1  0
 53 97  1  0
 55 98  1  0
 56 99  1  0
 61100  1  0
 61101  1  0
 62102  1  0
 62103  1  0
 62104  1  0
 66105  1  0
 67106  1  0
 68107  1  0
M  END

