
     RDKit          3D

181200  0  0  0  0  0  0  0  0999 V2000
   -5.5061   -3.9992   -4.7803 C   0  0  0  0  0  0  0  0  0  0  0  0
   -5.6455   -2.6987   -5.1102 C   0  0  0  0  0  0  0  0  0  0  0  0
   -4.8514   -1.6024   -4.5412 C   0  0  0  0  0  0  0  0  0  0  0  0
   -3.7421   -1.7120   -3.9586 O   0  0  0  0  0  0  0  0  0  0  0  0
   -5.5885   -0.3709   -4.6761 C   0  0  0  0  0  0  0  0  0  0  0  0
   -5.2552    0.8781   -4.1096 C   0  0  0  0  0  0  0  0  0  0  0  0
   -6.2535    1.8221   -4.2191 C   0  0  0  0  0  0  0  0  0  0  0  0
   -7.5234    1.5542   -4.8239 C   0  0  0  0  0  0  0  0  0  0  0  0
   -7.8470    0.3364   -5.4045 C   0  0  0  0  0  0  0  0  0  0  0  0
   -6.8117   -0.6404   -5.3396 C   0  0  0  0  0  0  0  0  0  0  0  0
   -6.8247   -2.0675   -5.7689 C   0  0  0  0  0  0  0  0  0  0  0  0
   -7.5925   -2.6151   -6.7422 C   0  0  0  0  0  0  0  0  0  0  0  0
   -7.3243   -3.9284   -7.2748 C   0  0  0  0  0  0  0  0  0  0  0  0
   -7.1043   -4.9745   -7.7152 N   0  0  0  0  0  0  0  0  0  0  0  0
   -8.6161   -1.8645   -7.4205 C   0  0  0  0  0  0  0  0  0  0  0  0
   -9.4364   -1.2678   -7.9784 N   0  0  0  0  0  0  0  0  0  0  0  0
   -8.0123    2.9170   -4.4323 C   0  0  0  0  0  0  0  0  0  0  0  0
   -8.9749    3.0207   -3.2085 C   0  0  0  0  0  0  0  0  0  0  0  0
   -8.6700    1.9282   -2.2051 C   0  0  0  0  0  0  0  0  0  0  0  0
   -7.4785    2.2149   -1.6777 C   0  0  0  0  0  0  0  0  0  0  0  0
   -7.0068    3.4832   -2.3479 C   0  0  0  0  0  0  0  0  0  0  0  0
   -8.3407    4.1941   -2.4812 C   0  0  0  0  0  0  0  0  0  0  0  0
   -6.6973    3.2062   -3.8500 C   0  0  0  0  0  0  0  0  0  0  0  0
   -4.5407   -4.4081   -3.7451 C   0  0  0  0  0  0  0  0  0  0  0  0
   -3.2118   -4.7192   -4.0779 C   0  0  0  0  0  0  0  0  0  0  0  0
   -2.8515   -4.8992   -5.3741 F   0  0  0  0  0  0  0  0  0  0  0  0
   -2.2296   -4.7386   -3.0792 C   0  0  0  0  0  0  0  0  0  0  0  0
   -2.5600   -4.4122   -1.7502 C   0  0  0  0  0  0  0  0  0  0  0  0
   -3.9139   -4.2277   -1.4142 C   0  0  0  0  0  0  0  0  0  0  0  0
   -4.8944   -4.2268   -2.4036 C   0  0  0  0  0  0  0  0  0  0  0  0
   -1.5136   -4.0963   -0.7468 C   0  0  0  0  0  0  0  0  0  0  0  0
   -0.3008   -3.4254   -0.9964 C   0  0  0  0  0  0  0  0  0  0  0  0
    0.2218   -3.0743   -2.2900 N   0  0  0  0  0  0  0  0  0  0  0  0
    1.5575   -3.5292   -2.5972 C   0  0  0  0  0  0  0  0  0  0  0  0
    2.5458   -2.6221   -3.0243 C   0  0  0  0  0  0  0  0  0  0  0  0
    3.8665   -3.0446   -3.2001 C   0  0  0  0  0  0  0  0  0  0  0  0
    4.2111   -4.3787   -2.9595 C   0  0  0  0  0  0  0  0  0  0  0  0
    5.9166   -4.9086   -3.1368 S   0  0  0  0  0  0  0  0  0  0  0  0
    5.7303   -5.3092   -4.9021 C   0  0  0  0  0  0  0  0  0  0  0  0
    3.2340   -5.2896   -2.5465 C   0  0  0  0  0  0  0  0  0  0  0  0
    1.9146   -4.8685   -2.3654 C   0  0  0  0  0  0  0  0  0  0  0  0
   -0.3842   -2.0211   -3.0723 C   0  0  0  0  0  0  0  0  0  0  0  0
   -0.3545   -2.0867   -4.4750 C   0  0  0  0  0  0  0  0  0  0  0  0
   -0.8568   -1.0356   -5.2457 C   0  0  0  0  0  0  0  0  0  0  0  0
   -1.3778    0.1038   -4.6222 C   0  0  0  0  0  0  0  0  0  0  0  0
   -2.0303    1.4484   -5.6164 S   0  0  0  0  0  0  0  0  0  0  0  0
   -0.4242    2.2947   -5.7429 C   0  0  0  0  0  0  0  0  0  0  0  0
   -1.4212    0.1764   -3.2249 C   0  0  0  0  0  0  0  0  0  0  0  0
   -0.9369   -0.8833   -2.4542 C   0  0  0  0  0  0  0  0  0  0  0  0
    0.2737   -2.9497    0.1760 C   0  0  0  0  0  0  0  0  0  0  0  0
    1.3116   -1.6607    0.4035 S   0  0  0  0  0  0  0  0  0  0  0  0
    0.8729   -1.4141    2.0267 C   0  0  0  0  0  0  0  0  0  0  0  0
   -0.0792   -2.3752    2.4051 C   0  0  0  0  0  0  0  0  0  0  0  0
   -0.7297   -2.3989    3.6847 N   0  0  0  0  0  0  0  0  0  0  0  0
   -2.0467   -1.8439    3.8259 C   0  0  0  0  0  0  0  0  0  0  0  0
   -3.1764   -2.6635    3.6743 C   0  0  0  0  0  0  0  0  0  0  0  0
   -4.4590   -2.1121    3.7440 C   0  0  0  0  0  0  0  0  0  0  0  0
   -4.6209   -0.7445    3.9870 C   0  0  0  0  0  0  0  0  0  0  0  0
   -6.2645   -0.0275    4.0190 S   0  0  0  0  0  0  0  0  0  0  0  0
   -6.2776    0.3071    2.2286 C   0  0  0  0  0  0  0  0  0  0  0  0
   -3.4973    0.0647    4.2084 C   0  0  0  0  0  0  0  0  0  0  0  0
   -2.2146   -0.4894    4.1430 C   0  0  0  0  0  0  0  0  0  0  0  0
   -0.1463   -3.1396    4.7729 C   0  0  0  0  0  0  0  0  0  0  0  0
    0.5155   -4.3595    4.5334 C   0  0  0  0  0  0  0  0  0  0  0  0
    1.0579   -5.0905    5.5946 C   0  0  0  0  0  0  0  0  0  0  0  0
    0.9673   -4.6008    6.9015 C   0  0  0  0  0  0  0  0  0  0  0  0
    1.6529   -5.5495    8.2616 S   0  0  0  0  0  0  0  0  0  0  0  0
    3.3151   -4.8221    8.1003 C   0  0  0  0  0  0  0  0  0  0  0  0
    0.3239   -3.3826    7.1475 C   0  0  0  0  0  0  0  0  0  0  0  0
   -0.2366   -2.6589    6.0926 C   0  0  0  0  0  0  0  0  0  0  0  0
   -0.4094   -3.2026    1.3248 C   0  0  0  0  0  0  0  0  0  0  0  0
   -1.7955   -4.0587    0.9400 S   0  0  0  0  0  0  0  0  0  0  0  0
    1.0650   -0.0948    2.6476 C   0  0  0  0  0  0  0  0  0  0  0  0
    2.1805    0.0999    3.4854 C   0  0  0  0  0  0  0  0  0  0  0  0
    3.0628   -1.3326    4.1666 S   0  0  0  0  0  0  0  0  0  0  0  0
    4.2331   -1.5362    2.7731 C   0  0  0  0  0  0  0  0  0  0  0  0
    5.4979   -0.7178    2.9859 C   0  0  0  0  0  0  0  0  0  0  0  0
    2.5875    1.4034    3.8104 C   0  0  0  0  0  0  0  0  0  0  0  0
    3.9327    1.6754    4.9925 S   0  0  0  0  0  0  0  0  0  0  0  0
    2.8619    1.5636    6.4709 C   0  0  0  0  0  0  0  0  0  0  0  0
    2.3495    2.9375    6.8728 C   0  0  0  0  0  0  0  0  0  0  0  0
    1.9326    2.5088    3.2336 C   0  0  0  0  0  0  0  0  0  0  0  0
    0.6803    2.3341    2.5947 C   0  0  0  0  0  0  0  0  0  0  0  0
    0.2639    1.0180    2.2428 C   0  0  0  0  0  0  0  0  0  0  0  0
   -0.9841    0.8532    1.4140 C   0  0  0  0  0  0  0  0  0  0  0  0
   -1.4602   -0.2794    1.1443 O   0  0  0  0  0  0  0  0  0  0  0  0
   -1.7083    2.0333    0.9339 C   0  0  0  0  0  0  0  0  0  0  0  0
   -1.3208    3.3112    1.3208 C   0  0  0  0  0  0  0  0  0  0  0  0
   -0.1684    3.5099    2.2063 C   0  0  0  0  0  0  0  0  0  0  0  0
    0.0597    4.6627    2.6552 O   0  0  0  0  0  0  0  0  0  0  0  0
   -2.1305    4.3211    0.8118 C   0  0  0  0  0  0  0  0  0  0  0  0
   -3.3272    3.5939   -0.1252 S   0  0  0  0  0  0  0  0  0  0  0  0
   -2.8326    2.0051    0.1128 C   0  0  0  0  0  0  0  0  0  0  0  0
    2.6157    3.8203    3.2204 C   0  0  0  0  0  0  0  0  0  0  0  0
    3.7179    4.0746    2.4851 C   0  0  0  0  0  0  0  0  0  0  0  0
    4.5381    5.2696    2.6713 C   0  0  0  0  0  0  0  0  0  0  0  0
    4.2023    6.3042    3.3058 O   0  0  0  0  0  0  0  0  0  0  0  0
    5.8036    5.0712    1.9974 C   0  0  0  0  0  0  0  0  0  0  0  0
    6.8082    6.0454    1.7825 C   0  0  0  0  0  0  0  0  0  0  0  0
    7.8051    5.6389    0.9161 C   0  0  0  0  0  0  0  0  0  0  0  0
    7.8394    4.3384    0.3200 C   0  0  0  0  0  0  0  0  0  0  0  0
    6.8733    3.3753    0.5405 C   0  0  0  0  0  0  0  0  0  0  0  0
    5.8123    3.7843    1.3982 C   0  0  0  0  0  0  0  0  0  0  0  0
    4.4789    3.1482    1.5924 C   0  0  0  0  0  0  0  0  0  0  0  0
    3.9347    2.2795    0.7069 C   0  0  0  0  0  0  0  0  0  0  0  0
    2.6165    2.4749    0.1675 C   0  0  0  0  0  0  0  0  0  0  0  0
    1.5712    2.6302   -0.3049 N   0  0  0  0  0  0  0  0  0  0  0  0
    4.7002    1.2195    0.1059 C   0  0  0  0  0  0  0  0  0  0  0  0
    5.3019    0.3520   -0.3733 N   0  0  0  0  0  0  0  0  0  0  0  0
    9.0418    4.7220   -0.4899 C   0  0  0  0  0  0  0  0  0  0  0  0
    8.8195    5.0006   -2.0097 C   0  0  0  0  0  0  0  0  0  0  0  0
    7.4237    5.5392   -2.2358 C   0  0  0  0  0  0  0  0  0  0  0  0
    7.3894    6.7517   -1.6850 C   0  0  0  0  0  0  0  0  0  0  0  0
    8.7621    6.9996   -1.1015 C   0  0  0  0  0  0  0  0  0  0  0  0
    9.5979    6.2929   -2.1542 C   0  0  0  0  0  0  0  0  0  0  0  0
    9.0053    6.0562    0.1169 C   0  0  0  0  0  0  0  0  0  0  0  0
   -6.2491   -4.7235   -5.0773 H   0  0  0  0  0  0  0  0  0  0  0  0
   -4.3356    1.0626   -3.5717 H   0  0  0  0  0  0  0  0  0  0  0  0
   -8.8342    0.1508   -5.7994 H   0  0  0  0  0  0  0  0  0  0  0  0
   -8.2760    3.5712   -5.2932 H   0  0  0  0  0  0  0  0  0  0  0  0
  -10.0496    3.1392   -3.4621 H   0  0  0  0  0  0  0  0  0  0  0  0
   -9.3188    1.1123   -1.9033 H   0  0  0  0  0  0  0  0  0  0  0  0
   -6.9842    1.6685   -0.8830 H   0  0  0  0  0  0  0  0  0  0  0  0
   -6.2206    4.0410   -1.7957 H   0  0  0  0  0  0  0  0  0  0  0  0
   -8.2871    5.1233   -3.0954 H   0  0  0  0  0  0  0  0  0  0  0  0
   -8.8232    4.4197   -1.5002 H   0  0  0  0  0  0  0  0  0  0  0  0
   -6.1435    4.0161   -4.3735 H   0  0  0  0  0  0  0  0  0  0  0  0
   -1.2024   -4.9340   -3.3573 H   0  0  0  0  0  0  0  0  0  0  0  0
   -4.2073   -3.9753   -0.4040 H   0  0  0  0  0  0  0  0  0  0  0  0
   -5.9136   -3.9682   -2.1374 H   0  0  0  0  0  0  0  0  0  0  0  0
    2.3018   -1.5770   -3.1825 H   0  0  0  0  0  0  0  0  0  0  0  0
    4.6226   -2.3314   -3.5089 H   0  0  0  0  0  0  0  0  0  0  0  0
    4.9252   -6.0584   -5.0419 H   0  0  0  0  0  0  0  0  0  0  0  0
    5.4897   -4.3885   -5.4735 H   0  0  0  0  0  0  0  0  0  0  0  0
    6.6827   -5.7288   -5.2800 H   0  0  0  0  0  0  0  0  0  0  0  0
    3.4976   -6.3208   -2.3512 H   0  0  0  0  0  0  0  0  0  0  0  0
    1.1697   -5.5817   -2.0277 H   0  0  0  0  0  0  0  0  0  0  0  0
    0.0618   -2.9549   -4.9699 H   0  0  0  0  0  0  0  0  0  0  0  0
   -0.8330   -1.1018   -6.3257 H   0  0  0  0  0  0  0  0  0  0  0  0
   -0.0452    2.5490   -4.7310 H   0  0  0  0  0  0  0  0  0  0  0  0
   -0.5529    3.2306   -6.3235 H   0  0  0  0  0  0  0  0  0  0  0  0
    0.3096    1.6458   -6.2663 H   0  0  0  0  0  0  0  0  0  0  0  0
   -1.8330    1.0520   -2.7364 H   0  0  0  0  0  0  0  0  0  0  0  0
   -0.9689   -0.8028   -1.3768 H   0  0  0  0  0  0  0  0  0  0  0  0
   -3.0619   -3.7219    3.4885 H   0  0  0  0  0  0  0  0  0  0  0  0
   -5.3249   -2.7482    3.5947 H   0  0  0  0  0  0  0  0  0  0  0  0
   -6.1819   -0.6426    1.6644 H   0  0  0  0  0  0  0  0  0  0  0  0
   -7.2390    0.7901    1.9570 H   0  0  0  0  0  0  0  0  0  0  0  0
   -5.4440    0.9897    1.9565 H   0  0  0  0  0  0  0  0  0  0  0  0
   -3.6155    1.1182    4.4252 H   0  0  0  0  0  0  0  0  0  0  0  0
   -1.3518    0.1397    4.3212 H   0  0  0  0  0  0  0  0  0  0  0  0
    0.5950   -4.7567    3.5297 H   0  0  0  0  0  0  0  0  0  0  0  0
    1.5498   -6.0352    5.3990 H   0  0  0  0  0  0  0  0  0  0  0  0
    3.9990   -5.3261    8.8158 H   0  0  0  0  0  0  0  0  0  0  0  0
    3.2807   -3.7347    8.3345 H   0  0  0  0  0  0  0  0  0  0  0  0
    3.6992   -4.9731    7.0705 H   0  0  0  0  0  0  0  0  0  0  0  0
    0.2507   -2.9998    8.1577 H   0  0  0  0  0  0  0  0  0  0  0  0
   -0.7254   -1.7144    6.2984 H   0  0  0  0  0  0  0  0  0  0  0  0
    4.5120   -2.6111    2.7191 H   0  0  0  0  0  0  0  0  0  0  0  0
    3.7686   -1.2560    1.8049 H   0  0  0  0  0  0  0  0  0  0  0  0
    5.9253   -0.9155    3.9931 H   0  0  0  0  0  0  0  0  0  0  0  0
    6.2518   -0.9893    2.2180 H   0  0  0  0  0  0  0  0  0  0  0  0
    5.2784    0.3635    2.8773 H   0  0  0  0  0  0  0  0  0  0  0  0
    3.4613    1.1419    7.3044 H   0  0  0  0  0  0  0  0  0  0  0  0
    2.0024    0.8781    6.2974 H   0  0  0  0  0  0  0  0  0  0  0  0
    3.2042    3.6084    7.1023 H   0  0  0  0  0  0  0  0  0  0  0  0
    1.7095    2.8503    7.7774 H   0  0  0  0  0  0  0  0  0  0  0  0
    1.7464    3.3812    6.0533 H   0  0  0  0  0  0  0  0  0  0  0  0
   -2.0158    5.3841    0.9833 H   0  0  0  0  0  0  0  0  0  0  0  0
   -3.3075    1.1228   -0.2976 H   0  0  0  0  0  0  0  0  0  0  0  0
    2.2432    4.5854    3.8856 H   0  0  0  0  0  0  0  0  0  0  0  0
    6.7565    7.0517    2.1737 H   0  0  0  0  0  0  0  0  0  0  0  0
    6.9145    2.4359    0.0188 H   0  0  0  0  0  0  0  0  0  0  0  0
    9.9562    4.1389   -0.2471 H   0  0  0  0  0  0  0  0  0  0  0  0
    9.1195    4.1810   -2.6962 H   0  0  0  0  0  0  0  0  0  0  0  0
    6.6133    5.0673   -2.7838 H   0  0  0  0  0  0  0  0  0  0  0  0
    6.5513    7.4418   -1.7098 H   0  0  0  0  0  0  0  0  0  0  0  0
    9.0124    8.0660   -0.9327 H   0  0  0  0  0  0  0  0  0  0  0  0
   10.6758    6.2024   -1.8798 H   0  0  0  0  0  0  0  0  0  0  0  0
    9.5125    6.7524   -3.1684 H   0  0  0  0  0  0  0  0  0  0  0  0
    9.9017    6.2940    0.7275 H   0  0  0  0  0  0  0  0  0  0  0  0
  1  2  2  3
  2  3  1  0
  3  4  2  0
  3  5  1  0
  5  6  2  0
  6  7  1  0
  7  8  2  0
  8  9  1  0
  9 10  2  0
 10 11  1  0
 11 12  2  3
 12 13  1  0
 13 14  3  0
 12 15  1  0
 15 16  3  0
  8 17  1  0
 17 18  1  0
 18 19  1  0
 19 20  2  0
 20 21  1  0
 21 22  1  0
 21 23  1  0
  1 24  1  0
 24 25  2  0
 25 26  1  0
 25 27  1  0
 27 28  2  0
 28 29  1  0
 29 30  2  0
 28 31  1  0
 31 32  2  0
 32 33  1  0
 33 34  1  0
 34 35  2  0
 35 36  1  0
 36 37  2  0
 37 38  1  0
 38 39  1  0
 37 40  1  0
 40 41  2  0
 33 42  1  0
 42 43  2  0
 43 44  1  0
 44 45  2  0
 45 46  1  0
 46 47  1  0
 45 48  1  0
 48 49  2  0
 32 50  1  0
 50 51  1  0
 51 52  1  0
 52 53  2  0
 53 54  1  0
 54 55  1  0
 55 56  2  0
 56 57  1  0
 57 58  2  0
 58 59  1  0
 59 60  1  0
 58 61  1  0
 61 62  2  0
 54 63  1  0
 63 64  2  0
 64 65  1  0
 65 66  2  0
 66 67  1  0
 67 68  1  0
 66 69  1  0
 69 70  2  0
 53 71  1  0
 71 72  1  0
 52 73  1  0
 73 74  2  0
 74 75  1  0
 75 76  1  0
 76 77  1  0
 74 78  1  0
 78 79  1  0
 79 80  1  0
 80 81  1  0
 78 82  2  0
 82 83  1  0
 83 84  2  0
 84 85  1  0
 85 86  2  0
 85 87  1  0
 87 88  1  0
 88 89  1  0
 89 90  2  0
 88 91  2  0
 91 92  1  0
 92 93  1  0
 82 94  1  0
 94 95  2  3
 95 96  1  0
 96 97  2  0
 96 98  1  0
 98 99  2  0
 99100  1  0
100101  2  0
101102  1  0
102103  2  0
103104  1  0
104105  2  3
105106  1  0
106107  3  0
105108  1  0
108109  3  0
101110  1  0
110111  1  0
111112  1  0
112113  2  0
113114  1  0
114115  1  0
114116  1  0
 11  2  1  0
 23 17  1  0
 30 24  1  0
 72 31  1  0
 84 73  1  0
 93 87  2  0
104 95  1  0
116110  1  0
 10  5  1  0
 22 18  1  0
 41 34  1  0
 49 42  1  0
 71 50  2  0
 89 83  1  0
103 98  1  0
115111  1  0
 23  7  1  0
 62 55  1  0
 70 63  1  0
116100  1  0
  1117  1  0
  6118  1  0
  9119  1  0
 17120  1  0
 18121  1  0
 19122  1  0
 20123  1  0
 21124  1  0
 22125  1  0
 22126  1  0
 23127  1  0
 27128  1  0
 29129  1  0
 30130  1  0
 35131  1  0
 36132  1  0
 39133  1  0
 39134  1  0
 39135  1  0
 40136  1  0
 41137  1  0
 43138  1  0
 44139  1  0
 47140  1  0
 47141  1  0
 47142  1  0
 48143  1  0
 49144  1  0
 56145  1  0
 57146  1  0
 60147  1  0
 60148  1  0
 60149  1  0
 61150  1  0
 62151  1  0
 64152  1  0
 65153  1  0
 68154  1  0
 68155  1  0
 68156  1  0
 69157  1  0
 70158  1  0
 76159  1  0
 76160  1  0
 77161  1  0
 77162  1  0
 77163  1  0
 80164  1  0
 80165  1  0
 81166  1  0
 81167  1  0
 81168  1  0
 91169  1  0
 93170  1  0
 94171  1  0
 99172  1  0
102173  1  0
110174  1  0
111175  1  0
112176  1  0
113177  1  0
114178  1  0
115179  1  0
115180  1  0
116181  1  0
M  END

