
     RDKit          3D

148165  0  0  0  0  0  0  0  0999 V2000
   -0.6179    6.4770   -4.5820 C   0  0  0  0  0  0  0  0  0  0  0  0
   -1.9306    6.1600   -4.5078 C   0  0  0  0  0  0  0  0  0  0  0  0
   -2.4860    4.8109   -4.7168 C   0  0  0  0  0  0  0  0  0  0  0  0
   -1.9852    3.8888   -5.4144 O   0  0  0  0  0  0  0  0  0  0  0  0
   -3.7451    4.7129   -4.0291 C   0  0  0  0  0  0  0  0  0  0  0  0
   -4.4984    3.5336   -3.8446 C   0  0  0  0  0  0  0  0  0  0  0  0
   -5.5829    3.7019   -3.0137 C   0  0  0  0  0  0  0  0  0  0  0  0
   -5.9279    4.9554   -2.3965 C   0  0  0  0  0  0  0  0  0  0  0  0
   -5.1865    6.1129   -2.5751 C   0  0  0  0  0  0  0  0  0  0  0  0
   -4.0600    5.9625   -3.4406 C   0  0  0  0  0  0  0  0  0  0  0  0
   -3.0091    6.9485   -3.8284 C   0  0  0  0  0  0  0  0  0  0  0  0
   -3.1112    8.2978   -3.7883 C   0  0  0  0  0  0  0  0  0  0  0  0
   -2.1072    9.1642   -4.3514 C   0  0  0  0  0  0  0  0  0  0  0  0
   -1.3046    9.8717   -4.8015 N   0  0  0  0  0  0  0  0  0  0  0  0
   -4.2936    8.9653   -3.3123 C   0  0  0  0  0  0  0  0  0  0  0  0
   -5.2421    9.5206   -2.9420 N   0  0  0  0  0  0  0  0  0  0  0  0
   -7.1081    4.3119   -1.7284 C   0  0  0  0  0  0  0  0  0  0  0  0
   -8.5094    4.6247   -2.3255 C   0  0  0  0  0  0  0  0  0  0  0  0
   -9.4505    3.5724   -1.7737 C   0  0  0  0  0  0  0  0  0  0  0  0
   -9.1093    2.4145   -2.3625 C   0  0  0  0  0  0  0  0  0  0  0  0
   -7.9633    2.7297   -3.2906 C   0  0  0  0  0  0  0  0  0  0  0  0
   -8.3986    4.1123   -3.7519 C   0  0  0  0  0  0  0  0  0  0  0  0
   -6.7553    3.0367   -2.3602 C   0  0  0  0  0  0  0  0  0  0  0  0
    0.3968    5.4299   -4.8096 C   0  0  0  0  0  0  0  0  0  0  0  0
    0.9567    4.7992   -3.6892 C   0  0  0  0  0  0  0  0  0  0  0  0
    0.8260    5.3519   -2.4579 F   0  0  0  0  0  0  0  0  0  0  0  0
    1.4960    3.5199   -3.8055 C   0  0  0  0  0  0  0  0  0  0  0  0
    1.4896    2.8517   -5.0431 C   0  0  0  0  0  0  0  0  0  0  0  0
    1.0894    3.5538   -6.1926 C   0  0  0  0  0  0  0  0  0  0  0  0
    0.5557    4.8465   -6.0755 C   0  0  0  0  0  0  0  0  0  0  0  0
    1.6511    1.3719   -5.0477 C   0  0  0  0  0  0  0  0  0  0  0  0
    0.5754    0.5672   -5.4670 C   0  0  0  0  0  0  0  0  0  0  0  0
   -0.4727    1.1110   -6.1354 F   0  0  0  0  0  0  0  0  0  0  0  0
    0.4824   -0.7637   -5.0456 C   0  0  0  0  0  0  0  0  0  0  0  0
   -0.6299   -1.4769   -5.3642 F   0  0  0  0  0  0  0  0  0  0  0  0
    1.4558   -1.3214   -4.2108 C   0  0  0  0  0  0  0  0  0  0  0  0
    2.6140   -0.5707   -3.9286 C   0  0  0  0  0  0  0  0  0  0  0  0
    3.5959   -1.0809   -3.1433 N   0  0  0  0  0  0  0  0  0  0  0  0
    4.6902   -0.3665   -2.7736 C   0  0  0  0  0  0  0  0  0  0  0  0
    5.6964   -1.0460   -1.8690 C   0  0  0  0  0  0  0  0  0  0  0  0
    5.0414   -1.4506   -0.5450 C   0  0  0  0  0  0  0  0  0  0  0  0
    4.8055    0.9745   -3.2176 C   0  0  0  0  0  0  0  0  0  0  0  0
    3.8040    1.5014   -3.9764 N   0  0  0  0  0  0  0  0  0  0  0  0
    2.7146    0.7721   -4.3503 C   0  0  0  0  0  0  0  0  0  0  0  0
    5.9428    1.8833   -2.8321 C   0  0  0  0  0  0  0  0  0  0  0  0
    5.7374    2.4839   -1.4446 C   0  0  0  0  0  0  0  0  0  0  0  0
    1.0990   -2.4816   -3.3697 C   0  0  0  0  0  0  0  0  0  0  0  0
    1.9739   -3.4781   -2.9214 C   0  0  0  0  0  0  0  0  0  0  0  0
    1.5427   -4.1011   -1.7329 C   0  0  0  0  0  0  0  0  0  0  0  0
    2.3028   -4.9806   -0.9280 C   0  0  0  0  0  0  0  0  0  0  0  0
    3.6528   -5.4213   -1.3251 C   0  0  0  0  0  0  0  0  0  0  0  0
    3.9913   -6.0380   -2.5278 C   0  0  0  0  0  0  0  0  0  0  0  0
    5.3503   -6.3494   -2.6187 C   0  0  0  0  0  0  0  0  0  0  0  0
    5.9016   -6.9754   -3.6883 F   0  0  0  0  0  0  0  0  0  0  0  0
    6.0794   -5.9879   -1.4891 C   0  0  0  0  0  0  0  0  0  0  0  0
    7.8270   -6.2795   -1.1991 S   0  0  0  0  0  0  0  0  0  0  0  0
    7.5827   -7.8513   -0.2794 C   0  0  0  0  0  0  0  0  0  0  0  0
    7.8122   -9.0391   -1.2157 C   0  0  0  0  0  0  0  0  0  0  0  0
    5.0480   -5.2486   -0.3894 S   0  0  0  0  0  0  0  0  0  0  0  0
    1.7757   -5.3073    0.3386 C   0  0  0  0  0  0  0  0  0  0  0  0
    0.5538   -4.7930    0.7969 C   0  0  0  0  0  0  0  0  0  0  0  0
   -0.2007   -3.9089   -0.0005 C   0  0  0  0  0  0  0  0  0  0  0  0
   -1.3278   -3.1409    0.5631 C   0  0  0  0  0  0  0  0  0  0  0  0
   -2.6952   -3.7832    1.3143 S   0  0  0  0  0  0  0  0  0  0  0  0
   -3.2876   -2.3154    1.8730 C   0  0  0  0  0  0  0  0  0  0  0  0
   -4.7214   -2.1187    2.9201 S   0  0  0  0  0  0  0  0  0  0  0  0
   -3.7725   -2.0269    4.4785 C   0  0  0  0  0  0  0  0  0  0  0  0
   -3.3219   -3.4015    4.9440 C   0  0  0  0  0  0  0  0  0  0  0  0
   -2.4390   -1.2985    1.4586 C   0  0  0  0  0  0  0  0  0  0  0  0
   -1.3322   -1.7583    0.7452 C   0  0  0  0  0  0  0  0  0  0  0  0
   -2.6145    0.0081    1.7888 F   0  0  0  0  0  0  0  0  0  0  0  0
    0.3151   -3.6062   -1.2725 C   0  0  0  0  0  0  0  0  0  0  0  0
   -0.2262   -2.4229   -2.3300 S   0  0  0  0  0  0  0  0  0  0  0  0
    0.3249   -5.0660    2.1581 C   0  0  0  0  0  0  0  0  0  0  0  0
    1.3545   -5.7792    2.7563 C   0  0  0  0  0  0  0  0  0  0  0  0
    2.5389   -6.1071    1.6119 S   0  0  0  0  0  0  0  0  0  0  0  0
    1.5820   -5.8117    4.2117 C   0  0  0  0  0  0  0  0  0  0  0  0
    1.7070   -4.6799    4.9277 C   0  0  0  0  0  0  0  0  0  0  0  0
    1.6306   -3.3175    4.3731 C   0  0  0  0  0  0  0  0  0  0  0  0
    1.9869   -2.9554    3.2188 O   0  0  0  0  0  0  0  0  0  0  0  0
    1.1208   -2.4328    5.3859 C   0  0  0  0  0  0  0  0  0  0  0  0
    0.6521   -1.1176    5.1934 C   0  0  0  0  0  0  0  0  0  0  0  0
    0.0696   -0.5701    6.3178 C   0  0  0  0  0  0  0  0  0  0  0  0
   -0.0462   -1.2728    7.5630 C   0  0  0  0  0  0  0  0  0  0  0  0
    0.4051   -2.5677    7.7567 C   0  0  0  0  0  0  0  0  0  0  0  0
    1.0164   -3.1442    6.6090 C   0  0  0  0  0  0  0  0  0  0  0  0
    1.5087   -4.5366    6.3953 C   0  0  0  0  0  0  0  0  0  0  0  0
    1.9251   -5.4088    7.3459 C   0  0  0  0  0  0  0  0  0  0  0  0
    2.6146   -6.6310    7.0184 C   0  0  0  0  0  0  0  0  0  0  0  0
    3.1614   -7.6152    6.7590 N   0  0  0  0  0  0  0  0  0  0  0  0
    1.8139   -5.1232    8.7534 C   0  0  0  0  0  0  0  0  0  0  0  0
    1.7091   -4.9032    9.8900 N   0  0  0  0  0  0  0  0  0  0  0  0
   -0.7386   -0.0962    8.1813 C   0  0  0  0  0  0  0  0  0  0  0  0
    0.1016    0.7824    9.1565 C   0  0  0  0  0  0  0  0  0  0  0  0
   -0.6636    2.0769    9.3148 C   0  0  0  0  0  0  0  0  0  0  0  0
   -0.5594    2.7201    8.1457 C   0  0  0  0  0  0  0  0  0  0  0  0
    0.2610    1.8401    7.2382 C   0  0  0  0  0  0  0  0  0  0  0  0
    1.2278    1.2849    8.2699 C   0  0  0  0  0  0  0  0  0  0  0  0
   -0.6313    0.6173    6.9028 C   0  0  0  0  0  0  0  0  0  0  0  0
   -0.2586    7.4157   -4.1847 H   0  0  0  0  0  0  0  0  0  0  0  0
   -4.2311    2.5732   -4.2769 H   0  0  0  0  0  0  0  0  0  0  0  0
   -5.4433    7.0233   -2.0601 H   0  0  0  0  0  0  0  0  0  0  0  0
   -7.0485    4.3069   -0.6118 H   0  0  0  0  0  0  0  0  0  0  0  0
   -8.8576    5.6727   -2.2135 H   0  0  0  0  0  0  0  0  0  0  0  0
  -10.2916    3.7226   -1.1006 H   0  0  0  0  0  0  0  0  0  0  0  0
   -9.6297    1.4678   -2.2631 H   0  0  0  0  0  0  0  0  0  0  0  0
   -7.7831    1.9777   -4.0938 H   0  0  0  0  0  0  0  0  0  0  0  0
   -9.3729    4.1049   -4.3006 H   0  0  0  0  0  0  0  0  0  0  0  0
   -7.6477    4.6465   -4.3737 H   0  0  0  0  0  0  0  0  0  0  0  0
   -6.4692    2.2221   -1.6549 H   0  0  0  0  0  0  0  0  0  0  0  0
    1.8015    3.0027   -2.9050 H   0  0  0  0  0  0  0  0  0  0  0  0
    1.0730    3.0606   -7.1560 H   0  0  0  0  0  0  0  0  0  0  0  0
    0.1370    5.3259   -6.9505 H   0  0  0  0  0  0  0  0  0  0  0  0
    6.0708   -1.9533   -2.3762 H   0  0  0  0  0  0  0  0  0  0  0  0
    6.5792   -0.4077   -1.6492 H   0  0  0  0  0  0  0  0  0  0  0  0
    5.8298   -1.8251    0.1489 H   0  0  0  0  0  0  0  0  0  0  0  0
    4.5429   -0.5789   -0.0860 H   0  0  0  0  0  0  0  0  0  0  0  0
    4.3032   -2.2577   -0.7107 H   0  0  0  0  0  0  0  0  0  0  0  0
    6.9166    1.3578   -2.8961 H   0  0  0  0  0  0  0  0  0  0  0  0
    6.0006    2.7215   -3.5669 H   0  0  0  0  0  0  0  0  0  0  0  0
    5.6147    1.6764   -0.6903 H   0  0  0  0  0  0  0  0  0  0  0  0
    4.8319    3.1345   -1.4353 H   0  0  0  0  0  0  0  0  0  0  0  0
    6.6239    3.0891   -1.1791 H   0  0  0  0  0  0  0  0  0  0  0  0
    2.9422   -3.6427   -3.3587 H   0  0  0  0  0  0  0  0  0  0  0  0
    3.2769   -6.2660   -3.3067 H   0  0  0  0  0  0  0  0  0  0  0  0
    6.5665   -7.9203    0.1603 H   0  0  0  0  0  0  0  0  0  0  0  0
    8.3179   -7.8794    0.5416 H   0  0  0  0  0  0  0  0  0  0  0  0
    7.0780   -9.0267   -2.0483 H   0  0  0  0  0  0  0  0  0  0  0  0
    7.6676   -9.9878   -0.6477 H   0  0  0  0  0  0  0  0  0  0  0  0
    8.8496   -9.0229   -1.6143 H   0  0  0  0  0  0  0  0  0  0  0  0
   -4.4285   -1.5882    5.2648 H   0  0  0  0  0  0  0  0  0  0  0  0
   -2.8928   -1.3617    4.3615 H   0  0  0  0  0  0  0  0  0  0  0  0
   -4.1896   -4.0940    5.0072 H   0  0  0  0  0  0  0  0  0  0  0  0
   -2.8493   -3.3250    5.9477 H   0  0  0  0  0  0  0  0  0  0  0  0
   -2.5662   -3.8280    4.2459 H   0  0  0  0  0  0  0  0  0  0  0  0
   -0.5344   -1.1098    0.4109 H   0  0  0  0  0  0  0  0  0  0  0  0
   -0.4875   -4.6399    2.7327 H   0  0  0  0  0  0  0  0  0  0  0  0
    1.5148   -6.7762    4.6969 H   0  0  0  0  0  0  0  0  0  0  0  0
    0.7065   -0.5942    4.2474 H   0  0  0  0  0  0  0  0  0  0  0  0
    0.2344   -3.0886    8.6817 H   0  0  0  0  0  0  0  0  0  0  0  0
   -1.7828   -0.3082    8.5062 H   0  0  0  0  0  0  0  0  0  0  0  0
    0.4100    0.2910   10.1039 H   0  0  0  0  0  0  0  0  0  0  0  0
   -1.1304    2.4577   10.2136 H   0  0  0  0  0  0  0  0  0  0  0  0
   -0.9403    3.7139    7.9225 H   0  0  0  0  0  0  0  0  0  0  0  0
    0.7252    2.3579    6.3698 H   0  0  0  0  0  0  0  0  0  0  0  0
    1.8594    2.0718    8.7565 H   0  0  0  0  0  0  0  0  0  0  0  0
    1.9034    0.4868    7.8839 H   0  0  0  0  0  0  0  0  0  0  0  0
   -1.6058    0.8471    6.4151 H   0  0  0  0  0  0  0  0  0  0  0  0
  1  2  2  3
  2  3  1  0
  3  4  2  0
  3  5  1  0
  5  6  2  0
  6  7  1  0
  7  8  2  0
  8  9  1  0
  9 10  2  0
 10 11  1  0
 11 12  2  3
 12 13  1  0
 13 14  3  0
 12 15  1  0
 15 16  3  0
  8 17  1  0
 17 18  1  0
 18 19  1  0
 19 20  2  0
 20 21  1  0
 21 22  1  0
 21 23  1  0
  1 24  1  0
 24 25  2  0
 25 26  1  0
 25 27  1  0
 27 28  2  0
 28 29  1  0
 29 30  2  0
 28 31  1  0
 31 32  2  0
 32 33  1  0
 32 34  1  0
 34 35  1  0
 34 36  2  0
 36 37  1  0
 37 38  2  0
 38 39  1  0
 39 40  1  0
 40 41  1  0
 39 42  2  0
 42 43  1  0
 43 44  2  0
 42 45  1  0
 45 46  1  0
 36 47  1  0
 47 48  2  0
 48 49  1  0
 49 50  2  0
 50 51  1  0
 51 52  2  0
 52 53  1  0
 53 54  1  0
 53 55  2  0
 55 56  1  0
 56 57  1  0
 57 58  1  0
 55 59  1  0
 50 60  1  0
 60 61  2  0
 61 62  1  0
 62 63  1  0
 63 64  1  0
 64 65  1  0
 65 66  1  0
 66 67  1  0
 67 68  1  0
 65 69  2  0
 69 70  1  0
 69 71  1  0
 62 72  2  0
 72 73  1  0
 61 74  1  0
 74 75  2  0
 75 76  1  0
 75 77  1  0
 77 78  2  3
 78 79  1  0
 79 80  2  0
 79 81  1  0
 81 82  2  0
 82 83  1  0
 83 84  2  0
 84 85  1  0
 85 86  2  0
 86 87  1  0
 87 88  2  3
 88 89  1  0
 89 90  3  0
 88 91  1  0
 91 92  3  0
 84 93  1  0
 93 94  1  0
 94 95  1  0
 95 96  2  0
 96 97  1  0
 97 98  1  0
 97 99  1  0
 11  2  1  0
 23 17  1  0
 30 24  1  0
 44 31  1  0
 73 47  1  0
 87 78  1  0
 99 93  1  0
 10  5  1  0
 22 18  1  0
 44 37  1  0
 72 49  1  0
 86 81  1  0
 98 94  1  0
 23  7  1  0
 59 51  1  0
 76 60  1  0
 99 83  1  0
 70 63  2  0
  1100  1  0
  6101  1  0
  9102  1  0
 17103  1  0
 18104  1  0
 19105  1  0
 20106  1  0
 21107  1  0
 22108  1  0
 22109  1  0
 23110  1  0
 27111  1  0
 29112  1  0
 30113  1  0
 40114  1  0
 40115  1  0
 41116  1  0
 41117  1  0
 41118  1  0
 45119  1  0
 45120  1  0
 46121  1  0
 46122  1  0
 46123  1  0
 48124  1  0
 52125  1  0
 57126  1  0
 57127  1  0
 58128  1  0
 58129  1  0
 58130  1  0
 67131  1  0
 67132  1  0
 68133  1  0
 68134  1  0
 68135  1  0
 70136  1  0
 74137  1  0
 77138  1  0
 82139  1  0
 85140  1  0
 93141  1  0
 94142  1  0
 95143  1  0
 96144  1  0
 97145  1  0
 98146  1  0
 98147  1  0
 99148  1  0
M  END

