
     RDKit          3D

218240  0  0  0  0  0  0  0  0999 V2000
   -1.9640   -5.3396    6.6227 C   0  0  0  0  0  0  0  0  0  0  0  0
   -0.6776   -4.9440    6.8060 C   0  0  0  0  0  0  0  0  0  0  0  0
    0.0792   -4.0905    5.8781 C   0  0  0  0  0  0  0  0  0  0  0  0
   -0.3405   -3.5789    4.8098 O   0  0  0  0  0  0  0  0  0  0  0  0
    1.4093   -3.8939    6.3839 C   0  0  0  0  0  0  0  0  0  0  0  0
    2.4296   -3.1271    5.7740 C   0  0  0  0  0  0  0  0  0  0  0  0
    3.5943   -3.0590    6.5096 C   0  0  0  0  0  0  0  0  0  0  0  0
    3.7560   -3.7027    7.7755 C   0  0  0  0  0  0  0  0  0  0  0  0
    2.7606   -4.4575    8.3783 C   0  0  0  0  0  0  0  0  0  0  0  0
    1.5467   -4.5617    7.6261 C   0  0  0  0  0  0  0  0  0  0  0  0
    0.2570   -5.2574    7.9495 C   0  0  0  0  0  0  0  0  0  0  0  0
    0.0015   -6.0055    9.0601 C   0  0  0  0  0  0  0  0  0  0  0  0
    1.0111   -6.3405   10.0301 C   0  0  0  0  0  0  0  0  0  0  0  0
    1.8062   -6.6274   10.8231 N   0  0  0  0  0  0  0  0  0  0  0  0
   -1.2958   -6.5296    9.3888 C   0  0  0  0  0  0  0  0  0  0  0  0
   -2.3319   -6.9488    9.6817 N   0  0  0  0  0  0  0  0  0  0  0  0
    5.1623   -3.1837    7.8777 C   0  0  0  0  0  0  0  0  0  0  0  0
    6.3347   -4.1833    7.6343 C   0  0  0  0  0  0  0  0  0  0  0  0
    5.8923   -5.2697    6.6810 C   0  0  0  0  0  0  0  0  0  0  0  0
    5.7269   -4.6866    5.4918 C   0  0  0  0  0  0  0  0  0  0  0  0
    6.0697   -3.2250    5.6769 C   0  0  0  0  0  0  0  0  0  0  0  0
    7.1929   -3.3685    6.6834 C   0  0  0  0  0  0  0  0  0  0  0  0
    4.9969   -2.5361    6.5708 C   0  0  0  0  0  0  0  0  0  0  0  0
   -2.7950   -4.9022    5.4794 C   0  0  0  0  0  0  0  0  0  0  0  0
   -2.4597   -5.2580    4.1644 C   0  0  0  0  0  0  0  0  0  0  0  0
   -1.4478   -6.1300    3.9284 F   0  0  0  0  0  0  0  0  0  0  0  0
   -3.0807   -4.6102    3.0913 C   0  0  0  0  0  0  0  0  0  0  0  0
   -4.0717   -3.6386    3.3201 C   0  0  0  0  0  0  0  0  0  0  0  0
   -4.5449   -3.4484    4.6246 C   0  0  0  0  0  0  0  0  0  0  0  0
   -3.8952   -4.0669    5.7046 C   0  0  0  0  0  0  0  0  0  0  0  0
   -4.4273   -2.7054    2.2293 C   0  0  0  0  0  0  0  0  0  0  0  0
   -4.2927   -1.3020    2.2963 C   0  0  0  0  0  0  0  0  0  0  0  0
   -4.3770   -0.5137    3.4989 N   0  0  0  0  0  0  0  0  0  0  0  0
   -3.3020   -0.5601    4.4609 C   0  0  0  0  0  0  0  0  0  0  0  0
   -3.5839   -0.6569    5.8354 C   0  0  0  0  0  0  0  0  0  0  0  0
   -2.5471   -0.7592    6.7659 C   0  0  0  0  0  0  0  0  0  0  0  0
   -1.2147   -0.7307    6.3407 C   0  0  0  0  0  0  0  0  0  0  0  0
    0.1101   -0.8616    7.5428 S   0  0  0  0  0  0  0  0  0  0  0  0
    0.1310    0.9217    7.8925 C   0  0  0  0  0  0  0  0  0  0  0  0
   -0.9272   -0.6160    4.9741 C   0  0  0  0  0  0  0  0  0  0  0  0
   -1.9638   -0.5436    4.0388 C   0  0  0  0  0  0  0  0  0  0  0  0
   -5.5627    0.2924    3.7184 C   0  0  0  0  0  0  0  0  0  0  0  0
   -5.5099    1.4599    4.5023 C   0  0  0  0  0  0  0  0  0  0  0  0
   -6.6616    2.2297    4.7075 C   0  0  0  0  0  0  0  0  0  0  0  0
   -7.8746    1.8550    4.1210 C   0  0  0  0  0  0  0  0  0  0  0  0
   -9.3495    2.8521    4.3537 S   0  0  0  0  0  0  0  0  0  0  0  0
   -9.8116    2.0457    5.9201 C   0  0  0  0  0  0  0  0  0  0  0  0
   -7.9337    0.7119    3.3223 C   0  0  0  0  0  0  0  0  0  0  0  0
   -6.7892   -0.0680    3.1253 C   0  0  0  0  0  0  0  0  0  0  0  0
   -4.1870   -0.7385    1.0276 C   0  0  0  0  0  0  0  0  0  0  0  0
   -3.4716    0.6731    0.4825 S   0  0  0  0  0  0  0  0  0  0  0  0
   -3.3209    0.1620   -1.1431 C   0  0  0  0  0  0  0  0  0  0  0  0
   -3.8531   -1.1336   -1.2403 C   0  0  0  0  0  0  0  0  0  0  0  0
   -4.4308   -1.6320   -2.4560 N   0  0  0  0  0  0  0  0  0  0  0  0
   -5.8193   -1.3051   -2.6583 C   0  0  0  0  0  0  0  0  0  0  0  0
   -6.2058    0.0347   -2.8089 C   0  0  0  0  0  0  0  0  0  0  0  0
   -7.5527    0.3821   -2.8808 C   0  0  0  0  0  0  0  0  0  0  0  0
   -8.5372   -0.6020   -2.7499 C   0  0  0  0  0  0  0  0  0  0  0  0
  -10.2728   -0.1379   -2.7252 S   0  0  0  0  0  0  0  0  0  0  0  0
  -10.2505    0.3020   -0.9556 C   0  0  0  0  0  0  0  0  0  0  0  0
   -8.1632   -1.9442   -2.5927 C   0  0  0  0  0  0  0  0  0  0  0  0
   -6.8084   -2.2967   -2.5489 C   0  0  0  0  0  0  0  0  0  0  0  0
   -3.7147   -2.5272   -3.3395 C   0  0  0  0  0  0  0  0  0  0  0  0
   -4.3197   -2.9986   -4.5223 C   0  0  0  0  0  0  0  0  0  0  0  0
   -3.6336   -3.8501   -5.3870 C   0  0  0  0  0  0  0  0  0  0  0  0
   -2.3325   -4.2663   -5.0878 C   0  0  0  0  0  0  0  0  0  0  0  0
   -1.4701   -5.3822   -6.1969 S   0  0  0  0  0  0  0  0  0  0  0  0
   -2.1715   -6.8777   -5.4358 C   0  0  0  0  0  0  0  0  0  0  0  0
   -1.7149   -3.8043   -3.9189 C   0  0  0  0  0  0  0  0  0  0  0  0
   -2.3979   -2.9450   -3.0503 C   0  0  0  0  0  0  0  0  0  0  0  0
   -4.2920   -1.6019   -0.0066 C   0  0  0  0  0  0  0  0  0  0  0  0
   -4.4586   -3.1642    0.5835 S   0  0  0  0  0  0  0  0  0  0  0  0
   -2.0959    0.5130   -1.8678 C   0  0  0  0  0  0  0  0  0  0  0  0
   -1.9252    1.4913   -2.8663 C   0  0  0  0  0  0  0  0  0  0  0  0
   -2.9797    2.1595   -3.5716 N   0  0  0  0  0  0  0  0  0  0  0  0
   -3.0782    3.5822   -3.3933 C   0  0  0  0  0  0  0  0  0  0  0  0
   -2.8293    4.4550   -4.4666 C   0  0  0  0  0  0  0  0  0  0  0  0
   -2.8560    5.8387   -4.2706 C   0  0  0  0  0  0  0  0  0  0  0  0
   -3.1384    6.3615   -3.0044 C   0  0  0  0  0  0  0  0  0  0  0  0
   -3.1651    8.1371   -2.7567 S   0  0  0  0  0  0  0  0  0  0  0  0
   -4.9319    8.2925   -3.1765 C   0  0  0  0  0  0  0  0  0  0  0  0
   -3.3740    5.4953   -1.9268 C   0  0  0  0  0  0  0  0  0  0  0  0
   -3.3357    4.1146   -2.1182 C   0  0  0  0  0  0  0  0  0  0  0  0
   -3.6416    1.5131   -4.6879 C   0  0  0  0  0  0  0  0  0  0  0  0
   -3.1309    0.3227   -5.2562 C   0  0  0  0  0  0  0  0  0  0  0  0
   -3.7675   -0.2793   -6.3464 C   0  0  0  0  0  0  0  0  0  0  0  0
   -4.9304    0.2833   -6.8801 C   0  0  0  0  0  0  0  0  0  0  0  0
   -5.7266   -0.4613   -8.3074 S   0  0  0  0  0  0  0  0  0  0  0  0
   -6.7871   -1.5628   -7.3192 C   0  0  0  0  0  0  0  0  0  0  0  0
   -5.4542    1.4513   -6.3240 C   0  0  0  0  0  0  0  0  0  0  0  0
   -4.8222    2.0595   -5.2355 C   0  0  0  0  0  0  0  0  0  0  0  0
   -0.5711    1.7482   -3.0924 C   0  0  0  0  0  0  0  0  0  0  0  0
    0.2862    2.9047   -3.9646 S   0  0  0  0  0  0  0  0  0  0  0  0
    1.8081    2.4068   -3.3836 C   0  0  0  0  0  0  0  0  0  0  0  0
    1.6277    1.3528   -2.4687 C   0  0  0  0  0  0  0  0  0  0  0  0
    2.6663    0.7957   -1.6478 N   0  0  0  0  0  0  0  0  0  0  0  0
    3.4669   -0.2708   -2.1878 C   0  0  0  0  0  0  0  0  0  0  0  0
    4.8636   -0.2549   -2.0358 C   0  0  0  0  0  0  0  0  0  0  0  0
    5.6428   -1.2863   -2.5701 C   0  0  0  0  0  0  0  0  0  0  0  0
    5.0361   -2.3422   -3.2591 C   0  0  0  0  0  0  0  0  0  0  0  0
    6.0391   -3.6671   -3.9373 S   0  0  0  0  0  0  0  0  0  0  0  0
    6.2997   -2.8142   -5.5241 C   0  0  0  0  0  0  0  0  0  0  0  0
    3.6447   -2.3640   -3.4132 C   0  0  0  0  0  0  0  0  0  0  0  0
    2.8623   -1.3368   -2.8793 C   0  0  0  0  0  0  0  0  0  0  0  0
    2.8470    1.2518   -0.2871 C   0  0  0  0  0  0  0  0  0  0  0  0
    2.5713    2.5844    0.0671 C   0  0  0  0  0  0  0  0  0  0  0  0
    2.8035    3.0343    1.3722 C   0  0  0  0  0  0  0  0  0  0  0  0
    3.2913    2.1548    2.3432 C   0  0  0  0  0  0  0  0  0  0  0  0
    3.6361    2.7470    4.0003 S   0  0  0  0  0  0  0  0  0  0  0  0
    1.9745    2.3391    4.6180 C   0  0  0  0  0  0  0  0  0  0  0  0
    3.5329    0.8179    2.0143 C   0  0  0  0  0  0  0  0  0  0  0  0
    3.3062    0.3673    0.7082 C   0  0  0  0  0  0  0  0  0  0  0  0
    0.2862    1.0235   -2.3359 C   0  0  0  0  0  0  0  0  0  0  0  0
   -0.5643    0.0181   -1.3040 S   0  0  0  0  0  0  0  0  0  0  0  0
    3.0284    3.2152   -3.4928 C   0  0  0  0  0  0  0  0  0  0  0  0
    4.1832    2.7501   -3.9996 C   0  0  0  0  0  0  0  0  0  0  0  0
    4.3131    1.5844   -4.8850 C   0  0  0  0  0  0  0  0  0  0  0  0
    3.4132    0.7386   -5.1395 O   0  0  0  0  0  0  0  0  0  0  0  0
    5.6019    1.6481   -5.5381 C   0  0  0  0  0  0  0  0  0  0  0  0
    6.1045    0.7662   -6.5220 C   0  0  0  0  0  0  0  0  0  0  0  0
    7.3326    1.1411   -7.0347 C   0  0  0  0  0  0  0  0  0  0  0  0
    8.0137    2.3343   -6.6321 C   0  0  0  0  0  0  0  0  0  0  0  0
    7.5262    3.2008   -5.6720 C   0  0  0  0  0  0  0  0  0  0  0  0
    6.2874    2.8082   -5.0967 C   0  0  0  0  0  0  0  0  0  0  0  0
    5.4874    3.4723   -4.0352 C   0  0  0  0  0  0  0  0  0  0  0  0
    5.9503    4.3396   -3.0970 C   0  0  0  0  0  0  0  0  0  0  0  0
    5.1717    4.7100   -1.9442 C   0  0  0  0  0  0  0  0  0  0  0  0
    4.5575    5.0118   -1.0095 N   0  0  0  0  0  0  0  0  0  0  0  0
    7.2940    4.8535   -3.1099 C   0  0  0  0  0  0  0  0  0  0  0  0
    8.3758    5.2713   -3.1029 N   0  0  0  0  0  0  0  0  0  0  0  0
    9.1308    2.0395   -7.5907 C   0  0  0  0  0  0  0  0  0  0  0  0
   10.4830    1.5376   -6.9971 C   0  0  0  0  0  0  0  0  0  0  0  0
   10.2281    0.7792   -5.7176 C   0  0  0  0  0  0  0  0  0  0  0  0
    9.5959   -0.3451   -6.0658 C   0  0  0  0  0  0  0  0  0  0  0  0
    9.4475   -0.3105   -7.5712 C   0  0  0  0  0  0  0  0  0  0  0  0
   10.7594    0.3677   -7.9201 C   0  0  0  0  0  0  0  0  0  0  0  0
    8.4430    0.8068   -7.9859 C   0  0  0  0  0  0  0  0  0  0  0  0
   -2.4872   -5.9208    7.3568 H   0  0  0  0  0  0  0  0  0  0  0  0
    2.3123   -2.6278    4.8219 H   0  0  0  0  0  0  0  0  0  0  0  0
    2.9358   -4.8990    9.3407 H   0  0  0  0  0  0  0  0  0  0  0  0
    5.3151   -2.4622    8.7107 H   0  0  0  0  0  0  0  0  0  0  0  0
    6.8487   -4.5448    8.5520 H   0  0  0  0  0  0  0  0  0  0  0  0
    5.7890   -6.3294    6.8905 H   0  0  0  0  0  0  0  0  0  0  0  0
    5.4635   -5.1916    4.5699 H   0  0  0  0  0  0  0  0  0  0  0  0
    6.3291   -2.6860    4.7436 H   0  0  0  0  0  0  0  0  0  0  0  0
    7.5342   -2.3965    7.1183 H   0  0  0  0  0  0  0  0  0  0  0  0
    8.0748   -3.9246    6.2885 H   0  0  0  0  0  0  0  0  0  0  0  0
    5.0576   -1.4248    6.6107 H   0  0  0  0  0  0  0  0  0  0  0  0
   -2.7195   -4.8071    2.0907 H   0  0  0  0  0  0  0  0  0  0  0  0
   -5.3488   -2.7535    4.8211 H   0  0  0  0  0  0  0  0  0  0  0  0
   -4.1998   -3.8265    6.7181 H   0  0  0  0  0  0  0  0  0  0  0  0
   -4.6069   -0.6898    6.1811 H   0  0  0  0  0  0  0  0  0  0  0  0
   -2.7821   -0.8589    7.8184 H   0  0  0  0  0  0  0  0  0  0  0  0
    0.2433    1.4978    6.9486 H   0  0  0  0  0  0  0  0  0  0  0  0
    0.9922    1.1474    8.5598 H   0  0  0  0  0  0  0  0  0  0  0  0
   -0.8110    1.2172    8.4029 H   0  0  0  0  0  0  0  0  0  0  0  0
    0.1055   -0.6052    4.6399 H   0  0  0  0  0  0  0  0  0  0  0  0
   -1.7161   -0.4731    2.9882 H   0  0  0  0  0  0  0  0  0  0  0  0
   -4.5839    1.7857    4.9554 H   0  0  0  0  0  0  0  0  0  0  0  0
   -6.6098    3.1142    5.3287 H   0  0  0  0  0  0  0  0  0  0  0  0
  -10.8478    2.3466    6.1841 H   0  0  0  0  0  0  0  0  0  0  0  0
   -9.7667    0.9399    5.8267 H   0  0  0  0  0  0  0  0  0  0  0  0
   -9.1232    2.3865    6.7220 H   0  0  0  0  0  0  0  0  0  0  0  0
   -8.8661    0.4271    2.8506 H   0  0  0  0  0  0  0  0  0  0  0  0
   -6.8785   -0.9575    2.5148 H   0  0  0  0  0  0  0  0  0  0  0  0
   -5.4690    0.8173   -2.8287 H   0  0  0  0  0  0  0  0  0  0  0  0
   -7.8404    1.4179   -2.9929 H   0  0  0  0  0  0  0  0  0  0  0  0
  -11.2719    0.6133   -0.6517 H   0  0  0  0  0  0  0  0  0  0  0  0
   -9.5568    1.1492   -0.7834 H   0  0  0  0  0  0  0  0  0  0  0  0
   -9.9376   -0.5709   -0.3429 H   0  0  0  0  0  0  0  0  0  0  0  0
   -8.9223   -2.7105   -2.4796 H   0  0  0  0  0  0  0  0  0  0  0  0
   -6.5265   -3.3306   -2.3966 H   0  0  0  0  0  0  0  0  0  0  0  0
   -5.3163   -2.6925   -4.7967 H   0  0  0  0  0  0  0  0  0  0  0  0
   -4.1131   -4.1948   -6.2959 H   0  0  0  0  0  0  0  0  0  0  0  0
   -1.8698   -7.7630   -6.0331 H   0  0  0  0  0  0  0  0  0  0  0  0
   -1.7873   -6.9963   -4.4034 H   0  0  0  0  0  0  0  0  0  0  0  0
   -3.2808   -6.8254   -5.4180 H   0  0  0  0  0  0  0  0  0  0  0  0
   -0.7056   -4.1170   -3.6818 H   0  0  0  0  0  0  0  0  0  0  0  0
   -1.8929   -2.6092   -2.1531 H   0  0  0  0  0  0  0  0  0  0  0  0
   -2.5911    4.0617   -5.4472 H   0  0  0  0  0  0  0  0  0  0  0  0
   -2.6540    6.4997   -5.1005 H   0  0  0  0  0  0  0  0  0  0  0  0
   -5.1881    9.3691   -3.2423 H   0  0  0  0  0  0  0  0  0  0  0  0
   -5.1482    7.8069   -4.1509 H   0  0  0  0  0  0  0  0  0  0  0  0
   -5.5438    7.8255   -2.3765 H   0  0  0  0  0  0  0  0  0  0  0  0
   -3.5788    5.8966   -0.9445 H   0  0  0  0  0  0  0  0  0  0  0  0
   -3.5130    3.4507   -1.2816 H   0  0  0  0  0  0  0  0  0  0  0  0
   -2.2366   -0.1413   -4.8670 H   0  0  0  0  0  0  0  0  0  0  0  0
   -3.3555   -1.1834   -6.7805 H   0  0  0  0  0  0  0  0  0  0  0  0
   -7.5387   -2.0337   -7.9881 H   0  0  0  0  0  0  0  0  0  0  0  0
   -6.1688   -2.3637   -6.8709 H   0  0  0  0  0  0  0  0  0  0  0  0
   -7.3161   -0.9932   -6.5241 H   0  0  0  0  0  0  0  0  0  0  0  0
   -6.3506    1.8947   -6.7410 H   0  0  0  0  0  0  0  0  0  0  0  0
   -5.2545    2.9567   -4.8211 H   0  0  0  0  0  0  0  0  0  0  0  0
    5.3470    0.5647   -1.5222 H   0  0  0  0  0  0  0  0  0  0  0  0
    6.7183   -1.2606   -2.4499 H   0  0  0  0  0  0  0  0  0  0  0  0
    5.3264   -2.5713   -5.9946 H   0  0  0  0  0  0  0  0  0  0  0  0
    6.8793   -1.8848   -5.3557 H   0  0  0  0  0  0  0  0  0  0  0  0
    6.8742   -3.4803   -6.2008 H   0  0  0  0  0  0  0  0  0  0  0  0
    3.1689   -3.1790   -3.9462 H   0  0  0  0  0  0  0  0  0  0  0  0
    1.7895   -1.3743   -3.0085 H   0  0  0  0  0  0  0  0  0  0  0  0
    2.2048    3.2854   -0.6690 H   0  0  0  0  0  0  0  0  0  0  0  0
    2.6086    4.0685    1.6223 H   0  0  0  0  0  0  0  0  0  0  0  0
    1.7940    1.2488    4.5268 H   0  0  0  0  0  0  0  0  0  0  0  0
    1.2059    2.8999    4.0523 H   0  0  0  0  0  0  0  0  0  0  0  0
    1.9170    2.6260    5.6870 H   0  0  0  0  0  0  0  0  0  0  0  0
    3.9021    0.1345    2.7651 H   0  0  0  0  0  0  0  0  0  0  0  0
    3.4918   -0.6739    0.4800 H   0  0  0  0  0  0  0  0  0  0  0  0
    2.9661    4.2284   -3.1297 H   0  0  0  0  0  0  0  0  0  0  0  0
    5.5736   -0.1103   -6.8649 H   0  0  0  0  0  0  0  0  0  0  0  0
    8.0575    4.1068   -5.4326 H   0  0  0  0  0  0  0  0  0  0  0  0
    9.2260    2.7832   -8.4146 H   0  0  0  0  0  0  0  0  0  0  0  0
   11.2878    2.3012   -6.9368 H   0  0  0  0  0  0  0  0  0  0  0  0
   10.5600    1.0352   -4.7188 H   0  0  0  0  0  0  0  0  0  0  0  0
    9.3332   -1.1554   -5.3957 H   0  0  0  0  0  0  0  0  0  0  0  0
    9.2783   -1.3003   -8.0469 H   0  0  0  0  0  0  0  0  0  0  0  0
   10.8334    0.6588   -8.9980 H   0  0  0  0  0  0  0  0  0  0  0  0
   11.6578   -0.2239   -7.6342 H   0  0  0  0  0  0  0  0  0  0  0  0
    8.1364    0.7900   -9.0564 H   0  0  0  0  0  0  0  0  0  0  0  0
  1  2  2  3
  2  3  1  0
  3  4  2  0
  3  5  1  0
  5  6  2  0
  6  7  1  0
  7  8  2  0
  8  9  1  0
  9 10  2  0
 10 11  1  0
 11 12  2  3
 12 13  1  0
 13 14  3  0
 12 15  1  0
 15 16  3  0
  8 17  1  0
 17 18  1  0
 18 19  1  0
 19 20  2  0
 20 21  1  0
 21 22  1  0
 21 23  1  0
  1 24  1  0
 24 25  2  0
 25 26  1  0
 25 27  1  0
 27 28  2  0
 28 29  1  0
 29 30  2  0
 28 31  1  0
 31 32  2  0
 32 33  1  0
 33 34  1  0
 34 35  2  0
 35 36  1  0
 36 37  2  0
 37 38  1  0
 38 39  1  0
 37 40  1  0
 40 41  2  0
 33 42  1  0
 42 43  2  0
 43 44  1  0
 44 45  2  0
 45 46  1  0
 46 47  1  0
 45 48  1  0
 48 49  2  0
 32 50  1  0
 50 51  1  0
 51 52  1  0
 52 53  2  0
 53 54  1  0
 54 55  1  0
 55 56  2  0
 56 57  1  0
 57 58  2  0
 58 59  1  0
 59 60  1  0
 58 61  1  0
 61 62  2  0
 54 63  1  0
 63 64  2  0
 64 65  1  0
 65 66  2  0
 66 67  1  0
 67 68  1  0
 66 69  1  0
 69 70  2  0
 53 71  1  0
 71 72  1  0
 52 73  1  0
 73 74  2  0
 74 75  1  0
 75 76  1  0
 76 77  2  0
 77 78  1  0
 78 79  2  0
 79 80  1  0
 80 81  1  0
 79 82  1  0
 82 83  2  0
 75 84  1  0
 84 85  2  0
 85 86  1  0
 86 87  2  0
 87 88  1  0
 88 89  1  0
 87 90  1  0
 90 91  2  0
 74 92  1  0
 92 93  1  0
 93 94  1  0
 94 95  2  0
 95 96  1  0
 96 97  1  0
 97 98  2  0
 98 99  1  0
 99100  2  0
100101  1  0
101102  1  0
100103  1  0
103104  2  0
 96105  1  0
105106  2  0
106107  1  0
107108  2  0
108109  1  0
109110  1  0
108111  1  0
111112  2  0
 95113  1  0
113114  1  0
 94115  1  0
115116  2  3
116117  1  0
117118  2  0
117119  1  0
119120  2  0
120121  1  0
121122  2  0
122123  1  0
123124  2  0
124125  1  0
125126  2  3
126127  1  0
127128  3  0
126129  1  0
129130  3  0
122131  1  0
131132  1  0
132133  1  0
133134  2  0
134135  1  0
135136  1  0
135137  1  0
 11  2  1  0
 23 17  1  0
 30 24  1  0
 72 31  1  0
114 73  1  0
125116  1  0
137131  1  0
 10  5  1  0
 22 18  1  0
 41 34  1  0
 49 42  1  0
 71 50  2  0
 83 76  1  0
 91 84  1  0
113 92  2  0
124119  1  0
136132  1  0
 23  7  1  0
 62 55  1  0
 70 63  1  0
104 97  1  0
112105  1  0
137121  1  0
  1138  1  0
  6139  1  0
  9140  1  0
 17141  1  0
 18142  1  0
 19143  1  0
 20144  1  0
 21145  1  0
 22146  1  0
 22147  1  0
 23148  1  0
 27149  1  0
 29150  1  0
 30151  1  0
 35152  1  0
 36153  1  0
 39154  1  0
 39155  1  0
 39156  1  0
 40157  1  0
 41158  1  0
 43159  1  0
 44160  1  0
 47161  1  0
 47162  1  0
 47163  1  0
 48164  1  0
 49165  1  0
 56166  1  0
 57167  1  0
 60168  1  0
 60169  1  0
 60170  1  0
 61171  1  0
 62172  1  0
 64173  1  0
 65174  1  0
 68175  1  0
 68176  1  0
 68177  1  0
 69178  1  0
 70179  1  0
 77180  1  0
 78181  1  0
 81182  1  0
 81183  1  0
 81184  1  0
 82185  1  0
 83186  1  0
 85187  1  0
 86188  1  0
 89189  1  0
 89190  1  0
 89191  1  0
 90192  1  0
 91193  1  0
 98194  1  0
 99195  1  0
102196  1  0
102197  1  0
102198  1  0
103199  1  0
104200  1  0
106201  1  0
107202  1  0
110203  1  0
110204  1  0
110205  1  0
111206  1  0
112207  1  0
115208  1  0
120209  1  0
123210  1  0
131211  1  0
132212  1  0
133213  1  0
134214  1  0
135215  1  0
136216  1  0
136217  1  0
137218  1  0
M  END

