
     RDKit          3D

174193  0  0  0  0  0  0  0  0999 V2000
    3.5000    6.4034   -5.6753 C   0  0  0  0  0  0  0  0  0  0  0  0
    2.2811    5.8397   -5.7370 C   0  0  0  0  0  0  0  0  0  0  0  0
    1.8217    4.6867   -4.9440 C   0  0  0  0  0  0  0  0  0  0  0  0
    2.4199    4.1615   -3.9664 O   0  0  0  0  0  0  0  0  0  0  0  0
    0.5550    4.2253   -5.4673 C   0  0  0  0  0  0  0  0  0  0  0  0
   -0.2471    3.1856   -4.9465 C   0  0  0  0  0  0  0  0  0  0  0  0
   -1.4719    3.0717   -5.5625 C   0  0  0  0  0  0  0  0  0  0  0  0
   -1.8832    3.9143   -6.6426 C   0  0  0  0  0  0  0  0  0  0  0  0
   -1.0906    4.9122   -7.1840 C   0  0  0  0  0  0  0  0  0  0  0  0
    0.1880    5.0405   -6.5716 C   0  0  0  0  0  0  0  0  0  0  0  0
    1.2222    6.1115   -6.7531 C   0  0  0  0  0  0  0  0  0  0  0  0
    1.0801    7.2386   -7.4764 C   0  0  0  0  0  0  0  0  0  0  0  0
    1.6564    8.4877   -7.0516 C   0  0  0  0  0  0  0  0  0  0  0  0
    2.0295    9.5458   -6.7271 N   0  0  0  0  0  0  0  0  0  0  0  0
    0.1916    7.3299   -8.6011 C   0  0  0  0  0  0  0  0  0  0  0  0
   -0.5095    7.4031   -9.5167 N   0  0  0  0  0  0  0  0  0  0  0  0
   -3.2458    3.2736   -6.6460 C   0  0  0  0  0  0  0  0  0  0  0  0
   -4.4284    4.0901   -6.0330 C   0  0  0  0  0  0  0  0  0  0  0  0
   -3.9090    4.9977   -4.9339 C   0  0  0  0  0  0  0  0  0  0  0  0
   -3.5366    4.2038   -3.9291 C   0  0  0  0  0  0  0  0  0  0  0  0
   -3.7969    2.7826   -4.3870 C   0  0  0  0  0  0  0  0  0  0  0  0
   -5.0696    3.0174   -5.1831 C   0  0  0  0  0  0  0  0  0  0  0  0
   -2.8163    2.4006   -5.5443 C   0  0  0  0  0  0  0  0  0  0  0  0
    4.4176    6.0584   -4.5798 C   0  0  0  0  0  0  0  0  0  0  0  0
    5.2876    4.9560   -4.6788 C   0  0  0  0  0  0  0  0  0  0  0  0
    5.5889    4.4105   -5.8852 F   0  0  0  0  0  0  0  0  0  0  0  0
    5.7545    4.3384   -3.5081 C   0  0  0  0  0  0  0  0  0  0  0  0
    6.7146    3.3848   -3.6024 F   0  0  0  0  0  0  0  0  0  0  0  0
    5.2299    4.7362   -2.2572 C   0  0  0  0  0  0  0  0  0  0  0  0
    4.6566    6.0294   -2.1818 C   0  0  0  0  0  0  0  0  0  0  0  0
    4.4022    6.6190   -0.9892 F   0  0  0  0  0  0  0  0  0  0  0  0
    4.2321    6.6776   -3.3368 C   0  0  0  0  0  0  0  0  0  0  0  0
    3.4991    7.8144   -3.2350 F   0  0  0  0  0  0  0  0  0  0  0  0
    5.0108    3.7908   -1.1150 C   0  0  0  0  0  0  0  0  0  0  0  0
    5.5064    2.4746   -0.8517 C   0  0  0  0  0  0  0  0  0  0  0  0
    6.0171    1.5669   -1.8525 N   0  0  0  0  0  0  0  0  0  0  0  0
    5.1189    1.1658   -2.9299 C   0  0  0  0  0  0  0  0  0  0  0  0
    5.6052    0.8547   -4.2079 C   0  0  0  0  0  0  0  0  0  0  0  0
    4.7401    0.4926   -5.2418 C   0  0  0  0  0  0  0  0  0  0  0  0
    3.3576    0.4525   -5.0195 C   0  0  0  0  0  0  0  0  0  0  0  0
    2.2342   -0.0433   -6.3324 S   0  0  0  0  0  0  0  0  0  0  0  0
    2.0878    1.6171   -7.0763 C   0  0  0  0  0  0  0  0  0  0  0  0
    2.8457    0.7980   -3.7672 C   0  0  0  0  0  0  0  0  0  0  0  0
    3.7140    1.1481   -2.7316 C   0  0  0  0  0  0  0  0  0  0  0  0
    7.2661    0.8683   -1.5695 C   0  0  0  0  0  0  0  0  0  0  0  0
    7.5573   -0.3852   -2.1314 C   0  0  0  0  0  0  0  0  0  0  0  0
    8.7386   -1.0539   -1.8147 C   0  0  0  0  0  0  0  0  0  0  0  0
    9.6299   -0.5111   -0.8864 C   0  0  0  0  0  0  0  0  0  0  0  0
   11.1282   -1.3936   -0.4437 S   0  0  0  0  0  0  0  0  0  0  0  0
   10.3071   -2.4867    0.7633 C   0  0  0  0  0  0  0  0  0  0  0  0
    9.3558    0.7210   -0.3024 C   0  0  0  0  0  0  0  0  0  0  0  0
    8.1928    1.4171   -0.6509 C   0  0  0  0  0  0  0  0  0  0  0  0
    4.9754    1.9671    0.3487 C   0  0  0  0  0  0  0  0  0  0  0  0
    4.9823    0.4458    1.0760 S   0  0  0  0  0  0  0  0  0  0  0  0
    3.6590    0.7841    2.1043 C   0  0  0  0  0  0  0  0  0  0  0  0
    3.1262    2.0324    1.7516 C   0  0  0  0  0  0  0  0  0  0  0  0
    1.7032    2.3070    1.7593 N   0  0  0  0  0  0  0  0  0  0  0  0
    0.8543    1.7998    0.6863 C   0  0  0  0  0  0  0  0  0  0  0  0
   -0.3118    2.4910    0.2949 C   0  0  0  0  0  0  0  0  0  0  0  0
   -1.1576    1.9684   -0.6947 C   0  0  0  0  0  0  0  0  0  0  0  0
   -0.8332    0.7723   -1.3407 C   0  0  0  0  0  0  0  0  0  0  0  0
   -1.9460    0.0709   -2.5640 S   0  0  0  0  0  0  0  0  0  0  0  0
   -2.8290   -1.0022   -1.3790 C   0  0  0  0  0  0  0  0  0  0  0  0
    0.3572    0.1236   -1.0265 C   0  0  0  0  0  0  0  0  0  0  0  0
    1.1894    0.6272   -0.0241 C   0  0  0  0  0  0  0  0  0  0  0  0
    1.1630    3.1757    2.7806 C   0  0  0  0  0  0  0  0  0  0  0  0
   -0.0829    2.8918    3.3671 C   0  0  0  0  0  0  0  0  0  0  0  0
   -0.6381    3.7639    4.3073 C   0  0  0  0  0  0  0  0  0  0  0  0
    0.0602    4.9091    4.7004 C   0  0  0  0  0  0  0  0  0  0  0  0
   -0.6545    6.0292    5.9105 S   0  0  0  0  0  0  0  0  0  0  0  0
   -0.0795    5.0821    7.3575 C   0  0  0  0  0  0  0  0  0  0  0  0
    1.3219    5.1722    4.1579 C   0  0  0  0  0  0  0  0  0  0  0  0
    1.8680    4.3140    3.2027 C   0  0  0  0  0  0  0  0  0  0  0  0
    3.9636    2.6931    0.8733 C   0  0  0  0  0  0  0  0  0  0  0  0
    3.7499    4.0751   -0.0082 S   0  0  0  0  0  0  0  0  0  0  0  0
    2.9139   -0.1808    2.9312 C   0  0  0  0  0  0  0  0  0  0  0  0
    2.6492   -1.4786    2.4496 C   0  0  0  0  0  0  0  0  0  0  0  0
    1.5272   -2.1514    2.9520 C   0  0  0  0  0  0  0  0  0  0  0  0
    0.9326   -3.2555    2.4300 N   0  0  0  0  0  0  0  0  0  0  0  0
    1.4225   -4.0830    1.3243 C   0  0  0  0  0  0  0  0  0  0  0  0
    1.0154   -3.4681   -0.0140 C   0  0  0  0  0  0  0  0  0  0  0  0
   -0.2949   -3.2963    3.0049 C   0  0  0  0  0  0  0  0  0  0  0  0
   -0.4527   -2.2760    3.9228 C   0  0  0  0  0  0  0  0  0  0  0  0
    0.7239   -1.5657    3.9108 C   0  0  0  0  0  0  0  0  0  0  0  0
    1.0484   -0.3599    4.5157 C   0  0  0  0  0  0  0  0  0  0  0  0
    2.1867    0.3106    4.0458 C   0  0  0  0  0  0  0  0  0  0  0  0
   -1.6932   -1.9642    4.4869 C   0  0  0  0  0  0  0  0  0  0  0  0
   -2.7950   -2.7484    4.1124 C   0  0  0  0  0  0  0  0  0  0  0  0
   -2.6306   -3.8403    3.2303 C   0  0  0  0  0  0  0  0  0  0  0  0
   -1.3728   -4.1018    2.6499 C   0  0  0  0  0  0  0  0  0  0  0  0
   -3.7429   -4.7148    2.8390 C   0  0  0  0  0  0  0  0  0  0  0  0
   -4.2255   -5.6737    3.6512 C   0  0  0  0  0  0  0  0  0  0  0  0
   -4.4813   -5.5305    5.0902 C   0  0  0  0  0  0  0  0  0  0  0  0
   -4.1717   -4.5452    5.8130 O   0  0  0  0  0  0  0  0  0  0  0  0
   -5.2633   -6.6523    5.5406 C   0  0  0  0  0  0  0  0  0  0  0  0
   -5.7879   -6.8645    6.8341 C   0  0  0  0  0  0  0  0  0  0  0  0
   -6.4313   -8.0759    6.9837 C   0  0  0  0  0  0  0  0  0  0  0  0
   -6.5741   -9.0314    5.9280 C   0  0  0  0  0  0  0  0  0  0  0  0
   -6.1201   -8.8042    4.6473 C   0  0  0  0  0  0  0  0  0  0  0  0
   -5.4417   -7.5564    4.4611 C   0  0  0  0  0  0  0  0  0  0  0  0
   -4.7808   -7.0025    3.2390 C   0  0  0  0  0  0  0  0  0  0  0  0
   -4.4809   -7.6771    2.0976 C   0  0  0  0  0  0  0  0  0  0  0  0
   -4.9815   -8.9944    1.8041 C   0  0  0  0  0  0  0  0  0  0  0  0
   -5.3544  -10.0593    1.5382 N   0  0  0  0  0  0  0  0  0  0  0  0
   -3.5217   -7.1865    1.1388 C   0  0  0  0  0  0  0  0  0  0  0  0
   -2.7446   -6.7934    0.3720 N   0  0  0  0  0  0  0  0  0  0  0  0
   -7.2813   -9.9703    6.8557 C   0  0  0  0  0  0  0  0  0  0  0  0
   -8.8159  -10.1320    6.6387 C   0  0  0  0  0  0  0  0  0  0  0  0
   -9.3524  -10.7774    7.8927 C   0  0  0  0  0  0  0  0  0  0  0  0
   -9.2660   -9.8525    8.8630 C   0  0  0  0  0  0  0  0  0  0  0  0
   -8.6725   -8.6155    8.2246 C   0  0  0  0  0  0  0  0  0  0  0  0
   -9.3395   -8.7161    6.8622 C   0  0  0  0  0  0  0  0  0  0  0  0
   -7.1783   -8.9703    7.9222 C   0  0  0  0  0  0  0  0  0  0  0  0
    3.8080    7.1543   -6.3923 H   0  0  0  0  0  0  0  0  0  0  0  0
    0.0329    2.5978   -4.0855 H   0  0  0  0  0  0  0  0  0  0  0  0
   -1.4754    5.5500   -7.9609 H   0  0  0  0  0  0  0  0  0  0  0  0
   -3.4830    2.7281   -7.5844 H   0  0  0  0  0  0  0  0  0  0  0  0
   -5.0905    4.5845   -6.7714 H   0  0  0  0  0  0  0  0  0  0  0  0
   -3.8985    6.0811   -4.9252 H   0  0  0  0  0  0  0  0  0  0  0  0
   -3.1630    4.5217   -2.9613 H   0  0  0  0  0  0  0  0  0  0  0  0
   -3.8855    2.0391   -3.5694 H   0  0  0  0  0  0  0  0  0  0  0  0
   -5.9089    3.3992   -4.5591 H   0  0  0  0  0  0  0  0  0  0  0  0
   -5.4040    2.1312   -5.7634 H   0  0  0  0  0  0  0  0  0  0  0  0
   -2.7969    1.3226   -5.8151 H   0  0  0  0  0  0  0  0  0  0  0  0
    6.6679    0.9107   -4.4123 H   0  0  0  0  0  0  0  0  0  0  0  0
    5.1367    0.2588   -6.2160 H   0  0  0  0  0  0  0  0  0  0  0  0
    2.4037    2.4128   -6.3806 H   0  0  0  0  0  0  0  0  0  0  0  0
    1.0355    1.8104   -7.3748 H   0  0  0  0  0  0  0  0  0  0  0  0
    2.7257    1.6693   -7.9852 H   0  0  0  0  0  0  0  0  0  0  0  0
    1.7752    0.7988   -3.6007 H   0  0  0  0  0  0  0  0  0  0  0  0
    3.2844    1.4081   -1.7704 H   0  0  0  0  0  0  0  0  0  0  0  0
    6.8691   -0.8887   -2.7963 H   0  0  0  0  0  0  0  0  0  0  0  0
    8.9560   -2.0217   -2.2698 H   0  0  0  0  0  0  0  0  0  0  0  0
   11.0825   -2.9543    1.3937 H   0  0  0  0  0  0  0  0  0  0  0  0
    9.7536   -3.2847    0.2232 H   0  0  0  0  0  0  0  0  0  0  0  0
    9.6048   -1.9246    1.4132 H   0  0  0  0  0  0  0  0  0  0  0  0
   10.0287    1.1469    0.4241 H   0  0  0  0  0  0  0  0  0  0  0  0
    8.0051    2.3745   -0.1795 H   0  0  0  0  0  0  0  0  0  0  0  0
   -0.5852    3.4251    0.7672 H   0  0  0  0  0  0  0  0  0  0  0  0
   -2.0774    2.4924   -0.9442 H   0  0  0  0  0  0  0  0  0  0  0  0
   -3.9155   -0.9690   -1.5945 H   0  0  0  0  0  0  0  0  0  0  0  0
   -2.4679   -2.0492   -1.4825 H   0  0  0  0  0  0  0  0  0  0  0  0
   -2.6845   -0.6636   -0.3300 H   0  0  0  0  0  0  0  0  0  0  0  0
    0.6307   -0.7945   -1.5424 H   0  0  0  0  0  0  0  0  0  0  0  0
    2.0886    0.0761    0.1918 H   0  0  0  0  0  0  0  0  0  0  0  0
   -0.6323    2.0036    3.0824 H   0  0  0  0  0  0  0  0  0  0  0  0
   -1.6077    3.5467    4.7383 H   0  0  0  0  0  0  0  0  0  0  0  0
    0.4833    4.1657    7.0802 H   0  0  0  0  0  0  0  0  0  0  0  0
   -0.9623    4.7889    7.9600 H   0  0  0  0  0  0  0  0  0  0  0  0
    0.5750    5.7362    7.9724 H   0  0  0  0  0  0  0  0  0  0  0  0
    1.8781    6.0498    4.4637 H   0  0  0  0  0  0  0  0  0  0  0  0
    2.8323    4.5517    2.7732 H   0  0  0  0  0  0  0  0  0  0  0  0
    3.1759   -1.8756    1.5865 H   0  0  0  0  0  0  0  0  0  0  0  0
    2.5232   -4.1636    1.3748 H   0  0  0  0  0  0  0  0  0  0  0  0
    1.0175   -5.1205    1.4001 H   0  0  0  0  0  0  0  0  0  0  0  0
    1.4812   -2.4681   -0.1222 H   0  0  0  0  0  0  0  0  0  0  0  0
   -0.0894   -3.3737   -0.0772 H   0  0  0  0  0  0  0  0  0  0  0  0
    1.3690   -4.1136   -0.8449 H   0  0  0  0  0  0  0  0  0  0  0  0
    0.4063    0.0888    5.2668 H   0  0  0  0  0  0  0  0  0  0  0  0
    2.4109    1.2857    4.4504 H   0  0  0  0  0  0  0  0  0  0  0  0
   -1.8190   -1.1078    5.1433 H   0  0  0  0  0  0  0  0  0  0  0  0
   -3.7751   -2.4831    4.4866 H   0  0  0  0  0  0  0  0  0  0  0  0
   -1.2651   -4.8864    1.9188 H   0  0  0  0  0  0  0  0  0  0  0  0
   -3.8797   -4.8130    1.7725 H   0  0  0  0  0  0  0  0  0  0  0  0
   -5.6871   -6.1467    7.6422 H   0  0  0  0  0  0  0  0  0  0  0  0
   -6.2881   -9.5230    3.8790 H   0  0  0  0  0  0  0  0  0  0  0  0
   -6.7145  -10.9102    7.0504 H   0  0  0  0  0  0  0  0  0  0  0  0
   -9.1209  -10.6171    5.6887 H   0  0  0  0  0  0  0  0  0  0  0  0
   -9.7843  -11.7643    7.9892 H   0  0  0  0  0  0  0  0  0  0  0  0
   -9.6112   -9.9587    9.8791 H   0  0  0  0  0  0  0  0  0  0  0  0
   -8.8304   -7.6665    8.7654 H   0  0  0  0  0  0  0  0  0  0  0  0
   -8.9774   -7.9832    6.1133 H   0  0  0  0  0  0  0  0  0  0  0  0
  -10.4532   -8.6605    6.8895 H   0  0  0  0  0  0  0  0  0  0  0  0
   -6.5749   -9.2933    8.7974 H   0  0  0  0  0  0  0  0  0  0  0  0
  1  2  2  3
  2  3  1  0
  3  4  2  0
  3  5  1  0
  5  6  2  0
  6  7  1  0
  7  8  2  0
  8  9  1  0
  9 10  2  0
 10 11  1  0
 11 12  2  3
 12 13  1  0
 13 14  3  0
 12 15  1  0
 15 16  3  0
  8 17  1  0
 17 18  1  0
 18 19  1  0
 19 20  2  0
 20 21  1  0
 21 22  1  0
 21 23  1  0
  1 24  1  0
 24 25  2  0
 25 26  1  0
 25 27  1  0
 27 28  1  0
 27 29  2  0
 29 30  1  0
 30 31  1  0
 30 32  2  0
 32 33  1  0
 29 34  1  0
 34 35  2  0
 35 36  1  0
 36 37  1  0
 37 38  2  0
 38 39  1  0
 39 40  2  0
 40 41  1  0
 41 42  1  0
 40 43  1  0
 43 44  2  0
 36 45  1  0
 45 46  2  0
 46 47  1  0
 47 48  2  0
 48 49  1  0
 49 50  1  0
 48 51  1  0
 51 52  2  0
 35 53  1  0
 53 54  1  0
 54 55  1  0
 55 56  2  0
 56 57  1  0
 57 58  1  0
 58 59  2  0
 59 60  1  0
 60 61  2  0
 61 62  1  0
 62 63  1  0
 61 64  1  0
 64 65  2  0
 57 66  1  0
 66 67  2  0
 67 68  1  0
 68 69  2  0
 69 70  1  0
 70 71  1  0
 69 72  1  0
 72 73  2  0
 56 74  1  0
 74 75  1  0
 55 76  1  0
 76 77  2  0
 77 78  1  0
 78 79  1  0
 79 80  1  0
 80 81  1  0
 79 82  1  0
 82 83  2  0
 83 84  1  0
 84 85  1  0
 85 86  2  0
 83 87  1  0
 87 88  2  0
 88 89  1  0
 89 90  2  0
 89 91  1  0
 91 92  2  3
 92 93  1  0
 93 94  2  0
 93 95  1  0
 95 96  2  0
 96 97  1  0
 97 98  2  0
 98 99  1  0
 99100  2  0
100101  1  0
101102  2  3
102103  1  0
103104  3  0
102105  1  0
105106  3  0
 98107  1  0
107108  1  0
108109  1  0
109110  2  0
110111  1  0
111112  1  0
111113  1  0
 11  2  1  0
 23 17  1  0
 32 24  1  0
 75 34  1  0
 86 76  1  0
101 92  1  0
113107  1  0
 10  5  1  0
 22 18  1  0
 44 37  1  0
 52 45  1  0
 74 53  2  0
 84 78  2  0
100 95  1  0
112108  1  0
 23  7  1  0
 65 58  1  0
 73 66  1  0
 90 82  1  0
113 97  1  0
  1114  1  0
  6115  1  0
  9116  1  0
 17117  1  0
 18118  1  0
 19119  1  0
 20120  1  0
 21121  1  0
 22122  1  0
 22123  1  0
 23124  1  0
 38125  1  0
 39126  1  0
 42127  1  0
 42128  1  0
 42129  1  0
 43130  1  0
 44131  1  0
 46132  1  0
 47133  1  0
 50134  1  0
 50135  1  0
 50136  1  0
 51137  1  0
 52138  1  0
 59139  1  0
 60140  1  0
 63141  1  0
 63142  1  0
 63143  1  0
 64144  1  0
 65145  1  0
 67146  1  0
 68147  1  0
 71148  1  0
 71149  1  0
 71150  1  0
 72151  1  0
 73152  1  0
 77153  1  0
 80154  1  0
 80155  1  0
 81156  1  0
 81157  1  0
 81158  1  0
 85159  1  0
 86160  1  0
 87161  1  0
 88162  1  0
 90163  1  0
 91164  1  0
 96165  1  0
 99166  1  0
107167  1  0
108168  1  0
109169  1  0
110170  1  0
111171  1  0
112172  1  0
112173  1  0
113174  1  0
M  END

