
     RDKit          3D

182200  0  0  0  0  0  0  0  0999 V2000
   -1.3967    1.3896   -5.7428 C   0  0  0  0  0  0  0  0  0  0  0  0
   -0.1475    1.5163   -6.2225 C   0  0  0  0  0  0  0  0  0  0  0  0
    1.0883    1.2810   -5.4683 C   0  0  0  0  0  0  0  0  0  0  0  0
    1.2263    0.5011   -4.4872 O   0  0  0  0  0  0  0  0  0  0  0  0
    2.1485    2.0638   -6.0640 C   0  0  0  0  0  0  0  0  0  0  0  0
    3.4297    2.3072   -5.5238 C   0  0  0  0  0  0  0  0  0  0  0  0
    4.1281    3.3098   -6.1689 C   0  0  0  0  0  0  0  0  0  0  0  0
    3.6138    4.0200   -7.3014 C   0  0  0  0  0  0  0  0  0  0  0  0
    2.3711    3.7585   -7.8584 C   0  0  0  0  0  0  0  0  0  0  0  0
    1.6391    2.7244   -7.2111 C   0  0  0  0  0  0  0  0  0  0  0  0
    0.2456    2.2632   -7.4513 C   0  0  0  0  0  0  0  0  0  0  0  0
   -0.4280    2.3091   -8.6283 C   0  0  0  0  0  0  0  0  0  0  0  0
    0.1271    2.9328   -9.7997 C   0  0  0  0  0  0  0  0  0  0  0  0
    0.5601    3.4347  -10.7500 N   0  0  0  0  0  0  0  0  0  0  0  0
   -1.6617    1.5908   -8.8298 C   0  0  0  0  0  0  0  0  0  0  0  0
   -2.6474    1.0040   -9.0015 N   0  0  0  0  0  0  0  0  0  0  0  0
    4.8391    4.8867   -7.3388 C   0  0  0  0  0  0  0  0  0  0  0  0
    5.8792    4.5878   -8.4558 C   0  0  0  0  0  0  0  0  0  0  0  0
    7.1472    5.2956   -8.0377 C   0  0  0  0  0  0  0  0  0  0  0  0
    7.6247    4.6252   -6.9816 C   0  0  0  0  0  0  0  0  0  0  0  0
    6.6618    3.4922   -6.7215 C   0  0  0  0  0  0  0  0  0  0  0  0
    6.3007    3.1586   -8.1582 C   0  0  0  0  0  0  0  0  0  0  0  0
    5.3638    4.1585   -6.1786 C   0  0  0  0  0  0  0  0  0  0  0  0
   -1.6935    1.0994   -4.3271 C   0  0  0  0  0  0  0  0  0  0  0  0
   -2.6838    0.2472   -3.8215 C   0  0  0  0  0  0  0  0  0  0  0  0
   -3.4413   -0.7368   -4.6300 C   0  0  0  0  0  0  0  0  0  0  0  0
   -4.5471   -1.4668   -4.1959 C   0  0  0  0  0  0  0  0  0  0  0  0
   -4.9836   -2.4271   -5.1166 C   0  0  0  0  0  0  0  0  0  0  0  0
   -4.2332   -2.4487   -6.2840 C   0  0  0  0  0  0  0  0  0  0  0  0
   -4.3740   -3.4365   -7.3966 C   0  0  0  0  0  0  0  0  0  0  0  0
   -3.4924   -4.6557   -7.1469 C   0  0  0  0  0  0  0  0  0  0  0  0
   -3.0080   -1.3069   -6.1577 S   0  0  0  0  0  0  0  0  0  0  0  0
   -2.8146    0.3363   -2.4199 C   0  0  0  0  0  0  0  0  0  0  0  0
   -1.9528    1.2525   -1.8281 C   0  0  0  0  0  0  0  0  0  0  0  0
   -1.0401    1.9689   -3.0419 S   0  0  0  0  0  0  0  0  0  0  0  0
   -1.7616    1.4356   -0.3762 C   0  0  0  0  0  0  0  0  0  0  0  0
   -0.6597    2.0422    0.2511 C   0  0  0  0  0  0  0  0  0  0  0  0
    0.3950    2.7639   -0.4030 N   0  0  0  0  0  0  0  0  0  0  0  0
    1.6099    2.0954   -0.8310 C   0  0  0  0  0  0  0  0  0  0  0  0
    1.8679    0.7481   -0.4853 C   0  0  0  0  0  0  0  0  0  0  0  0
    3.0744    0.1387   -0.8522 C   0  0  0  0  0  0  0  0  0  0  0  0
    4.0324    0.8569   -1.5772 C   0  0  0  0  0  0  0  0  0  0  0  0
    5.5818    0.0816   -2.0420 S   0  0  0  0  0  0  0  0  0  0  0  0
    6.4827    0.7455   -0.6104 C   0  0  0  0  0  0  0  0  0  0  0  0
    3.7725    2.1782   -1.9526 C   0  0  0  0  0  0  0  0  0  0  0  0
    2.5657    2.7836   -1.6052 C   0  0  0  0  0  0  0  0  0  0  0  0
    0.3333    4.1999   -0.2981 C   0  0  0  0  0  0  0  0  0  0  0  0
   -0.7510    4.9003   -0.8524 C   0  0  0  0  0  0  0  0  0  0  0  0
   -0.8234    6.2902   -0.7361 C   0  0  0  0  0  0  0  0  0  0  0  0
    0.1775    6.9920   -0.0510 C   0  0  0  0  0  0  0  0  0  0  0  0
    0.0918    8.7786    0.0815 S   0  0  0  0  0  0  0  0  0  0  0  0
   -0.8972    8.7516    1.6057 C   0  0  0  0  0  0  0  0  0  0  0  0
    1.2475    6.2973    0.5258 C   0  0  0  0  0  0  0  0  0  0  0  0
    1.3244    4.9058    0.4049 C   0  0  0  0  0  0  0  0  0  0  0  0
   -0.6730    1.8231    1.6193 C   0  0  0  0  0  0  0  0  0  0  0  0
    0.5056    1.9385    2.7866 S   0  0  0  0  0  0  0  0  0  0  0  0
   -0.3431    1.0615    3.9908 C   0  0  0  0  0  0  0  0  0  0  0  0
   -1.5974    0.7014    3.4329 C   0  0  0  0  0  0  0  0  0  0  0  0
   -2.6614    0.0358    4.1378 N   0  0  0  0  0  0  0  0  0  0  0  0
   -3.1803    0.6357    5.3499 C   0  0  0  0  0  0  0  0  0  0  0  0
   -3.1795    2.0362    5.5100 C   0  0  0  0  0  0  0  0  0  0  0  0
   -3.6616    2.6173    6.6858 C   0  0  0  0  0  0  0  0  0  0  0  0
   -4.1805    1.8159    7.7066 C   0  0  0  0  0  0  0  0  0  0  0  0
   -4.7926    2.5631    9.2228 S   0  0  0  0  0  0  0  0  0  0  0  0
   -6.3986    3.0308    8.5088 C   0  0  0  0  0  0  0  0  0  0  0  0
   -4.1825    0.4241    7.5644 C   0  0  0  0  0  0  0  0  0  0  0  0
   -3.6733   -0.1643    6.4012 C   0  0  0  0  0  0  0  0  0  0  0  0
   -3.1916   -1.1986    3.6047 C   0  0  0  0  0  0  0  0  0  0  0  0
   -4.5719   -1.4627    3.6504 C   0  0  0  0  0  0  0  0  0  0  0  0
   -5.0789   -2.6674    3.1512 C   0  0  0  0  0  0  0  0  0  0  0  0
   -4.2182   -3.6137    2.5835 C   0  0  0  0  0  0  0  0  0  0  0  0
   -4.8722   -5.1601    1.9513 S   0  0  0  0  0  0  0  0  0  0  0  0
   -4.4774   -6.0845    3.4675 C   0  0  0  0  0  0  0  0  0  0  0  0
   -2.8477   -3.3422    2.4985 C   0  0  0  0  0  0  0  0  0  0  0  0
   -2.3338   -2.1474    3.0103 C   0  0  0  0  0  0  0  0  0  0  0  0
   -1.7140    1.1110    2.1005 C   0  0  0  0  0  0  0  0  0  0  0  0
   -2.7227    0.6822    0.8271 S   0  0  0  0  0  0  0  0  0  0  0  0
    0.3890    0.3584    5.0949 C   0  0  0  0  0  0  0  0  0  0  0  0
    1.7297    0.7250    5.3749 C   0  0  0  0  0  0  0  0  0  0  0  0
    2.1630    2.0517    5.2735 O   0  0  0  0  0  0  0  0  0  0  0  0
    1.4585    3.1388    5.8657 C   0  0  0  0  0  0  0  0  0  0  0  0
    2.1184    4.4484    5.4673 C   0  0  0  0  0  0  0  0  0  0  0  0
    2.6749   -0.2613    5.6984 C   0  0  0  0  0  0  0  0  0  0  0  0
    4.0234    0.1286    5.7368 O   0  0  0  0  0  0  0  0  0  0  0  0
    5.0396   -0.4930    6.5200 C   0  0  0  0  0  0  0  0  0  0  0  0
    6.2722    0.4000    6.5260 C   0  0  0  0  0  0  0  0  0  0  0  0
    2.2372   -1.5923    5.9082 C   0  0  0  0  0  0  0  0  0  0  0  0
    0.8655   -1.8598    5.9621 C   0  0  0  0  0  0  0  0  0  0  0  0
   -0.0495   -0.9012    5.5446 C   0  0  0  0  0  0  0  0  0  0  0  0
    3.1215   -2.7532    5.7103 C   0  0  0  0  0  0  0  0  0  0  0  0
    3.3037   -3.2718    4.4778 C   0  0  0  0  0  0  0  0  0  0  0  0
    2.7296   -2.7154    3.2393 C   0  0  0  0  0  0  0  0  0  0  0  0
    2.4210   -1.5137    3.0303 O   0  0  0  0  0  0  0  0  0  0  0  0
    2.5284   -3.7880    2.2949 C   0  0  0  0  0  0  0  0  0  0  0  0
    1.7524   -3.7309    1.1155 C   0  0  0  0  0  0  0  0  0  0  0  0
    1.5111   -4.9646    0.5487 C   0  0  0  0  0  0  0  0  0  0  0  0
    1.9982   -6.1932    1.1022 C   0  0  0  0  0  0  0  0  0  0  0  0
    2.7657   -6.2545    2.2569 C   0  0  0  0  0  0  0  0  0  0  0  0
    3.0407   -4.9887    2.8486 C   0  0  0  0  0  0  0  0  0  0  0  0
    3.6754   -4.6827    4.1629 C   0  0  0  0  0  0  0  0  0  0  0  0
    4.5691   -5.4488    4.8299 C   0  0  0  0  0  0  0  0  0  0  0  0
    5.2542   -4.9763    6.0061 C   0  0  0  0  0  0  0  0  0  0  0  0
    5.8070   -4.6010    6.9496 N   0  0  0  0  0  0  0  0  0  0  0  0
    5.0087   -6.7255    4.3207 C   0  0  0  0  0  0  0  0  0  0  0  0
    5.3755   -7.7439    3.9157 N   0  0  0  0  0  0  0  0  0  0  0  0
    1.2712   -6.9724    0.0456 C   0  0  0  0  0  0  0  0  0  0  0  0
   -0.0297   -7.7052    0.4947 C   0  0  0  0  0  0  0  0  0  0  0  0
   -0.7744   -8.0522   -0.7747 C   0  0  0  0  0  0  0  0  0  0  0  0
   -1.2252   -6.8970   -1.2794 C   0  0  0  0  0  0  0  0  0  0  0  0
   -0.7731   -5.8123   -0.3337 C   0  0  0  0  0  0  0  0  0  0  0  0
   -0.9162   -6.5685    0.9765 C   0  0  0  0  0  0  0  0  0  0  0  0
    0.7725   -5.7134   -0.5155 C   0  0  0  0  0  0  0  0  0  0  0  0
   -2.2455    1.6594   -6.3516 H   0  0  0  0  0  0  0  0  0  0  0  0
    3.8071    1.7949   -4.6521 H   0  0  0  0  0  0  0  0  0  0  0  0
    1.9886    4.3575   -8.6697 H   0  0  0  0  0  0  0  0  0  0  0  0
    4.6310    5.9654   -7.1477 H   0  0  0  0  0  0  0  0  0  0  0  0
    5.5422    4.7915   -9.4936 H   0  0  0  0  0  0  0  0  0  0  0  0
    7.6345    6.1285   -8.5354 H   0  0  0  0  0  0  0  0  0  0  0  0
    8.5651    4.8210   -6.4755 H   0  0  0  0  0  0  0  0  0  0  0  0
    7.0640    2.6557   -6.1114 H   0  0  0  0  0  0  0  0  0  0  0  0
    7.1789    2.8220   -8.7671 H   0  0  0  0  0  0  0  0  0  0  0  0
    5.4861    2.4088   -8.2643 H   0  0  0  0  0  0  0  0  0  0  0  0
    5.4910    4.7767   -5.2602 H   0  0  0  0  0  0  0  0  0  0  0  0
   -5.0202   -1.3357   -3.2304 H   0  0  0  0  0  0  0  0  0  0  0  0
   -5.8103   -3.0976   -4.9247 H   0  0  0  0  0  0  0  0  0  0  0  0
   -5.4360   -3.7587   -7.4757 H   0  0  0  0  0  0  0  0  0  0  0  0
   -4.0778   -2.9601   -8.3541 H   0  0  0  0  0  0  0  0  0  0  0  0
   -3.6135   -5.3824   -7.9776 H   0  0  0  0  0  0  0  0  0  0  0  0
   -2.4249   -4.3560   -7.0865 H   0  0  0  0  0  0  0  0  0  0  0  0
   -3.7822   -5.1546   -6.1954 H   0  0  0  0  0  0  0  0  0  0  0  0
   -3.4807   -0.2932   -1.8454 H   0  0  0  0  0  0  0  0  0  0  0  0
    1.1530    0.1703    0.0864 H   0  0  0  0  0  0  0  0  0  0  0  0
    3.2638   -0.8883   -0.5693 H   0  0  0  0  0  0  0  0  0  0  0  0
    6.4592    1.8548   -0.6193 H   0  0  0  0  0  0  0  0  0  0  0  0
    6.0321    0.3846    0.3340 H   0  0  0  0  0  0  0  0  0  0  0  0
    7.5397    0.4149   -0.6555 H   0  0  0  0  0  0  0  0  0  0  0  0
    4.5073    2.7368   -2.5191 H   0  0  0  0  0  0  0  0  0  0  0  0
    2.3893    3.8024   -1.9271 H   0  0  0  0  0  0  0  0  0  0  0  0
   -1.5363    4.3693   -1.3692 H   0  0  0  0  0  0  0  0  0  0  0  0
   -1.6573    6.8218   -1.1741 H   0  0  0  0  0  0  0  0  0  0  0  0
   -1.0952    9.7961    1.9242 H   0  0  0  0  0  0  0  0  0  0  0  0
   -0.3392    8.2341    2.4167 H   0  0  0  0  0  0  0  0  0  0  0  0
   -1.8639    8.2427    1.4245 H   0  0  0  0  0  0  0  0  0  0  0  0
    2.0181    6.8314    1.0696 H   0  0  0  0  0  0  0  0  0  0  0  0
    2.1462    4.3759    0.8683 H   0  0  0  0  0  0  0  0  0  0  0  0
   -2.8122    2.6859    4.7222 H   0  0  0  0  0  0  0  0  0  0  0  0
   -3.6514    3.6964    6.7942 H   0  0  0  0  0  0  0  0  0  0  0  0
   -6.2569    3.7929    7.7184 H   0  0  0  0  0  0  0  0  0  0  0  0
   -7.0404    3.4649    9.3032 H   0  0  0  0  0  0  0  0  0  0  0  0
   -6.9182    2.1530    8.0731 H   0  0  0  0  0  0  0  0  0  0  0  0
   -4.5691   -0.2048    8.3554 H   0  0  0  0  0  0  0  0  0  0  0  0
   -3.6547   -1.2448    6.3254 H   0  0  0  0  0  0  0  0  0  0  0  0
   -5.2550   -0.7343    4.0696 H   0  0  0  0  0  0  0  0  0  0  0  0
   -6.1425   -2.8630    3.2103 H   0  0  0  0  0  0  0  0  0  0  0  0
   -4.9292   -5.5856    4.3525 H   0  0  0  0  0  0  0  0  0  0  0  0
   -4.8966   -7.1082    3.3854 H   0  0  0  0  0  0  0  0  0  0  0  0
   -3.3780   -6.1526    3.5952 H   0  0  0  0  0  0  0  0  0  0  0  0
   -2.1789   -4.0674    2.0507 H   0  0  0  0  0  0  0  0  0  0  0  0
   -1.2666   -1.9686    2.9457 H   0  0  0  0  0  0  0  0  0  0  0  0
    1.4832    3.0301    6.9735 H   0  0  0  0  0  0  0  0  0  0  0  0
    0.3975    3.1544    5.5393 H   0  0  0  0  0  0  0  0  0  0  0  0
    1.5889    5.2942    5.9523 H   0  0  0  0  0  0  0  0  0  0  0  0
    3.1786    4.4532    5.7923 H   0  0  0  0  0  0  0  0  0  0  0  0
    2.0721    4.5754    4.3651 H   0  0  0  0  0  0  0  0  0  0  0  0
    4.6798   -0.6347    7.5649 H   0  0  0  0  0  0  0  0  0  0  0  0
    5.3238   -1.4720    6.0814 H   0  0  0  0  0  0  0  0  0  0  0  0
    7.0103    0.0109    7.2625 H   0  0  0  0  0  0  0  0  0  0  0  0
    5.9944    1.4390    6.8103 H   0  0  0  0  0  0  0  0  0  0  0  0
    6.7395    0.4065    5.5156 H   0  0  0  0  0  0  0  0  0  0  0  0
    0.5150   -2.8718    6.1406 H   0  0  0  0  0  0  0  0  0  0  0  0
   -1.0656   -1.2252    5.4387 H   0  0  0  0  0  0  0  0  0  0  0  0
    3.3717   -3.3261    6.5914 H   0  0  0  0  0  0  0  0  0  0  0  0
    1.3163   -2.8149    0.7389 H   0  0  0  0  0  0  0  0  0  0  0  0
    3.0344   -7.2017    2.6984 H   0  0  0  0  0  0  0  0  0  0  0  0
    1.9409   -7.5470   -0.6336 H   0  0  0  0  0  0  0  0  0  0  0  0
    0.1101   -8.5463    1.2055 H   0  0  0  0  0  0  0  0  0  0  0  0
   -0.9979   -9.0406   -1.1588 H   0  0  0  0  0  0  0  0  0  0  0  0
   -1.8741   -6.7885   -2.1441 H   0  0  0  0  0  0  0  0  0  0  0  0
   -1.3299   -4.8534   -0.4062 H   0  0  0  0  0  0  0  0  0  0  0  0
   -0.5214   -6.0278    1.8658 H   0  0  0  0  0  0  0  0  0  0  0  0
   -1.9675   -6.8841    1.1897 H   0  0  0  0  0  0  0  0  0  0  0  0
    1.1233   -5.4877   -1.5466 H   0  0  0  0  0  0  0  0  0  0  0  0
  1  2  2  3
  2  3  1  0
  3  4  2  0
  3  5  1  0
  5  6  2  0
  6  7  1  0
  7  8  2  0
  8  9  1  0
  9 10  2  0
 10 11  1  0
 11 12  2  3
 12 13  1  0
 13 14  3  0
 12 15  1  0
 15 16  3  0
  8 17  1  0
 17 18  1  0
 18 19  1  0
 19 20  2  0
 20 21  1  0
 21 22  1  0
 21 23  1  0
  1 24  1  0
 24 25  2  0
 25 26  1  0
 26 27  2  0
 27 28  1  0
 28 29  2  0
 29 30  1  0
 30 31  1  0
 29 32  1  0
 25 33  1  0
 33 34  2  0
 34 35  1  0
 34 36  1  0
 36 37  2  0
 37 38  1  0
 38 39  1  0
 39 40  2  0
 40 41  1  0
 41 42  2  0
 42 43  1  0
 43 44  1  0
 42 45  1  0
 45 46  2  0
 38 47  1  0
 47 48  2  0
 48 49  1  0
 49 50  2  0
 50 51  1  0
 51 52  1  0
 50 53  1  0
 53 54  2  0
 37 55  1  0
 55 56  1  0
 56 57  1  0
 57 58  2  0
 58 59  1  0
 59 60  1  0
 60 61  2  0
 61 62  1  0
 62 63  2  0
 63 64  1  0
 64 65  1  0
 63 66  1  0
 66 67  2  0
 59 68  1  0
 68 69  2  0
 69 70  1  0
 70 71  2  0
 71 72  1  0
 72 73  1  0
 71 74  1  0
 74 75  2  0
 58 76  1  0
 76 77  1  0
 57 78  1  0
 78 79  2  0
 79 80  1  0
 80 81  1  0
 81 82  1  0
 79 83  1  0
 83 84  1  0
 84 85  1  0
 85 86  1  0
 83 87  2  0
 87 88  1  0
 88 89  2  0
 87 90  1  0
 90 91  2  3
 91 92  1  0
 92 93  2  0
 92 94  1  0
 94 95  2  0
 95 96  1  0
 96 97  2  0
 97 98  1  0
 98 99  2  0
 99100  1  0
100101  2  3
101102  1  0
102103  3  0
101104  1  0
104105  3  0
 97106  1  0
106107  1  0
107108  1  0
108109  2  0
109110  1  0
110111  1  0
110112  1  0
 11  2  1  0
 23 17  1  0
 35 24  1  0
 77 36  1  0
 89 78  1  0
100 91  1  0
112106  1  0
 10  5  1  0
 22 18  1  0
 32 26  1  0
 46 39  1  0
 54 47  1  0
 76 55  2  0
 99 94  1  0
111107  1  0
 23  7  1  0
 67 60  1  0
 75 68  1  0
112 96  1  0
  1113  1  0
  6114  1  0
  9115  1  0
 17116  1  0
 18117  1  0
 19118  1  0
 20119  1  0
 21120  1  0
 22121  1  0
 22122  1  0
 23123  1  0
 27124  1  0
 28125  1  0
 30126  1  0
 30127  1  0
 31128  1  0
 31129  1  0
 31130  1  0
 33131  1  0
 40132  1  0
 41133  1  0
 44134  1  0
 44135  1  0
 44136  1  0
 45137  1  0
 46138  1  0
 48139  1  0
 49140  1  0
 52141  1  0
 52142  1  0
 52143  1  0
 53144  1  0
 54145  1  0
 61146  1  0
 62147  1  0
 65148  1  0
 65149  1  0
 65150  1  0
 66151  1  0
 67152  1  0
 69153  1  0
 70154  1  0
 73155  1  0
 73156  1  0
 73157  1  0
 74158  1  0
 75159  1  0
 81160  1  0
 81161  1  0
 82162  1  0
 82163  1  0
 82164  1  0
 85165  1  0
 85166  1  0
 86167  1  0
 86168  1  0
 86169  1  0
 88170  1  0
 89171  1  0
 90172  1  0
 95173  1  0
 98174  1  0
106175  1  0
107176  1  0
108177  1  0
109178  1  0
110179  1  0
111180  1  0
111181  1  0
112182  1  0
M  END

