
     RDKit          3D

169188  0  0  0  0  0  0  0  0999 V2000
    7.1362    4.3562    0.7999 C   0  0  0  0  0  0  0  0  0  0  0  0
    7.1442    4.4788    2.1503 C   0  0  0  0  0  0  0  0  0  0  0  0
    7.1288    3.3705    3.1230 C   0  0  0  0  0  0  0  0  0  0  0  0
    7.5836    2.2102    2.9557 O   0  0  0  0  0  0  0  0  0  0  0  0
    6.5341    3.8227    4.3535 C   0  0  0  0  0  0  0  0  0  0  0  0
    6.2659    3.0406    5.4996 C   0  0  0  0  0  0  0  0  0  0  0  0
    5.5399    3.7004    6.4698 C   0  0  0  0  0  0  0  0  0  0  0  0
    5.0746    5.0474    6.3135 C   0  0  0  0  0  0  0  0  0  0  0  0
    5.3643    5.8298    5.2037 C   0  0  0  0  0  0  0  0  0  0  0  0
    6.1645    5.1836    4.2173 C   0  0  0  0  0  0  0  0  0  0  0  0
    6.6744    5.6847    2.9066 C   0  0  0  0  0  0  0  0  0  0  0  0
    6.8144    6.9875    2.5391 C   0  0  0  0  0  0  0  0  0  0  0  0
    7.5489    7.3772    1.3624 C   0  0  0  0  0  0  0  0  0  0  0  0
    8.1405    7.6968    0.4200 N   0  0  0  0  0  0  0  0  0  0  0  0
    6.3376    8.0747    3.3523 C   0  0  0  0  0  0  0  0  0  0  0  0
    5.9403    8.9506    4.0058 N   0  0  0  0  0  0  0  0  0  0  0  0
    4.3405    4.9563    7.6191 C   0  0  0  0  0  0  0  0  0  0  0  0
    2.7949    4.7436    7.5784 C   0  0  0  0  0  0  0  0  0  0  0  0
    2.4068    3.9409    6.3563 C   0  0  0  0  0  0  0  0  0  0  0  0
    2.8789    2.7076    6.5444 C   0  0  0  0  0  0  0  0  0  0  0  0
    3.5780    2.7157    7.8814 C   0  0  0  0  0  0  0  0  0  0  0  0
    2.6575    3.6593    8.6289 C   0  0  0  0  0  0  0  0  0  0  0  0
    4.8590    3.5977    7.7992 C   0  0  0  0  0  0  0  0  0  0  0  0
    6.7552    3.1066    0.1128 C   0  0  0  0  0  0  0  0  0  0  0  0
    7.4943    1.9142    0.2054 C   0  0  0  0  0  0  0  0  0  0  0  0
    8.7758    1.9301    0.6552 F   0  0  0  0  0  0  0  0  0  0  0  0
    6.8725    0.6852   -0.0667 C   0  0  0  0  0  0  0  0  0  0  0  0
    5.5546    0.6636   -0.5388 C   0  0  0  0  0  0  0  0  0  0  0  0
    4.9230    1.8673   -0.8730 C   0  0  0  0  0  0  0  0  0  0  0  0
    5.5132    3.0825   -0.5338 C   0  0  0  0  0  0  0  0  0  0  0  0
    4.6818   -0.4981   -0.2936 C   0  0  0  0  0  0  0  0  0  0  0  0
    4.4947   -1.5314   -1.2227 C   0  0  0  0  0  0  0  0  0  0  0  0
    5.3023   -1.9311   -2.3710 C   0  0  0  0  0  0  0  0  0  0  0  0
    6.3659   -1.3747   -2.7496 O   0  0  0  0  0  0  0  0  0  0  0  0
    4.7479   -3.1022   -2.9829 N   0  0  0  0  0  0  0  0  0  0  0  0
    5.5182   -4.1026   -3.7171 C   0  0  0  0  0  0  0  0  0  0  0  0
    5.0661   -4.1695   -5.1673 C   0  0  0  0  0  0  0  0  0  0  0  0
    3.5652   -3.3721   -2.2234 C   0  0  0  0  0  0  0  0  0  0  0  0
    2.8110   -4.3615   -2.4234 O   0  0  0  0  0  0  0  0  0  0  0  0
    3.4127   -2.3991   -1.1467 C   0  0  0  0  0  0  0  0  0  0  0  0
    2.4330   -2.2757   -0.1466 C   0  0  0  0  0  0  0  0  0  0  0  0
    2.7013   -1.3608    0.8949 C   0  0  0  0  0  0  0  0  0  0  0  0
    3.8167   -0.4710    0.8165 C   0  0  0  0  0  0  0  0  0  0  0  0
    3.9365    0.4430    1.8170 N   0  0  0  0  0  0  0  0  0  0  0  0
    2.6224    0.0614    2.7367 S   0  0  0  0  0  0  0  0  0  0  0  0
    1.8764   -1.1867    1.9609 N   0  0  0  0  0  0  0  0  0  0  0  0
    1.0449   -2.7468   -0.3432 C   0  0  0  0  0  0  0  0  0  0  0  0
    0.1426   -1.9952   -1.1320 C   0  0  0  0  0  0  0  0  0  0  0  0
    0.5651   -1.2604   -2.2970 N   0  0  0  0  0  0  0  0  0  0  0  0
    0.7058    0.1890   -2.2303 C   0  0  0  0  0  0  0  0  0  0  0  0
    0.7086    0.9831   -3.4004 C   0  0  0  0  0  0  0  0  0  0  0  0
    0.9725    2.3553   -3.3365 C   0  0  0  0  0  0  0  0  0  0  0  0
    1.1958    2.9671   -2.1006 C   0  0  0  0  0  0  0  0  0  0  0  0
    1.6098    4.7079   -2.0114 S   0  0  0  0  0  0  0  0  0  0  0  0
   -0.1152    5.2601   -2.1458 C   0  0  0  0  0  0  0  0  0  0  0  0
    1.1051    2.2138   -0.9262 C   0  0  0  0  0  0  0  0  0  0  0  0
    0.8682    0.8395   -0.9924 C   0  0  0  0  0  0  0  0  0  0  0  0
    0.7827   -1.9888   -3.5279 C   0  0  0  0  0  0  0  0  0  0  0  0
    1.8955   -1.7058   -4.3447 C   0  0  0  0  0  0  0  0  0  0  0  0
    2.0997   -2.4094   -5.5323 C   0  0  0  0  0  0  0  0  0  0  0  0
    1.2164   -3.4238   -5.9049 C   0  0  0  0  0  0  0  0  0  0  0  0
    1.5241   -4.3815   -7.3871 S   0  0  0  0  0  0  0  0  0  0  0  0
    0.7489   -3.1688   -8.5031 C   0  0  0  0  0  0  0  0  0  0  0  0
    0.1131   -3.7238   -5.0939 C   0  0  0  0  0  0  0  0  0  0  0  0
   -0.1017   -3.0154   -3.9116 C   0  0  0  0  0  0  0  0  0  0  0  0
   -1.2128   -1.9696   -0.7521 C   0  0  0  0  0  0  0  0  0  0  0  0
   -1.9637   -1.7088    0.7427 S   0  0  0  0  0  0  0  0  0  0  0  0
   -3.6302   -1.7838    0.9811 C   0  0  0  0  0  0  0  0  0  0  0  0
   -2.4659   -2.5057    1.4045 C   0  0  0  0  0  0  0  0  0  0  0  0
   -2.5996   -3.4198    2.5809 N   0  0  0  0  0  0  0  0  0  0  0  0
   -3.6895   -4.3599    2.5894 C   0  0  0  0  0  0  0  0  0  0  0  0
   -3.7922   -5.3222    1.5708 C   0  0  0  0  0  0  0  0  0  0  0  0
   -4.8261   -6.2606    1.5988 C   0  0  0  0  0  0  0  0  0  0  0  0
   -5.7798   -6.2237    2.6244 C   0  0  0  0  0  0  0  0  0  0  0  0
   -7.1308   -7.4089    2.6186 S   0  0  0  0  0  0  0  0  0  0  0  0
   -8.2647   -6.3453    1.6625 C   0  0  0  0  0  0  0  0  0  0  0  0
   -5.6906   -5.2554    3.6304 C   0  0  0  0  0  0  0  0  0  0  0  0
   -4.6431   -4.3330    3.6158 C   0  0  0  0  0  0  0  0  0  0  0  0
   -1.7171   -3.3109    3.7262 C   0  0  0  0  0  0  0  0  0  0  0  0
   -1.0481   -2.1044    4.0199 C   0  0  0  0  0  0  0  0  0  0  0  0
   -0.2089   -2.0031    5.1271 C   0  0  0  0  0  0  0  0  0  0  0  0
   -0.0485   -3.0954    5.9877 C   0  0  0  0  0  0  0  0  0  0  0  0
    0.9942   -2.9537    7.4391 S   0  0  0  0  0  0  0  0  0  0  0  0
   -0.2865   -2.1287    8.4361 C   0  0  0  0  0  0  0  0  0  0  0  0
   -0.7080   -4.3008    5.7167 C   0  0  0  0  0  0  0  0  0  0  0  0
   -1.5204   -4.4121    4.5885 C   0  0  0  0  0  0  0  0  0  0  0  0
   -1.3068   -2.5511    0.5661 C   0  0  0  0  0  0  0  0  0  0  0  0
    0.1894   -3.4795    0.9039 S   0  0  0  0  0  0  0  0  0  0  0  0
   -4.5456   -2.2290   -0.0793 C   0  0  0  0  0  0  0  0  0  0  0  0
   -4.8086   -1.5240   -1.2046 C   0  0  0  0  0  0  0  0  0  0  0  0
   -4.1817   -0.2470   -1.5912 C   0  0  0  0  0  0  0  0  0  0  0  0
   -3.2249    0.3329   -1.0134 O   0  0  0  0  0  0  0  0  0  0  0  0
   -4.9093    0.3136   -2.7019 C   0  0  0  0  0  0  0  0  0  0  0  0
   -4.5798    1.4831   -3.4161 C   0  0  0  0  0  0  0  0  0  0  0  0
   -5.4945    1.8123   -4.3945 C   0  0  0  0  0  0  0  0  0  0  0  0
   -6.6902    1.0602   -4.6333 C   0  0  0  0  0  0  0  0  0  0  0  0
   -6.9911   -0.1161   -3.9648 C   0  0  0  0  0  0  0  0  0  0  0  0
   -6.0276   -0.5087   -2.9917 C   0  0  0  0  0  0  0  0  0  0  0  0
   -5.9510   -1.7470   -2.1509 C   0  0  0  0  0  0  0  0  0  0  0  0
   -6.6291   -2.9070   -2.3563 C   0  0  0  0  0  0  0  0  0  0  0  0
   -6.2232   -4.1573   -1.7666 C   0  0  0  0  0  0  0  0  0  0  0  0
   -5.9075   -5.1711   -1.3108 N   0  0  0  0  0  0  0  0  0  0  0  0
   -7.7803   -2.9936   -3.2193 C   0  0  0  0  0  0  0  0  0  0  0  0
   -8.7153   -3.0737   -3.9005 N   0  0  0  0  0  0  0  0  0  0  0  0
   -7.1275    2.0551   -5.6703 C   0  0  0  0  0  0  0  0  0  0  0  0
   -8.2184    3.0896   -5.2482 C   0  0  0  0  0  0  0  0  0  0  0  0
   -8.1916    4.1613   -6.3126 C   0  0  0  0  0  0  0  0  0  0  0  0
   -7.0408    4.8313   -6.1513 C   0  0  0  0  0  0  0  0  0  0  0  0
   -6.3352    4.1935   -4.9798 C   0  0  0  0  0  0  0  0  0  0  0  0
   -7.5502    3.8734   -4.1234 C   0  0  0  0  0  0  0  0  0  0  0  0
   -5.8712    2.7902   -5.4654 C   0  0  0  0  0  0  0  0  0  0  0  0
    6.9734    5.2384    0.2024 H   0  0  0  0  0  0  0  0  0  0  0  0
    6.5554    2.0024    5.5885 H   0  0  0  0  0  0  0  0  0  0  0  0
    4.9527    6.8167    5.1073 H   0  0  0  0  0  0  0  0  0  0  0  0
    4.6973    5.6790    8.3877 H   0  0  0  0  0  0  0  0  0  0  0  0
    2.1891    5.6556    7.7492 H   0  0  0  0  0  0  0  0  0  0  0  0
    1.8079    4.2699    5.5131 H   0  0  0  0  0  0  0  0  0  0  0  0
    2.7172    1.8569    5.8900 H   0  0  0  0  0  0  0  0  0  0  0  0
    3.7197    1.7171    8.3466 H   0  0  0  0  0  0  0  0  0  0  0  0
    1.6175    3.2734    8.7335 H   0  0  0  0  0  0  0  0  0  0  0  0
    3.0421    3.9597    9.6327 H   0  0  0  0  0  0  0  0  0  0  0  0
    5.5606    3.4943    8.6570 H   0  0  0  0  0  0  0  0  0  0  0  0
    7.3802   -0.2399    0.1707 H   0  0  0  0  0  0  0  0  0  0  0  0
    3.9052    1.8738   -1.2480 H   0  0  0  0  0  0  0  0  0  0  0  0
    4.9418    3.9960   -0.6630 H   0  0  0  0  0  0  0  0  0  0  0  0
    5.3928   -5.1029   -3.2411 H   0  0  0  0  0  0  0  0  0  0  0  0
    6.6022   -3.8504   -3.6916 H   0  0  0  0  0  0  0  0  0  0  0  0
    5.1771   -3.1696   -5.6361 H   0  0  0  0  0  0  0  0  0  0  0  0
    4.0062   -4.4880   -5.2152 H   0  0  0  0  0  0  0  0  0  0  0  0
    5.6951   -4.8968   -5.7196 H   0  0  0  0  0  0  0  0  0  0  0  0
    0.4895    0.5542   -4.3657 H   0  0  0  0  0  0  0  0  0  0  0  0
    0.9997    2.9347   -4.2492 H   0  0  0  0  0  0  0  0  0  0  0  0
   -0.1813    6.3231   -1.8279 H   0  0  0  0  0  0  0  0  0  0  0  0
   -0.7754    4.6570   -1.4875 H   0  0  0  0  0  0  0  0  0  0  0  0
   -0.4498    5.1826   -3.2026 H   0  0  0  0  0  0  0  0  0  0  0  0
    1.2602    2.6856    0.0379 H   0  0  0  0  0  0  0  0  0  0  0  0
    0.8154    0.2920   -0.0649 H   0  0  0  0  0  0  0  0  0  0  0  0
    2.6125   -0.9508   -4.0503 H   0  0  0  0  0  0  0  0  0  0  0  0
    2.9534   -2.1739   -6.1537 H   0  0  0  0  0  0  0  0  0  0  0  0
    1.4457   -2.3247   -8.6607 H   0  0  0  0  0  0  0  0  0  0  0  0
    0.5464   -3.6538   -9.4781 H   0  0  0  0  0  0  0  0  0  0  0  0
   -0.2110   -2.7944   -8.0865 H   0  0  0  0  0  0  0  0  0  0  0  0
   -0.5677   -4.5137   -5.3766 H   0  0  0  0  0  0  0  0  0  0  0  0
   -0.9624   -3.2549   -3.2963 H   0  0  0  0  0  0  0  0  0  0  0  0
   -3.0716   -5.3456    0.7673 H   0  0  0  0  0  0  0  0  0  0  0  0
   -4.8961   -6.9970    0.8161 H   0  0  0  0  0  0  0  0  0  0  0  0
   -8.9440   -5.8128    2.3581 H   0  0  0  0  0  0  0  0  0  0  0  0
   -7.7147   -5.6051    1.0458 H   0  0  0  0  0  0  0  0  0  0  0  0
   -8.8578   -6.9880    0.9810 H   0  0  0  0  0  0  0  0  0  0  0  0
   -6.4315   -5.2082    4.4176 H   0  0  0  0  0  0  0  0  0  0  0  0
   -4.5775   -3.5865    4.4015 H   0  0  0  0  0  0  0  0  0  0  0  0
   -1.1839   -1.2304    3.4037 H   0  0  0  0  0  0  0  0  0  0  0  0
    0.2999   -1.0652    5.3332 H   0  0  0  0  0  0  0  0  0  0  0  0
   -1.1990   -2.7610    8.4850 H   0  0  0  0  0  0  0  0  0  0  0  0
    0.0998   -1.9682    9.4632 H   0  0  0  0  0  0  0  0  0  0  0  0
   -0.5388   -1.1440    7.9902 H   0  0  0  0  0  0  0  0  0  0  0  0
   -0.5826   -5.1527    6.3732 H   0  0  0  0  0  0  0  0  0  0  0  0
   -1.9859   -5.3610    4.3834 H   0  0  0  0  0  0  0  0  0  0  0  0
   -5.1872   -3.0488    0.2058 H   0  0  0  0  0  0  0  0  0  0  0  0
   -3.6966    2.0818   -3.2216 H   0  0  0  0  0  0  0  0  0  0  0  0
   -7.8974   -0.6511   -4.1917 H   0  0  0  0  0  0  0  0  0  0  0  0
   -7.2509    1.6099   -6.6839 H   0  0  0  0  0  0  0  0  0  0  0  0
   -9.2253    2.6758   -5.0193 H   0  0  0  0  0  0  0  0  0  0  0  0
   -8.9717    4.4065   -7.0235 H   0  0  0  0  0  0  0  0  0  0  0  0
   -6.7481    5.7188   -6.7033 H   0  0  0  0  0  0  0  0  0  0  0  0
   -5.5519    4.8188   -4.4992 H   0  0  0  0  0  0  0  0  0  0  0  0
   -8.1210    4.7818   -3.8066 H   0  0  0  0  0  0  0  0  0  0  0  0
   -7.3206    3.2540   -3.2269 H   0  0  0  0  0  0  0  0  0  0  0  0
   -5.1825    2.7885   -6.3411 H   0  0  0  0  0  0  0  0  0  0  0  0
  1  2  2  3
  2  3  1  0
  3  4  2  0
  3  5  1  0
  5  6  2  0
  6  7  1  0
  7  8  2  0
  8  9  1  0
  9 10  2  0
 10 11  1  0
 11 12  2  3
 12 13  1  0
 13 14  3  0
 12 15  1  0
 15 16  3  0
  8 17  1  0
 17 18  1  0
 18 19  1  0
 19 20  2  0
 20 21  1  0
 21 22  1  0
 21 23  1  0
  1 24  1  0
 24 25  2  0
 25 26  1  0
 25 27  1  0
 27 28  2  0
 28 29  1  0
 29 30  2  0
 28 31  1  0
 31 32  2  0
 32 33  1  0
 33 34  2  0
 33 35  1  0
 35 36  1  0
 36 37  1  0
 35 38  1  0
 38 39  2  0
 38 40  1  0
 40 41  2  0
 41 42  1  0
 42 43  1  0
 43 44  2  0
 44 45  1  0
 45 46  1  0
 41 47  1  0
 47 48  2  0
 48 49  1  0
 49 50  1  0
 50 51  2  0
 51 52  1  0
 52 53  2  0
 53 54  1  0
 54 55  1  0
 53 56  1  0
 56 57  2  0
 49 58  1  0
 58 59  2  0
 59 60  1  0
 60 61  2  0
 61 62  1  0
 62 63  1  0
 61 64  1  0
 64 65  2  0
 48 66  1  0
 66 67  1  0
 67 68  1  0
 68 69  2  0
 69 70  1  0
 70 71  1  0
 71 72  2  0
 72 73  1  0
 73 74  2  0
 74 75  1  0
 75 76  1  0
 74 77  1  0
 77 78  2  0
 70 79  1  0
 79 80  2  0
 80 81  1  0
 81 82  2  0
 82 83  1  0
 83 84  1  0
 82 85  1  0
 85 86  2  0
 69 87  1  0
 87 88  1  0
 68 89  1  0
 89 90  2  3
 90 91  1  0
 91 92  2  0
 91 93  1  0
 93 94  2  0
 94 95  1  0
 95 96  2  0
 96 97  1  0
 97 98  2  0
 98 99  1  0
 99100  2  3
100101  1  0
101102  3  0
100103  1  0
103104  3  0
 96105  1  0
105106  1  0
106107  1  0
107108  2  0
108109  1  0
109110  1  0
109111  1  0
 11  2  1  0
 23 17  1  0
 30 24  1  0
 43 31  1  0
 88 47  1  0
 99 90  1  0
111105  1  0
 10  5  1  0
 22 18  1  0
 40 32  1  0
 46 42  2  0
 57 50  1  0
 65 58  1  0
 87 66  2  0
 98 93  1  0
110106  1  0
 23  7  1  0
 78 71  1  0
 86 79  1  0
111 95  1  0
  1112  1  0
  6113  1  0
  9114  1  0
 17115  1  0
 18116  1  0
 19117  1  0
 20118  1  0
 21119  1  0
 22120  1  0
 22121  1  0
 23122  1  0
 27123  1  0
 29124  1  0
 30125  1  0
 36126  1  0
 36127  1  0
 37128  1  0
 37129  1  0
 37130  1  0
 51131  1  0
 52132  1  0
 55133  1  0
 55134  1  0
 55135  1  0
 56136  1  0
 57137  1  0
 59138  1  0
 60139  1  0
 63140  1  0
 63141  1  0
 63142  1  0
 64143  1  0
 65144  1  0
 72145  1  0
 73146  1  0
 76147  1  0
 76148  1  0
 76149  1  0
 77150  1  0
 78151  1  0
 80152  1  0
 81153  1  0
 84154  1  0
 84155  1  0
 84156  1  0
 85157  1  0
 86158  1  0
 89159  1  0
 94160  1  0
 97161  1  0
105162  1  0
106163  1  0
107164  1  0
108165  1  0
109166  1  0
110167  1  0
110168  1  0
111169  1  0
M  END

