
     RDKit          3D

268296  0  0  0  0  0  0  0  0999 V2000
    1.8878   -2.6889    9.8873 C   0  0  0  0  0  0  0  0  0  0  0  0
    0.6277   -2.8527    9.4247 C   0  0  0  0  0  0  0  0  0  0  0  0
    0.1200   -2.0857    8.2681 C   0  0  0  0  0  0  0  0  0  0  0  0
    0.3790   -0.8777    8.0230 O   0  0  0  0  0  0  0  0  0  0  0  0
   -0.7433   -2.9227    7.4696 C   0  0  0  0  0  0  0  0  0  0  0  0
   -1.3728   -2.5943    6.2482 C   0  0  0  0  0  0  0  0  0  0  0  0
   -2.1719   -3.6061    5.7437 C   0  0  0  0  0  0  0  0  0  0  0  0
   -2.3731   -4.8561    6.4170 C   0  0  0  0  0  0  0  0  0  0  0  0
   -1.7486   -5.1805    7.6122 C   0  0  0  0  0  0  0  0  0  0  0  0
   -0.8750   -4.1749    8.1117 C   0  0  0  0  0  0  0  0  0  0  0  0
   -0.0550   -4.1837    9.3481 C   0  0  0  0  0  0  0  0  0  0  0  0
    0.2690   -5.2781   10.0688 C   0  0  0  0  0  0  0  0  0  0  0  0
    0.7665   -5.1881   11.4205 C   0  0  0  0  0  0  0  0  0  0  0  0
    1.1514   -5.1131   12.5085 N   0  0  0  0  0  0  0  0  0  0  0  0
    0.2381   -6.5979    9.4768 C   0  0  0  0  0  0  0  0  0  0  0  0
    0.2944   -7.6296    8.9646 N   0  0  0  0  0  0  0  0  0  0  0  0
   -3.3290   -5.2955    5.3538 C   0  0  0  0  0  0  0  0  0  0  0  0
   -4.8388   -5.2591    5.7249 C   0  0  0  0  0  0  0  0  0  0  0  0
   -5.5855   -5.3690    4.4177 C   0  0  0  0  0  0  0  0  0  0  0  0
   -5.3903   -4.2141    3.7704 C   0  0  0  0  0  0  0  0  0  0  0  0
   -4.5249   -3.3640    4.6705 C   0  0  0  0  0  0  0  0  0  0  0  0
   -5.0913   -3.7880    6.0122 C   0  0  0  0  0  0  0  0  0  0  0  0
   -3.1144   -4.0243    4.6564 C   0  0  0  0  0  0  0  0  0  0  0  0
    2.9359   -2.3297    8.9253 C   0  0  0  0  0  0  0  0  0  0  0  0
    3.4191   -1.0505    8.6660 C   0  0  0  0  0  0  0  0  0  0  0  0
    4.0540   -0.9543    7.4115 C   0  0  0  0  0  0  0  0  0  0  0  0
    4.5041    0.2289    6.7972 C   0  0  0  0  0  0  0  0  0  0  0  0
    4.4996    1.5324    7.5020 C   0  0  0  0  0  0  0  0  0  0  0  0
    5.3138    1.8666    8.5788 C   0  0  0  0  0  0  0  0  0  0  0  0
    5.4624    3.2549    8.7588 C   0  0  0  0  0  0  0  0  0  0  0  0
    4.7411    4.0149    7.8415 C   0  0  0  0  0  0  0  0  0  0  0  0
    5.0199    5.4281    7.5066 C   0  0  0  0  0  0  0  0  0  0  0  0
    4.4798    5.9941    6.4205 C   0  0  0  0  0  0  0  0  0  0  0  0
    4.9422    7.2651    5.8483 C   0  0  0  0  0  0  0  0  0  0  0  0
    4.2788    7.9409    4.8286 C   0  0  0  0  0  0  0  0  0  0  0  0
    5.0097    9.0088    4.3012 C   0  0  0  0  0  0  0  0  0  0  0  0
    6.2611    9.1551    4.8876 C   0  0  0  0  0  0  0  0  0  0  0  0
    7.3190   10.1251    4.4522 C   0  0  0  0  0  0  0  0  0  0  0  0
    7.8035    9.8106    3.0410 C   0  0  0  0  0  0  0  0  0  0  0  0
    6.4578    7.9721    6.0685 S   0  0  0  0  0  0  0  0  0  0  0  0
    3.9081    2.9555    6.8424 S   0  0  0  0  0  0  0  0  0  0  0  0
    4.8371    0.1377    5.4286 C   0  0  0  0  0  0  0  0  0  0  0  0
    4.7308   -1.0518    4.6966 C   0  0  0  0  0  0  0  0  0  0  0  0
    4.4057   -2.2555    5.3409 C   0  0  0  0  0  0  0  0  0  0  0  0
    4.3085   -3.5317    4.6020 C   0  0  0  0  0  0  0  0  0  0  0  0
    3.1820   -4.3421    4.4973 C   0  0  0  0  0  0  0  0  0  0  0  0
    3.3823   -5.4755    3.6999 C   0  0  0  0  0  0  0  0  0  0  0  0
    4.6853   -5.5794    3.2062 C   0  0  0  0  0  0  0  0  0  0  0  0
    5.2169   -6.5876    2.2646 C   0  0  0  0  0  0  0  0  0  0  0  0
    4.7805   -7.8473    2.1296 C   0  0  0  0  0  0  0  0  0  0  0  0
    3.8063   -8.4782    3.0267 C   0  0  0  0  0  0  0  0  0  0  0  0
    4.0330   -8.8069    4.3562 C   0  0  0  0  0  0  0  0  0  0  0  0
    2.9247   -9.3986    4.9698 C   0  0  0  0  0  0  0  0  0  0  0  0
    1.8321   -9.5232    4.1136 C   0  0  0  0  0  0  0  0  0  0  0  0
    0.4677   -9.9812    4.5130 C   0  0  0  0  0  0  0  0  0  0  0  0
   -0.3746   -8.8001    4.9877 C   0  0  0  0  0  0  0  0  0  0  0  0
    2.2440   -8.9221    2.5982 S   0  0  0  0  0  0  0  0  0  0  0  0
    5.5490   -4.2210    3.6967 S   0  0  0  0  0  0  0  0  0  0  0  0
    4.0637   -2.1668    6.7009 C   0  0  0  0  0  0  0  0  0  0  0  0
    3.3227   -3.3447    7.6314 S   0  0  0  0  0  0  0  0  0  0  0  0
    4.7291   -0.8451    3.3045 C   0  0  0  0  0  0  0  0  0  0  0  0
    4.8433    0.4973    2.9316 C   0  0  0  0  0  0  0  0  0  0  0  0
    5.0308    1.3928    4.3321 S   0  0  0  0  0  0  0  0  0  0  0  0
    4.0500    1.0544    1.8357 C   0  0  0  0  0  0  0  0  0  0  0  0
    4.3225    1.0196    0.4633 C   0  0  0  0  0  0  0  0  0  0  0  0
    5.5850    0.6595   -0.1161 N   0  0  0  0  0  0  0  0  0  0  0  0
    6.3174    1.6957   -0.7820 C   0  0  0  0  0  0  0  0  0  0  0  0
    6.8036    2.7871   -0.0529 C   0  0  0  0  0  0  0  0  0  0  0  0
    7.4783    3.8217   -0.7049 C   0  0  0  0  0  0  0  0  0  0  0  0
    7.6383    3.7880   -2.0950 C   0  0  0  0  0  0  0  0  0  0  0  0
    8.4659    5.1402   -2.9348 S   0  0  0  0  0  0  0  0  0  0  0  0
    6.9127    6.0226   -3.2701 C   0  0  0  0  0  0  0  0  0  0  0  0
    7.1589    2.6937   -2.8269 C   0  0  0  0  0  0  0  0  0  0  0  0
    6.5024    1.6481   -2.1716 C   0  0  0  0  0  0  0  0  0  0  0  0
    6.1397   -0.6666    0.0096 C   0  0  0  0  0  0  0  0  0  0  0  0
    5.3020   -1.7983    0.0158 C   0  0  0  0  0  0  0  0  0  0  0  0
    5.8499   -3.0813    0.0997 C   0  0  0  0  0  0  0  0  0  0  0  0
    7.2398   -3.2519    0.1485 C   0  0  0  0  0  0  0  0  0  0  0  0
    7.9466   -4.9002    0.1937 S   0  0  0  0  0  0  0  0  0  0  0  0
    7.9335   -5.0951   -1.6163 C   0  0  0  0  0  0  0  0  0  0  0  0
    8.0775   -2.1364    0.1435 C   0  0  0  0  0  0  0  0  0  0  0  0
    7.5345   -0.8513    0.0803 C   0  0  0  0  0  0  0  0  0  0  0  0
    3.2733    1.5934   -0.2577 C   0  0  0  0  0  0  0  0  0  0  0  0
    2.8555    1.5988   -1.8716 S   0  0  0  0  0  0  0  0  0  0  0  0
    1.2665    2.1763   -1.6279 C   0  0  0  0  0  0  0  0  0  0  0  0
    1.0760    2.3908   -0.2385 C   0  0  0  0  0  0  0  0  0  0  0  0
   -0.1225    2.8978    0.3949 N   0  0  0  0  0  0  0  0  0  0  0  0
    0.0037    3.8837    1.4491 C   0  0  0  0  0  0  0  0  0  0  0  0
   -0.8524    3.8442    2.5678 C   0  0  0  0  0  0  0  0  0  0  0  0
   -0.7937    4.8356    3.5468 C   0  0  0  0  0  0  0  0  0  0  0  0
    0.1606    5.8495    3.4606 C   0  0  0  0  0  0  0  0  0  0  0  0
    0.2582    7.0941    4.7496 S   0  0  0  0  0  0  0  0  0  0  0  0
    0.9204    5.9495    6.0055 C   0  0  0  0  0  0  0  0  0  0  0  0
    1.0379    5.8920    2.3704 C   0  0  0  0  0  0  0  0  0  0  0  0
    0.9466    4.9275    1.3559 C   0  0  0  0  0  0  0  0  0  0  0  0
   -1.4418    2.3853    0.1008 C   0  0  0  0  0  0  0  0  0  0  0  0
   -1.7011    1.0033    0.0913 C   0  0  0  0  0  0  0  0  0  0  0  0
   -3.0181    0.5303    0.0299 C   0  0  0  0  0  0  0  0  0  0  0  0
   -4.0922    1.4307   -0.0036 C   0  0  0  0  0  0  0  0  0  0  0  0
   -5.7840    0.8377    0.1480 S   0  0  0  0  0  0  0  0  0  0  0  0
   -6.1672    1.0191   -1.6183 C   0  0  0  0  0  0  0  0  0  0  0  0
   -3.8382    2.8063   -0.0264 C   0  0  0  0  0  0  0  0  0  0  0  0
   -2.5300    3.2771    0.0235 C   0  0  0  0  0  0  0  0  0  0  0  0
    2.2203    2.0341    0.4792 C   0  0  0  0  0  0  0  0  0  0  0  0
    2.5147    1.7517    2.0994 S   0  0  0  0  0  0  0  0  0  0  0  0
    0.2065    1.7025   -2.5096 C   0  0  0  0  0  0  0  0  0  0  0  0
   -0.9184    2.4255   -2.9537 C   0  0  0  0  0  0  0  0  0  0  0  0
   -0.8123    3.7578   -3.4713 N   0  0  0  0  0  0  0  0  0  0  0  0
   -0.3322    3.9318   -4.8110 C   0  0  0  0  0  0  0  0  0  0  0  0
   -1.2249    3.8774   -5.8940 C   0  0  0  0  0  0  0  0  0  0  0  0
   -0.7547    4.0122   -7.2023 C   0  0  0  0  0  0  0  0  0  0  0  0
    0.6144    4.2027   -7.4412 C   0  0  0  0  0  0  0  0  0  0  0  0
    1.1031    4.3868   -8.8447 C   0  0  0  0  0  0  0  0  0  0  0  0
    1.5066    4.2659   -6.3592 C   0  0  0  0  0  0  0  0  0  0  0  0
    1.0370    4.1172   -5.0507 C   0  0  0  0  0  0  0  0  0  0  0  0
   -1.2620    4.8993   -2.7398 C   0  0  0  0  0  0  0  0  0  0  0  0
   -2.6356    5.1350   -2.5579 C   0  0  0  0  0  0  0  0  0  0  0  0
   -3.0714    6.2995   -1.9175 C   0  0  0  0  0  0  0  0  0  0  0  0
   -2.1417    7.2407   -1.4453 C   0  0  0  0  0  0  0  0  0  0  0  0
   -2.6164    8.5050   -0.7954 C   0  0  0  0  0  0  0  0  0  0  0  0
   -0.7699    7.0154   -1.6557 C   0  0  0  0  0  0  0  0  0  0  0  0
   -0.3354    5.8546   -2.2982 C   0  0  0  0  0  0  0  0  0  0  0  0
   -1.8904    1.5333   -3.4003 C   0  0  0  0  0  0  0  0  0  0  0  0
   -3.4563    1.6764   -3.9795 S   0  0  0  0  0  0  0  0  0  0  0  0
   -3.6614   -0.0009   -4.2697 C   0  0  0  0  0  0  0  0  0  0  0  0
   -2.4932   -0.6632   -3.8619 C   0  0  0  0  0  0  0  0  0  0  0  0
   -2.2581   -2.0772   -3.9884 N   0  0  0  0  0  0  0  0  0  0  0  0
   -1.9094   -2.7986   -2.7961 C   0  0  0  0  0  0  0  0  0  0  0  0
   -2.7487   -2.7527   -1.6769 C   0  0  0  0  0  0  0  0  0  0  0  0
   -2.3649   -3.3514   -0.4752 C   0  0  0  0  0  0  0  0  0  0  0  0
   -1.1082   -3.9674   -0.3624 C   0  0  0  0  0  0  0  0  0  0  0  0
   -0.6767   -4.5450    0.9526 C   0  0  0  0  0  0  0  0  0  0  0  0
   -0.2608   -4.0153   -1.4764 C   0  0  0  0  0  0  0  0  0  0  0  0
   -0.6553   -3.4277   -2.6865 C   0  0  0  0  0  0  0  0  0  0  0  0
   -2.3405   -2.7239   -5.2855 C   0  0  0  0  0  0  0  0  0  0  0  0
   -2.3246   -1.9641   -6.4744 C   0  0  0  0  0  0  0  0  0  0  0  0
   -2.4864   -2.5751   -7.7189 C   0  0  0  0  0  0  0  0  0  0  0  0
   -2.6280   -3.9666   -7.8074 C   0  0  0  0  0  0  0  0  0  0  0  0
   -2.8048   -4.6252   -9.1422 C   0  0  0  0  0  0  0  0  0  0  0  0
   -2.5806   -4.7392   -6.6399 C   0  0  0  0  0  0  0  0  0  0  0  0
   -2.4316   -4.1269   -5.3907 C   0  0  0  0  0  0  0  0  0  0  0  0
   -1.5505    0.2203   -3.3683 C   0  0  0  0  0  0  0  0  0  0  0  0
   -0.0209    0.0297   -2.7399 S   0  0  0  0  0  0  0  0  0  0  0  0
   -4.8962   -0.7026   -4.6628 C   0  0  0  0  0  0  0  0  0  0  0  0
   -5.9112   -0.1775   -5.3651 C   0  0  0  0  0  0  0  0  0  0  0  0
   -5.8469    1.0060   -6.2302 C   0  0  0  0  0  0  0  0  0  0  0  0
   -4.8453    1.7604   -6.4186 O   0  0  0  0  0  0  0  0  0  0  0  0
   -7.0170    1.0332   -7.0641 C   0  0  0  0  0  0  0  0  0  0  0  0
   -7.3002    1.9899   -8.0630 C   0  0  0  0  0  0  0  0  0  0  0  0
   -8.3969    1.6751   -8.8286 C   0  0  0  0  0  0  0  0  0  0  0  0
   -9.1756    0.4901   -8.6563 C   0  0  0  0  0  0  0  0  0  0  0  0
   -8.9116   -0.4465   -7.6616 C   0  0  0  0  0  0  0  0  0  0  0  0
   -7.7920   -0.1304   -6.8397 C   0  0  0  0  0  0  0  0  0  0  0  0
   -7.1845   -0.8916   -5.7076 C   0  0  0  0  0  0  0  0  0  0  0  0
   -7.7737   -1.8818   -4.9847 C   0  0  0  0  0  0  0  0  0  0  0  0
   -7.3254   -2.2315   -3.6628 C   0  0  0  0  0  0  0  0  0  0  0  0
   -6.9800   -2.5234   -2.5939 N   0  0  0  0  0  0  0  0  0  0  0  0
   -8.9072   -2.6287   -5.4641 C   0  0  0  0  0  0  0  0  0  0  0  0
   -9.8079   -3.2552   -5.8468 N   0  0  0  0  0  0  0  0  0  0  0  0
   -9.9999    0.8339   -9.8646 C   0  0  0  0  0  0  0  0  0  0  0  0
   -9.7243    0.0498  -11.1874 C   0  0  0  0  0  0  0  0  0  0  0  0
   -8.2839   -0.3925  -11.2342 C   0  0  0  0  0  0  0  0  0  0  0  0
   -7.5487    0.7100  -11.3731 C   0  0  0  0  0  0  0  0  0  0  0  0
   -8.5183    1.8717  -11.4143 C   0  0  0  0  0  0  0  0  0  0  0  0
   -9.6501    1.2070  -12.1711 C   0  0  0  0  0  0  0  0  0  0  0  0
   -9.1994    2.0541  -10.0274 C   0  0  0  0  0  0  0  0  0  0  0  0
    2.2451   -3.3024   10.6950 H   0  0  0  0  0  0  0  0  0  0  0  0
   -1.2680   -1.6349    5.7624 H   0  0  0  0  0  0  0  0  0  0  0  0
   -1.9531   -6.1099    8.1250 H   0  0  0  0  0  0  0  0  0  0  0  0
   -2.9898   -6.1943    4.7867 H   0  0  0  0  0  0  0  0  0  0  0  0
   -5.1543   -5.9699    6.5166 H   0  0  0  0  0  0  0  0  0  0  0  0
   -6.2311   -6.1787    4.0929 H   0  0  0  0  0  0  0  0  0  0  0  0
   -5.8511   -3.9199    2.8336 H   0  0  0  0  0  0  0  0  0  0  0  0
   -4.5402   -2.2709    4.4583 H   0  0  0  0  0  0  0  0  0  0  0  0
   -6.1723   -3.5395    6.1386 H   0  0  0  0  0  0  0  0  0  0  0  0
   -4.5306   -3.3880    6.8896 H   0  0  0  0  0  0  0  0  0  0  0  0
   -2.6318   -4.1165    3.6585 H   0  0  0  0  0  0  0  0  0  0  0  0
    3.2047   -0.1994    9.2981 H   0  0  0  0  0  0  0  0  0  0  0  0
    5.8794    1.1408    9.1424 H   0  0  0  0  0  0  0  0  0  0  0  0
    6.1462    3.6812    9.4816 H   0  0  0  0  0  0  0  0  0  0  0  0
    5.7693    5.9551    8.0831 H   0  0  0  0  0  0  0  0  0  0  0  0
    3.7349    5.4633    5.8496 H   0  0  0  0  0  0  0  0  0  0  0  0
    3.3101    7.6503    4.4492 H   0  0  0  0  0  0  0  0  0  0  0  0
    4.6563    9.6276    3.4861 H   0  0  0  0  0  0  0  0  0  0  0  0
    8.1832   10.0752    5.1558 H   0  0  0  0  0  0  0  0  0  0  0  0
    6.9034   11.1568    4.4845 H   0  0  0  0  0  0  0  0  0  0  0  0
    8.2229    8.7835    2.9942 H   0  0  0  0  0  0  0  0  0  0  0  0
    8.6014   10.5325    2.7564 H   0  0  0  0  0  0  0  0  0  0  0  0
    6.9715    9.9124    2.3110 H   0  0  0  0  0  0  0  0  0  0  0  0
    2.2197   -4.0862    4.9292 H   0  0  0  0  0  0  0  0  0  0  0  0
    2.5759   -6.1450    3.4500 H   0  0  0  0  0  0  0  0  0  0  0  0
    6.0358   -6.2869    1.6301 H   0  0  0  0  0  0  0  0  0  0  0  0
    5.2023   -8.4571    1.3425 H   0  0  0  0  0  0  0  0  0  0  0  0
    4.9725   -8.6347    4.8663 H   0  0  0  0  0  0  0  0  0  0  0  0
    2.9151   -9.7093    6.0091 H   0  0  0  0  0  0  0  0  0  0  0  0
   -0.0284  -10.4636    3.6451 H   0  0  0  0  0  0  0  0  0  0  0  0
    0.5514  -10.7355    5.3276 H   0  0  0  0  0  0  0  0  0  0  0  0
    0.1036   -8.3220    5.8728 H   0  0  0  0  0  0  0  0  0  0  0  0
   -0.4834   -8.0490    4.1732 H   0  0  0  0  0  0  0  0  0  0  0  0
   -1.3818   -9.1587    5.2810 H   0  0  0  0  0  0  0  0  0  0  0  0
    4.4402   -1.6196    2.6075 H   0  0  0  0  0  0  0  0  0  0  0  0
    6.6700    2.8226    1.0212 H   0  0  0  0  0  0  0  0  0  0  0  0
    7.8760    4.6476   -0.1282 H   0  0  0  0  0  0  0  0  0  0  0  0
    7.1404    6.9734   -3.7927 H   0  0  0  0  0  0  0  0  0  0  0  0
    6.3879    6.2503   -2.3187 H   0  0  0  0  0  0  0  0  0  0  0  0
    6.2610    5.4015   -3.9188 H   0  0  0  0  0  0  0  0  0  0  0  0
    7.2767    2.6645   -3.9043 H   0  0  0  0  0  0  0  0  0  0  0  0
    6.1199    0.8147   -2.7456 H   0  0  0  0  0  0  0  0  0  0  0  0
    4.2259   -1.6861   -0.0572 H   0  0  0  0  0  0  0  0  0  0  0  0
    5.1962   -3.9475    0.0975 H   0  0  0  0  0  0  0  0  0  0  0  0
    8.2421   -6.1313   -1.8738 H   0  0  0  0  0  0  0  0  0  0  0  0
    8.6526   -4.3815   -2.0704 H   0  0  0  0  0  0  0  0  0  0  0  0
    6.9132   -4.9142   -2.0173 H   0  0  0  0  0  0  0  0  0  0  0  0
    9.1516   -2.2628    0.1831 H   0  0  0  0  0  0  0  0  0  0  0  0
    8.2025   -0.0022    0.0851 H   0  0  0  0  0  0  0  0  0  0  0  0
   -1.5805    3.0533    2.6782 H   0  0  0  0  0  0  0  0  0  0  0  0
   -1.4750    4.7913    4.3838 H   0  0  0  0  0  0  0  0  0  0  0  0
    0.0804    5.5194    6.5875 H   0  0  0  0  0  0  0  0  0  0  0  0
    1.5770    6.5133    6.6994 H   0  0  0  0  0  0  0  0  0  0  0  0
    1.4952    5.1207    5.5431 H   0  0  0  0  0  0  0  0  0  0  0  0
    1.7773    6.6772    2.2961 H   0  0  0  0  0  0  0  0  0  0  0  0
    1.6059    4.9986    0.4982 H   0  0  0  0  0  0  0  0  0  0  0  0
   -0.8842    0.2974    0.1878 H   0  0  0  0  0  0  0  0  0  0  0  0
   -3.2053   -0.5309    0.0871 H   0  0  0  0  0  0  0  0  0  0  0  0
   -6.0014    2.0675   -1.9443 H   0  0  0  0  0  0  0  0  0  0  0  0
   -7.2326    0.7594   -1.7872 H   0  0  0  0  0  0  0  0  0  0  0  0
   -5.5313    0.3298   -2.2033 H   0  0  0  0  0  0  0  0  0  0  0  0
   -4.6622    3.5128   -0.0328 H   0  0  0  0  0  0  0  0  0  0  0  0
   -2.3616    4.3432    0.0723 H   0  0  0  0  0  0  0  0  0  0  0  0
   -2.2847    3.7309   -5.7218 H   0  0  0  0  0  0  0  0  0  0  0  0
   -1.4544    3.9816   -8.0297 H   0  0  0  0  0  0  0  0  0  0  0  0
    0.7616    3.5435   -9.4824 H   0  0  0  0  0  0  0  0  0  0  0  0
    0.6991    5.3333   -9.2556 H   0  0  0  0  0  0  0  0  0  0  0  0
    2.2112    4.4257   -8.8948 H   0  0  0  0  0  0  0  0  0  0  0  0
    2.5653    4.4404   -6.5266 H   0  0  0  0  0  0  0  0  0  0  0  0
    1.7325    4.1363   -4.2231 H   0  0  0  0  0  0  0  0  0  0  0  0
   -3.3644    4.4154   -2.9117 H   0  0  0  0  0  0  0  0  0  0  0  0
   -4.1350    6.4647   -1.7843 H   0  0  0  0  0  0  0  0  0  0  0  0
   -2.9048    9.2365   -1.5778 H   0  0  0  0  0  0  0  0  0  0  0  0
   -3.4961    8.3012   -0.1501 H   0  0  0  0  0  0  0  0  0  0  0  0
   -1.8214    8.9502   -0.1604 H   0  0  0  0  0  0  0  0  0  0  0  0
   -0.0394    7.7505   -1.3352 H   0  0  0  0  0  0  0  0  0  0  0  0
    0.7221    5.6978   -2.4552 H   0  0  0  0  0  0  0  0  0  0  0  0
   -3.7103   -2.2590   -1.7464 H   0  0  0  0  0  0  0  0  0  0  0  0
   -3.0357   -3.3159    0.3763 H   0  0  0  0  0  0  0  0  0  0  0  0
    0.0905   -5.3384    0.8146 H   0  0  0  0  0  0  0  0  0  0  0  0
   -1.5395   -5.0102    1.4753 H   0  0  0  0  0  0  0  0  0  0  0  0
   -0.2550   -3.7423    1.5922 H   0  0  0  0  0  0  0  0  0  0  0  0
    0.7178   -4.4783   -1.4053 H   0  0  0  0  0  0  0  0  0  0  0  0
    0.0280   -3.4237   -3.5274 H   0  0  0  0  0  0  0  0  0  0  0  0
   -2.1887   -0.8909   -6.4497 H   0  0  0  0  0  0  0  0  0  0  0  0
   -2.4770   -1.9624   -8.6126 H   0  0  0  0  0  0  0  0  0  0  0  0
   -3.2757   -3.9224   -9.8640 H   0  0  0  0  0  0  0  0  0  0  0  0
   -3.4642   -5.5117   -9.0508 H   0  0  0  0  0  0  0  0  0  0  0  0
   -1.8166   -4.9407   -9.5349 H   0  0  0  0  0  0  0  0  0  0  0  0
   -2.6613   -5.8208   -6.6961 H   0  0  0  0  0  0  0  0  0  0  0  0
   -2.4457   -4.7518   -4.5105 H   0  0  0  0  0  0  0  0  0  0  0  0
   -4.9648   -1.7273   -4.3302 H   0  0  0  0  0  0  0  0  0  0  0  0
   -6.6753    2.8433   -8.2588 H   0  0  0  0  0  0  0  0  0  0  0  0
   -9.4848   -1.3555   -7.5969 H   0  0  0  0  0  0  0  0  0  0  0  0
  -11.0685    1.0301   -9.6420 H   0  0  0  0  0  0  0  0  0  0  0  0
  -10.4693   -0.7369  -11.4285 H   0  0  0  0  0  0  0  0  0  0  0  0
   -7.9185   -1.4105  -11.2644 H   0  0  0  0  0  0  0  0  0  0  0  0
   -6.4731    0.7419  -11.5136 H   0  0  0  0  0  0  0  0  0  0  0  0
   -8.1183    2.8023  -11.8665 H   0  0  0  0  0  0  0  0  0  0  0  0
  -10.5865    1.8146  -12.2125 H   0  0  0  0  0  0  0  0  0  0  0  0
   -9.3595    0.8995  -13.2086 H   0  0  0  0  0  0  0  0  0  0  0  0
   -9.7812    2.9956   -9.9032 H   0  0  0  0  0  0  0  0  0  0  0  0
  1  2  2  3
  2  3  1  0
  3  4  2  0
  3  5  1  0
  5  6  2  0
  6  7  1  0
  7  8  2  0
  8  9  1  0
  9 10  2  0
 10 11  1  0
 11 12  2  3
 12 13  1  0
 13 14  3  0
 12 15  1  0
 15 16  3  0
  8 17  1  0
 17 18  1  0
 18 19  1  0
 19 20  2  0
 20 21  1  0
 21 22  1  0
 21 23  1  0
  1 24  1  0
 24 25  2  0
 25 26  1  0
 26 27  2  0
 27 28  1  0
 28 29  2  0
 29 30  1  0
 30 31  2  0
 31 32  1  0
 32 33  2  3
 33 34  1  0
 34 35  2  0
 35 36  1  0
 36 37  2  0
 37 38  1  0
 38 39  1  0
 37 40  1  0
 31 41  1  0
 27 42  1  0
 42 43  2  0
 43 44  1  0
 44 45  1  0
 45 46  2  0
 46 47  1  0
 47 48  2  0
 48 49  1  0
 49 50  2  3
 50 51  1  0
 51 52  2  0
 52 53  1  0
 53 54  2  0
 54 55  1  0
 55 56  1  0
 54 57  1  0
 48 58  1  0
 44 59  2  0
 59 60  1  0
 43 61  1  0
 61 62  2  0
 62 63  1  0
 62 64  1  0
 64 65  2  0
 65 66  1  0
 66 67  1  0
 67 68  2  0
 68 69  1  0
 69 70  2  0
 70 71  1  0
 71 72  1  0
 70 73  1  0
 73 74  2  0
 66 75  1  0
 75 76  2  0
 76 77  1  0
 77 78  2  0
 78 79  1  0
 79 80  1  0
 78 81  1  0
 81 82  2  0
 65 83  1  0
 83 84  1  0
 84 85  1  0
 85 86  2  0
 86 87  1  0
 87 88  1  0
 88 89  2  0
 89 90  1  0
 90 91  2  0
 91 92  1  0
 92 93  1  0
 91 94  1  0
 94 95  2  0
 87 96  1  0
 96 97  2  0
 97 98  1  0
 98 99  2  0
 99100  1  0
100101  1  0
 99102  1  0
102103  2  0
 86104  1  0
104105  1  0
 85106  1  0
106107  2  0
107108  1  0
108109  1  0
109110  2  0
110111  1  0
111112  2  0
112113  1  0
112114  1  0
114115  2  0
108116  1  0
116117  2  0
117118  1  0
118119  2  0
119120  1  0
119121  1  0
121122  2  0
107123  1  0
123124  1  0
124125  1  0
125126  2  0
126127  1  0
127128  1  0
128129  2  0
129130  1  0
130131  2  0
131132  1  0
131133  1  0
133134  2  0
127135  1  0
135136  2  0
136137  1  0
137138  2  0
138139  1  0
138140  1  0
140141  2  0
126142  1  0
142143  1  0
125144  1  0
144145  2  3
145146  1  0
146147  2  0
146148  1  0
148149  2  0
149150  1  0
150151  2  0
151152  1  0
152153  2  0
153154  1  0
154155  2  3
155156  1  0
156157  3  0
155158  1  0
158159  3  0
151160  1  0
160161  1  0
161162  1  0
162163  2  0
163164  1  0
164165  1  0
164166  1  0
 11  2  1  0
 23 17  1  0
 60 24  1  0
105 64  1  0
143106  1  0
154145  1  0
166160  1  0
 10  5  1  0
 22 18  1  0
 59 26  1  0
 74 67  1  0
 82 75  1  0
104 83  2  0
115109  1  0
122116  1  0
142123  2  0
153148  1  0
165161  1  0
 23  7  1  0
 41 28  1  0
 63 42  1  0
 95 88  1  0
103 96  1  0
134128  1  0
141135  1  0
166150  1  0
 40 34  1  0
 58 45  1  0
 57 51  1  0
  1167  1  0
  6168  1  0
  9169  1  0
 17170  1  0
 18171  1  0
 19172  1  0
 20173  1  0
 21174  1  0
 22175  1  0
 22176  1  0
 23177  1  0
 25178  1  0
 29179  1  0
 30180  1  0
 32181  1  0
 33182  1  0
 35183  1  0
 36184  1  0
 38185  1  0
 38186  1  0
 39187  1  0
 39188  1  0
 39189  1  0
 46190  1  0
 47191  1  0
 49192  1  0
 50193  1  0
 52194  1  0
 53195  1  0
 55196  1  0
 55197  1  0
 56198  1  0
 56199  1  0
 56200  1  0
 61201  1  0
 68202  1  0
 69203  1  0
 72204  1  0
 72205  1  0
 72206  1  0
 73207  1  0
 74208  1  0
 76209  1  0
 77210  1  0
 80211  1  0
 80212  1  0
 80213  1  0
 81214  1  0
 82215  1  0
 89216  1  0
 90217  1  0
 93218  1  0
 93219  1  0
 93220  1  0
 94221  1  0
 95222  1  0
 97223  1  0
 98224  1  0
101225  1  0
101226  1  0
101227  1  0
102228  1  0
103229  1  0
110230  1  0
111231  1  0
113232  1  0
113233  1  0
113234  1  0
114235  1  0
115236  1  0
117237  1  0
118238  1  0
120239  1  0
120240  1  0
120241  1  0
121242  1  0
122243  1  0
129244  1  0
130245  1  0
132246  1  0
132247  1  0
132248  1  0
133249  1  0
134250  1  0
136251  1  0
137252  1  0
139253  1  0
139254  1  0
139255  1  0
140256  1  0
141257  1  0
144258  1  0
149259  1  0
152260  1  0
160261  1  0
161262  1  0
162263  1  0
163264  1  0
164265  1  0
165266  1  0
165267  1  0
166268  1  0
M  END

