
     RDKit          3D

164181  0  0  0  0  0  0  0  0999 V2000
    2.1405    5.3147   -3.6295 C   0  0  0  0  0  0  0  0  0  0  0  0
    3.3802    5.5627   -3.1808 C   0  0  0  0  0  0  0  0  0  0  0  0
    3.7644    5.6586   -1.7673 C   0  0  0  0  0  0  0  0  0  0  0  0
    3.0875    6.2040   -0.8556 O   0  0  0  0  0  0  0  0  0  0  0  0
    5.0289    4.9709   -1.5763 C   0  0  0  0  0  0  0  0  0  0  0  0
    5.5622    4.5128   -0.3519 C   0  0  0  0  0  0  0  0  0  0  0  0
    6.5480    3.5499   -0.4988 C   0  0  0  0  0  0  0  0  0  0  0  0
    6.9932    3.0711   -1.7744 C   0  0  0  0  0  0  0  0  0  0  0  0
    6.5190    3.5659   -2.9775 C   0  0  0  0  0  0  0  0  0  0  0  0
    5.5082    4.5552   -2.8434 C   0  0  0  0  0  0  0  0  0  0  0  0
    4.5926    5.0748   -3.8867 C   0  0  0  0  0  0  0  0  0  0  0  0
    4.8688    5.2347   -5.2002 C   0  0  0  0  0  0  0  0  0  0  0  0
    6.1576    4.8873   -5.7631 C   0  0  0  0  0  0  0  0  0  0  0  0
    7.1891    4.6168   -6.2184 N   0  0  0  0  0  0  0  0  0  0  0  0
    3.9503    5.9072   -6.0910 C   0  0  0  0  0  0  0  0  0  0  0  0
    3.2144    6.4484   -6.8007 N   0  0  0  0  0  0  0  0  0  0  0  0
    7.8194    2.0149   -1.1043 C   0  0  0  0  0  0  0  0  0  0  0  0
    9.3626    2.1985   -1.0509 C   0  0  0  0  0  0  0  0  0  0  0  0
    9.7008    3.6680   -1.0136 C   0  0  0  0  0  0  0  0  0  0  0  0
    9.2993    4.1298    0.1700 C   0  0  0  0  0  0  0  0  0  0  0  0
    8.6942    2.9561    0.9023 C   0  0  0  0  0  0  0  0  0  0  0  0
    9.6221    1.8600    0.4070 C   0  0  0  0  0  0  0  0  0  0  0  0
    7.3682    2.5115    0.2031 C   0  0  0  0  0  0  0  0  0  0  0  0
    1.0377    4.9932   -2.7168 C   0  0  0  0  0  0  0  0  0  0  0  0
    0.2772    5.8403   -1.9039 C   0  0  0  0  0  0  0  0  0  0  0  0
   -0.7236    5.1530   -1.1739 C   0  0  0  0  0  0  0  0  0  0  0  0
   -1.8261    5.8643   -0.5133 C   0  0  0  0  0  0  0  0  0  0  0  0
   -1.6542    7.0371   -0.0754 O   0  0  0  0  0  0  0  0  0  0  0  0
   -3.0947    5.2777   -0.4867 O   0  0  0  0  0  0  0  0  0  0  0  0
   -4.2865    6.0531   -0.3730 C   0  0  0  0  0  0  0  0  0  0  0  0
   -0.7085    3.7646   -1.3769 C   0  0  0  0  0  0  0  0  0  0  0  0
    0.4955    3.4280   -2.5117 S   0  0  0  0  0  0  0  0  0  0  0  0
   -1.3183    2.6650   -0.5942 C   0  0  0  0  0  0  0  0  0  0  0  0
   -1.3111    2.5112    0.8191 C   0  0  0  0  0  0  0  0  0  0  0  0
   -1.4879    3.5732    1.7737 N   0  0  0  0  0  0  0  0  0  0  0  0
   -0.3260    4.1727    2.4058 C   0  0  0  0  0  0  0  0  0  0  0  0
    0.8655    4.3731    1.6784 C   0  0  0  0  0  0  0  0  0  0  0  0
    1.8867    5.1762    2.2016 C   0  0  0  0  0  0  0  0  0  0  0  0
    1.7447    5.7678    3.4626 C   0  0  0  0  0  0  0  0  0  0  0  0
    2.9593    6.9652    4.0186 S   0  0  0  0  0  0  0  0  0  0  0  0
    2.0131    8.3860    3.3741 C   0  0  0  0  0  0  0  0  0  0  0  0
    0.6351    5.4586    4.2517 C   0  0  0  0  0  0  0  0  0  0  0  0
   -0.3800    4.6471    3.7359 C   0  0  0  0  0  0  0  0  0  0  0  0
   -2.8406    3.9065    2.2095 C   0  0  0  0  0  0  0  0  0  0  0  0
   -3.8821    2.9580    2.1449 C   0  0  0  0  0  0  0  0  0  0  0  0
   -5.1539    3.2540    2.6442 C   0  0  0  0  0  0  0  0  0  0  0  0
   -5.4165    4.5060    3.2017 C   0  0  0  0  0  0  0  0  0  0  0  0
   -7.0237    4.8359    3.9378 S   0  0  0  0  0  0  0  0  0  0  0  0
   -6.5766    4.0754    5.5310 C   0  0  0  0  0  0  0  0  0  0  0  0
   -4.4264    5.4953    3.1803 C   0  0  0  0  0  0  0  0  0  0  0  0
   -3.1589    5.2081    2.6646 C   0  0  0  0  0  0  0  0  0  0  0  0
   -1.2914    1.1587    1.1929 C   0  0  0  0  0  0  0  0  0  0  0  0
   -1.0937    0.3244    2.6415 S   0  0  0  0  0  0  0  0  0  0  0  0
   -0.9894   -1.2158    1.9038 C   0  0  0  0  0  0  0  0  0  0  0  0
   -1.1052   -1.0556    0.5127 C   0  0  0  0  0  0  0  0  0  0  0  0
   -0.7473   -2.0511   -0.4627 N   0  0  0  0  0  0  0  0  0  0  0  0
    0.5940   -1.9656   -0.9841 C   0  0  0  0  0  0  0  0  0  0  0  0
    0.8493   -1.2362   -2.1538 C   0  0  0  0  0  0  0  0  0  0  0  0
    2.1579   -0.9482   -2.5326 C   0  0  0  0  0  0  0  0  0  0  0  0
    3.2334   -1.4600   -1.7974 C   0  0  0  0  0  0  0  0  0  0  0  0
    4.9270   -1.0599   -2.2573 S   0  0  0  0  0  0  0  0  0  0  0  0
    4.9243   -2.0917   -3.7551 C   0  0  0  0  0  0  0  0  0  0  0  0
    2.9873   -2.2610   -0.6743 C   0  0  0  0  0  0  0  0  0  0  0  0
    1.6723   -2.4900   -0.2501 C   0  0  0  0  0  0  0  0  0  0  0  0
   -1.7709   -2.8227   -1.1415 C   0  0  0  0  0  0  0  0  0  0  0  0
   -3.1245   -2.7389   -0.7402 C   0  0  0  0  0  0  0  0  0  0  0  0
   -4.1232   -3.4048   -1.4497 C   0  0  0  0  0  0  0  0  0  0  0  0
   -3.7972   -4.1661   -2.5733 C   0  0  0  0  0  0  0  0  0  0  0  0
   -5.0994   -4.9031   -3.5665 S   0  0  0  0  0  0  0  0  0  0  0  0
   -5.1996   -3.4974   -4.7137 C   0  0  0  0  0  0  0  0  0  0  0  0
   -2.4547   -4.3224   -2.9407 C   0  0  0  0  0  0  0  0  0  0  0  0
   -1.4488   -3.6636   -2.2306 C   0  0  0  0  0  0  0  0  0  0  0  0
   -1.3129    0.2785    0.1710 C   0  0  0  0  0  0  0  0  0  0  0  0
   -1.3605    1.1038   -1.2795 S   0  0  0  0  0  0  0  0  0  0  0  0
   -0.7359   -2.4824    2.6085 C   0  0  0  0  0  0  0  0  0  0  0  0
   -0.2720   -2.6283    3.9149 C   0  0  0  0  0  0  0  0  0  0  0  0
   -0.0790   -3.9719    4.2985 C   0  0  0  0  0  0  0  0  0  0  0  0
    0.4714   -4.3474    5.6118 C   0  0  0  0  0  0  0  0  0  0  0  0
    0.4210   -3.5229    6.5637 O   0  0  0  0  0  0  0  0  0  0  0  0
    1.0685   -5.6005    5.7876 O   0  0  0  0  0  0  0  0  0  0  0  0
    1.5492   -6.0605    7.0463 C   0  0  0  0  0  0  0  0  0  0  0  0
   -0.3996   -4.8863    3.2853 C   0  0  0  0  0  0  0  0  0  0  0  0
   -0.9519   -4.0115    1.9550 S   0  0  0  0  0  0  0  0  0  0  0  0
   -0.5026   -6.3555    3.4290 C   0  0  0  0  0  0  0  0  0  0  0  0
   -0.4601   -7.2167    2.3967 C   0  0  0  0  0  0  0  0  0  0  0  0
   -1.1928   -8.4806    2.4017 C   0  0  0  0  0  0  0  0  0  0  0  0
   -1.5337   -9.1352    3.4273 O   0  0  0  0  0  0  0  0  0  0  0  0
   -1.5264   -8.8226    1.0356 C   0  0  0  0  0  0  0  0  0  0  0  0
   -2.4459   -9.7992    0.5988 C   0  0  0  0  0  0  0  0  0  0  0  0
   -2.7213   -9.7460   -0.7530 C   0  0  0  0  0  0  0  0  0  0  0  0
   -2.1277   -8.7868   -1.6398 C   0  0  0  0  0  0  0  0  0  0  0  0
   -1.2325   -7.8212   -1.2183 C   0  0  0  0  0  0  0  0  0  0  0  0
   -0.9262   -7.8711    0.1706 C   0  0  0  0  0  0  0  0  0  0  0  0
   -0.1079   -6.9310    0.9774 C   0  0  0  0  0  0  0  0  0  0  0  0
    1.0000   -6.2725    0.5605 C   0  0  0  0  0  0  0  0  0  0  0  0
    1.9521   -5.7452    1.5039 C   0  0  0  0  0  0  0  0  0  0  0  0
    2.7171   -5.3204    2.2584 N   0  0  0  0  0  0  0  0  0  0  0  0
    1.3471   -6.1552   -0.8297 C   0  0  0  0  0  0  0  0  0  0  0  0
    1.6321   -6.0427   -1.9449 N   0  0  0  0  0  0  0  0  0  0  0  0
   -2.9448   -9.3096   -2.7823 C   0  0  0  0  0  0  0  0  0  0  0  0
   -4.1398   -8.4183   -3.2317 C   0  0  0  0  0  0  0  0  0  0  0  0
   -5.0343   -9.2951   -4.0696 C   0  0  0  0  0  0  0  0  0  0  0  0
   -5.5992  -10.1764   -3.2321 C   0  0  0  0  0  0  0  0  0  0  0  0
   -5.0650   -9.8567   -1.8581 C   0  0  0  0  0  0  0  0  0  0  0  0
   -5.0017   -8.3422   -1.9840 C   0  0  0  0  0  0  0  0  0  0  0  0
   -3.5614  -10.2777   -1.8727 C   0  0  0  0  0  0  0  0  0  0  0  0
    2.0338    4.8624   -4.6002 H   0  0  0  0  0  0  0  0  0  0  0  0
    5.1488    4.7642    0.6137 H   0  0  0  0  0  0  0  0  0  0  0  0
    6.7820    3.1029   -3.9157 H   0  0  0  0  0  0  0  0  0  0  0  0
    7.4785    0.9766   -1.3155 H   0  0  0  0  0  0  0  0  0  0  0  0
    9.9329    1.5983   -1.7918 H   0  0  0  0  0  0  0  0  0  0  0  0
   10.2639    4.2276   -1.7527 H   0  0  0  0  0  0  0  0  0  0  0  0
    9.4741    5.1303    0.5503 H   0  0  0  0  0  0  0  0  0  0  0  0
    8.6317    3.0649    2.0053 H   0  0  0  0  0  0  0  0  0  0  0  0
    9.2844    0.8355    0.6948 H   0  0  0  0  0  0  0  0  0  0  0  0
   10.6800    2.0034    0.7265 H   0  0  0  0  0  0  0  0  0  0  0  0
    6.7652    1.7640    0.7715 H   0  0  0  0  0  0  0  0  0  0  0  0
    0.3886    6.9179   -1.9119 H   0  0  0  0  0  0  0  0  0  0  0  0
   -4.2305    6.7372    0.4954 H   0  0  0  0  0  0  0  0  0  0  0  0
   -4.4405    6.6400   -1.3008 H   0  0  0  0  0  0  0  0  0  0  0  0
   -5.1493    5.3709   -0.2453 H   0  0  0  0  0  0  0  0  0  0  0  0
    0.9965    3.9607    0.6876 H   0  0  0  0  0  0  0  0  0  0  0  0
    2.7720    5.3661    1.6124 H   0  0  0  0  0  0  0  0  0  0  0  0
    1.1675    8.6094    4.0637 H   0  0  0  0  0  0  0  0  0  0  0  0
    2.6660    9.2821    3.3051 H   0  0  0  0  0  0  0  0  0  0  0  0
    1.6156    8.1701    2.3613 H   0  0  0  0  0  0  0  0  0  0  0  0
    0.5330    5.8686    5.2482 H   0  0  0  0  0  0  0  0  0  0  0  0
   -1.2351    4.4235    4.3601 H   0  0  0  0  0  0  0  0  0  0  0  0
   -3.7188    1.9647    1.7606 H   0  0  0  0  0  0  0  0  0  0  0  0
   -5.9212    2.4900    2.6302 H   0  0  0  0  0  0  0  0  0  0  0  0
   -6.2445    3.0231    5.3808 H   0  0  0  0  0  0  0  0  0  0  0  0
   -5.7641    4.6552    6.0190 H   0  0  0  0  0  0  0  0  0  0  0  0
   -7.4684    4.0707    6.1903 H   0  0  0  0  0  0  0  0  0  0  0  0
   -4.6171    6.4733    3.5931 H   0  0  0  0  0  0  0  0  0  0  0  0
   -2.4169    5.9963    2.6463 H   0  0  0  0  0  0  0  0  0  0  0  0
    0.0295   -0.8621   -2.7469 H   0  0  0  0  0  0  0  0  0  0  0  0
    2.3397   -0.3289   -3.4019 H   0  0  0  0  0  0  0  0  0  0  0  0
    5.9570   -2.1461   -4.1613 H   0  0  0  0  0  0  0  0  0  0  0  0
    4.2692   -1.6247   -4.5178 H   0  0  0  0  0  0  0  0  0  0  0  0
    4.5644   -3.1180   -3.5218 H   0  0  0  0  0  0  0  0  0  0  0  0
    3.8117   -2.6658   -0.1038 H   0  0  0  0  0  0  0  0  0  0  0  0
    1.4940   -3.0490    0.6566 H   0  0  0  0  0  0  0  0  0  0  0  0
   -3.4180   -2.1358    0.1075 H   0  0  0  0  0  0  0  0  0  0  0  0
   -5.1585   -3.2995   -1.1459 H   0  0  0  0  0  0  0  0  0  0  0  0
   -4.2124   -3.3218   -5.1907 H   0  0  0  0  0  0  0  0  0  0  0  0
   -5.9434   -3.7265   -5.5044 H   0  0  0  0  0  0  0  0  0  0  0  0
   -5.5208   -2.5852   -4.1662 H   0  0  0  0  0  0  0  0  0  0  0  0
   -2.1979   -4.9364   -3.7912 H   0  0  0  0  0  0  0  0  0  0  0  0
   -0.4252   -3.8039   -2.5388 H   0  0  0  0  0  0  0  0  0  0  0  0
   -0.0734   -1.7873    4.5730 H   0  0  0  0  0  0  0  0  0  0  0  0
    0.7018   -6.1715    7.7590 H   0  0  0  0  0  0  0  0  0  0  0  0
    2.2836   -5.3358    7.4561 H   0  0  0  0  0  0  0  0  0  0  0  0
    2.0473   -7.0400    6.9189 H   0  0  0  0  0  0  0  0  0  0  0  0
   -0.8173   -6.7280    4.3930 H   0  0  0  0  0  0  0  0  0  0  0  0
   -2.9533  -10.4837    1.2669 H   0  0  0  0  0  0  0  0  0  0  0  0
   -0.8799   -7.0502   -1.8860 H   0  0  0  0  0  0  0  0  0  0  0  0
   -2.3400   -9.7568   -3.6015 H   0  0  0  0  0  0  0  0  0  0  0  0
   -3.8553   -7.4515   -3.6974 H   0  0  0  0  0  0  0  0  0  0  0  0
   -5.2843   -9.1705   -5.1209 H   0  0  0  0  0  0  0  0  0  0  0  0
   -6.3824  -10.8878   -3.4850 H   0  0  0  0  0  0  0  0  0  0  0  0
   -5.6650  -10.2531   -1.0111 H   0  0  0  0  0  0  0  0  0  0  0  0
   -4.5181   -7.8322   -1.1233 H   0  0  0  0  0  0  0  0  0  0  0  0
   -6.0017   -7.8708   -2.1538 H   0  0  0  0  0  0  0  0  0  0  0  0
   -3.3623  -11.3437   -2.1224 H   0  0  0  0  0  0  0  0  0  0  0  0
  1  2  2  3
  2  3  1  0
  3  4  2  0
  3  5  1  0
  5  6  2  0
  6  7  1  0
  7  8  2  0
  8  9  1  0
  9 10  2  0
 10 11  1  0
 11 12  2  3
 12 13  1  0
 13 14  3  0
 12 15  1  0
 15 16  3  0
  8 17  1  0
 17 18  1  0
 18 19  1  0
 19 20  2  0
 20 21  1  0
 21 22  1  0
 21 23  1  0
  1 24  1  0
 24 25  2  0
 25 26  1  0
 26 27  1  0
 27 28  2  0
 27 29  1  0
 29 30  1  0
 26 31  2  0
 31 32  1  0
 31 33  1  0
 33 34  2  0
 34 35  1  0
 35 36  1  0
 36 37  2  0
 37 38  1  0
 38 39  2  0
 39 40  1  0
 40 41  1  0
 39 42  1  0
 42 43  2  0
 35 44  1  0
 44 45  2  0
 45 46  1  0
 46 47  2  0
 47 48  1  0
 48 49  1  0
 47 50  1  0
 50 51  2  0
 34 52  1  0
 52 53  1  0
 53 54  1  0
 54 55  2  0
 55 56  1  0
 56 57  1  0
 57 58  2  0
 58 59  1  0
 59 60  2  0
 60 61  1  0
 61 62  1  0
 60 63  1  0
 63 64  2  0
 56 65  1  0
 65 66  2  0
 66 67  1  0
 67 68  2  0
 68 69  1  0
 69 70  1  0
 68 71  1  0
 71 72  2  0
 55 73  1  0
 73 74  1  0
 54 75  1  0
 75 76  2  0
 76 77  1  0
 77 78  1  0
 78 79  2  0
 78 80  1  0
 80 81  1  0
 77 82  2  0
 82 83  1  0
 82 84  1  0
 84 85  2  3
 85 86  1  0
 86 87  2  0
 86 88  1  0
 88 89  2  0
 89 90  1  0
 90 91  2  0
 91 92  1  0
 92 93  2  0
 93 94  1  0
 94 95  2  3
 95 96  1  0
 96 97  3  0
 95 98  1  0
 98 99  3  0
 91100  1  0
100101  1  0
101102  1  0
102103  2  0
103104  1  0
104105  1  0
104106  1  0
 11  2  1  0
 23 17  1  0
 32 24  1  0
 74 33  1  0
 83 75  1  0
 94 85  1  0
106100  1  0
 10  5  1  0
 22 18  1  0
 43 36  1  0
 51 44  1  0
 73 52  2  0
 93 88  1  0
105101  1  0
 23  7  1  0
 64 57  1  0
 72 65  1  0
106 90  1  0
  1107  1  0
  6108  1  0
  9109  1  0
 17110  1  0
 18111  1  0
 19112  1  0
 20113  1  0
 21114  1  0
 22115  1  0
 22116  1  0
 23117  1  0
 25118  1  0
 30119  1  0
 30120  1  0
 30121  1  0
 37122  1  0
 38123  1  0
 41124  1  0
 41125  1  0
 41126  1  0
 42127  1  0
 43128  1  0
 45129  1  0
 46130  1  0
 49131  1  0
 49132  1  0
 49133  1  0
 50134  1  0
 51135  1  0
 58136  1  0
 59137  1  0
 62138  1  0
 62139  1  0
 62140  1  0
 63141  1  0
 64142  1  0
 66143  1  0
 67144  1  0
 70145  1  0
 70146  1  0
 70147  1  0
 71148  1  0
 72149  1  0
 76150  1  0
 81151  1  0
 81152  1  0
 81153  1  0
 84154  1  0
 89155  1  0
 92156  1  0
100157  1  0
101158  1  0
102159  1  0
103160  1  0
104161  1  0
105162  1  0
105163  1  0
106164  1  0
M  END

