
     RDKit          3D

214236  0  0  0  0  0  0  0  0999 V2000
    3.6233   -1.9915    7.2902 C   0  0  0  0  0  0  0  0  0  0  0  0
    4.8051   -1.9927    6.6303 C   0  0  0  0  0  0  0  0  0  0  0  0
    5.0068   -1.6106    5.2236 C   0  0  0  0  0  0  0  0  0  0  0  0
    4.1451   -1.6592    4.3140 O   0  0  0  0  0  0  0  0  0  0  0  0
    6.3870   -1.2111    5.0501 C   0  0  0  0  0  0  0  0  0  0  0  0
    6.9684   -0.6222    3.8970 C   0  0  0  0  0  0  0  0  0  0  0  0
    8.2707   -0.1993    4.0841 C   0  0  0  0  0  0  0  0  0  0  0  0
    8.9761   -0.3600    5.3160 C   0  0  0  0  0  0  0  0  0  0  0  0
    8.4235   -0.9559    6.4353 C   0  0  0  0  0  0  0  0  0  0  0  0
    7.0815   -1.3998    6.2734 C   0  0  0  0  0  0  0  0  0  0  0  0
    6.1580   -2.0228    7.2656 C   0  0  0  0  0  0  0  0  0  0  0  0
    6.4974   -2.6588    8.4152 C   0  0  0  0  0  0  0  0  0  0  0  0
    5.5979   -3.5709    9.0684 C   0  0  0  0  0  0  0  0  0  0  0  0
    4.8905   -4.3209    9.6014 N   0  0  0  0  0  0  0  0  0  0  0  0
    7.8090   -2.5631    8.9918 C   0  0  0  0  0  0  0  0  0  0  0  0
    8.8565   -2.4663    9.4819 N   0  0  0  0  0  0  0  0  0  0  0  0
   10.1662    0.3562    4.7495 C   0  0  0  0  0  0  0  0  0  0  0  0
   11.4213   -0.4846    4.3554 C   0  0  0  0  0  0  0  0  0  0  0  0
   11.0019   -1.8637    3.9105 C   0  0  0  0  0  0  0  0  0  0  0  0
   10.3506   -1.7077    2.7546 C   0  0  0  0  0  0  0  0  0  0  0  0
   10.3476   -0.2300    2.4558 C   0  0  0  0  0  0  0  0  0  0  0  0
   11.7212    0.1259    3.0008 C   0  0  0  0  0  0  0  0  0  0  0  0
    9.4463    0.5190    3.4837 C   0  0  0  0  0  0  0  0  0  0  0  0
    2.3612   -1.5021    6.6976 C   0  0  0  0  0  0  0  0  0  0  0  0
    1.1901   -2.2757    6.7534 C   0  0  0  0  0  0  0  0  0  0  0  0
    1.2094   -3.5068    7.3128 F   0  0  0  0  0  0  0  0  0  0  0  0
   -0.0011   -1.7931    6.1923 C   0  0  0  0  0  0  0  0  0  0  0  0
   -0.0360   -0.5345    5.5585 C   0  0  0  0  0  0  0  0  0  0  0  0
    1.1218    0.2678    5.6079 C   0  0  0  0  0  0  0  0  0  0  0  0
    2.2988   -0.2039    6.1742 C   0  0  0  0  0  0  0  0  0  0  0  0
   -1.2070   -0.0788    4.7496 C   0  0  0  0  0  0  0  0  0  0  0  0
   -2.1339   -0.8801    4.0425 C   0  0  0  0  0  0  0  0  0  0  0  0
   -2.1550   -2.3139    4.0173 N   0  0  0  0  0  0  0  0  0  0  0  0
   -3.1896   -3.0224    4.7396 C   0  0  0  0  0  0  0  0  0  0  0  0
   -2.9609   -4.3319    5.2036 C   0  0  0  0  0  0  0  0  0  0  0  0
   -3.9707   -5.0298    5.8761 C   0  0  0  0  0  0  0  0  0  0  0  0
   -5.2234   -4.4373    6.0825 C   0  0  0  0  0  0  0  0  0  0  0  0
   -6.5116   -5.3329    6.9459 S   0  0  0  0  0  0  0  0  0  0  0  0
   -7.2392   -6.0031    5.4162 C   0  0  0  0  0  0  0  0  0  0  0  0
   -5.4576   -3.1344    5.6338 C   0  0  0  0  0  0  0  0  0  0  0  0
   -4.4497   -2.4305    4.9755 C   0  0  0  0  0  0  0  0  0  0  0  0
   -1.3899   -2.9755    2.9854 C   0  0  0  0  0  0  0  0  0  0  0  0
   -0.0244   -2.6837    2.8004 C   0  0  0  0  0  0  0  0  0  0  0  0
    0.7048   -3.3005    1.7755 C   0  0  0  0  0  0  0  0  0  0  0  0
    0.0677   -4.1897    0.9068 C   0  0  0  0  0  0  0  0  0  0  0  0
    1.0017   -4.9731   -0.4149 S   0  0  0  0  0  0  0  0  0  0  0  0
    0.8489   -3.5570   -1.5512 C   0  0  0  0  0  0  0  0  0  0  0  0
   -1.2869   -4.4936    1.0807 C   0  0  0  0  0  0  0  0  0  0  0  0
   -2.0128   -3.8869    2.1109 C   0  0  0  0  0  0  0  0  0  0  0  0
   -2.8461   -0.1294    3.0963 C   0  0  0  0  0  0  0  0  0  0  0  0
   -3.6526   -0.5872    1.7067 S   0  0  0  0  0  0  0  0  0  0  0  0
   -3.5446    0.9337    0.9364 C   0  0  0  0  0  0  0  0  0  0  0  0
   -2.8415    1.8051    1.8025 C   0  0  0  0  0  0  0  0  0  0  0  0
   -2.1284    2.9778    1.3710 N   0  0  0  0  0  0  0  0  0  0  0  0
   -2.7588    4.2660    1.5220 C   0  0  0  0  0  0  0  0  0  0  0  0
   -3.6166    4.5234    2.6106 C   0  0  0  0  0  0  0  0  0  0  0  0
   -4.1260    5.8084    2.8258 C   0  0  0  0  0  0  0  0  0  0  0  0
   -3.7943    6.8464    1.9543 C   0  0  0  0  0  0  0  0  0  0  0  0
   -4.4319    8.4996    2.2420 S   0  0  0  0  0  0  0  0  0  0  0  0
   -6.0308    8.1524    1.4505 C   0  0  0  0  0  0  0  0  0  0  0  0
   -2.9544    6.6020    0.8599 C   0  0  0  0  0  0  0  0  0  0  0  0
   -2.4504    5.3170    0.6371 C   0  0  0  0  0  0  0  0  0  0  0  0
   -0.6864    2.8650    1.2240 C   0  0  0  0  0  0  0  0  0  0  0  0
    0.1695    3.8657    1.7312 C   0  0  0  0  0  0  0  0  0  0  0  0
    1.5523    3.6609    1.7758 C   0  0  0  0  0  0  0  0  0  0  0  0
    2.1008    2.4512    1.3388 C   0  0  0  0  0  0  0  0  0  0  0  0
    3.8455    2.1141    1.5669 S   0  0  0  0  0  0  0  0  0  0  0  0
    3.5874    1.4039    3.2192 C   0  0  0  0  0  0  0  0  0  0  0  0
    1.2680    1.4639    0.8028 C   0  0  0  0  0  0  0  0  0  0  0  0
   -0.1135    1.6721    0.7289 C   0  0  0  0  0  0  0  0  0  0  0  0
   -2.5183    1.1763    3.0093 C   0  0  0  0  0  0  0  0  0  0  0  0
   -1.3346    1.5145    4.1408 S   0  0  0  0  0  0  0  0  0  0  0  0
   -3.7405    1.0978   -0.5249 C   0  0  0  0  0  0  0  0  0  0  0  0
   -4.1595    0.0787   -1.4126 C   0  0  0  0  0  0  0  0  0  0  0  0
   -5.0407   -1.0019   -1.0413 N   0  0  0  0  0  0  0  0  0  0  0  0
   -4.7591   -2.3446   -1.4844 C   0  0  0  0  0  0  0  0  0  0  0  0
   -3.4532   -2.8597   -1.4181 C   0  0  0  0  0  0  0  0  0  0  0  0
   -3.1751   -4.1394   -1.9061 C   0  0  0  0  0  0  0  0  0  0  0  0
   -4.2037   -4.9388   -2.4370 C   0  0  0  0  0  0  0  0  0  0  0  0
   -3.9142   -6.3124   -2.9712 C   0  0  0  0  0  0  0  0  0  0  0  0
   -5.5071   -4.4374   -2.4766 C   0  0  0  0  0  0  0  0  0  0  0  0
   -5.7819   -3.1449   -2.0214 C   0  0  0  0  0  0  0  0  0  0  0  0
   -6.2873   -0.6877   -0.3717 C   0  0  0  0  0  0  0  0  0  0  0  0
   -6.8548   -1.5852    0.5531 C   0  0  0  0  0  0  0  0  0  0  0  0
   -8.0540   -1.2659    1.2062 C   0  0  0  0  0  0  0  0  0  0  0  0
   -8.6978   -0.0497    0.9522 C   0  0  0  0  0  0  0  0  0  0  0  0
   -9.9557    0.2989    1.6925 C   0  0  0  0  0  0  0  0  0  0  0  0
   -8.1378    0.8544    0.0335 C   0  0  0  0  0  0  0  0  0  0  0  0
   -6.9467    0.5347   -0.6275 C   0  0  0  0  0  0  0  0  0  0  0  0
   -3.8113    0.3756   -2.7331 C   0  0  0  0  0  0  0  0  0  0  0  0
   -3.5491   -0.5849   -4.0783 S   0  0  0  0  0  0  0  0  0  0  0  0
   -2.6698    0.6050   -4.9263 C   0  0  0  0  0  0  0  0  0  0  0  0
   -2.6700    1.8046   -4.1857 C   0  0  0  0  0  0  0  0  0  0  0  0
   -2.1718    3.0849   -4.6643 N   0  0  0  0  0  0  0  0  0  0  0  0
   -1.8807    3.2550   -6.0669 C   0  0  0  0  0  0  0  0  0  0  0  0
   -0.5835    3.5758   -6.4860 C   0  0  0  0  0  0  0  0  0  0  0  0
   -0.3166    3.7742   -7.8456 C   0  0  0  0  0  0  0  0  0  0  0  0
   -1.3483    3.6633   -8.7946 C   0  0  0  0  0  0  0  0  0  0  0  0
   -1.0639    3.8565  -10.2561 C   0  0  0  0  0  0  0  0  0  0  0  0
   -2.6383    3.3226   -8.3710 C   0  0  0  0  0  0  0  0  0  0  0  0
   -2.9077    3.1373   -7.0164 C   0  0  0  0  0  0  0  0  0  0  0  0
   -2.5501    4.2978   -3.9863 C   0  0  0  0  0  0  0  0  0  0  0  0
   -3.9098    4.6000   -3.7967 C   0  0  0  0  0  0  0  0  0  0  0  0
   -4.2929    5.8329   -3.2687 C   0  0  0  0  0  0  0  0  0  0  0  0
   -3.3228    6.7847   -2.9144 C   0  0  0  0  0  0  0  0  0  0  0  0
   -3.7393    8.1568   -2.4653 C   0  0  0  0  0  0  0  0  0  0  0  0
   -1.9620    6.4813   -3.1085 C   0  0  0  0  0  0  0  0  0  0  0  0
   -1.5784    5.2453   -3.6386 C   0  0  0  0  0  0  0  0  0  0  0  0
   -3.2437    1.5951   -2.9298 C   0  0  0  0  0  0  0  0  0  0  0  0
   -3.0568    2.3547   -1.4515 S   0  0  0  0  0  0  0  0  0  0  0  0
   -1.5875    0.2627   -5.8668 C   0  0  0  0  0  0  0  0  0  0  0  0
   -0.3407   -0.0260   -5.4315 C   0  0  0  0  0  0  0  0  0  0  0  0
    0.0388   -0.2158   -4.0183 C   0  0  0  0  0  0  0  0  0  0  0  0
   -0.7283   -0.5298   -3.0702 O   0  0  0  0  0  0  0  0  0  0  0  0
    1.4536   -0.0025   -3.8773 C   0  0  0  0  0  0  0  0  0  0  0  0
    2.1681    0.0750   -2.6648 C   0  0  0  0  0  0  0  0  0  0  0  0
    3.4830    0.4594   -2.8114 C   0  0  0  0  0  0  0  0  0  0  0  0
    4.0763    0.7405   -4.0818 C   0  0  0  0  0  0  0  0  0  0  0  0
    3.3781    0.6492   -5.2824 C   0  0  0  0  0  0  0  0  0  0  0  0
    2.0163    0.2524   -5.1528 C   0  0  0  0  0  0  0  0  0  0  0  0
    0.9483    0.1282   -6.1922 C   0  0  0  0  0  0  0  0  0  0  0  0
    1.1231    0.0191   -7.5339 C   0  0  0  0  0  0  0  0  0  0  0  0
    2.4163    0.1088   -8.1589 C   0  0  0  0  0  0  0  0  0  0  0  0
    3.4544    0.1753   -8.6704 N   0  0  0  0  0  0  0  0  0  0  0  0
    0.0402   -0.3020   -8.4302 C   0  0  0  0  0  0  0  0  0  0  0  0
   -0.8205   -0.5705   -9.1533 N   0  0  0  0  0  0  0  0  0  0  0  0
    5.3738    1.0975   -3.4146 C   0  0  0  0  0  0  0  0  0  0  0  0
    6.5261    0.0589   -3.5006 C   0  0  0  0  0  0  0  0  0  0  0  0
    7.5335    0.4652   -2.4429 C   0  0  0  0  0  0  0  0  0  0  0  0
    6.9657    0.2018   -1.2602 C   0  0  0  0  0  0  0  0  0  0  0  0
    5.6002   -0.3662   -1.5562 C   0  0  0  0  0  0  0  0  0  0  0  0
    5.9421   -1.1600   -2.8056 C   0  0  0  0  0  0  0  0  0  0  0  0
    4.7590    0.8178   -2.1161 C   0  0  0  0  0  0  0  0  0  0  0  0
    3.5897   -2.2090    8.3451 H   0  0  0  0  0  0  0  0  0  0  0  0
    6.4290   -0.4654    2.9768 H   0  0  0  0  0  0  0  0  0  0  0  0
    8.9745   -0.9994    7.3576 H   0  0  0  0  0  0  0  0  0  0  0  0
   10.3932    1.3188    5.2549 H   0  0  0  0  0  0  0  0  0  0  0  0
   12.2551   -0.4597    5.0886 H   0  0  0  0  0  0  0  0  0  0  0  0
   11.2755   -2.8096    4.3613 H   0  0  0  0  0  0  0  0  0  0  0  0
   10.0136   -2.5120    2.1105 H   0  0  0  0  0  0  0  0  0  0  0  0
   10.1791    0.0358    1.3943 H   0  0  0  0  0  0  0  0  0  0  0  0
   12.5618   -0.3739    2.4622 H   0  0  0  0  0  0  0  0  0  0  0  0
   11.9047    1.2279    3.0343 H   0  0  0  0  0  0  0  0  0  0  0  0
    9.2363    1.5817    3.2287 H   0  0  0  0  0  0  0  0  0  0  0  0
   -0.8840   -2.4102    6.2243 H   0  0  0  0  0  0  0  0  0  0  0  0
    1.1425    1.2530    5.1543 H   0  0  0  0  0  0  0  0  0  0  0  0
    3.1771    0.4331    6.1859 H   0  0  0  0  0  0  0  0  0  0  0  0
   -2.0010   -4.8063    5.0456 H   0  0  0  0  0  0  0  0  0  0  0  0
   -3.7760   -6.0375    6.2364 H   0  0  0  0  0  0  0  0  0  0  0  0
   -8.1406   -6.5986    5.6714 H   0  0  0  0  0  0  0  0  0  0  0  0
   -7.5382   -5.1762    4.7368 H   0  0  0  0  0  0  0  0  0  0  0  0
   -6.5059   -6.6620    4.9038 H   0  0  0  0  0  0  0  0  0  0  0  0
   -6.4239   -2.6695    5.7865 H   0  0  0  0  0  0  0  0  0  0  0  0
   -4.6700   -1.4318    4.6270 H   0  0  0  0  0  0  0  0  0  0  0  0
    0.4854   -1.9791    3.4362 H   0  0  0  0  0  0  0  0  0  0  0  0
    1.7576   -3.0772    1.6556 H   0  0  0  0  0  0  0  0  0  0  0  0
    1.4624   -2.7122   -1.1787 H   0  0  0  0  0  0  0  0  0  0  0  0
   -0.2062   -3.2329   -1.6424 H   0  0  0  0  0  0  0  0  0  0  0  0
    1.2196   -3.8551   -2.5533 H   0  0  0  0  0  0  0  0  0  0  0  0
   -1.7773   -5.1987    0.4237 H   0  0  0  0  0  0  0  0  0  0  0  0
   -3.0684   -4.1034    2.2020 H   0  0  0  0  0  0  0  0  0  0  0  0
   -3.8629    3.7413    3.3197 H   0  0  0  0  0  0  0  0  0  0  0  0
   -4.7631    5.9945    3.6840 H   0  0  0  0  0  0  0  0  0  0  0  0
   -6.6417    9.0773    1.4437 H   0  0  0  0  0  0  0  0  0  0  0  0
   -5.8784    7.8141    0.4019 H   0  0  0  0  0  0  0  0  0  0  0  0
   -6.5793    7.3657    2.0144 H   0  0  0  0  0  0  0  0  0  0  0  0
   -2.6666    7.4124    0.2086 H   0  0  0  0  0  0  0  0  0  0  0  0
   -1.7909    5.1485   -0.2023 H   0  0  0  0  0  0  0  0  0  0  0  0
   -0.2206    4.7750    2.1553 H   0  0  0  0  0  0  0  0  0  0  0  0
    2.1911    4.4296    2.2020 H   0  0  0  0  0  0  0  0  0  0  0  0
    3.1955    2.1850    3.9062 H   0  0  0  0  0  0  0  0  0  0  0  0
    2.8681    0.5597    3.1573 H   0  0  0  0  0  0  0  0  0  0  0  0
    4.5495    1.0271    3.6171 H   0  0  0  0  0  0  0  0  0  0  0  0
    1.6814    0.5190    0.4971 H   0  0  0  0  0  0  0  0  0  0  0  0
   -0.7382    0.8787    0.3403 H   0  0  0  0  0  0  0  0  0  0  0  0
   -2.6458   -2.2673   -1.0087 H   0  0  0  0  0  0  0  0  0  0  0  0
   -2.1622   -4.5053   -1.8908 H   0  0  0  0  0  0  0  0  0  0  0  0
   -4.1033   -6.3281   -4.0678 H   0  0  0  0  0  0  0  0  0  0  0  0
   -4.5798   -7.0546   -2.4790 H   0  0  0  0  0  0  0  0  0  0  0  0
   -2.8600   -6.6085   -2.7880 H   0  0  0  0  0  0  0  0  0  0  0  0
   -6.3105   -5.0331   -2.9025 H   0  0  0  0  0  0  0  0  0  0  0  0
   -6.7885   -2.7583   -2.1131 H   0  0  0  0  0  0  0  0  0  0  0  0
   -6.3704   -2.5232    0.7733 H   0  0  0  0  0  0  0  0  0  0  0  0
   -8.4704   -1.9687    1.9144 H   0  0  0  0  0  0  0  0  0  0  0  0
  -10.6218   -0.5858    1.7427 H   0  0  0  0  0  0  0  0  0  0  0  0
  -10.5041    1.1217    1.1783 H   0  0  0  0  0  0  0  0  0  0  0  0
   -9.7004    0.6295    2.7205 H   0  0  0  0  0  0  0  0  0  0  0  0
   -8.6143    1.8089   -0.1577 H   0  0  0  0  0  0  0  0  0  0  0  0
   -6.5389    1.2533   -1.3226 H   0  0  0  0  0  0  0  0  0  0  0  0
    0.2209    3.6647   -5.7644 H   0  0  0  0  0  0  0  0  0  0  0  0
    0.6953    4.0159   -8.1637 H   0  0  0  0  0  0  0  0  0  0  0  0
   -1.9682    4.2269  -10.7857 H   0  0  0  0  0  0  0  0  0  0  0  0
   -0.7564    2.8891  -10.7012 H   0  0  0  0  0  0  0  0  0  0  0  0
   -0.2528    4.6012  -10.4059 H   0  0  0  0  0  0  0  0  0  0  0  0
   -3.4402    3.2026   -9.0926 H   0  0  0  0  0  0  0  0  0  0  0  0
   -3.9139    2.8831   -6.6995 H   0  0  0  0  0  0  0  0  0  0  0  0
   -4.6739    3.8896   -4.0940 H   0  0  0  0  0  0  0  0  0  0  0  0
   -5.3486    6.0581   -3.1640 H   0  0  0  0  0  0  0  0  0  0  0  0
   -3.7757    8.8348   -3.3411 H   0  0  0  0  0  0  0  0  0  0  0  0
   -4.7408    8.1256   -1.9848 H   0  0  0  0  0  0  0  0  0  0  0  0
   -3.0152    8.5624   -1.7320 H   0  0  0  0  0  0  0  0  0  0  0  0
   -1.2017    7.2127   -2.8670 H   0  0  0  0  0  0  0  0  0  0  0  0
   -0.5329    5.0340   -3.8021 H   0  0  0  0  0  0  0  0  0  0  0  0
   -1.7487    0.5439   -6.8945 H   0  0  0  0  0  0  0  0  0  0  0  0
    1.7141   -0.0993   -1.7048 H   0  0  0  0  0  0  0  0  0  0  0  0
    3.8486    0.9283   -6.2062 H   0  0  0  0  0  0  0  0  0  0  0  0
    5.6689    2.1626   -3.5506 H   0  0  0  0  0  0  0  0  0  0  0  0
    6.9531   -0.1192   -4.5117 H   0  0  0  0  0  0  0  0  0  0  0  0
    8.5485    0.8117   -2.5988 H   0  0  0  0  0  0  0  0  0  0  0  0
    7.4442    0.3004   -0.2907 H   0  0  0  0  0  0  0  0  0  0  0  0
    5.1350   -0.9393   -0.7274 H   0  0  0  0  0  0  0  0  0  0  0  0
    6.6923   -1.9688   -2.6277 H   0  0  0  0  0  0  0  0  0  0  0  0
    5.0590   -1.6052   -3.3228 H   0  0  0  0  0  0  0  0  0  0  0  0
    4.6627    1.6945   -1.4366 H   0  0  0  0  0  0  0  0  0  0  0  0
  1  2  2  3
  2  3  1  0
  3  4  2  0
  3  5  1  0
  5  6  2  0
  6  7  1  0
  7  8  2  0
  8  9  1  0
  9 10  2  0
 10 11  1  0
 11 12  2  3
 12 13  1  0
 13 14  3  0
 12 15  1  0
 15 16  3  0
  8 17  1  0
 17 18  1  0
 18 19  1  0
 19 20  2  0
 20 21  1  0
 21 22  1  0
 21 23  1  0
  1 24  1  0
 24 25  2  0
 25 26  1  0
 25 27  1  0
 27 28  2  0
 28 29  1  0
 29 30  2  0
 28 31  1  0
 31 32  2  0
 32 33  1  0
 33 34  1  0
 34 35  2  0
 35 36  1  0
 36 37  2  0
 37 38  1  0
 38 39  1  0
 37 40  1  0
 40 41  2  0
 33 42  1  0
 42 43  2  0
 43 44  1  0
 44 45  2  0
 45 46  1  0
 46 47  1  0
 45 48  1  0
 48 49  2  0
 32 50  1  0
 50 51  1  0
 51 52  1  0
 52 53  2  0
 53 54  1  0
 54 55  1  0
 55 56  2  0
 56 57  1  0
 57 58  2  0
 58 59  1  0
 59 60  1  0
 58 61  1  0
 61 62  2  0
 54 63  1  0
 63 64  2  0
 64 65  1  0
 65 66  2  0
 66 67  1  0
 67 68  1  0
 66 69  1  0
 69 70  2  0
 53 71  1  0
 71 72  1  0
 52 73  1  0
 73 74  2  0
 74 75  1  0
 75 76  1  0
 76 77  2  0
 77 78  1  0
 78 79  2  0
 79 80  1  0
 79 81  1  0
 81 82  2  0
 75 83  1  0
 83 84  2  0
 84 85  1  0
 85 86  2  0
 86 87  1  0
 86 88  1  0
 88 89  2  0
 74 90  1  0
 90 91  1  0
 91 92  1  0
 92 93  2  0
 93 94  1  0
 94 95  1  0
 95 96  2  0
 96 97  1  0
 97 98  2  0
 98 99  1  0
 98100  1  0
100101  2  0
 94102  1  0
102103  2  0
103104  1  0
104105  2  0
105106  1  0
105107  1  0
107108  2  0
 93109  1  0
109110  1  0
 92111  1  0
111112  2  3
112113  1  0
113114  2  0
113115  1  0
115116  2  0
116117  1  0
117118  2  0
118119  1  0
119120  2  0
120121  1  0
121122  2  3
122123  1  0
123124  3  0
122125  1  0
125126  3  0
118127  1  0
127128  1  0
128129  1  0
129130  2  0
130131  1  0
131132  1  0
131133  1  0
 11  2  1  0
 23 17  1  0
 30 24  1  0
 72 31  1  0
110 73  1  0
121112  1  0
133127  1  0
 10  5  1  0
 22 18  1  0
 41 34  1  0
 49 42  1  0
 71 50  2  0
 82 76  1  0
 89 83  1  0
109 90  2  0
120115  1  0
132128  1  0
 23  7  1  0
 62 55  1  0
 70 63  1  0
101 95  1  0
108102  1  0
133117  1  0
  1134  1  0
  6135  1  0
  9136  1  0
 17137  1  0
 18138  1  0
 19139  1  0
 20140  1  0
 21141  1  0
 22142  1  0
 22143  1  0
 23144  1  0
 27145  1  0
 29146  1  0
 30147  1  0
 35148  1  0
 36149  1  0
 39150  1  0
 39151  1  0
 39152  1  0
 40153  1  0
 41154  1  0
 43155  1  0
 44156  1  0
 47157  1  0
 47158  1  0
 47159  1  0
 48160  1  0
 49161  1  0
 56162  1  0
 57163  1  0
 60164  1  0
 60165  1  0
 60166  1  0
 61167  1  0
 62168  1  0
 64169  1  0
 65170  1  0
 68171  1  0
 68172  1  0
 68173  1  0
 69174  1  0
 70175  1  0
 77176  1  0
 78177  1  0
 80178  1  0
 80179  1  0
 80180  1  0
 81181  1  0
 82182  1  0
 84183  1  0
 85184  1  0
 87185  1  0
 87186  1  0
 87187  1  0
 88188  1  0
 89189  1  0
 96190  1  0
 97191  1  0
 99192  1  0
 99193  1  0
 99194  1  0
100195  1  0
101196  1  0
103197  1  0
104198  1  0
106199  1  0
106200  1  0
106201  1  0
107202  1  0
108203  1  0
111204  1  0
116205  1  0
119206  1  0
127207  1  0
128208  1  0
129209  1  0
130210  1  0
131211  1  0
132212  1  0
132213  1  0
133214  1  0
M  END

