
     RDKit          3D

166184  0  0  0  0  0  0  0  0999 V2000
    2.0634   -3.7201   -4.5706 C   0  0  0  0  0  0  0  0  0  0  0  0
    1.8730   -4.3474   -5.7392 C   0  0  0  0  0  0  0  0  0  0  0  0
    2.8129   -5.3663   -6.2168 C   0  0  0  0  0  0  0  0  0  0  0  0
    3.6391   -6.0051   -5.5113 O   0  0  0  0  0  0  0  0  0  0  0  0
    2.6974   -5.4558   -7.6541 C   0  0  0  0  0  0  0  0  0  0  0  0
    3.5385   -6.1715   -8.5323 C   0  0  0  0  0  0  0  0  0  0  0  0
    3.2850   -5.9256   -9.8696 C   0  0  0  0  0  0  0  0  0  0  0  0
    2.2681   -5.0258  -10.3227 C   0  0  0  0  0  0  0  0  0  0  0  0
    1.4299   -4.3280   -9.4653 C   0  0  0  0  0  0  0  0  0  0  0  0
    1.6561   -4.5858   -8.0851 C   0  0  0  0  0  0  0  0  0  0  0  0
    0.9944   -3.9940   -6.8891 C   0  0  0  0  0  0  0  0  0  0  0  0
   -0.3040   -3.5911   -6.8256 C   0  0  0  0  0  0  0  0  0  0  0  0
   -1.0187   -3.4998   -5.5768 C   0  0  0  0  0  0  0  0  0  0  0  0
   -1.6032   -3.4346   -4.5785 N   0  0  0  0  0  0  0  0  0  0  0  0
   -1.1143   -3.4171   -8.0039 C   0  0  0  0  0  0  0  0  0  0  0  0
   -1.7683   -3.2709   -8.9491 N   0  0  0  0  0  0  0  0  0  0  0  0
    2.6548   -5.2772  -11.7476 C   0  0  0  0  0  0  0  0  0  0  0  0
    1.7075   -6.1947  -12.5769 C   0  0  0  0  0  0  0  0  0  0  0  0
    2.4952   -6.6086  -13.7972 C   0  0  0  0  0  0  0  0  0  0  0  0
    3.4407   -7.4527  -13.3674 C   0  0  0  0  0  0  0  0  0  0  0  0
    3.2608   -7.5776  -11.8736 C   0  0  0  0  0  0  0  0  0  0  0  0
    1.7415   -7.5102  -11.8142 C   0  0  0  0  0  0  0  0  0  0  0  0
    3.6939   -6.2030  -11.2796 C   0  0  0  0  0  0  0  0  0  0  0  0
    1.4014   -2.4809   -4.1132 C   0  0  0  0  0  0  0  0  0  0  0  0
    0.9451   -2.4424   -2.7894 C   0  0  0  0  0  0  0  0  0  0  0  0
    1.0438   -3.5356   -1.9916 F   0  0  0  0  0  0  0  0  0  0  0  0
    0.4070   -1.2761   -2.2624 C   0  0  0  0  0  0  0  0  0  0  0  0
    0.0161   -1.2970   -0.9662 F   0  0  0  0  0  0  0  0  0  0  0  0
    0.3492   -0.0923   -3.0337 C   0  0  0  0  0  0  0  0  0  0  0  0
    0.7926   -0.1317   -4.3706 C   0  0  0  0  0  0  0  0  0  0  0  0
    0.6868    0.9664   -5.1569 F   0  0  0  0  0  0  0  0  0  0  0  0
    1.3221   -1.3173   -4.9062 C   0  0  0  0  0  0  0  0  0  0  0  0
    1.8185   -1.3077   -6.1692 F   0  0  0  0  0  0  0  0  0  0  0  0
   -0.0584    1.1770   -2.3775 C   0  0  0  0  0  0  0  0  0  0  0  0
    0.8338    2.2301   -2.0628 C   0  0  0  0  0  0  0  0  0  0  0  0
    2.0939    2.4592   -2.7116 N   0  0  0  0  0  0  0  0  0  0  0  0
    3.3285    1.9664   -2.1331 C   0  0  0  0  0  0  0  0  0  0  0  0
    3.3533    0.7691   -1.3943 C   0  0  0  0  0  0  0  0  0  0  0  0
    4.5564    0.2612   -0.8966 C   0  0  0  0  0  0  0  0  0  0  0  0
    5.7466    0.9698   -1.0850 C   0  0  0  0  0  0  0  0  0  0  0  0
    7.3061    0.2781   -0.5231 S   0  0  0  0  0  0  0  0  0  0  0  0
    7.1298    0.8541    1.1952 C   0  0  0  0  0  0  0  0  0  0  0  0
    5.7295    2.1951   -1.7559 C   0  0  0  0  0  0  0  0  0  0  0  0
    4.5306    2.6858   -2.2829 C   0  0  0  0  0  0  0  0  0  0  0  0
    2.1167    3.3604   -3.8357 C   0  0  0  0  0  0  0  0  0  0  0  0
    2.8211    3.0191   -5.0053 C   0  0  0  0  0  0  0  0  0  0  0  0
    2.8652    3.9050   -6.0892 C   0  0  0  0  0  0  0  0  0  0  0  0
    2.2177    5.1425   -6.0071 C   0  0  0  0  0  0  0  0  0  0  0  0
    2.3016    6.2888   -7.3861 S   0  0  0  0  0  0  0  0  0  0  0  0
    0.7905    5.6424   -8.1726 C   0  0  0  0  0  0  0  0  0  0  0  0
    1.5204    5.4893   -4.8472 C   0  0  0  0  0  0  0  0  0  0  0  0
    1.4643    4.6014   -3.7692 C   0  0  0  0  0  0  0  0  0  0  0  0
    0.4492    2.9165   -0.9050 C   0  0  0  0  0  0  0  0  0  0  0  0
    1.3713    3.7318    0.2351 S   0  0  0  0  0  0  0  0  0  0  0  0
    0.3004    3.4533    1.5349 C   0  0  0  0  0  0  0  0  0  0  0  0
   -0.8066    2.7238    1.0448 C   0  0  0  0  0  0  0  0  0  0  0  0
   -1.6972    1.9705    1.8912 N   0  0  0  0  0  0  0  0  0  0  0  0
   -2.7688    2.6743    2.5562 C   0  0  0  0  0  0  0  0  0  0  0  0
   -3.5142    3.6460    1.8692 C   0  0  0  0  0  0  0  0  0  0  0  0
   -4.5386    4.3433    2.5159 C   0  0  0  0  0  0  0  0  0  0  0  0
   -4.8247    4.0785    3.8598 C   0  0  0  0  0  0  0  0  0  0  0  0
   -6.1124    4.9985    4.7152 S   0  0  0  0  0  0  0  0  0  0  0  0
   -7.4081    3.7624    4.3665 C   0  0  0  0  0  0  0  0  0  0  0  0
   -4.0910    3.1191    4.5547 C   0  0  0  0  0  0  0  0  0  0  0  0
   -3.0585    2.4203    3.9090 C   0  0  0  0  0  0  0  0  0  0  0  0
   -1.4840    0.5445    2.0885 C   0  0  0  0  0  0  0  0  0  0  0  0
   -2.5413   -0.3128    2.4616 C   0  0  0  0  0  0  0  0  0  0  0  0
   -2.3176   -1.6764    2.6682 C   0  0  0  0  0  0  0  0  0  0  0  0
   -1.0346   -2.2095    2.5027 C   0  0  0  0  0  0  0  0  0  0  0  0
   -0.7237   -3.9461    2.8076 S   0  0  0  0  0  0  0  0  0  0  0  0
   -0.1126   -3.6453    4.4985 C   0  0  0  0  0  0  0  0  0  0  0  0
    0.0131   -1.3799    2.0932 C   0  0  0  0  0  0  0  0  0  0  0  0
   -0.2148   -0.0273    1.8717 C   0  0  0  0  0  0  0  0  0  0  0  0
   -0.6924    2.4679   -0.3226 C   0  0  0  0  0  0  0  0  0  0  0  0
   -1.3194    1.2151   -1.2325 S   0  0  0  0  0  0  0  0  0  0  0  0
    0.7259    3.3956    2.9515 C   0  0  0  0  0  0  0  0  0  0  0  0
    0.0253    4.0927    3.9376 C   0  0  0  0  0  0  0  0  0  0  0  0
   -0.8554    5.0946    3.7955 N   0  0  0  0  0  0  0  0  0  0  0  0
   -1.1859    5.4366    5.0374 N   0  0  0  0  0  0  0  0  0  0  0  0
   -2.0819    6.5348    5.3554 C   0  0  0  0  0  0  0  0  0  0  0  0
   -1.2882    7.8037    5.6263 C   0  0  0  0  0  0  0  0  0  0  0  0
   -0.5585    4.7128    5.9621 N   0  0  0  0  0  0  0  0  0  0  0  0
    0.1858    3.8383    5.2691 C   0  0  0  0  0  0  0  0  0  0  0  0
    0.9893    2.7977    5.7438 C   0  0  0  0  0  0  0  0  0  0  0  0
    1.8278    2.1640    4.7853 C   0  0  0  0  0  0  0  0  0  0  0  0
    1.7307    2.4901    3.4047 C   0  0  0  0  0  0  0  0  0  0  0  0
    2.8762    1.7446    2.2787 Cl  0  0  0  0  0  0  0  0  0  0  0  0
    2.9687    0.9077    5.2873 Cl  0  0  0  0  0  0  0  0  0  0  0  0
    1.0111    2.3365    7.1599 C   0  0  0  0  0  0  0  0  0  0  0  0
   -0.0350    1.7361    7.7841 C   0  0  0  0  0  0  0  0  0  0  0  0
   -1.4317    1.7694    7.3437 C   0  0  0  0  0  0  0  0  0  0  0  0
   -2.0185    2.7553    6.8333 O   0  0  0  0  0  0  0  0  0  0  0  0
   -2.1139    0.5928    7.8155 C   0  0  0  0  0  0  0  0  0  0  0  0
   -3.4660    0.2601    7.5759 C   0  0  0  0  0  0  0  0  0  0  0  0
   -3.8534   -0.9251    8.1624 C   0  0  0  0  0  0  0  0  0  0  0  0
   -2.9699   -1.7471    8.9334 C   0  0  0  0  0  0  0  0  0  0  0  0
   -1.6430   -1.4177    9.1755 C   0  0  0  0  0  0  0  0  0  0  0  0
   -1.2247   -0.1827    8.5969 C   0  0  0  0  0  0  0  0  0  0  0  0
    0.0731    0.5497    8.6996 C   0  0  0  0  0  0  0  0  0  0  0  0
    1.0938    0.2734    9.5493 C   0  0  0  0  0  0  0  0  0  0  0  0
    1.2042   -0.9730   10.2587 C   0  0  0  0  0  0  0  0  0  0  0  0
    1.3224   -1.9814   10.8225 N   0  0  0  0  0  0  0  0  0  0  0  0
    2.1194    1.2407    9.8523 C   0  0  0  0  0  0  0  0  0  0  0  0
    2.9376    2.0210   10.1113 N   0  0  0  0  0  0  0  0  0  0  0  0
   -4.0626   -2.7552    9.1374 C   0  0  0  0  0  0  0  0  0  0  0  0
   -4.0098   -4.0859    8.3243 C   0  0  0  0  0  0  0  0  0  0  0  0
   -3.3084   -3.8589    7.0089 C   0  0  0  0  0  0  0  0  0  0  0  0
   -4.1088   -3.0758    6.2823 C   0  0  0  0  0  0  0  0  0  0  0  0
   -5.3364   -2.8080    7.1296 C   0  0  0  0  0  0  0  0  0  0  0  0
   -5.4425   -4.1504    7.8308 C   0  0  0  0  0  0  0  0  0  0  0  0
   -4.9629   -1.9111    8.3438 C   0  0  0  0  0  0  0  0  0  0  0  0
    2.7790   -4.1534   -3.8767 H   0  0  0  0  0  0  0  0  0  0  0  0
    4.3339   -6.8207   -8.1844 H   0  0  0  0  0  0  0  0  0  0  0  0
    0.7037   -3.6246   -9.8395 H   0  0  0  0  0  0  0  0  0  0  0  0
    3.0400   -4.3764  -12.2724 H   0  0  0  0  0  0  0  0  0  0  0  0
    0.6982   -5.7793  -12.7838 H   0  0  0  0  0  0  0  0  0  0  0  0
    2.2839   -6.3545  -14.8308 H   0  0  0  0  0  0  0  0  0  0  0  0
    4.1325   -8.0006  -13.9947 H   0  0  0  0  0  0  0  0  0  0  0  0
    3.7261   -8.4730  -11.4086 H   0  0  0  0  0  0  0  0  0  0  0  0
    1.2406   -8.3464  -12.3578 H   0  0  0  0  0  0  0  0  0  0  0  0
    1.3271   -7.4593  -10.7841 H   0  0  0  0  0  0  0  0  0  0  0  0
    4.7345   -5.8828  -11.5177 H   0  0  0  0  0  0  0  0  0  0  0  0
    2.4528    0.2002   -1.2211 H   0  0  0  0  0  0  0  0  0  0  0  0
    4.5629   -0.6870   -0.3705 H   0  0  0  0  0  0  0  0  0  0  0  0
    6.1953    0.4572    1.6423 H   0  0  0  0  0  0  0  0  0  0  0  0
    7.1213    1.9683    1.2368 H   0  0  0  0  0  0  0  0  0  0  0  0
    8.0009    0.4832    1.7789 H   0  0  0  0  0  0  0  0  0  0  0  0
    6.6406    2.7645   -1.8948 H   0  0  0  0  0  0  0  0  0  0  0  0
    4.5501    3.6230   -2.8212 H   0  0  0  0  0  0  0  0  0  0  0  0
    3.3194    2.0638   -5.0818 H   0  0  0  0  0  0  0  0  0  0  0  0
    3.4067    3.6306   -6.9852 H   0  0  0  0  0  0  0  0  0  0  0  0
    0.6401    6.1703   -9.1344 H   0  0  0  0  0  0  0  0  0  0  0  0
   -0.0858    5.8222   -7.5180 H   0  0  0  0  0  0  0  0  0  0  0  0
    0.8931    4.5564   -8.3710 H   0  0  0  0  0  0  0  0  0  0  0  0
    1.0304    6.4516   -4.7784 H   0  0  0  0  0  0  0  0  0  0  0  0
    0.9277    4.8986   -2.8752 H   0  0  0  0  0  0  0  0  0  0  0  0
   -3.3093    3.8634    0.8272 H   0  0  0  0  0  0  0  0  0  0  0  0
   -5.1010    5.0885    1.9711 H   0  0  0  0  0  0  0  0  0  0  0  0
   -7.5351    3.6346    3.2684 H   0  0  0  0  0  0  0  0  0  0  0  0
   -7.1374    2.7859    4.8262 H   0  0  0  0  0  0  0  0  0  0  0  0
   -8.3676    4.1134    4.8053 H   0  0  0  0  0  0  0  0  0  0  0  0
   -4.3049    2.9197    5.5968 H   0  0  0  0  0  0  0  0  0  0  0  0
   -2.4798    1.6984    4.4623 H   0  0  0  0  0  0  0  0  0  0  0  0
   -3.5464    0.0723    2.5806 H   0  0  0  0  0  0  0  0  0  0  0  0
   -3.1447   -2.3226    2.9474 H   0  0  0  0  0  0  0  0  0  0  0  0
    0.7561   -2.9564    4.4856 H   0  0  0  0  0  0  0  0  0  0  0  0
   -0.9216   -3.1980    5.1127 H   0  0  0  0  0  0  0  0  0  0  0  0
    0.2020   -4.6086    4.9502 H   0  0  0  0  0  0  0  0  0  0  0  0
    1.0077   -1.7845    1.9463 H   0  0  0  0  0  0  0  0  0  0  0  0
    0.6041    0.5677    1.5081 H   0  0  0  0  0  0  0  0  0  0  0  0
   -2.7818    6.7039    4.5065 H   0  0  0  0  0  0  0  0  0  0  0  0
   -2.6887    6.2723    6.2541 H   0  0  0  0  0  0  0  0  0  0  0  0
   -0.6258    7.6606    6.5112 H   0  0  0  0  0  0  0  0  0  0  0  0
   -1.9849    8.6479    5.8289 H   0  0  0  0  0  0  0  0  0  0  0  0
   -0.6549    8.0538    4.7438 H   0  0  0  0  0  0  0  0  0  0  0  0
    2.0006    2.1259    7.5253 H   0  0  0  0  0  0  0  0  0  0  0  0
   -4.1372    0.8604    6.9725 H   0  0  0  0  0  0  0  0  0  0  0  0
   -1.0190   -2.0764    9.7566 H   0  0  0  0  0  0  0  0  0  0  0  0
   -4.3751   -2.8697   10.1993 H   0  0  0  0  0  0  0  0  0  0  0  0
   -3.6613   -4.9750    8.8932 H   0  0  0  0  0  0  0  0  0  0  0  0
   -2.3655   -4.2805    6.6980 H   0  0  0  0  0  0  0  0  0  0  0  0
   -3.9214   -2.7451    5.2668 H   0  0  0  0  0  0  0  0  0  0  0  0
   -6.2352   -2.4902    6.5616 H   0  0  0  0  0  0  0  0  0  0  0  0
   -6.2004   -4.1595    8.6511 H   0  0  0  0  0  0  0  0  0  0  0  0
   -5.6387   -5.0007    7.1337 H   0  0  0  0  0  0  0  0  0  0  0  0
   -5.8225   -1.5095    8.9193 H   0  0  0  0  0  0  0  0  0  0  0  0
  1  2  2  3
  2  3  1  0
  3  4  2  0
  3  5  1  0
  5  6  2  0
  6  7  1  0
  7  8  2  0
  8  9  1  0
  9 10  2  0
 10 11  1  0
 11 12  2  3
 12 13  1  0
 13 14  3  0
 12 15  1  0
 15 16  3  0
  8 17  1  0
 17 18  1  0
 18 19  1  0
 19 20  2  0
 20 21  1  0
 21 22  1  0
 21 23  1  0
  1 24  1  0
 24 25  2  0
 25 26  1  0
 25 27  1  0
 27 28  1  0
 27 29  2  0
 29 30  1  0
 30 31  1  0
 30 32  2  0
 32 33  1  0
 29 34  1  0
 34 35  2  0
 35 36  1  0
 36 37  1  0
 37 38  2  0
 38 39  1  0
 39 40  2  0
 40 41  1  0
 41 42  1  0
 40 43  1  0
 43 44  2  0
 36 45  1  0
 45 46  2  0
 46 47  1  0
 47 48  2  0
 48 49  1  0
 49 50  1  0
 48 51  1  0
 51 52  2  0
 35 53  1  0
 53 54  1  0
 54 55  1  0
 55 56  2  0
 56 57  1  0
 57 58  1  0
 58 59  2  0
 59 60  1  0
 60 61  2  0
 61 62  1  0
 62 63  1  0
 61 64  1  0
 64 65  2  0
 57 66  1  0
 66 67  2  0
 67 68  1  0
 68 69  2  0
 69 70  1  0
 70 71  1  0
 69 72  1  0
 72 73  2  0
 56 74  1  0
 74 75  1  0
 55 76  1  0
 76 77  1  0
 77 78  2  0
 78 79  1  0
 79 80  1  0
 80 81  1  0
 79 82  1  0
 82 83  2  0
 83 84  1  0
 84 85  2  0
 85 86  1  0
 86 87  1  0
 85 88  1  0
 84 89  1  0
 89 90  2  3
 90 91  1  0
 91 92  2  0
 91 93  1  0
 93 94  2  0
 94 95  1  0
 95 96  2  0
 96 97  1  0
 97 98  2  0
 98 99  1  0
 99100  2  3
100101  1  0
101102  3  0
100103  1  0
103104  3  0
 96105  1  0
105106  1  0
106107  1  0
107108  2  0
108109  1  0
109110  1  0
109111  1  0
 11  2  1  0
 23 17  1  0
 32 24  1  0
 75 34  1  0
 86 76  2  0
 99 90  1  0
111105  1  0
 10  5  1  0
 22 18  1  0
 44 37  1  0
 52 45  1  0
 74 53  2  0
 83 77  1  0
 98 93  1  0
110106  1  0
 23  7  1  0
 65 58  1  0
 73 66  1  0
111 95  1  0
  1112  1  0
  6113  1  0
  9114  1  0
 17115  1  0
 18116  1  0
 19117  1  0
 20118  1  0
 21119  1  0
 22120  1  0
 22121  1  0
 23122  1  0
 38123  1  0
 39124  1  0
 42125  1  0
 42126  1  0
 42127  1  0
 43128  1  0
 44129  1  0
 46130  1  0
 47131  1  0
 50132  1  0
 50133  1  0
 50134  1  0
 51135  1  0
 52136  1  0
 59137  1  0
 60138  1  0
 63139  1  0
 63140  1  0
 63141  1  0
 64142  1  0
 65143  1  0
 67144  1  0
 68145  1  0
 71146  1  0
 71147  1  0
 71148  1  0
 72149  1  0
 73150  1  0
 80151  1  0
 80152  1  0
 81153  1  0
 81154  1  0
 81155  1  0
 89156  1  0
 94157  1  0
 97158  1  0
105159  1  0
106160  1  0
107161  1  0
108162  1  0
109163  1  0
110164  1  0
110165  1  0
111166  1  0
M  END

