
     RDKit          3D

195214  0  0  0  0  0  0  0  0999 V2000
   -1.1927   -5.9617    3.3566 C   0  0  0  0  0  0  0  0  0  0  0  0
   -0.7077   -5.2225    4.3829 C   0  0  0  0  0  0  0  0  0  0  0  0
   -0.1775   -3.8552    4.2376 C   0  0  0  0  0  0  0  0  0  0  0  0
   -0.3106   -3.1051    3.2326 O   0  0  0  0  0  0  0  0  0  0  0  0
    0.4314   -3.4472    5.4779 C   0  0  0  0  0  0  0  0  0  0  0  0
    1.1573   -2.2572    5.7108 C   0  0  0  0  0  0  0  0  0  0  0  0
    1.7224   -2.1840    6.9687 C   0  0  0  0  0  0  0  0  0  0  0  0
    1.5935   -3.2243    7.9435 C   0  0  0  0  0  0  0  0  0  0  0  0
    0.8814   -4.3857    7.7200 C   0  0  0  0  0  0  0  0  0  0  0  0
    0.2610   -4.4727    6.4401 C   0  0  0  0  0  0  0  0  0  0  0  0
   -0.5246   -5.5977    5.8288 C   0  0  0  0  0  0  0  0  0  0  0  0
   -0.9982   -6.6988    6.4848 C   0  0  0  0  0  0  0  0  0  0  0  0
   -1.6600   -7.7869    5.8208 C   0  0  0  0  0  0  0  0  0  0  0  0
   -2.1944   -8.6718    5.2931 N   0  0  0  0  0  0  0  0  0  0  0  0
   -0.9303   -6.8377    7.9098 C   0  0  0  0  0  0  0  0  0  0  0  0
   -0.8861   -6.9635    9.0628 N   0  0  0  0  0  0  0  0  0  0  0  0
    2.4253   -2.4309    8.9145 C   0  0  0  0  0  0  0  0  0  0  0  0
    1.6617   -1.7441   10.0830 C   0  0  0  0  0  0  0  0  0  0  0  0
    2.6203   -0.7354   10.6598 C   0  0  0  0  0  0  0  0  0  0  0  0
    2.7371    0.2397    9.7540 C   0  0  0  0  0  0  0  0  0  0  0  0
    1.8568   -0.1518    8.5905 C   0  0  0  0  0  0  0  0  0  0  0  0
    0.7226   -0.7975    9.3672 C   0  0  0  0  0  0  0  0  0  0  0  0
    2.5542   -1.3718    7.9165 C   0  0  0  0  0  0  0  0  0  0  0  0
   -0.9200   -5.5946    1.9588 C   0  0  0  0  0  0  0  0  0  0  0  0
    0.3503   -5.4163    1.4458 C   0  0  0  0  0  0  0  0  0  0  0  0
    0.3873   -4.7590    0.2106 C   0  0  0  0  0  0  0  0  0  0  0  0
    1.7037   -4.3410   -0.3288 C   0  0  0  0  0  0  0  0  0  0  0  0
    2.2601   -3.0820    0.0262 C   0  0  0  0  0  0  0  0  0  0  0  0
    3.6283   -2.8610   -0.1565 C   0  0  0  0  0  0  0  0  0  0  0  0
    4.4513   -3.8488   -0.7082 C   0  0  0  0  0  0  0  0  0  0  0  0
    5.9429   -3.6591   -0.7163 C   0  0  0  0  0  0  0  0  0  0  0  0
    3.8944   -5.0675   -1.1097 C   0  0  0  0  0  0  0  0  0  0  0  0
    2.5235   -5.3165   -0.9502 C   0  0  0  0  0  0  0  0  0  0  0  0
    1.9886   -6.6767   -1.3037 C   0  0  0  0  0  0  0  0  0  0  0  0
    1.4670   -2.0164    0.7374 C   0  0  0  0  0  0  0  0  0  0  0  0
   -0.8876   -4.4467   -0.3023 C   0  0  0  0  0  0  0  0  0  0  0  0
   -2.0158   -4.9687    0.8530 S   0  0  0  0  0  0  0  0  0  0  0  0
   -1.2161   -3.4670   -1.3691 C   0  0  0  0  0  0  0  0  0  0  0  0
   -2.3802   -2.6760   -1.3302 C   0  0  0  0  0  0  0  0  0  0  0  0
   -3.6911   -3.2592   -1.2634 N   0  0  0  0  0  0  0  0  0  0  0  0
   -4.6613   -2.8496   -0.2633 C   0  0  0  0  0  0  0  0  0  0  0  0
   -4.3012   -1.9863    0.7934 C   0  0  0  0  0  0  0  0  0  0  0  0
   -5.2578   -1.5717    1.7288 C   0  0  0  0  0  0  0  0  0  0  0  0
   -6.5815   -2.0185    1.6309 C   0  0  0  0  0  0  0  0  0  0  0  0
   -7.8230   -1.4437    2.7912 S   0  0  0  0  0  0  0  0  0  0  0  0
   -7.5868   -2.8333    3.9464 C   0  0  0  0  0  0  0  0  0  0  0  0
   -6.9474   -2.8818    0.6004 C   0  0  0  0  0  0  0  0  0  0  0  0
   -5.9972   -3.3026   -0.3330 C   0  0  0  0  0  0  0  0  0  0  0  0
   -4.1417   -3.8503   -2.4926 C   0  0  0  0  0  0  0  0  0  0  0  0
   -3.9859   -5.2273   -2.7034 C   0  0  0  0  0  0  0  0  0  0  0  0
   -4.2109   -5.7795   -3.9717 C   0  0  0  0  0  0  0  0  0  0  0  0
   -4.5811   -4.9545   -5.0390 C   0  0  0  0  0  0  0  0  0  0  0  0
   -4.7990   -5.6370   -6.6886 S   0  0  0  0  0  0  0  0  0  0  0  0
   -3.1296   -5.1615   -7.2566 C   0  0  0  0  0  0  0  0  0  0  0  0
   -4.7572   -3.5840   -4.8294 C   0  0  0  0  0  0  0  0  0  0  0  0
   -4.5437   -3.0396   -3.5639 C   0  0  0  0  0  0  0  0  0  0  0  0
   -2.1765   -1.4704   -1.9832 C   0  0  0  0  0  0  0  0  0  0  0  0
   -3.0615   -0.0581   -2.0854 S   0  0  0  0  0  0  0  0  0  0  0  0
   -1.8871    0.7900   -2.9774 C   0  0  0  0  0  0  0  0  0  0  0  0
   -0.8123   -0.0840   -3.2397 C   0  0  0  0  0  0  0  0  0  0  0  0
    0.1091    0.1021   -4.3351 N   0  0  0  0  0  0  0  0  0  0  0  0
    1.4631   -0.3869   -4.2248 C   0  0  0  0  0  0  0  0  0  0  0  0
    2.0432   -1.1327   -5.2680 C   0  0  0  0  0  0  0  0  0  0  0  0
    3.3381   -1.6351   -5.1472 C   0  0  0  0  0  0  0  0  0  0  0  0
    4.0853   -1.3887   -3.9987 C   0  0  0  0  0  0  0  0  0  0  0  0
    5.7520   -2.0303   -3.8835 S   0  0  0  0  0  0  0  0  0  0  0  0
    6.5148   -0.6782   -4.8226 C   0  0  0  0  0  0  0  0  0  0  0  0
    3.5258   -0.6442   -2.9500 C   0  0  0  0  0  0  0  0  0  0  0  0
    2.2202   -0.1464   -3.0630 C   0  0  0  0  0  0  0  0  0  0  0  0
   -0.4543    0.3267   -5.6489 C   0  0  0  0  0  0  0  0  0  0  0  0
   -1.5650   -0.4185   -6.0834 C   0  0  0  0  0  0  0  0  0  0  0  0
   -2.0057   -0.3304   -7.4072 C   0  0  0  0  0  0  0  0  0  0  0  0
   -1.3442    0.5047   -8.3100 C   0  0  0  0  0  0  0  0  0  0  0  0
   -1.8714    0.5758  -10.0293 S   0  0  0  0  0  0  0  0  0  0  0  0
   -2.8888    2.0616   -9.8061 C   0  0  0  0  0  0  0  0  0  0  0  0
   -0.2521    1.2667   -7.8870 C   0  0  0  0  0  0  0  0  0  0  0  0
    0.1891    1.1824   -6.5597 C   0  0  0  0  0  0  0  0  0  0  0  0
   -1.0022   -1.3182   -2.6155 C   0  0  0  0  0  0  0  0  0  0  0  0
   -0.0541   -2.6668   -2.3528 S   0  0  0  0  0  0  0  0  0  0  0  0
   -1.6419    2.1991   -2.6651 C   0  0  0  0  0  0  0  0  0  0  0  0
   -1.3470    3.2515   -3.5292 C   0  0  0  0  0  0  0  0  0  0  0  0
   -1.0062    4.4396   -2.8372 C   0  0  0  0  0  0  0  0  0  0  0  0
   -0.8041    5.7435   -3.4964 C   0  0  0  0  0  0  0  0  0  0  0  0
    0.4706    6.1425   -3.9420 C   0  0  0  0  0  0  0  0  0  0  0  0
    1.5672    5.2790   -3.7776 O   0  0  0  0  0  0  0  0  0  0  0  0
    2.8980    5.5591   -4.2200 C   0  0  0  0  0  0  0  0  0  0  0  0
    3.8501    4.4727   -3.7447 C   0  0  0  0  0  0  0  0  0  0  0  0
    0.6217    7.4056   -4.5459 C   0  0  0  0  0  0  0  0  0  0  0  0
   -0.4687    8.2616   -4.6760 C   0  0  0  0  0  0  0  0  0  0  0  0
   -1.7266    7.8704   -4.2278 C   0  0  0  0  0  0  0  0  0  0  0  0
   -1.9075    6.6028   -3.6416 C   0  0  0  0  0  0  0  0  0  0  0  0
   -3.1703    6.1622   -3.1997 O   0  0  0  0  0  0  0  0  0  0  0  0
   -4.4185    6.7392   -3.5747 C   0  0  0  0  0  0  0  0  0  0  0  0
   -4.6801    6.5265   -5.0663 C   0  0  0  0  0  0  0  0  0  0  0  0
   -1.0272    4.2934   -1.4458 C   0  0  0  0  0  0  0  0  0  0  0  0
   -1.4738    2.7201   -1.0788 S   0  0  0  0  0  0  0  0  0  0  0  0
   -0.3945    5.1694   -0.4532 C   0  0  0  0  0  0  0  0  0  0  0  0
    0.8609    4.9352   -0.0318 C   0  0  0  0  0  0  0  0  0  0  0  0
    1.7754    3.9546   -0.6522 C   0  0  0  0  0  0  0  0  0  0  0  0
    1.5710    3.2815   -1.6933 O   0  0  0  0  0  0  0  0  0  0  0  0
    2.9698    3.8631    0.1386 C   0  0  0  0  0  0  0  0  0  0  0  0
    4.0524    2.9860   -0.0840 C   0  0  0  0  0  0  0  0  0  0  0  0
    4.9804    2.9749    0.9342 C   0  0  0  0  0  0  0  0  0  0  0  0
    4.8342    3.7377    2.1384 C   0  0  0  0  0  0  0  0  0  0  0  0
    3.7793    4.6146    2.3531 C   0  0  0  0  0  0  0  0  0  0  0  0
    2.8461    4.7006    1.2745 C   0  0  0  0  0  0  0  0  0  0  0  0
    1.5713    5.4859    1.1752 C   0  0  0  0  0  0  0  0  0  0  0  0
    1.2116    6.5338    1.9546 C   0  0  0  0  0  0  0  0  0  0  0  0
    2.0962    7.0910    2.9459 C   0  0  0  0  0  0  0  0  0  0  0  0
    2.8007    7.5579    3.7374 N   0  0  0  0  0  0  0  0  0  0  0  0
   -0.0475    7.2158    1.8348 C   0  0  0  0  0  0  0  0  0  0  0  0
   -1.0635    7.7687    1.7601 N   0  0  0  0  0  0  0  0  0  0  0  0
    6.0623    3.0966    2.7159 C   0  0  0  0  0  0  0  0  0  0  0  0
    5.8633    1.9739    3.7790 C   0  0  0  0  0  0  0  0  0  0  0  0
    4.5761    1.2250    3.5236 C   0  0  0  0  0  0  0  0  0  0  0  0
    4.7490    0.5396    2.3951 C   0  0  0  0  0  0  0  0  0  0  0  0
    6.1513    0.8568    1.9160 C   0  0  0  0  0  0  0  0  0  0  0  0
    6.8485    0.9435    3.2589 C   0  0  0  0  0  0  0  0  0  0  0  0
    6.2343    2.3470    1.4673 C   0  0  0  0  0  0  0  0  0  0  0  0
   -1.6764   -6.9007    3.5060 H   0  0  0  0  0  0  0  0  0  0  0  0
    1.2872   -1.4818    4.9688 H   0  0  0  0  0  0  0  0  0  0  0  0
    0.8623   -5.1564    8.4740 H   0  0  0  0  0  0  0  0  0  0  0  0
    3.3858   -2.9330    9.1856 H   0  0  0  0  0  0  0  0  0  0  0  0
    1.1958   -2.4351   10.8187 H   0  0  0  0  0  0  0  0  0  0  0  0
    3.0545   -0.7345   11.6566 H   0  0  0  0  0  0  0  0  0  0  0  0
    3.2884    1.1675    9.8793 H   0  0  0  0  0  0  0  0  0  0  0  0
    1.5696    0.6752    7.9077 H   0  0  0  0  0  0  0  0  0  0  0  0
   -0.0440   -1.3009    8.7324 H   0  0  0  0  0  0  0  0  0  0  0  0
    0.2020   -0.0910   10.0560 H   0  0  0  0  0  0  0  0  0  0  0  0
    3.5932   -1.1923    7.5607 H   0  0  0  0  0  0  0  0  0  0  0  0
    1.2486   -5.6670    2.0032 H   0  0  0  0  0  0  0  0  0  0  0  0
    4.0761   -1.9307    0.1784 H   0  0  0  0  0  0  0  0  0  0  0  0
    6.2049   -2.5906   -0.8774 H   0  0  0  0  0  0  0  0  0  0  0  0
    6.4099   -4.2627   -1.5251 H   0  0  0  0  0  0  0  0  0  0  0  0
    6.3670   -3.9819    0.2619 H   0  0  0  0  0  0  0  0  0  0  0  0
    4.5414   -5.8489   -1.4939 H   0  0  0  0  0  0  0  0  0  0  0  0
    0.9812   -6.5840   -1.7611 H   0  0  0  0  0  0  0  0  0  0  0  0
    1.9180   -7.2954   -0.3832 H   0  0  0  0  0  0  0  0  0  0  0  0
    2.6500   -7.1848   -2.0381 H   0  0  0  0  0  0  0  0  0  0  0  0
    0.3794   -2.1111    0.5545 H   0  0  0  0  0  0  0  0  0  0  0  0
    1.6617   -2.0775    1.8257 H   0  0  0  0  0  0  0  0  0  0  0  0
    1.7715   -1.0105    0.3745 H   0  0  0  0  0  0  0  0  0  0  0  0
   -3.2892   -1.6240    0.8972 H   0  0  0  0  0  0  0  0  0  0  0  0
   -4.9760   -0.9041    2.5254 H   0  0  0  0  0  0  0  0  0  0  0  0
   -8.4984   -2.9468    4.5732 H   0  0  0  0  0  0  0  0  0  0  0  0
   -6.7188   -2.6229    4.6060 H   0  0  0  0  0  0  0  0  0  0  0  0
   -7.4031   -3.7920    3.4042 H   0  0  0  0  0  0  0  0  0  0  0  0
   -7.9762   -3.2209    0.5135 H   0  0  0  0  0  0  0  0  0  0  0  0
   -6.3118   -3.9925   -1.1120 H   0  0  0  0  0  0  0  0  0  0  0  0
   -3.6279   -5.8641   -1.9008 H   0  0  0  0  0  0  0  0  0  0  0  0
   -4.0641   -6.8377   -4.1265 H   0  0  0  0  0  0  0  0  0  0  0  0
   -2.9944   -5.4802   -8.3110 H   0  0  0  0  0  0  0  0  0  0  0  0
   -2.3635   -5.6662   -6.6365 H   0  0  0  0  0  0  0  0  0  0  0  0
   -3.0002   -4.0598   -7.1961 H   0  0  0  0  0  0  0  0  0  0  0  0
   -4.9858   -2.9374   -5.6600 H   0  0  0  0  0  0  0  0  0  0  0  0
   -4.6296   -1.9729   -3.4467 H   0  0  0  0  0  0  0  0  0  0  0  0
    1.5015   -1.3359   -6.1705 H   0  0  0  0  0  0  0  0  0  0  0  0
    3.7638   -2.1990   -5.9615 H   0  0  0  0  0  0  0  0  0  0  0  0
    5.7984   -0.1705   -5.5042 H   0  0  0  0  0  0  0  0  0  0  0  0
    7.3486   -1.1141   -5.4239 H   0  0  0  0  0  0  0  0  0  0  0  0
    6.9293    0.0705   -4.1099 H   0  0  0  0  0  0  0  0  0  0  0  0
    4.0956   -0.4428   -2.0522 H   0  0  0  0  0  0  0  0  0  0  0  0
    1.8068    0.4229   -2.2416 H   0  0  0  0  0  0  0  0  0  0  0  0
   -2.0529   -1.1161   -5.4099 H   0  0  0  0  0  0  0  0  0  0  0  0
   -2.8325   -0.9507   -7.7275 H   0  0  0  0  0  0  0  0  0  0  0  0
   -3.2702    2.3901  -10.7998 H   0  0  0  0  0  0  0  0  0  0  0  0
   -2.2878    2.8839   -9.3631 H   0  0  0  0  0  0  0  0  0  0  0  0
   -3.7541    1.8158   -9.1510 H   0  0  0  0  0  0  0  0  0  0  0  0
    0.2649    1.9039   -8.5915 H   0  0  0  0  0  0  0  0  0  0  0  0
    1.0504    1.7559   -6.2512 H   0  0  0  0  0  0  0  0  0  0  0  0
   -1.3805    3.1682   -4.6088 H   0  0  0  0  0  0  0  0  0  0  0  0
    2.9130    5.6044   -5.3246 H   0  0  0  0  0  0  0  0  0  0  0  0
    3.2329    6.5286   -3.7983 H   0  0  0  0  0  0  0  0  0  0  0  0
    3.7646    4.3544   -2.6484 H   0  0  0  0  0  0  0  0  0  0  0  0
    3.6186    3.5088   -4.2473 H   0  0  0  0  0  0  0  0  0  0  0  0
    4.8929    4.7622   -3.9878 H   0  0  0  0  0  0  0  0  0  0  0  0
    1.5816    7.7374   -4.9165 H   0  0  0  0  0  0  0  0  0  0  0  0
   -0.3366    9.2294   -5.1345 H   0  0  0  0  0  0  0  0  0  0  0  0
   -2.5540    8.5573   -4.3401 H   0  0  0  0  0  0  0  0  0  0  0  0
   -5.2214    6.2302   -2.9965 H   0  0  0  0  0  0  0  0  0  0  0  0
   -4.4584    7.8163   -3.3082 H   0  0  0  0  0  0  0  0  0  0  0  0
   -3.8552    5.9310   -5.5165 H   0  0  0  0  0  0  0  0  0  0  0  0
   -5.6448    5.9927   -5.2328 H   0  0  0  0  0  0  0  0  0  0  0  0
   -4.7201    7.5053   -5.5966 H   0  0  0  0  0  0  0  0  0  0  0  0
   -1.0458    5.8797    0.0201 H   0  0  0  0  0  0  0  0  0  0  0  0
    4.1263    2.3425   -0.9457 H   0  0  0  0  0  0  0  0  0  0  0  0
    3.6759    5.1216    3.2988 H   0  0  0  0  0  0  0  0  0  0  0  0
    6.8875    3.8100    2.9254 H   0  0  0  0  0  0  0  0  0  0  0  0
    6.0193    2.2935    4.8336 H   0  0  0  0  0  0  0  0  0  0  0  0
    3.7031    1.1744    4.1583 H   0  0  0  0  0  0  0  0  0  0  0  0
    4.0426   -0.1514    1.9528 H   0  0  0  0  0  0  0  0  0  0  0  0
    6.5796    0.1169    1.1988 H   0  0  0  0  0  0  0  0  0  0  0  0
    6.8333   -0.0128    3.8296 H   0  0  0  0  0  0  0  0  0  0  0  0
    7.8950    1.3170    3.1920 H   0  0  0  0  0  0  0  0  0  0  0  0
    7.1530    2.6162    0.9036 H   0  0  0  0  0  0  0  0  0  0  0  0
  1  2  2  3
  2  3  1  0
  3  4  2  0
  3  5  1  0
  5  6  2  0
  6  7  1  0
  7  8  2  0
  8  9  1  0
  9 10  2  0
 10 11  1  0
 11 12  2  3
 12 13  1  0
 13 14  3  0
 12 15  1  0
 15 16  3  0
  8 17  1  0
 17 18  1  0
 18 19  1  0
 19 20  2  0
 20 21  1  0
 21 22  1  0
 21 23  1  0
  1 24  1  0
 24 25  2  0
 25 26  1  0
 26 27  1  0
 27 28  2  0
 28 29  1  0
 29 30  2  0
 30 31  1  0
 30 32  1  0
 32 33  2  0
 33 34  1  0
 28 35  1  0
 26 36  2  0
 36 37  1  0
 36 38  1  0
 38 39  2  0
 39 40  1  0
 40 41  1  0
 41 42  2  0
 42 43  1  0
 43 44  2  0
 44 45  1  0
 45 46  1  0
 44 47  1  0
 47 48  2  0
 40 49  1  0
 49 50  2  0
 50 51  1  0
 51 52  2  0
 52 53  1  0
 53 54  1  0
 52 55  1  0
 55 56  2  0
 39 57  1  0
 57 58  1  0
 58 59  1  0
 59 60  2  0
 60 61  1  0
 61 62  1  0
 62 63  2  0
 63 64  1  0
 64 65  2  0
 65 66  1  0
 66 67  1  0
 65 68  1  0
 68 69  2  0
 61 70  1  0
 70 71  2  0
 71 72  1  0
 72 73  2  0
 73 74  1  0
 74 75  1  0
 73 76  1  0
 76 77  2  0
 60 78  1  0
 78 79  1  0
 59 80  1  0
 80 81  2  0
 81 82  1  0
 82 83  1  0
 83 84  2  0
 84 85  1  0
 85 86  1  0
 86 87  1  0
 84 88  1  0
 88 89  2  0
 89 90  1  0
 90 91  2  0
 91 92  1  0
 92 93  1  0
 93 94  1  0
 82 95  2  0
 95 96  1  0
 95 97  1  0
 97 98  2  3
 98 99  1  0
 99100  2  0
 99101  1  0
101102  2  0
102103  1  0
103104  2  0
104105  1  0
105106  2  0
106107  1  0
107108  2  3
108109  1  0
109110  3  0
108111  1  0
111112  3  0
104113  1  0
113114  1  0
114115  1  0
115116  2  0
116117  1  0
117118  1  0
117119  1  0
 11  2  1  0
 23 17  1  0
 37 24  1  0
 79 38  1  0
 96 80  1  0
107 98  1  0
119113  1  0
 10  5  1  0
 22 18  1  0
 33 27  1  0
 48 41  1  0
 56 49  1  0
 78 57  2  0
 91 83  1  0
106101  1  0
118114  1  0
 23  7  1  0
 69 62  1  0
 77 70  1  0
119103  1  0
  1120  1  0
  6121  1  0
  9122  1  0
 17123  1  0
 18124  1  0
 19125  1  0
 20126  1  0
 21127  1  0
 22128  1  0
 22129  1  0
 23130  1  0
 25131  1  0
 29132  1  0
 31133  1  0
 31134  1  0
 31135  1  0
 32136  1  0
 34137  1  0
 34138  1  0
 34139  1  0
 35140  1  0
 35141  1  0
 35142  1  0
 42143  1  0
 43144  1  0
 46145  1  0
 46146  1  0
 46147  1  0
 47148  1  0
 48149  1  0
 50150  1  0
 51151  1  0
 54152  1  0
 54153  1  0
 54154  1  0
 55155  1  0
 56156  1  0
 63157  1  0
 64158  1  0
 67159  1  0
 67160  1  0
 67161  1  0
 68162  1  0
 69163  1  0
 71164  1  0
 72165  1  0
 75166  1  0
 75167  1  0
 75168  1  0
 76169  1  0
 77170  1  0
 81171  1  0
 86172  1  0
 86173  1  0
 87174  1  0
 87175  1  0
 87176  1  0
 88177  1  0
 89178  1  0
 90179  1  0
 93180  1  0
 93181  1  0
 94182  1  0
 94183  1  0
 94184  1  0
 97185  1  0
102186  1  0
105187  1  0
113188  1  0
114189  1  0
115190  1  0
116191  1  0
117192  1  0
118193  1  0
118194  1  0
119195  1  0
M  END

