
     RDKit          3D

113126  0  0  0  0  0  0  0  0999 V2000
    5.1723   -3.5229   -1.9862 C   0  0  0  0  0  0  0  0  0  0  0  0
    4.8790   -2.6216   -2.9439 C   0  0  0  0  0  0  0  0  0  0  0  0
    3.5554   -2.0324   -3.1939 C   0  0  0  0  0  0  0  0  0  0  0  0
    2.5818   -1.9996   -2.3950 O   0  0  0  0  0  0  0  0  0  0  0  0
    3.5475   -1.4649   -4.5245 C   0  0  0  0  0  0  0  0  0  0  0  0
    2.4336   -0.9391   -5.2190 C   0  0  0  0  0  0  0  0  0  0  0  0
    2.7122   -0.5587   -6.5166 C   0  0  0  0  0  0  0  0  0  0  0  0
    4.0150   -0.6739   -7.1013 C   0  0  0  0  0  0  0  0  0  0  0  0
    5.1118   -1.1865   -6.4262 C   0  0  0  0  0  0  0  0  0  0  0  0
    4.8454   -1.5841   -5.0861 C   0  0  0  0  0  0  0  0  0  0  0  0
    5.7590   -2.1940   -4.0743 C   0  0  0  0  0  0  0  0  0  0  0  0
    7.1164   -2.1059   -4.0514 C   0  0  0  0  0  0  0  0  0  0  0  0
    7.8768   -1.5357   -5.1332 C   0  0  0  0  0  0  0  0  0  0  0  0
    8.5072   -1.0773   -5.9905 N   0  0  0  0  0  0  0  0  0  0  0  0
    7.8867   -2.4298   -2.8751 C   0  0  0  0  0  0  0  0  0  0  0  0
    8.5065   -2.6800   -1.9273 N   0  0  0  0  0  0  0  0  0  0  0  0
    3.5020   -0.1016   -8.3909 C   0  0  0  0  0  0  0  0  0  0  0  0
    3.8611    1.3758   -8.7348 C   0  0  0  0  0  0  0  0  0  0  0  0
    4.0030    2.1882   -7.4676 C   0  0  0  0  0  0  0  0  0  0  0  0
    2.7831    2.2820   -6.9350 C   0  0  0  0  0  0  0  0  0  0  0  0
    1.8527    1.5255   -7.8552 C   0  0  0  0  0  0  0  0  0  0  0  0
    2.4985    1.8760   -9.1843 C   0  0  0  0  0  0  0  0  0  0  0  0
    2.1661    0.0004   -7.7962 C   0  0  0  0  0  0  0  0  0  0  0  0
    4.2360   -3.8797   -0.9045 C   0  0  0  0  0  0  0  0  0  0  0  0
    3.0466   -4.5812   -1.1651 C   0  0  0  0  0  0  0  0  0  0  0  0
    2.7706   -5.0285   -2.4151 F   0  0  0  0  0  0  0  0  0  0  0  0
    2.0966   -4.7450   -0.1519 C   0  0  0  0  0  0  0  0  0  0  0  0
    2.3348   -4.2300    1.1336 C   0  0  0  0  0  0  0  0  0  0  0  0
    3.5790   -3.6469    1.4158 C   0  0  0  0  0  0  0  0  0  0  0  0
    4.5243   -3.4754    0.4030 C   0  0  0  0  0  0  0  0  0  0  0  0
    1.2332   -4.1166    2.1239 C   0  0  0  0  0  0  0  0  0  0  0  0
    1.4290   -4.5249    3.4557 C   0  0  0  0  0  0  0  0  0  0  0  0
    2.5545   -5.1963    3.8081 F   0  0  0  0  0  0  0  0  0  0  0  0
    0.5008   -4.1864    4.4481 C   0  0  0  0  0  0  0  0  0  0  0  0
    0.7503   -4.5359    5.7370 F   0  0  0  0  0  0  0  0  0  0  0  0
   -0.6495   -3.4447    4.1279 C   0  0  0  0  0  0  0  0  0  0  0  0
   -0.8772   -3.0779    2.7860 C   0  0  0  0  0  0  0  0  0  0  0  0
   -1.9418   -2.3020    2.4478 N   0  0  0  0  0  0  0  0  0  0  0  0
   -2.1620   -1.8645    1.1804 C   0  0  0  0  0  0  0  0  0  0  0  0
   -3.3426   -0.9527    0.9420 C   0  0  0  0  0  0  0  0  0  0  0  0
   -4.6388   -1.5604    1.4669 C   0  0  0  0  0  0  0  0  0  0  0  0
   -1.2153   -2.1964    0.1806 C   0  0  0  0  0  0  0  0  0  0  0  0
   -0.1430   -2.9551    0.5275 N   0  0  0  0  0  0  0  0  0  0  0  0
    0.0565   -3.4148    1.7914 C   0  0  0  0  0  0  0  0  0  0  0  0
   -1.3242   -1.7566   -1.2576 C   0  0  0  0  0  0  0  0  0  0  0  0
   -2.2728   -2.6643   -2.0365 C   0  0  0  0  0  0  0  0  0  0  0  0
   -1.4740   -2.8602    5.2086 C   0  0  0  0  0  0  0  0  0  0  0  0
   -2.8773   -2.9205    5.1718 C   0  0  0  0  0  0  0  0  0  0  0  0
   -3.6216   -2.0934    6.0157 C   0  0  0  0  0  0  0  0  0  0  0  0
   -2.9626   -1.2215    6.8897 C   0  0  0  0  0  0  0  0  0  0  0  0
   -1.5669   -1.2830    6.9862 C   0  0  0  0  0  0  0  0  0  0  0  0
   -0.8622   -2.0750    6.1370 N   0  0  0  0  0  0  0  0  0  0  0  0
   -3.6857   -0.0941    7.5003 C   0  0  0  0  0  0  0  0  0  0  0  0
   -3.6598    1.1346    6.9410 C   0  0  0  0  0  0  0  0  0  0  0  0
   -3.1345    1.4337    5.5965 C   0  0  0  0  0  0  0  0  0  0  0  0
   -2.5005    0.6479    4.8428 O   0  0  0  0  0  0  0  0  0  0  0  0
   -3.5095    2.7751    5.2350 C   0  0  0  0  0  0  0  0  0  0  0  0
   -3.2645    3.4101    3.9976 C   0  0  0  0  0  0  0  0  0  0  0  0
   -3.7981    4.6787    3.9056 C   0  0  0  0  0  0  0  0  0  0  0  0
   -4.5422    5.2967    4.9622 C   0  0  0  0  0  0  0  0  0  0  0  0
   -4.7934    4.6742    6.1760 C   0  0  0  0  0  0  0  0  0  0  0  0
   -4.2310    3.3669    6.3038 C   0  0  0  0  0  0  0  0  0  0  0  0
   -4.2900    2.3991    7.4458 C   0  0  0  0  0  0  0  0  0  0  0  0
   -4.6244    2.6866    8.7329 C   0  0  0  0  0  0  0  0  0  0  0  0
   -4.4331    1.7503    9.8112 C   0  0  0  0  0  0  0  0  0  0  0  0
   -4.2792    1.0083   10.6880 N   0  0  0  0  0  0  0  0  0  0  0  0
   -5.0499    3.9985    9.1526 C   0  0  0  0  0  0  0  0  0  0  0  0
   -5.3849    5.0504    9.5082 N   0  0  0  0  0  0  0  0  0  0  0  0
   -4.7642    6.5145    4.1128 C   0  0  0  0  0  0  0  0  0  0  0  0
   -6.1913    6.6859    3.5126 C   0  0  0  0  0  0  0  0  0  0  0  0
   -6.0527    7.7088    2.4109 C   0  0  0  0  0  0  0  0  0  0  0  0
   -5.3784    7.1105    1.4209 C   0  0  0  0  0  0  0  0  0  0  0  0
   -5.0710    5.7116    1.8950 C   0  0  0  0  0  0  0  0  0  0  0  0
   -6.3579    5.4380    2.6617 C   0  0  0  0  0  0  0  0  0  0  0  0
   -4.0154    5.8714    3.0284 C   0  0  0  0  0  0  0  0  0  0  0  0
    6.1440   -3.9920   -1.9464 H   0  0  0  0  0  0  0  0  0  0  0  0
    1.4423   -0.8648   -4.7909 H   0  0  0  0  0  0  0  0  0  0  0  0
    6.0589   -1.3025   -6.9262 H   0  0  0  0  0  0  0  0  0  0  0  0
    3.5528   -0.8081   -9.2490 H   0  0  0  0  0  0  0  0  0  0  0  0
    4.6839    1.5074   -9.4690 H   0  0  0  0  0  0  0  0  0  0  0  0
    4.8934    2.6859   -7.0983 H   0  0  0  0  0  0  0  0  0  0  0  0
    2.5153    2.8596   -6.0551 H   0  0  0  0  0  0  0  0  0  0  0  0
    0.7762    1.7931   -7.7642 H   0  0  0  0  0  0  0  0  0  0  0  0
    2.0854    1.3078  -10.0524 H   0  0  0  0  0  0  0  0  0  0  0  0
    2.4808    2.9685   -9.4139 H   0  0  0  0  0  0  0  0  0  0  0  0
    1.4098   -0.6536   -8.2844 H   0  0  0  0  0  0  0  0  0  0  0  0
    1.1478   -5.2079   -0.3848 H   0  0  0  0  0  0  0  0  0  0  0  0
    3.7852   -3.2379    2.3973 H   0  0  0  0  0  0  0  0  0  0  0  0
    5.4489   -2.9550    0.6262 H   0  0  0  0  0  0  0  0  0  0  0  0
   -3.4984   -0.7224   -0.1322 H   0  0  0  0  0  0  0  0  0  0  0  0
   -3.1591    0.0088    1.4667 H   0  0  0  0  0  0  0  0  0  0  0  0
   -4.8831   -2.4943    0.9201 H   0  0  0  0  0  0  0  0  0  0  0  0
   -4.5819   -1.7789    2.5599 H   0  0  0  0  0  0  0  0  0  0  0  0
   -5.4705   -0.8396    1.3042 H   0  0  0  0  0  0  0  0  0  0  0  0
   -0.3179   -1.8062   -1.7300 H   0  0  0  0  0  0  0  0  0  0  0  0
   -1.6478   -0.6962   -1.3247 H   0  0  0  0  0  0  0  0  0  0  0  0
   -1.9015   -3.7135   -2.0250 H   0  0  0  0  0  0  0  0  0  0  0  0
   -2.3094   -2.3227   -3.0963 H   0  0  0  0  0  0  0  0  0  0  0  0
   -3.2970   -2.6353   -1.6084 H   0  0  0  0  0  0  0  0  0  0  0  0
   -3.3851   -3.5365    4.4389 H   0  0  0  0  0  0  0  0  0  0  0  0
   -4.7004   -2.0597    5.9175 H   0  0  0  0  0  0  0  0  0  0  0  0
   -1.0334   -0.6261    7.6613 H   0  0  0  0  0  0  0  0  0  0  0  0
   -4.2601   -0.3027    8.3862 H   0  0  0  0  0  0  0  0  0  0  0  0
   -2.7277    2.9400    3.1826 H   0  0  0  0  0  0  0  0  0  0  0  0
   -5.4077    5.1556    6.9185 H   0  0  0  0  0  0  0  0  0  0  0  0
   -4.2905    7.4401    4.5156 H   0  0  0  0  0  0  0  0  0  0  0  0
   -6.9986    6.8859    4.2489 H   0  0  0  0  0  0  0  0  0  0  0  0
   -6.5025    8.6955    2.3640 H   0  0  0  0  0  0  0  0  0  0  0  0
   -5.1700    7.5375    0.4461 H   0  0  0  0  0  0  0  0  0  0  0  0
   -4.8155    4.9842    1.0955 H   0  0  0  0  0  0  0  0  0  0  0  0
   -7.2736    5.4639    2.0169 H   0  0  0  0  0  0  0  0  0  0  0  0
   -6.3539    4.4857    3.2359 H   0  0  0  0  0  0  0  0  0  0  0  0
   -3.0715    6.3905    2.7385 H   0  0  0  0  0  0  0  0  0  0  0  0
  1  2  2  3
  2  3  1  0
  3  4  2  0
  3  5  1  0
  5  6  2  0
  6  7  1  0
  7  8  2  0
  8  9  1  0
  9 10  2  0
 10 11  1  0
 11 12  2  3
 12 13  1  0
 13 14  3  0
 12 15  1  0
 15 16  3  0
  8 17  1  0
 17 18  1  0
 18 19  1  0
 19 20  2  0
 20 21  1  0
 21 22  1  0
 21 23  1  0
  1 24  1  0
 24 25  2  0
 25 26  1  0
 25 27  1  0
 27 28  2  0
 28 29  1  0
 29 30  2  0
 28 31  1  0
 31 32  2  0
 32 33  1  0
 32 34  1  0
 34 35  1  0
 34 36  2  0
 36 37  1  0
 37 38  2  0
 38 39  1  0
 39 40  1  0
 40 41  1  0
 39 42  2  0
 42 43  1  0
 43 44  2  0
 42 45  1  0
 45 46  1  0
 36 47  1  0
 47 48  2  0
 48 49  1  0
 49 50  2  0
 50 51  1  0
 51 52  2  0
 50 53  1  0
 53 54  2  3
 54 55  1  0
 55 56  2  0
 55 57  1  0
 57 58  2  0
 58 59  1  0
 59 60  2  0
 60 61  1  0
 61 62  2  0
 62 63  1  0
 63 64  2  3
 64 65  1  0
 65 66  3  0
 64 67  1  0
 67 68  3  0
 60 69  1  0
 69 70  1  0
 70 71  1  0
 71 72  2  0
 72 73  1  0
 73 74  1  0
 73 75  1  0
 11  2  1  0
 23 17  1  0
 30 24  1  0
 44 31  1  0
 52 47  1  0
 63 54  1  0
 75 69  1  0
 10  5  1  0
 22 18  1  0
 44 37  1  0
 62 57  1  0
 74 70  1  0
 23  7  1  0
 75 59  1  0
  1 76  1  0
  6 77  1  0
  9 78  1  0
 17 79  1  0
 18 80  1  0
 19 81  1  0
 20 82  1  0
 21 83  1  0
 22 84  1  0
 22 85  1  0
 23 86  1  0
 27 87  1  0
 29 88  1  0
 30 89  1  0
 40 90  1  0
 40 91  1  0
 41 92  1  0
 41 93  1  0
 41 94  1  0
 45 95  1  0
 45 96  1  0
 46 97  1  0
 46 98  1  0
 46 99  1  0
 48100  1  0
 49101  1  0
 51102  1  0
 53103  1  0
 58104  1  0
 61105  1  0
 69106  1  0
 70107  1  0
 71108  1  0
 72109  1  0
 73110  1  0
 74111  1  0
 74112  1  0
 75113  1  0
M  END

