
     RDKit          3D

230255  0  0  0  0  0  0  0  0999 V2000
   -6.0036    1.0932    5.9805 C   0  0  0  0  0  0  0  0  0  0  0  0
   -5.0929    0.1772    6.3611 C   0  0  0  0  0  0  0  0  0  0  0  0
   -3.9210    0.5618    7.1574 C   0  0  0  0  0  0  0  0  0  0  0  0
   -3.9389    1.3620    8.1300 O   0  0  0  0  0  0  0  0  0  0  0  0
   -2.7366   -0.0936    6.6570 C   0  0  0  0  0  0  0  0  0  0  0  0
   -1.4049    0.0745    7.1055 C   0  0  0  0  0  0  0  0  0  0  0  0
   -0.4763   -0.6880    6.4212 C   0  0  0  0  0  0  0  0  0  0  0  0
   -0.8344   -1.5597    5.3471 C   0  0  0  0  0  0  0  0  0  0  0  0
   -2.1288   -1.7223    4.8972 C   0  0  0  0  0  0  0  0  0  0  0  0
   -3.1035   -0.9405    5.5893 C   0  0  0  0  0  0  0  0  0  0  0  0
   -4.5792   -0.8541    5.3998 C   0  0  0  0  0  0  0  0  0  0  0  0
   -5.3289   -1.5719    4.5274 C   0  0  0  0  0  0  0  0  0  0  0  0
   -4.7447   -2.3625    3.4780 C   0  0  0  0  0  0  0  0  0  0  0  0
   -4.2762   -2.9918    2.6237 N   0  0  0  0  0  0  0  0  0  0  0  0
   -6.7646   -1.6034    4.6185 C   0  0  0  0  0  0  0  0  0  0  0  0
   -7.9210   -1.6418    4.6904 N   0  0  0  0  0  0  0  0  0  0  0  0
    0.5994   -1.9564    5.1624 C   0  0  0  0  0  0  0  0  0  0  0  0
    1.3703   -1.3591    3.9437 C   0  0  0  0  0  0  0  0  0  0  0  0
    0.8288    0.0114    3.6110 C   0  0  0  0  0  0  0  0  0  0  0  0
    1.1775    0.8152    4.6150 C   0  0  0  0  0  0  0  0  0  0  0  0
    1.9330   -0.0386    5.6079 C   0  0  0  0  0  0  0  0  0  0  0  0
    2.6586   -0.9494    4.6335 C   0  0  0  0  0  0  0  0  0  0  0  0
    0.9691   -1.0694    6.2717 C   0  0  0  0  0  0  0  0  0  0  0  0
   -5.5470    2.2762    5.2299 C   0  0  0  0  0  0  0  0  0  0  0  0
   -5.6814    2.3670    3.8472 C   0  0  0  0  0  0  0  0  0  0  0  0
   -4.7368    3.2159    3.2542 C   0  0  0  0  0  0  0  0  0  0  0  0
   -4.5086    3.3327    1.8735 C   0  0  0  0  0  0  0  0  0  0  0  0
   -5.3908    2.7081    0.8685 C   0  0  0  0  0  0  0  0  0  0  0  0
   -6.1153    3.4222   -0.0736 C   0  0  0  0  0  0  0  0  0  0  0  0
   -6.6836    2.6185   -1.0628 C   0  0  0  0  0  0  0  0  0  0  0  0
   -6.4113    1.2621   -0.9128 C   0  0  0  0  0  0  0  0  0  0  0  0
   -6.6716    0.2761   -1.9814 C   0  0  0  0  0  0  0  0  0  0  0  0
   -6.6499   -1.0578   -1.8792 C   0  0  0  0  0  0  0  0  0  0  0  0
   -6.6555   -1.8346   -0.6341 C   0  0  0  0  0  0  0  0  0  0  0  0
   -7.4842   -1.6183    0.4612 C   0  0  0  0  0  0  0  0  0  0  0  0
   -7.5370   -2.7108    1.3383 C   0  0  0  0  0  0  0  0  0  0  0  0
   -6.7302   -3.7799    0.9504 C   0  0  0  0  0  0  0  0  0  0  0  0
   -6.6548   -5.1521    1.5630 C   0  0  0  0  0  0  0  0  0  0  0  0
   -7.0567   -5.2012    3.0382 C   0  0  0  0  0  0  0  0  0  0  0  0
   -6.0069   -3.3810   -0.5117 S   0  0  0  0  0  0  0  0  0  0  0  0
   -5.4257    1.0722    0.4505 S   0  0  0  0  0  0  0  0  0  0  0  0
   -3.3238    3.9713    1.4835 C   0  0  0  0  0  0  0  0  0  0  0  0
   -2.4249    4.5255    2.3984 C   0  0  0  0  0  0  0  0  0  0  0  0
   -2.7334    4.5674    3.7811 C   0  0  0  0  0  0  0  0  0  0  0  0
   -1.8832    5.3300    4.7428 C   0  0  0  0  0  0  0  0  0  0  0  0
   -1.2157    6.5167    4.4426 C   0  0  0  0  0  0  0  0  0  0  0  0
   -0.5782    7.1063    5.5384 C   0  0  0  0  0  0  0  0  0  0  0  0
   -0.7281    6.3968    6.7253 C   0  0  0  0  0  0  0  0  0  0  0  0
   -0.3531    6.9351    8.0503 C   0  0  0  0  0  0  0  0  0  0  0  0
   -0.2758    6.2444    9.1936 C   0  0  0  0  0  0  0  0  0  0  0  0
   -0.2766    4.7804    9.3201 C   0  0  0  0  0  0  0  0  0  0  0  0
    0.4888    3.8905    8.5696 C   0  0  0  0  0  0  0  0  0  0  0  0
    0.4769    2.5859    9.0771 C   0  0  0  0  0  0  0  0  0  0  0  0
   -0.2992    2.4523   10.2231 C   0  0  0  0  0  0  0  0  0  0  0  0
   -0.4694    1.2003   11.0301 C   0  0  0  0  0  0  0  0  0  0  0  0
   -1.9239    0.7384   11.0277 C   0  0  0  0  0  0  0  0  0  0  0  0
   -0.9327    3.9585   10.6296 S   0  0  0  0  0  0  0  0  0  0  0  0
   -1.6873    5.0489    6.3977 S   0  0  0  0  0  0  0  0  0  0  0  0
   -3.8825    3.8408    4.1755 C   0  0  0  0  0  0  0  0  0  0  0  0
   -4.3207    3.3309    5.7148 S   0  0  0  0  0  0  0  0  0  0  0  0
   -1.1517    4.7539    1.8371 C   0  0  0  0  0  0  0  0  0  0  0  0
   -1.0547    4.3813    0.5005 C   0  0  0  0  0  0  0  0  0  0  0  0
   -2.5616    3.8161    0.0008 S   0  0  0  0  0  0  0  0  0  0  0  0
    0.1523    3.7408   -0.0061 C   0  0  0  0  0  0  0  0  0  0  0  0
    1.1845    4.3007   -0.7798 C   0  0  0  0  0  0  0  0  0  0  0  0
    1.3251    5.6982   -1.0861 N   0  0  0  0  0  0  0  0  0  0  0  0
    0.1691    6.4485   -1.5102 C   0  0  0  0  0  0  0  0  0  0  0  0
   -0.6529    5.9551   -2.5366 C   0  0  0  0  0  0  0  0  0  0  0  0
   -1.8377    6.6162   -2.8736 C   0  0  0  0  0  0  0  0  0  0  0  0
   -2.2137    7.7731   -2.1843 C   0  0  0  0  0  0  0  0  0  0  0  0
   -3.7809    8.5612   -2.5465 S   0  0  0  0  0  0  0  0  0  0  0  0
   -4.7107    7.4917   -1.4061 C   0  0  0  0  0  0  0  0  0  0  0  0
   -1.3854    8.2865   -1.1790 C   0  0  0  0  0  0  0  0  0  0  0  0
   -0.1936    7.6327   -0.8473 C   0  0  0  0  0  0  0  0  0  0  0  0
    2.5749    6.3626   -0.8018 C   0  0  0  0  0  0  0  0  0  0  0  0
    3.3041    6.0400    0.3590 C   0  0  0  0  0  0  0  0  0  0  0  0
    4.5415    6.6408    0.6054 C   0  0  0  0  0  0  0  0  0  0  0  0
    5.0675    7.5621   -0.3042 C   0  0  0  0  0  0  0  0  0  0  0  0
    6.6945    8.2729   -0.0211 S   0  0  0  0  0  0  0  0  0  0  0  0
    6.0637    9.6980    0.9111 C   0  0  0  0  0  0  0  0  0  0  0  0
    4.3425    7.8982   -1.4537 C   0  0  0  0  0  0  0  0  0  0  0  0
    3.0980    7.3086   -1.6991 C   0  0  0  0  0  0  0  0  0  0  0  0
    2.0898    3.3130   -1.1706 C   0  0  0  0  0  0  0  0  0  0  0  0
    3.3284    3.2280   -2.3094 S   0  0  0  0  0  0  0  0  0  0  0  0
    3.4882    1.5267   -2.1935 C   0  0  0  0  0  0  0  0  0  0  0  0
    2.5726    1.0447   -1.2479 C   0  0  0  0  0  0  0  0  0  0  0  0
    2.3792   -0.3344   -0.8957 N   0  0  0  0  0  0  0  0  0  0  0  0
    1.1528   -0.9435   -1.3406 C   0  0  0  0  0  0  0  0  0  0  0  0
    0.1461   -1.2858   -0.4193 C   0  0  0  0  0  0  0  0  0  0  0  0
   -1.0847   -1.7719   -0.8691 C   0  0  0  0  0  0  0  0  0  0  0  0
   -1.3174   -1.9270   -2.2421 C   0  0  0  0  0  0  0  0  0  0  0  0
   -2.9123   -2.4816   -2.8445 S   0  0  0  0  0  0  0  0  0  0  0  0
   -3.5358   -0.7906   -3.0917 C   0  0  0  0  0  0  0  0  0  0  0  0
   -0.3101   -1.6058   -3.1578 C   0  0  0  0  0  0  0  0  0  0  0  0
    0.9114   -1.1052   -2.7103 C   0  0  0  0  0  0  0  0  0  0  0  0
    3.2136   -0.9435    0.1274 C   0  0  0  0  0  0  0  0  0  0  0  0
    3.0445   -2.2953    0.4985 C   0  0  0  0  0  0  0  0  0  0  0  0
    3.8742   -2.8845    1.4558 C   0  0  0  0  0  0  0  0  0  0  0  0
    4.8885   -2.1391    2.0632 C   0  0  0  0  0  0  0  0  0  0  0  0
    5.9564   -2.8968    3.2908 S   0  0  0  0  0  0  0  0  0  0  0  0
    7.2330   -3.3376    2.0684 C   0  0  0  0  0  0  0  0  0  0  0  0
    5.0643   -0.7972    1.7153 C   0  0  0  0  0  0  0  0  0  0  0  0
    4.2331   -0.2021    0.7645 C   0  0  0  0  0  0  0  0  0  0  0  0
    1.8068    2.0666   -0.7199 C   0  0  0  0  0  0  0  0  0  0  0  0
    0.4099    2.0733    0.1881 S   0  0  0  0  0  0  0  0  0  0  0  0
    4.1569    0.6855   -3.1982 C   0  0  0  0  0  0  0  0  0  0  0  0
    5.3679   -0.4323   -2.8579 S   0  0  0  0  0  0  0  0  0  0  0  0
    5.4226   -1.1353   -4.3881 C   0  0  0  0  0  0  0  0  0  0  0  0
    4.5132   -0.4606   -5.2142 C   0  0  0  0  0  0  0  0  0  0  0  0
    4.3217   -0.6818   -6.6656 C   0  0  0  0  0  0  0  0  0  0  0  0
    5.1404   -1.3820   -7.3198 O   0  0  0  0  0  0  0  0  0  0  0  0
    3.1888   -0.0038   -7.3383 C   0  0  0  0  0  0  0  0  0  0  0  0
    2.7837   -0.2023   -8.6641 C   0  0  0  0  0  0  0  0  0  0  0  0
    3.3212   -1.1925   -9.6562 C   0  0  0  0  0  0  0  0  0  0  0  0
    2.8134   -2.5994   -9.3534 C   0  0  0  0  0  0  0  0  0  0  0  0
    1.4239    0.7480   -8.9426 S   0  0  0  0  0  0  0  0  0  0  0  0
    1.3469    1.4669   -7.4166 C   0  0  0  0  0  0  0  0  0  0  0  0
    0.2579    2.4047   -6.9533 C   0  0  0  0  0  0  0  0  0  0  0  0
   -0.4203    3.1455   -8.1053 C   0  0  0  0  0  0  0  0  0  0  0  0
    2.3777    0.9162   -6.6358 C   0  0  0  0  0  0  0  0  0  0  0  0
    2.6172    1.1821   -5.1980 C   0  0  0  0  0  0  0  0  0  0  0  0
    1.8195    1.8974   -4.5376 O   0  0  0  0  0  0  0  0  0  0  0  0
    3.7690    0.5214   -4.5355 C   0  0  0  0  0  0  0  0  0  0  0  0
    6.2466   -2.3168   -4.7102 C   0  0  0  0  0  0  0  0  0  0  0  0
    5.7865   -3.4380   -5.3017 C   0  0  0  0  0  0  0  0  0  0  0  0
    6.6600   -4.4358   -5.9224 C   0  0  0  0  0  0  0  0  0  0  0  0
    7.9094   -4.5148   -5.7777 O   0  0  0  0  0  0  0  0  0  0  0  0
    5.8553   -5.2846   -6.7762 C   0  0  0  0  0  0  0  0  0  0  0  0
    6.2893   -6.4146   -7.5080 C   0  0  0  0  0  0  0  0  0  0  0  0
    5.2688   -7.0880   -8.1544 C   0  0  0  0  0  0  0  0  0  0  0  0
    3.9037   -6.6573   -8.1198 C   0  0  0  0  0  0  0  0  0  0  0  0
    3.4719   -5.5491   -7.4133 C   0  0  0  0  0  0  0  0  0  0  0  0
    4.4987   -4.8653   -6.7041 C   0  0  0  0  0  0  0  0  0  0  0  0
    4.3839   -3.7820   -5.6900 C   0  0  0  0  0  0  0  0  0  0  0  0
    3.2867   -3.5500   -4.9370 C   0  0  0  0  0  0  0  0  0  0  0  0
    1.9481   -3.7745   -5.4092 C   0  0  0  0  0  0  0  0  0  0  0  0
    0.8640   -3.9400   -5.7812 N   0  0  0  0  0  0  0  0  0  0  0  0
    3.4147   -3.2616   -3.5360 C   0  0  0  0  0  0  0  0  0  0  0  0
    3.5133   -3.0527   -2.4060 N   0  0  0  0  0  0  0  0  0  0  0  0
    3.4872   -7.8432   -8.9402 C   0  0  0  0  0  0  0  0  0  0  0  0
    2.7329   -8.9935   -8.2050 C   0  0  0  0  0  0  0  0  0  0  0  0
    3.1705   -9.0492   -6.7592 C   0  0  0  0  0  0  0  0  0  0  0  0
    4.4395   -9.4624   -6.7623 C   0  0  0  0  0  0  0  0  0  0  0  0
    4.8222   -9.6728   -8.2108 C   0  0  0  0  0  0  0  0  0  0  0  0
    3.4970  -10.1949   -8.7319 C   0  0  0  0  0  0  0  0  0  0  0  0
    4.8849   -8.2971   -8.9548 C   0  0  0  0  0  0  0  0  0  0  0  0
   -6.9443    0.7236    5.6089 H   0  0  0  0  0  0  0  0  0  0  0  0
   -1.1363    0.7410    7.9088 H   0  0  0  0  0  0  0  0  0  0  0  0
   -2.3246   -2.3989    4.0867 H   0  0  0  0  0  0  0  0  0  0  0  0
    0.8023   -3.0348    5.3620 H   0  0  0  0  0  0  0  0  0  0  0  0
    1.4872   -2.0385    3.0754 H   0  0  0  0  0  0  0  0  0  0  0  0
    0.3327    0.3180    2.7017 H   0  0  0  0  0  0  0  0  0  0  0  0
    1.0155    1.8863    4.6595 H   0  0  0  0  0  0  0  0  0  0  0  0
    2.5834    0.5243    6.3133 H   0  0  0  0  0  0  0  0  0  0  0  0
    3.3636   -0.3993    3.9669 H   0  0  0  0  0  0  0  0  0  0  0  0
    3.1925   -1.7963    5.1273 H   0  0  0  0  0  0  0  0  0  0  0  0
    1.3910   -1.6077    7.1510 H   0  0  0  0  0  0  0  0  0  0  0  0
   -6.3379    1.7166    3.2778 H   0  0  0  0  0  0  0  0  0  0  0  0
   -6.1850    4.5017   -0.0790 H   0  0  0  0  0  0  0  0  0  0  0  0
   -7.2336    3.0249   -1.9023 H   0  0  0  0  0  0  0  0  0  0  0  0
   -6.7921    0.6814   -2.9784 H   0  0  0  0  0  0  0  0  0  0  0  0
   -6.6822   -1.6283   -2.7958 H   0  0  0  0  0  0  0  0  0  0  0  0
   -8.0993   -0.7363    0.5801 H   0  0  0  0  0  0  0  0  0  0  0  0
   -8.1806   -2.7246    2.2068 H   0  0  0  0  0  0  0  0  0  0  0  0
   -7.3093   -5.8369    0.9864 H   0  0  0  0  0  0  0  0  0  0  0  0
   -5.6093   -5.5177    1.4731 H   0  0  0  0  0  0  0  0  0  0  0  0
   -6.4338   -4.5092    3.6375 H   0  0  0  0  0  0  0  0  0  0  0  0
   -8.1280   -4.9345    3.1612 H   0  0  0  0  0  0  0  0  0  0  0  0
   -6.8989   -6.2281    3.4253 H   0  0  0  0  0  0  0  0  0  0  0  0
   -1.2334    6.9862    3.4668 H   0  0  0  0  0  0  0  0  0  0  0  0
   -0.0670    8.0585    5.4758 H   0  0  0  0  0  0  0  0  0  0  0  0
   -0.1985    8.0063    8.1127 H   0  0  0  0  0  0  0  0  0  0  0  0
   -0.1459    6.8041   10.1123 H   0  0  0  0  0  0  0  0  0  0  0  0
    1.0823    4.1853    7.7133 H   0  0  0  0  0  0  0  0  0  0  0  0
    1.0397    1.7745    8.6326 H   0  0  0  0  0  0  0  0  0  0  0  0
   -0.1464    1.3964   12.0741 H   0  0  0  0  0  0  0  0  0  0  0  0
    0.1673    0.3887   10.6159 H   0  0  0  0  0  0  0  0  0  0  0  0
   -2.0444   -0.1067   11.7372 H   0  0  0  0  0  0  0  0  0  0  0  0
   -2.5990    1.5610   11.3408 H   0  0  0  0  0  0  0  0  0  0  0  0
   -2.2165    0.3930   10.0167 H   0  0  0  0  0  0  0  0  0  0  0  0
   -0.2732    4.9684    2.4297 H   0  0  0  0  0  0  0  0  0  0  0  0
   -0.3885    5.0435   -3.0566 H   0  0  0  0  0  0  0  0  0  0  0  0
   -2.4731    6.2142   -3.6521 H   0  0  0  0  0  0  0  0  0  0  0  0
   -4.3275    7.6039   -0.3696 H   0  0  0  0  0  0  0  0  0  0  0  0
   -5.7820    7.7849   -1.4282 H   0  0  0  0  0  0  0  0  0  0  0  0
   -4.6275    6.4294   -1.7209 H   0  0  0  0  0  0  0  0  0  0  0  0
   -1.6703    9.1814   -0.6406 H   0  0  0  0  0  0  0  0  0  0  0  0
    0.4222    8.0238   -0.0462 H   0  0  0  0  0  0  0  0  0  0  0  0
    2.9128    5.3215    1.0714 H   0  0  0  0  0  0  0  0  0  0  0  0
    5.0939    6.3745    1.4968 H   0  0  0  0  0  0  0  0  0  0  0  0
    5.3819   10.3029    0.2779 H   0  0  0  0  0  0  0  0  0  0  0  0
    6.9202   10.3344    1.2160 H   0  0  0  0  0  0  0  0  0  0  0  0
    5.5312    9.3559    1.8213 H   0  0  0  0  0  0  0  0  0  0  0  0
    4.7518    8.6033   -2.1645 H   0  0  0  0  0  0  0  0  0  0  0  0
    2.5580    7.5644   -2.5985 H   0  0  0  0  0  0  0  0  0  0  0  0
    0.3060   -1.1432    0.6414 H   0  0  0  0  0  0  0  0  0  0  0  0
   -1.8625   -2.0092   -0.1566 H   0  0  0  0  0  0  0  0  0  0  0  0
   -3.7716   -0.3362   -2.1054 H   0  0  0  0  0  0  0  0  0  0  0  0
   -4.4546   -0.8342   -3.7118 H   0  0  0  0  0  0  0  0  0  0  0  0
   -2.7891   -0.1636   -3.6208 H   0  0  0  0  0  0  0  0  0  0  0  0
   -0.4833   -1.7137   -4.2216 H   0  0  0  0  0  0  0  0  0  0  0  0
    1.6661   -0.8374   -3.4324 H   0  0  0  0  0  0  0  0  0  0  0  0
    2.2838   -2.9088    0.0339 H   0  0  0  0  0  0  0  0  0  0  0  0
    3.7260   -3.9242    1.7166 H   0  0  0  0  0  0  0  0  0  0  0  0
    6.8117   -4.0475    1.3248 H   0  0  0  0  0  0  0  0  0  0  0  0
    8.0850   -3.8237    2.5870 H   0  0  0  0  0  0  0  0  0  0  0  0
    7.5994   -2.4260    1.5554 H   0  0  0  0  0  0  0  0  0  0  0  0
    5.8490   -0.2137    2.1806 H   0  0  0  0  0  0  0  0  0  0  0  0
    4.4068    0.8377    0.5242 H   0  0  0  0  0  0  0  0  0  0  0  0
    4.4309   -1.1786   -9.6532 H   0  0  0  0  0  0  0  0  0  0  0  0
    3.0012   -0.9042  -10.6796 H   0  0  0  0  0  0  0  0  0  0  0  0
    3.4016   -3.3387   -9.9354 H   0  0  0  0  0  0  0  0  0  0  0  0
    1.7455   -2.6918   -9.6391 H   0  0  0  0  0  0  0  0  0  0  0  0
    2.9249   -2.8365   -8.2732 H   0  0  0  0  0  0  0  0  0  0  0  0
    0.6875    3.1722   -6.2792 H   0  0  0  0  0  0  0  0  0  0  0  0
   -0.5038    1.8226   -6.3935 H   0  0  0  0  0  0  0  0  0  0  0  0
   -0.9112    2.4260   -8.7957 H   0  0  0  0  0  0  0  0  0  0  0  0
   -1.1971    3.8242   -7.6970 H   0  0  0  0  0  0  0  0  0  0  0  0
    0.3295    3.7473   -8.6599 H   0  0  0  0  0  0  0  0  0  0  0  0
    7.3003   -2.2528   -4.4672 H   0  0  0  0  0  0  0  0  0  0  0  0
    7.3147   -6.7619   -7.5175 H   0  0  0  0  0  0  0  0  0  0  0  0
    2.4278   -5.2875   -7.3906 H   0  0  0  0  0  0  0  0  0  0  0  0
    3.0898   -7.5878   -9.9466 H   0  0  0  0  0  0  0  0  0  0  0  0
    1.6326   -9.0192   -8.3616 H   0  0  0  0  0  0  0  0  0  0  0  0
    2.5658   -8.8593   -5.8801 H   0  0  0  0  0  0  0  0  0  0  0  0
    5.0364   -9.6748   -5.8828 H   0  0  0  0  0  0  0  0  0  0  0  0
    5.6954  -10.3384   -8.3726 H   0  0  0  0  0  0  0  0  0  0  0  0
    3.1853  -11.1585   -8.2599 H   0  0  0  0  0  0  0  0  0  0  0  0
    3.4598  -10.2871   -9.8420 H   0  0  0  0  0  0  0  0  0  0  0  0
    5.3357   -8.3341   -9.9708 H   0  0  0  0  0  0  0  0  0  0  0  0
  1  2  2  3
  2  3  1  0
  3  4  2  0
  3  5  1  0
  5  6  2  0
  6  7  1  0
  7  8  2  0
  8  9  1  0
  9 10  2  0
 10 11  1  0
 11 12  2  3
 12 13  1  0
 13 14  3  0
 12 15  1  0
 15 16  3  0
  8 17  1  0
 17 18  1  0
 18 19  1  0
 19 20  2  0
 20 21  1  0
 21 22  1  0
 21 23  1  0
  1 24  1  0
 24 25  2  0
 25 26  1  0
 26 27  2  0
 27 28  1  0
 28 29  2  0
 29 30  1  0
 30 31  2  0
 31 32  1  0
 32 33  2  3
 33 34  1  0
 34 35  2  0
 35 36  1  0
 36 37  2  0
 37 38  1  0
 38 39  1  0
 37 40  1  0
 31 41  1  0
 27 42  1  0
 42 43  2  0
 43 44  1  0
 44 45  1  0
 45 46  2  0
 46 47  1  0
 47 48  2  0
 48 49  1  0
 49 50  2  3
 50 51  1  0
 51 52  2  0
 52 53  1  0
 53 54  2  0
 54 55  1  0
 55 56  1  0
 54 57  1  0
 48 58  1  0
 44 59  2  0
 59 60  1  0
 43 61  1  0
 61 62  2  0
 62 63  1  0
 62 64  1  0
 64 65  2  0
 65 66  1  0
 66 67  1  0
 67 68  2  0
 68 69  1  0
 69 70  2  0
 70 71  1  0
 71 72  1  0
 70 73  1  0
 73 74  2  0
 66 75  1  0
 75 76  2  0
 76 77  1  0
 77 78  2  0
 78 79  1  0
 79 80  1  0
 78 81  1  0
 81 82  2  0
 65 83  1  0
 83 84  1  0
 84 85  1  0
 85 86  2  0
 86 87  1  0
 87 88  1  0
 88 89  2  0
 89 90  1  0
 90 91  2  0
 91 92  1  0
 92 93  1  0
 91 94  1  0
 94 95  2  0
 87 96  1  0
 96 97  2  0
 97 98  1  0
 98 99  2  0
 99100  1  0
100101  1  0
 99102  1  0
102103  2  0
 86104  1  0
104105  1  0
 85106  1  0
106107  1  0
107108  1  0
108109  2  0
109110  1  0
110111  2  0
110112  1  0
112113  2  0
113114  1  0
114115  1  0
113116  1  0
116117  1  0
117118  1  0
118119  1  0
117120  2  0
120121  1  0
121122  2  0
121123  1  0
108124  1  0
124125  2  3
125126  1  0
126127  2  0
126128  1  0
128129  2  0
129130  1  0
130131  2  0
131132  1  0
132133  2  0
133134  1  0
134135  2  3
135136  1  0
136137  3  0
135138  1  0
138139  3  0
131140  1  0
140141  1  0
141142  1  0
142143  2  0
143144  1  0
144145  1  0
144146  1  0
 11  2  1  0
 23 17  1  0
 60 24  1  0
105 64  1  0
123106  2  0
134125  1  0
146140  1  0
 10  5  1  0
 22 18  1  0
 59 26  1  0
 74 67  1  0
 82 75  1  0
104 83  2  0
123109  1  0
133128  1  0
145141  1  0
 23  7  1  0
 41 28  1  0
 63 42  1  0
 95 88  1  0
103 96  1  0
120112  1  0
146130  1  0
 40 34  1  0
 58 45  1  0
 57 51  1  0
  1147  1  0
  6148  1  0
  9149  1  0
 17150  1  0
 18151  1  0
 19152  1  0
 20153  1  0
 21154  1  0
 22155  1  0
 22156  1  0
 23157  1  0
 25158  1  0
 29159  1  0
 30160  1  0
 32161  1  0
 33162  1  0
 35163  1  0
 36164  1  0
 38165  1  0
 38166  1  0
 39167  1  0
 39168  1  0
 39169  1  0
 46170  1  0
 47171  1  0
 49172  1  0
 50173  1  0
 52174  1  0
 53175  1  0
 55176  1  0
 55177  1  0
 56178  1  0
 56179  1  0
 56180  1  0
 61181  1  0
 68182  1  0
 69183  1  0
 72184  1  0
 72185  1  0
 72186  1  0
 73187  1  0
 74188  1  0
 76189  1  0
 77190  1  0
 80191  1  0
 80192  1  0
 80193  1  0
 81194  1  0
 82195  1  0
 89196  1  0
 90197  1  0
 93198  1  0
 93199  1  0
 93200  1  0
 94201  1  0
 95202  1  0
 97203  1  0
 98204  1  0
101205  1  0
101206  1  0
101207  1  0
102208  1  0
103209  1  0
114210  1  0
114211  1  0
115212  1  0
115213  1  0
115214  1  0
118215  1  0
118216  1  0
119217  1  0
119218  1  0
119219  1  0
124220  1  0
129221  1  0
132222  1  0
140223  1  0
141224  1  0
142225  1  0
143226  1  0
144227  1  0
145228  1  0
145229  1  0
146230  1  0
M  END

