
     RDKit          3D

166183  0  0  0  0  0  0  0  0999 V2000
    5.6941   -1.9861    3.9244 C   0  0  0  0  0  0  0  0  0  0  0  0
    5.9474   -0.8571    3.2338 C   0  0  0  0  0  0  0  0  0  0  0  0
    7.2304   -0.5965    2.5876 C   0  0  0  0  0  0  0  0  0  0  0  0
    8.3457   -1.0651    2.9414 O   0  0  0  0  0  0  0  0  0  0  0  0
    6.9820    0.1731    1.3767 C   0  0  0  0  0  0  0  0  0  0  0  0
    7.8969    0.4691    0.3359 C   0  0  0  0  0  0  0  0  0  0  0  0
    7.3087    1.0580   -0.7706 C   0  0  0  0  0  0  0  0  0  0  0  0
    5.9061    1.3254   -0.8671 C   0  0  0  0  0  0  0  0  0  0  0  0
    5.0122    1.0577    0.1551 C   0  0  0  0  0  0  0  0  0  0  0  0
    5.5996    0.4799    1.3108 C   0  0  0  0  0  0  0  0  0  0  0  0
    4.9430   -0.0135    2.5365 C   0  0  0  0  0  0  0  0  0  0  0  0
    3.8050    0.4648    3.0940 C   0  0  0  0  0  0  0  0  0  0  0  0
    3.4789    0.2004    4.4727 C   0  0  0  0  0  0  0  0  0  0  0  0
    3.2210   -0.0002    5.5818 N   0  0  0  0  0  0  0  0  0  0  0  0
    2.9269    1.3774    2.4020 C   0  0  0  0  0  0  0  0  0  0  0  0
    2.2174    2.1144    1.8610 N   0  0  0  0  0  0  0  0  0  0  0  0
    6.0748    1.8258   -2.2706 C   0  0  0  0  0  0  0  0  0  0  0  0
    5.9962    3.3621   -2.5068 C   0  0  0  0  0  0  0  0  0  0  0  0
    6.4954    4.0981   -1.2878 C   0  0  0  0  0  0  0  0  0  0  0  0
    7.8064    3.8602   -1.2065 C   0  0  0  0  0  0  0  0  0  0  0  0
    8.1539    2.9623   -2.3683 C   0  0  0  0  0  0  0  0  0  0  0  0
    7.2113    3.5454   -3.4031 C   0  0  0  0  0  0  0  0  0  0  0  0
    7.5120    1.5588   -2.1714 C   0  0  0  0  0  0  0  0  0  0  0  0
    4.4208   -2.7074    3.7536 C   0  0  0  0  0  0  0  0  0  0  0  0
    3.5220   -3.1031    4.7424 C   0  0  0  0  0  0  0  0  0  0  0  0
    2.2770   -3.5111    4.2207 C   0  0  0  0  0  0  0  0  0  0  0  0
    0.8952   -3.9721    5.2685 S   0  0  0  0  0  0  0  0  0  0  0  0
    0.6765   -2.3498    6.0978 C   0  0  0  0  0  0  0  0  0  0  0  0
    0.1549   -1.2685    5.1608 C   0  0  0  0  0  0  0  0  0  0  0  0
    2.2357   -3.5327    2.8203 C   0  0  0  0  0  0  0  0  0  0  0  0
    3.7121   -2.9687    2.2675 S   0  0  0  0  0  0  0  0  0  0  0  0
    1.0695   -3.6682    1.9323 C   0  0  0  0  0  0  0  0  0  0  0  0
    1.1519   -3.9380    0.5519 C   0  0  0  0  0  0  0  0  0  0  0  0
    2.1845   -4.7115   -0.0834 N   0  0  0  0  0  0  0  0  0  0  0  0
    1.9067   -6.1178   -0.2458 C   0  0  0  0  0  0  0  0  0  0  0  0
    1.5373   -6.9000    0.8634 C   0  0  0  0  0  0  0  0  0  0  0  0
    1.1203   -8.2211    0.6891 C   0  0  0  0  0  0  0  0  0  0  0  0
    1.0643   -8.7749   -0.5963 C   0  0  0  0  0  0  0  0  0  0  0  0
    0.4447  -10.4390   -0.8292 S   0  0  0  0  0  0  0  0  0  0  0  0
   -1.2908   -9.9034   -0.9711 C   0  0  0  0  0  0  0  0  0  0  0  0
    1.4693   -8.0182   -1.7003 C   0  0  0  0  0  0  0  0  0  0  0  0
    1.8886   -6.6987   -1.5254 C   0  0  0  0  0  0  0  0  0  0  0  0
    3.3168   -4.0797   -0.7259 C   0  0  0  0  0  0  0  0  0  0  0  0
    4.5041   -4.8017   -0.9543 C   0  0  0  0  0  0  0  0  0  0  0  0
    5.6327   -4.1738   -1.4851 C   0  0  0  0  0  0  0  0  0  0  0  0
    5.5976   -2.8135   -1.7959 C   0  0  0  0  0  0  0  0  0  0  0  0
    7.0791   -1.9955   -2.3818 S   0  0  0  0  0  0  0  0  0  0  0  0
    6.7031   -2.2623   -4.1385 C   0  0  0  0  0  0  0  0  0  0  0  0
    4.4207   -2.0865   -1.5970 C   0  0  0  0  0  0  0  0  0  0  0  0
    3.2885   -2.7125   -1.0691 C   0  0  0  0  0  0  0  0  0  0  0  0
    0.0303   -3.4836   -0.1274 C   0  0  0  0  0  0  0  0  0  0  0  0
   -0.2608   -3.1552   -1.7342 S   0  0  0  0  0  0  0  0  0  0  0  0
   -1.6504   -2.2046   -1.4439 C   0  0  0  0  0  0  0  0  0  0  0  0
   -1.9159   -2.2170   -0.0518 C   0  0  0  0  0  0  0  0  0  0  0  0
   -3.2103   -1.9833    0.5458 N   0  0  0  0  0  0  0  0  0  0  0  0
   -3.8016   -3.0692    1.3034 C   0  0  0  0  0  0  0  0  0  0  0  0
   -4.3537   -2.8351    2.5759 C   0  0  0  0  0  0  0  0  0  0  0  0
   -4.8592   -3.8962    3.3315 C   0  0  0  0  0  0  0  0  0  0  0  0
   -4.7961   -5.2046    2.8400 C   0  0  0  0  0  0  0  0  0  0  0  0
   -5.4048   -6.5599    3.8366 S   0  0  0  0  0  0  0  0  0  0  0  0
   -7.0515   -6.5635    3.0659 C   0  0  0  0  0  0  0  0  0  0  0  0
   -4.2445   -5.4486    1.5818 C   0  0  0  0  0  0  0  0  0  0  0  0
   -3.7542   -4.3887    0.8165 C   0  0  0  0  0  0  0  0  0  0  0  0
   -3.8453   -0.6898    0.5403 C   0  0  0  0  0  0  0  0  0  0  0  0
   -3.1013    0.4824    0.7437 C   0  0  0  0  0  0  0  0  0  0  0  0
   -3.7514    1.7163    0.8783 C   0  0  0  0  0  0  0  0  0  0  0  0
   -5.1477    1.7861    0.8081 C   0  0  0  0  0  0  0  0  0  0  0  0
   -6.0045    3.3383    1.0931 S   0  0  0  0  0  0  0  0  0  0  0  0
   -6.1889    3.7252   -0.6708 C   0  0  0  0  0  0  0  0  0  0  0  0
   -5.8903    0.6243    0.5806 C   0  0  0  0  0  0  0  0  0  0  0  0
   -5.2477   -0.6026    0.4380 C   0  0  0  0  0  0  0  0  0  0  0  0
   -0.9218   -2.9111    0.6348 C   0  0  0  0  0  0  0  0  0  0  0  0
   -0.4258   -2.9050    2.2309 S   0  0  0  0  0  0  0  0  0  0  0  0
   -1.9032   -1.0401   -2.3096 C   0  0  0  0  0  0  0  0  0  0  0  0
   -0.8823   -0.2553   -2.8391 C   0  0  0  0  0  0  0  0  0  0  0  0
   -1.3294    0.9189   -3.4423 C   0  0  0  0  0  0  0  0  0  0  0  0
   -0.1928    2.1456   -4.1067 S   0  0  0  0  0  0  0  0  0  0  0  0
   -0.1897    1.4616   -5.7925 C   0  0  0  0  0  0  0  0  0  0  0  0
    0.8454    0.3513   -5.9241 C   0  0  0  0  0  0  0  0  0  0  0  0
   -2.7083    1.0783   -3.3744 C   0  0  0  0  0  0  0  0  0  0  0  0
   -3.3705   -0.2647   -2.5951 S   0  0  0  0  0  0  0  0  0  0  0  0
   -3.4606    2.2573   -3.8111 C   0  0  0  0  0  0  0  0  0  0  0  0
   -3.3917    3.4456   -3.1820 C   0  0  0  0  0  0  0  0  0  0  0  0
   -2.5257    3.7679   -2.0388 C   0  0  0  0  0  0  0  0  0  0  0  0
   -1.8518    2.9577   -1.3529 O   0  0  0  0  0  0  0  0  0  0  0  0
   -2.5770    5.1942   -1.8048 C   0  0  0  0  0  0  0  0  0  0  0  0
   -1.9225    5.9164   -0.7762 C   0  0  0  0  0  0  0  0  0  0  0  0
   -2.1940    7.2750   -0.7805 C   0  0  0  0  0  0  0  0  0  0  0  0
   -3.0338    7.8930   -1.7623 C   0  0  0  0  0  0  0  0  0  0  0  0
   -3.6683    7.1967   -2.7768 C   0  0  0  0  0  0  0  0  0  0  0  0
   -3.4502    5.7861   -2.7512 C   0  0  0  0  0  0  0  0  0  0  0  0
   -4.0836    4.7124   -3.5682 C   0  0  0  0  0  0  0  0  0  0  0  0
   -5.2483    4.8200   -4.2691 C   0  0  0  0  0  0  0  0  0  0  0  0
   -5.9825    3.6683   -4.7244 C   0  0  0  0  0  0  0  0  0  0  0  0
   -6.5902    2.7499   -5.0835 N   0  0  0  0  0  0  0  0  0  0  0  0
   -5.9309    6.0730   -4.4613 C   0  0  0  0  0  0  0  0  0  0  0  0
   -6.5041    7.0648   -4.6307 N   0  0  0  0  0  0  0  0  0  0  0  0
   -2.8544    9.2277   -1.1105 C   0  0  0  0  0  0  0  0  0  0  0  0
   -4.0438    9.7868   -0.2810 C   0  0  0  0  0  0  0  0  0  0  0  0
   -4.8457    8.6463    0.3101 C   0  0  0  0  0  0  0  0  0  0  0  0
   -4.0660    8.0739    1.2306 C   0  0  0  0  0  0  0  0  0  0  0  0
   -2.7628    8.8419    1.2354 C   0  0  0  0  0  0  0  0  0  0  0  0
   -3.3115   10.2306    0.9716 C   0  0  0  0  0  0  0  0  0  0  0  0
   -1.9983    8.5994   -0.0979 C   0  0  0  0  0  0  0  0  0  0  0  0
    6.5195   -2.5376    4.3638 H   0  0  0  0  0  0  0  0  0  0  0  0
    8.9458    0.2141    0.3765 H   0  0  0  0  0  0  0  0  0  0  0  0
    3.9557    1.2222    0.0203 H   0  0  0  0  0  0  0  0  0  0  0  0
    5.5547    1.2036   -3.0267 H   0  0  0  0  0  0  0  0  0  0  0  0
    5.0357    3.7320   -2.9308 H   0  0  0  0  0  0  0  0  0  0  0  0
    5.9364    4.7729   -0.6451 H   0  0  0  0  0  0  0  0  0  0  0  0
    8.4837    4.2956   -0.4804 H   0  0  0  0  0  0  0  0  0  0  0  0
    9.2262    2.9551   -2.6491 H   0  0  0  0  0  0  0  0  0  0  0  0
    7.4253    4.6150   -3.6600 H   0  0  0  0  0  0  0  0  0  0  0  0
    7.1735    2.9416   -4.3407 H   0  0  0  0  0  0  0  0  0  0  0  0
    7.8787    0.7807   -2.8811 H   0  0  0  0  0  0  0  0  0  0  0  0
    3.7263   -3.0072    5.8027 H   0  0  0  0  0  0  0  0  0  0  0  0
    1.6266   -2.0385    6.5565 H   0  0  0  0  0  0  0  0  0  0  0  0
   -0.0607   -2.4743    6.9188 H   0  0  0  0  0  0  0  0  0  0  0  0
    0.8375   -1.1449    4.2912 H   0  0  0  0  0  0  0  0  0  0  0  0
    0.1048   -0.2979    5.7048 H   0  0  0  0  0  0  0  0  0  0  0  0
   -0.8594   -1.5283    4.7996 H   0  0  0  0  0  0  0  0  0  0  0  0
    1.5389   -6.4787    1.8592 H   0  0  0  0  0  0  0  0  0  0  0  0
    0.7991   -8.7973    1.5477 H   0  0  0  0  0  0  0  0  0  0  0  0
   -1.6032   -9.3875   -0.0373 H   0  0  0  0  0  0  0  0  0  0  0  0
   -1.4150   -9.2190   -1.8369 H   0  0  0  0  0  0  0  0  0  0  0  0
   -1.9369  -10.7947   -1.1229 H   0  0  0  0  0  0  0  0  0  0  0  0
    1.4242   -8.4417   -2.6935 H   0  0  0  0  0  0  0  0  0  0  0  0
    2.1514   -6.1057   -2.3911 H   0  0  0  0  0  0  0  0  0  0  0  0
    4.5697   -5.8469   -0.6800 H   0  0  0  0  0  0  0  0  0  0  0  0
    6.5378   -4.7432   -1.6310 H   0  0  0  0  0  0  0  0  0  0  0  0
    7.5128   -1.8159   -4.7433 H   0  0  0  0  0  0  0  0  0  0  0  0
    6.6376   -3.3531   -4.3631 H   0  0  0  0  0  0  0  0  0  0  0  0
    5.7418   -1.7649   -4.3887 H   0  0  0  0  0  0  0  0  0  0  0  0
    4.3817   -1.0350   -1.8514 H   0  0  0  0  0  0  0  0  0  0  0  0
    2.4014   -2.1144   -0.9037 H   0  0  0  0  0  0  0  0  0  0  0  0
   -4.3777   -1.8334    2.9887 H   0  0  0  0  0  0  0  0  0  0  0  0
   -5.2809   -3.7029    4.3124 H   0  0  0  0  0  0  0  0  0  0  0  0
   -7.7136   -7.2683    3.6057 H   0  0  0  0  0  0  0  0  0  0  0  0
   -7.5073   -5.5533    3.1094 H   0  0  0  0  0  0  0  0  0  0  0  0
   -6.9581   -6.8972    2.0139 H   0  0  0  0  0  0  0  0  0  0  0  0
   -4.1810   -6.4582    1.2011 H   0  0  0  0  0  0  0  0  0  0  0  0
   -3.3260   -4.5942   -0.1511 H   0  0  0  0  0  0  0  0  0  0  0  0
   -2.0240    0.4387    0.8335 H   0  0  0  0  0  0  0  0  0  0  0  0
   -3.1716    2.6095    1.0598 H   0  0  0  0  0  0  0  0  0  0  0  0
   -6.8641    4.6010   -0.7753 H   0  0  0  0  0  0  0  0  0  0  0  0
   -6.6136    2.8633   -1.2277 H   0  0  0  0  0  0  0  0  0  0  0  0
   -5.1908    3.9866   -1.0773 H   0  0  0  0  0  0  0  0  0  0  0  0
   -6.9674    0.6639    0.5313 H   0  0  0  0  0  0  0  0  0  0  0  0
   -5.8408   -1.4948    0.2706 H   0  0  0  0  0  0  0  0  0  0  0  0
    0.1724   -0.4974   -2.7387 H   0  0  0  0  0  0  0  0  0  0  0  0
    0.0760    2.2841   -6.4889 H   0  0  0  0  0  0  0  0  0  0  0  0
   -1.1943    1.0916   -6.0801 H   0  0  0  0  0  0  0  0  0  0  0  0
    0.5608   -0.5194   -5.3027 H   0  0  0  0  0  0  0  0  0  0  0  0
    0.9061    0.0203   -6.9820 H   0  0  0  0  0  0  0  0  0  0  0  0
    1.8476    0.7184   -5.6132 H   0  0  0  0  0  0  0  0  0  0  0  0
   -4.0535    2.1225   -4.7007 H   0  0  0  0  0  0  0  0  0  0  0  0
   -1.2873    5.4545   -0.0298 H   0  0  0  0  0  0  0  0  0  0  0  0
   -4.2710    7.7181   -3.5043 H   0  0  0  0  0  0  0  0  0  0  0  0
   -2.3235    9.9753   -1.7357 H   0  0  0  0  0  0  0  0  0  0  0  0
   -4.6519   10.5675   -0.7816 H   0  0  0  0  0  0  0  0  0  0  0  0
   -5.8738    8.3718    0.0889 H   0  0  0  0  0  0  0  0  0  0  0  0
   -4.3498    7.2577    1.8855 H   0  0  0  0  0  0  0  0  0  0  0  0
   -2.1591    8.7412    2.1630 H   0  0  0  0  0  0  0  0  0  0  0  0
   -3.9905   10.6061    1.7787 H   0  0  0  0  0  0  0  0  0  0  0  0
   -2.5195   10.9991    0.7755 H   0  0  0  0  0  0  0  0  0  0  0  0
   -0.9469    8.9676   -0.1147 H   0  0  0  0  0  0  0  0  0  0  0  0
  1  2  2  3
  2  3  1  0
  3  4  2  0
  3  5  1  0
  5  6  2  0
  6  7  1  0
  7  8  2  0
  8  9  1  0
  9 10  2  0
 10 11  1  0
 11 12  2  3
 12 13  1  0
 13 14  3  0
 12 15  1  0
 15 16  3  0
  8 17  1  0
 17 18  1  0
 18 19  1  0
 19 20  2  0
 20 21  1  0
 21 22  1  0
 21 23  1  0
  1 24  1  0
 24 25  2  0
 25 26  1  0
 26 27  1  0
 27 28  1  0
 28 29  1  0
 26 30  2  0
 30 31  1  0
 30 32  1  0
 32 33  2  0
 33 34  1  0
 34 35  1  0
 35 36  2  0
 36 37  1  0
 37 38  2  0
 38 39  1  0
 39 40  1  0
 38 41  1  0
 41 42  2  0
 34 43  1  0
 43 44  2  0
 44 45  1  0
 45 46  2  0
 46 47  1  0
 47 48  1  0
 46 49  1  0
 49 50  2  0
 33 51  1  0
 51 52  1  0
 52 53  1  0
 53 54  2  0
 54 55  1  0
 55 56  1  0
 56 57  2  0
 57 58  1  0
 58 59  2  0
 59 60  1  0
 60 61  1  0
 59 62  1  0
 62 63  2  0
 55 64  1  0
 64 65  2  0
 65 66  1  0
 66 67  2  0
 67 68  1  0
 68 69  1  0
 67 70  1  0
 70 71  2  0
 54 72  1  0
 72 73  1  0
 53 74  1  0
 74 75  2  0
 75 76  1  0
 76 77  1  0
 77 78  1  0
 78 79  1  0
 76 80  2  0
 80 81  1  0
 80 82  1  0
 82 83  2  3
 83 84  1  0
 84 85  2  0
 84 86  1  0
 86 87  2  0
 87 88  1  0
 88 89  2  0
 89 90  1  0
 90 91  2  0
 91 92  1  0
 92 93  2  3
 93 94  1  0
 94 95  3  0
 93 96  1  0
 96 97  3  0
 89 98  1  0
 98 99  1  0
 99100  1  0
100101  2  0
101102  1  0
102103  1  0
102104  1  0
 11  2  1  0
 23 17  1  0
 31 24  1  0
 73 32  1  0
 81 74  1  0
 92 83  1  0
104 98  1  0
 10  5  1  0
 22 18  1  0
 42 35  1  0
 50 43  1  0
 72 51  2  0
 91 86  1  0
103 99  1  0
 23  7  1  0
 63 56  1  0
 71 64  1  0
104 88  1  0
  1105  1  0
  6106  1  0
  9107  1  0
 17108  1  0
 18109  1  0
 19110  1  0
 20111  1  0
 21112  1  0
 22113  1  0
 22114  1  0
 23115  1  0
 25116  1  0
 28117  1  0
 28118  1  0
 29119  1  0
 29120  1  0
 29121  1  0
 36122  1  0
 37123  1  0
 40124  1  0
 40125  1  0
 40126  1  0
 41127  1  0
 42128  1  0
 44129  1  0
 45130  1  0
 48131  1  0
 48132  1  0
 48133  1  0
 49134  1  0
 50135  1  0
 57136  1  0
 58137  1  0
 61138  1  0
 61139  1  0
 61140  1  0
 62141  1  0
 63142  1  0
 65143  1  0
 66144  1  0
 69145  1  0
 69146  1  0
 69147  1  0
 70148  1  0
 71149  1  0
 75150  1  0
 78151  1  0
 78152  1  0
 79153  1  0
 79154  1  0
 79155  1  0
 82156  1  0
 87157  1  0
 90158  1  0
 98159  1  0
 99160  1  0
100161  1  0
101162  1  0
102163  1  0
103164  1  0
103165  1  0
104166  1  0
M  END

