
     RDKit          3D

222247  0  0  0  0  0  0  0  0999 V2000
   -6.2741   -3.7923    1.1312 C   0  0  0  0  0  0  0  0  0  0  0  0
   -5.3750   -3.7032    2.1360 C   0  0  0  0  0  0  0  0  0  0  0  0
   -4.5639   -2.5144    2.4617 C   0  0  0  0  0  0  0  0  0  0  0  0
   -4.3110   -1.5442    1.6991 O   0  0  0  0  0  0  0  0  0  0  0  0
   -4.0685   -2.6524    3.8092 C   0  0  0  0  0  0  0  0  0  0  0  0
   -3.4068   -1.6669    4.5734 C   0  0  0  0  0  0  0  0  0  0  0  0
   -3.2175   -2.0186    5.8946 C   0  0  0  0  0  0  0  0  0  0  0  0
   -3.6560   -3.2650    6.4445 C   0  0  0  0  0  0  0  0  0  0  0  0
   -4.2933   -4.2415    5.6962 C   0  0  0  0  0  0  0  0  0  0  0  0
   -4.4749   -3.9092    4.3223 C   0  0  0  0  0  0  0  0  0  0  0  0
   -5.1685   -4.6745    3.2492 C   0  0  0  0  0  0  0  0  0  0  0  0
   -5.3124   -6.0224    3.1927 C   0  0  0  0  0  0  0  0  0  0  0  0
   -5.7502   -6.6958    1.9985 C   0  0  0  0  0  0  0  0  0  0  0  0
   -6.0904   -7.2455    1.0383 N   0  0  0  0  0  0  0  0  0  0  0  0
   -4.8291   -6.8880    4.2414 C   0  0  0  0  0  0  0  0  0  0  0  0
   -4.4227   -7.5923    5.0627 N   0  0  0  0  0  0  0  0  0  0  0  0
   -3.1917   -2.8472    7.8072 C   0  0  0  0  0  0  0  0  0  0  0  0
   -4.2773   -2.4148    8.8428 C   0  0  0  0  0  0  0  0  0  0  0  0
   -5.4625   -1.8004    8.1344 C   0  0  0  0  0  0  0  0  0  0  0  0
   -5.0397   -0.6429    7.6238 C   0  0  0  0  0  0  0  0  0  0  0  0
   -3.5788   -0.5095    7.9999 C   0  0  0  0  0  0  0  0  0  0  0  0
   -3.6325   -1.1473    9.3782 C   0  0  0  0  0  0  0  0  0  0  0  0
   -2.7303   -1.5746    7.2419 C   0  0  0  0  0  0  0  0  0  0  0  0
   -6.5215   -2.6771    0.2113 C   0  0  0  0  0  0  0  0  0  0  0  0
   -6.9802   -1.4295    0.6227 C   0  0  0  0  0  0  0  0  0  0  0  0
   -6.6402   -0.3932   -0.2628 C   0  0  0  0  0  0  0  0  0  0  0  0
   -6.7697    0.9886    0.0058 C   0  0  0  0  0  0  0  0  0  0  0  0
   -7.6053    1.4761    1.1266 C   0  0  0  0  0  0  0  0  0  0  0  0
   -7.1226    2.5043    2.3691 S   0  0  0  0  0  0  0  0  0  0  0  0
   -8.5548    2.4352    3.2537 C   0  0  0  0  0  0  0  0  0  0  0  0
   -8.7421    3.0375    4.6176 C   0  0  0  0  0  0  0  0  0  0  0  0
  -10.0924    3.7295    4.7714 C   0  0  0  0  0  0  0  0  0  0  0  0
   -9.4202    1.5620    2.5963 C   0  0  0  0  0  0  0  0  0  0  0  0
  -10.6313    1.1896    3.0784 F   0  0  0  0  0  0  0  0  0  0  0  0
   -8.8984    1.0416    1.4104 C   0  0  0  0  0  0  0  0  0  0  0  0
   -9.5849    0.1729    0.6266 F   0  0  0  0  0  0  0  0  0  0  0  0
   -6.0184    1.8542   -0.8101 C   0  0  0  0  0  0  0  0  0  0  0  0
   -5.3081    1.4010   -1.9248 C   0  0  0  0  0  0  0  0  0  0  0  0
   -5.3257    0.0393   -2.2894 C   0  0  0  0  0  0  0  0  0  0  0  0
   -4.7174   -0.4283   -3.5530 C   0  0  0  0  0  0  0  0  0  0  0  0
   -3.6786   -1.7422   -3.7552 S   0  0  0  0  0  0  0  0  0  0  0  0
   -3.5558   -1.6270   -5.4322 C   0  0  0  0  0  0  0  0  0  0  0  0
   -2.8205   -2.5887   -6.3181 C   0  0  0  0  0  0  0  0  0  0  0  0
   -1.3609   -2.7429   -5.8959 C   0  0  0  0  0  0  0  0  0  0  0  0
   -4.3563   -0.5676   -5.8554 C   0  0  0  0  0  0  0  0  0  0  0  0
   -4.9960    0.1019   -4.8113 C   0  0  0  0  0  0  0  0  0  0  0  0
   -5.8564    1.1358   -5.0099 F   0  0  0  0  0  0  0  0  0  0  0  0
   -4.5423   -0.2460   -7.1614 F   0  0  0  0  0  0  0  0  0  0  0  0
   -5.9365   -0.8422   -1.3842 C   0  0  0  0  0  0  0  0  0  0  0  0
   -5.7494   -2.5129   -1.2709 S   0  0  0  0  0  0  0  0  0  0  0  0
   -4.4465    2.3704   -2.4606 C   0  0  0  0  0  0  0  0  0  0  0  0
   -4.4269    3.5728   -1.7471 C   0  0  0  0  0  0  0  0  0  0  0  0
   -5.5653    3.4429   -0.5057 S   0  0  0  0  0  0  0  0  0  0  0  0
   -3.2507    4.4753   -1.7784 C   0  0  0  0  0  0  0  0  0  0  0  0
   -2.3119    4.5289   -0.7138 C   0  0  0  0  0  0  0  0  0  0  0  0
   -2.6537    4.6718    0.6912 N   0  0  0  0  0  0  0  0  0  0  0  0
   -3.8041    5.4338    1.1050 C   0  0  0  0  0  0  0  0  0  0  0  0
   -4.2146    6.5775    0.3936 C   0  0  0  0  0  0  0  0  0  0  0  0
   -5.3861    7.2467    0.7539 C   0  0  0  0  0  0  0  0  0  0  0  0
   -6.1472    6.7956    1.8365 C   0  0  0  0  0  0  0  0  0  0  0  0
   -7.6867    7.6121    2.2584 S   0  0  0  0  0  0  0  0  0  0  0  0
   -8.6907    6.4952    1.2285 C   0  0  0  0  0  0  0  0  0  0  0  0
   -5.7090    5.7029    2.5918 C   0  0  0  0  0  0  0  0  0  0  0  0
   -4.5428    5.0292    2.2331 C   0  0  0  0  0  0  0  0  0  0  0  0
   -1.6741    4.3865    1.7065 C   0  0  0  0  0  0  0  0  0  0  0  0
   -1.3378    3.0626    2.0215 C   0  0  0  0  0  0  0  0  0  0  0  0
   -0.3278    2.8000    2.9522 C   0  0  0  0  0  0  0  0  0  0  0  0
    0.3439    3.8526    3.5819 C   0  0  0  0  0  0  0  0  0  0  0  0
    1.6815    3.5065    4.7267 S   0  0  0  0  0  0  0  0  0  0  0  0
    2.9583    3.5438    3.4286 C   0  0  0  0  0  0  0  0  0  0  0  0
   -0.0187    5.1755    3.3032 C   0  0  0  0  0  0  0  0  0  0  0  0
   -1.0210    5.4428    2.3661 C   0  0  0  0  0  0  0  0  0  0  0  0
   -0.9926    4.5125   -1.1993 C   0  0  0  0  0  0  0  0  0  0  0  0
    0.4290    3.8960   -0.5615 S   0  0  0  0  0  0  0  0  0  0  0  0
    1.2441    3.7264   -2.0382 C   0  0  0  0  0  0  0  0  0  0  0  0
    0.3830    4.1586   -3.0584 C   0  0  0  0  0  0  0  0  0  0  0  0
    0.7432    4.1884   -4.4535 N   0  0  0  0  0  0  0  0  0  0  0  0
   -0.1816    3.7486   -5.4632 C   0  0  0  0  0  0  0  0  0  0  0  0
   -0.5081    4.5947   -6.5378 C   0  0  0  0  0  0  0  0  0  0  0  0
   -1.4748    4.2072   -7.4709 C   0  0  0  0  0  0  0  0  0  0  0  0
   -2.1177    2.9739   -7.3401 C   0  0  0  0  0  0  0  0  0  0  0  0
   -3.4024    2.5125   -8.5046 S   0  0  0  0  0  0  0  0  0  0  0  0
   -4.7230    3.2923   -7.5267 C   0  0  0  0  0  0  0  0  0  0  0  0
   -1.7745    2.1135   -6.2916 C   0  0  0  0  0  0  0  0  0  0  0  0
   -0.8160    2.5006   -5.3495 C   0  0  0  0  0  0  0  0  0  0  0  0
    1.9806    4.8222   -4.8335 C   0  0  0  0  0  0  0  0  0  0  0  0
    2.4146    5.9840   -4.1673 C   0  0  0  0  0  0  0  0  0  0  0  0
    3.6657    6.5325   -4.4480 C   0  0  0  0  0  0  0  0  0  0  0  0
    4.5002    5.9254   -5.3906 C   0  0  0  0  0  0  0  0  0  0  0  0
    6.1696    6.5285   -5.6186 S   0  0  0  0  0  0  0  0  0  0  0  0
    6.8146    5.5068   -4.2601 C   0  0  0  0  0  0  0  0  0  0  0  0
    4.0551    4.8036   -6.0998 C   0  0  0  0  0  0  0  0  0  0  0  0
    2.7971    4.2566   -5.8242 C   0  0  0  0  0  0  0  0  0  0  0  0
   -0.8581    4.5679   -2.5540 C   0  0  0  0  0  0  0  0  0  0  0  0
   -2.3782    4.6027   -3.2398 S   0  0  0  0  0  0  0  0  0  0  0  0
    2.2396    2.6626   -2.2249 C   0  0  0  0  0  0  0  0  0  0  0  0
    1.9901    1.3266   -1.9191 C   0  0  0  0  0  0  0  0  0  0  0  0
    3.1129    0.5073   -2.0890 C   0  0  0  0  0  0  0  0  0  0  0  0
    3.1782   -0.8719   -1.8101 C   0  0  0  0  0  0  0  0  0  0  0  0
    2.0005   -1.6479   -1.3777 C   0  0  0  0  0  0  0  0  0  0  0  0
    1.8849   -2.5307    0.0525 S   0  0  0  0  0  0  0  0  0  0  0  0
    0.3665   -3.1831   -0.2573 C   0  0  0  0  0  0  0  0  0  0  0  0
   -0.3670   -4.1223    0.6512 C   0  0  0  0  0  0  0  0  0  0  0  0
   -1.6212   -3.4727    1.2196 C   0  0  0  0  0  0  0  0  0  0  0  0
   -0.0723   -2.7116   -1.4915 C   0  0  0  0  0  0  0  0  0  0  0  0
   -1.2540   -3.0726   -2.0474 F   0  0  0  0  0  0  0  0  0  0  0  0
    0.8391   -1.8520   -2.1174 C   0  0  0  0  0  0  0  0  0  0  0  0
    0.6212   -1.3051   -3.3406 F   0  0  0  0  0  0  0  0  0  0  0  0
    4.4385   -1.4766   -1.9287 C   0  0  0  0  0  0  0  0  0  0  0  0
    5.5797   -0.7824   -2.3407 C   0  0  0  0  0  0  0  0  0  0  0  0
    5.4962    0.5838   -2.6800 C   0  0  0  0  0  0  0  0  0  0  0  0
    6.6527    1.3186   -3.2019 C   0  0  0  0  0  0  0  0  0  0  0  0
    7.2733    1.1366   -4.7566 S   0  0  0  0  0  0  0  0  0  0  0  0
    8.5519    2.2132   -4.5505 C   0  0  0  0  0  0  0  0  0  0  0  0
    9.5656    2.5523   -5.5980 C   0  0  0  0  0  0  0  0  0  0  0  0
   10.6678    1.5016   -5.6414 C   0  0  0  0  0  0  0  0  0  0  0  0
    8.5197    2.7024   -3.2439 C   0  0  0  0  0  0  0  0  0  0  0  0
    7.4497    2.2086   -2.4939 C   0  0  0  0  0  0  0  0  0  0  0  0
    7.2159    2.5599   -1.2049 F   0  0  0  0  0  0  0  0  0  0  0  0
    9.4296    3.5802   -2.7504 F   0  0  0  0  0  0  0  0  0  0  0  0
    4.2471    1.2089   -2.5145 C   0  0  0  0  0  0  0  0  0  0  0  0
    3.8513    2.8421   -2.7044 S   0  0  0  0  0  0  0  0  0  0  0  0
    6.7465   -1.5705   -2.3148 C   0  0  0  0  0  0  0  0  0  0  0  0
    6.5114   -2.8644   -1.8502 C   0  0  0  0  0  0  0  0  0  0  0  0
    4.8600   -3.0633   -1.5697 S   0  0  0  0  0  0  0  0  0  0  0  0
    7.5345   -3.9140   -1.6800 C   0  0  0  0  0  0  0  0  0  0  0  0
    7.5996   -4.7161   -0.5939 C   0  0  0  0  0  0  0  0  0  0  0  0
    6.9753   -4.4302    0.7123 C   0  0  0  0  0  0  0  0  0  0  0  0
    6.2507   -3.4415    0.9983 O   0  0  0  0  0  0  0  0  0  0  0  0
    7.4766   -5.3779    1.6848 C   0  0  0  0  0  0  0  0  0  0  0  0
    7.1628   -5.4185    3.0647 C   0  0  0  0  0  0  0  0  0  0  0  0
    7.8591   -6.3824    3.7639 C   0  0  0  0  0  0  0  0  0  0  0  0
    8.8259   -7.2457    3.1593 C   0  0  0  0  0  0  0  0  0  0  0  0
    9.1440   -7.2005    1.8093 C   0  0  0  0  0  0  0  0  0  0  0  0
    8.4053   -6.2436    1.0549 C   0  0  0  0  0  0  0  0  0  0  0  0
    8.4599   -5.9289   -0.4046 C   0  0  0  0  0  0  0  0  0  0  0  0
    8.9586   -6.7312   -1.3824 C   0  0  0  0  0  0  0  0  0  0  0  0
    8.7486   -6.4650   -2.7812 C   0  0  0  0  0  0  0  0  0  0  0  0
    8.5841   -6.2691   -3.9103 N   0  0  0  0  0  0  0  0  0  0  0  0
    9.5904   -7.9916   -1.1082 C   0  0  0  0  0  0  0  0  0  0  0  0
   10.0954   -9.0148   -0.9132 N   0  0  0  0  0  0  0  0  0  0  0  0
    9.1157   -7.8772    4.4905 C   0  0  0  0  0  0  0  0  0  0  0  0
   10.4411   -7.4867    5.2120 C   0  0  0  0  0  0  0  0  0  0  0  0
   10.8303   -6.0709    4.8536 C   0  0  0  0  0  0  0  0  0  0  0  0
    9.9225   -5.2735    5.4170 C   0  0  0  0  0  0  0  0  0  0  0  0
    8.9446   -6.1734    6.1371 C   0  0  0  0  0  0  0  0  0  0  0  0
    9.9114   -7.2434    6.6126 C   0  0  0  0  0  0  0  0  0  0  0  0
    8.1175   -6.9979    5.1052 C   0  0  0  0  0  0  0  0  0  0  0  0
   -6.9054   -4.6581    1.0158 H   0  0  0  0  0  0  0  0  0  0  0  0
   -3.1296   -0.6987    4.1799 H   0  0  0  0  0  0  0  0  0  0  0  0
   -4.6691   -5.1390    6.1595 H   0  0  0  0  0  0  0  0  0  0  0  0
   -2.3741   -3.4769    8.2228 H   0  0  0  0  0  0  0  0  0  0  0  0
   -4.5334   -3.1761    9.6097 H   0  0  0  0  0  0  0  0  0  0  0  0
   -6.4792   -2.1765    8.0989 H   0  0  0  0  0  0  0  0  0  0  0  0
   -5.6546    0.0888    7.1118 H   0  0  0  0  0  0  0  0  0  0  0  0
   -3.1748    0.5261    7.9707 H   0  0  0  0  0  0  0  0  0  0  0  0
   -2.6271   -1.3170    9.8310 H   0  0  0  0  0  0  0  0  0  0  0  0
   -4.2813   -0.5951   10.1010 H   0  0  0  0  0  0  0  0  0  0  0  0
   -1.6280   -1.4297    7.2922 H   0  0  0  0  0  0  0  0  0  0  0  0
   -7.3884   -1.2616    1.6084 H   0  0  0  0  0  0  0  0  0  0  0  0
   -7.9409    3.7867    4.8015 H   0  0  0  0  0  0  0  0  0  0  0  0
   -8.6436    2.2381    5.3800 H   0  0  0  0  0  0  0  0  0  0  0  0
  -10.1545    4.1931    5.7780 H   0  0  0  0  0  0  0  0  0  0  0  0
  -10.2157    4.5213    4.0023 H   0  0  0  0  0  0  0  0  0  0  0  0
  -10.9279    3.0010    4.6915 H   0  0  0  0  0  0  0  0  0  0  0  0
   -2.8512   -2.2359   -7.3725 H   0  0  0  0  0  0  0  0  0  0  0  0
   -3.3222   -3.5799   -6.2698 H   0  0  0  0  0  0  0  0  0  0  0  0
   -0.8323   -1.7663   -5.9616 H   0  0  0  0  0  0  0  0  0  0  0  0
   -0.8550   -3.4672   -6.5676 H   0  0  0  0  0  0  0  0  0  0  0  0
   -1.2895   -3.1278   -4.8549 H   0  0  0  0  0  0  0  0  0  0  0  0
   -3.7312    2.1386   -3.2377 H   0  0  0  0  0  0  0  0  0  0  0  0
   -3.6385    6.9384   -0.4486 H   0  0  0  0  0  0  0  0  0  0  0  0
   -5.7074    8.1126    0.1870 H   0  0  0  0  0  0  0  0  0  0  0  0
   -8.5923    5.4496    1.5899 H   0  0  0  0  0  0  0  0  0  0  0  0
   -8.3658    6.5507    0.1652 H   0  0  0  0  0  0  0  0  0  0  0  0
   -9.7552    6.7993    1.2919 H   0  0  0  0  0  0  0  0  0  0  0  0
   -6.2931    5.3520    3.4326 H   0  0  0  0  0  0  0  0  0  0  0  0
   -4.2424    4.1572    2.7972 H   0  0  0  0  0  0  0  0  0  0  0  0
   -1.8389    2.2431    1.5201 H   0  0  0  0  0  0  0  0  0  0  0  0
   -0.0473    1.7771    3.1604 H   0  0  0  0  0  0  0  0  0  0  0  0
    3.9404    3.2901    3.8787 H   0  0  0  0  0  0  0  0  0  0  0  0
    2.7265    2.8018    2.6329 H   0  0  0  0  0  0  0  0  0  0  0  0
    3.0148    4.5599    2.9848 H   0  0  0  0  0  0  0  0  0  0  0  0
    0.4916    5.9982    3.7856 H   0  0  0  0  0  0  0  0  0  0  0  0
   -1.2763    6.4675    2.1298 H   0  0  0  0  0  0  0  0  0  0  0  0
   -0.0410    5.5683   -6.6280 H   0  0  0  0  0  0  0  0  0  0  0  0
   -1.7418    4.8802   -8.2732 H   0  0  0  0  0  0  0  0  0  0  0  0
   -4.7460    2.8590   -6.5067 H   0  0  0  0  0  0  0  0  0  0  0  0
   -5.6996    3.1120   -8.0221 H   0  0  0  0  0  0  0  0  0  0  0  0
   -4.5503    4.3886   -7.4527 H   0  0  0  0  0  0  0  0  0  0  0  0
   -2.2623    1.1573   -6.1861 H   0  0  0  0  0  0  0  0  0  0  0  0
   -0.5780    1.8396   -4.5238 H   0  0  0  0  0  0  0  0  0  0  0  0
    1.7970    6.4486   -3.4087 H   0  0  0  0  0  0  0  0  0  0  0  0
    4.0067    7.4022   -3.8940 H   0  0  0  0  0  0  0  0  0  0  0  0
    6.3260    5.7784   -3.2987 H   0  0  0  0  0  0  0  0  0  0  0  0
    6.6250    4.4345   -4.4794 H   0  0  0  0  0  0  0  0  0  0  0  0
    7.9071    5.6719   -4.1648 H   0  0  0  0  0  0  0  0  0  0  0  0
    4.6958    4.3262   -6.8297 H   0  0  0  0  0  0  0  0  0  0  0  0
    2.4792    3.3610   -6.3447 H   0  0  0  0  0  0  0  0  0  0  0  0
    1.0302    0.9722   -1.5633 H   0  0  0  0  0  0  0  0  0  0  0  0
    0.2959   -4.4229    1.4897 H   0  0  0  0  0  0  0  0  0  0  0  0
   -0.6466   -5.0365    0.0881 H   0  0  0  0  0  0  0  0  0  0  0  0
   -2.3341   -3.2221    0.4068 H   0  0  0  0  0  0  0  0  0  0  0  0
   -1.3622   -2.5467    1.7745 H   0  0  0  0  0  0  0  0  0  0  0  0
   -2.1205   -4.1774    1.9164 H   0  0  0  0  0  0  0  0  0  0  0  0
   10.0089    3.5472   -5.3861 H   0  0  0  0  0  0  0  0  0  0  0  0
    9.0651    2.5972   -6.5896 H   0  0  0  0  0  0  0  0  0  0  0  0
   11.4146    1.7826   -6.4124 H   0  0  0  0  0  0  0  0  0  0  0  0
   10.2385    0.5099   -5.9009 H   0  0  0  0  0  0  0  0  0  0  0  0
   11.1753    1.4293   -4.6580 H   0  0  0  0  0  0  0  0  0  0  0  0
    7.7349   -1.1986   -2.5670 H   0  0  0  0  0  0  0  0  0  0  0  0
    8.2597   -4.0143   -2.4715 H   0  0  0  0  0  0  0  0  0  0  0  0
    6.4631   -4.7416    3.5379 H   0  0  0  0  0  0  0  0  0  0  0  0
    9.9183   -7.8263    1.4057 H   0  0  0  0  0  0  0  0  0  0  0  0
    8.8512   -8.9574    4.5464 H   0  0  0  0  0  0  0  0  0  0  0  0
   11.2610   -8.2311    5.1363 H   0  0  0  0  0  0  0  0  0  0  0  0
   11.7157   -5.7495    4.3133 H   0  0  0  0  0  0  0  0  0  0  0  0
    9.9431   -4.1898    5.4209 H   0  0  0  0  0  0  0  0  0  0  0  0
    8.3501   -5.6784    6.9321 H   0  0  0  0  0  0  0  0  0  0  0  0
    9.4051   -8.1334    7.0598 H   0  0  0  0  0  0  0  0  0  0  0  0
   10.6833   -6.8598    7.3200 H   0  0  0  0  0  0  0  0  0  0  0  0
    7.2445   -7.5409    5.5299 H   0  0  0  0  0  0  0  0  0  0  0  0
  1  2  2  3
  2  3  1  0
  3  4  2  0
  3  5  1  0
  5  6  2  0
  6  7  1  0
  7  8  2  0
  8  9  1  0
  9 10  2  0
 10 11  1  0
 11 12  2  3
 12 13  1  0
 13 14  3  0
 12 15  1  0
 15 16  3  0
  8 17  1  0
 17 18  1  0
 18 19  1  0
 19 20  2  0
 20 21  1  0
 21 22  1  0
 21 23  1  0
  1 24  1  0
 24 25  2  0
 25 26  1  0
 26 27  2  0
 27 28  1  0
 28 29  1  0
 29 30  1  0
 30 31  1  0
 31 32  1  0
 30 33  2  0
 33 34  1  0
 33 35  1  0
 35 36  1  0
 27 37  1  0
 37 38  2  0
 38 39  1  0
 39 40  1  0
 40 41  1  0
 41 42  1  0
 42 43  1  0
 43 44  1  0
 42 45  2  0
 45 46  1  0
 46 47  1  0
 45 48  1  0
 39 49  2  0
 49 50  1  0
 38 51  1  0
 51 52  2  0
 52 53  1  0
 52 54  1  0
 54 55  2  0
 55 56  1  0
 56 57  1  0
 57 58  2  0
 58 59  1  0
 59 60  2  0
 60 61  1  0
 61 62  1  0
 60 63  1  0
 63 64  2  0
 56 65  1  0
 65 66  2  0
 66 67  1  0
 67 68  2  0
 68 69  1  0
 69 70  1  0
 68 71  1  0
 71 72  2  0
 55 73  1  0
 73 74  1  0
 74 75  1  0
 75 76  2  0
 76 77  1  0
 77 78  1  0
 78 79  2  0
 79 80  1  0
 80 81  2  0
 81 82  1  0
 82 83  1  0
 81 84  1  0
 84 85  2  0
 77 86  1  0
 86 87  2  0
 87 88  1  0
 88 89  2  0
 89 90  1  0
 90 91  1  0
 89 92  1  0
 92 93  2  0
 76 94  1  0
 94 95  1  0
 75 96  1  0
 96 97  2  0
 97 98  1  0
 98 99  2  0
 99100  1  0
100101  1  0
101102  1  0
102103  1  0
103104  1  0
102105  2  0
105106  1  0
105107  1  0
107108  1  0
 99109  1  0
109110  2  0
110111  1  0
111112  1  0
112113  1  0
113114  1  0
114115  1  0
115116  1  0
114117  2  0
117118  1  0
118119  1  0
117120  1  0
111121  2  0
121122  1  0
110123  1  0
123124  2  0
124125  1  0
124126  1  0
126127  2  3
127128  1  0
128129  2  0
128130  1  0
130131  2  0
131132  1  0
132133  2  0
133134  1  0
134135  2  0
135136  1  0
136137  2  3
137138  1  0
138139  3  0
137140  1  0
140141  3  0
133142  1  0
142143  1  0
143144  1  0
144145  2  0
145146  1  0
146147  1  0
146148  1  0
 11  2  1  0
 23 17  1  0
 50 24  1  0
 95 54  1  0
122 96  1  0
136127  1  0
148142  1  0
 10  5  1  0
 22 18  1  0
 49 26  1  0
 64 57  1  0
 72 65  1  0
 94 73  2  0
121 98  1  0
135130  1  0
147143  1  0
 23  7  1  0
 35 28  2  0
 53 37  1  0
 85 78  1  0
 93 86  1  0
107100  2  0
125109  1  0
148132  1  0
 46 40  2  0
118112  2  0
  1149  1  0
  6150  1  0
  9151  1  0
 17152  1  0
 18153  1  0
 19154  1  0
 20155  1  0
 21156  1  0
 22157  1  0
 22158  1  0
 23159  1  0
 25160  1  0
 31161  1  0
 31162  1  0
 32163  1  0
 32164  1  0
 32165  1  0
 43166  1  0
 43167  1  0
 44168  1  0
 44169  1  0
 44170  1  0
 51171  1  0
 58172  1  0
 59173  1  0
 62174  1  0
 62175  1  0
 62176  1  0
 63177  1  0
 64178  1  0
 66179  1  0
 67180  1  0
 70181  1  0
 70182  1  0
 70183  1  0
 71184  1  0
 72185  1  0
 79186  1  0
 80187  1  0
 83188  1  0
 83189  1  0
 83190  1  0
 84191  1  0
 85192  1  0
 87193  1  0
 88194  1  0
 91195  1  0
 91196  1  0
 91197  1  0
 92198  1  0
 93199  1  0
 97200  1  0
103201  1  0
103202  1  0
104203  1  0
104204  1  0
104205  1  0
115206  1  0
115207  1  0
116208  1  0
116209  1  0
116210  1  0
123211  1  0
126212  1  0
131213  1  0
134214  1  0
142215  1  0
143216  1  0
144217  1  0
145218  1  0
146219  1  0
147220  1  0
147221  1  0
148222  1  0
M  END

