
     RDKit          3D

157170  0  0  0  0  0  0  0  0999 V2000
    3.7978   -6.7254   -1.1578 C   0  0  0  0  0  0  0  0  0  0  0  0
    3.9104   -6.0260   -2.3076 C   0  0  0  0  0  0  0  0  0  0  0  0
    5.2184   -5.4865   -2.7007 C   0  0  0  0  0  0  0  0  0  0  0  0
    6.3251   -6.0800   -2.5810 O   0  0  0  0  0  0  0  0  0  0  0  0
    5.0469   -4.1007   -3.1147 C   0  0  0  0  0  0  0  0  0  0  0  0
    6.0545   -3.1193   -3.2737 C   0  0  0  0  0  0  0  0  0  0  0  0
    5.5617   -1.8322   -3.4188 C   0  0  0  0  0  0  0  0  0  0  0  0
    4.1616   -1.5228   -3.4136 C   0  0  0  0  0  0  0  0  0  0  0  0
    3.1717   -2.4787   -3.2702 C   0  0  0  0  0  0  0  0  0  0  0  0
    3.6624   -3.8037   -3.1291 C   0  0  0  0  0  0  0  0  0  0  0  0
    2.9199   -5.0402   -2.8151 C   0  0  0  0  0  0  0  0  0  0  0  0
    1.6671   -5.3547   -3.2148 C   0  0  0  0  0  0  0  0  0  0  0  0
    1.1734   -6.7072   -3.1045 C   0  0  0  0  0  0  0  0  0  0  0  0
    0.7787   -7.7926   -3.0197 N   0  0  0  0  0  0  0  0  0  0  0  0
    0.7727   -4.3844   -3.7833 C   0  0  0  0  0  0  0  0  0  0  0  0
    0.0408   -3.6069   -4.2319 N   0  0  0  0  0  0  0  0  0  0  0  0
    4.4666   -0.0611   -3.5475 C   0  0  0  0  0  0  0  0  0  0  0  0
    4.2250    0.5719   -4.9477 C   0  0  0  0  0  0  0  0  0  0  0  0
    4.9540    1.8940   -4.9312 C   0  0  0  0  0  0  0  0  0  0  0  0
    6.2615    1.6069   -4.9389 C   0  0  0  0  0  0  0  0  0  0  0  0
    6.3699    0.1012   -4.9595 C   0  0  0  0  0  0  0  0  0  0  0  0
    5.1747   -0.2068   -5.8445 C   0  0  0  0  0  0  0  0  0  0  0  0
    5.8987   -0.3770   -3.5555 C   0  0  0  0  0  0  0  0  0  0  0  0
    3.0043   -6.2170   -0.0125 C   0  0  0  0  0  0  0  0  0  0  0  0
    3.5957   -5.8384    1.1885 C   0  0  0  0  0  0  0  0  0  0  0  0
    2.8629   -4.8796    1.9067 C   0  0  0  0  0  0  0  0  0  0  0  0
    3.5360   -4.0772    3.3646 S   0  0  0  0  0  0  0  0  0  0  0  0
    4.7923   -3.0660    2.5034 C   0  0  0  0  0  0  0  0  0  0  0  0
    4.1663   -1.9446    1.6880 C   0  0  0  0  0  0  0  0  0  0  0  0
    1.6303   -4.5617    1.3281 C   0  0  0  0  0  0  0  0  0  0  0  0
    1.5239   -5.4314   -0.0941 S   0  0  0  0  0  0  0  0  0  0  0  0
    0.9065   -3.2954    1.4792 C   0  0  0  0  0  0  0  0  0  0  0  0
   -0.0450   -2.9565    2.4538 C   0  0  0  0  0  0  0  0  0  0  0  0
   -0.4625   -3.8152    3.5222 N   0  0  0  0  0  0  0  0  0  0  0  0
    0.3771   -3.9563    4.6810 C   0  0  0  0  0  0  0  0  0  0  0  0
    0.6369   -5.2296    5.2148 C   0  0  0  0  0  0  0  0  0  0  0  0
    1.4924   -5.3727    6.3103 C   0  0  0  0  0  0  0  0  0  0  0  0
    2.0962   -4.2480    6.8838 C   0  0  0  0  0  0  0  0  0  0  0  0
    3.2308   -4.4434    8.2583 S   0  0  0  0  0  0  0  0  0  0  0  0
    4.6935   -4.5896    7.1846 C   0  0  0  0  0  0  0  0  0  0  0  0
    1.8262   -2.9744    6.3693 C   0  0  0  0  0  0  0  0  0  0  0  0
    0.9740   -2.8278    5.2703 C   0  0  0  0  0  0  0  0  0  0  0  0
   -1.7279   -4.5025    3.4296 C   0  0  0  0  0  0  0  0  0  0  0  0
   -2.1676   -5.0319    2.2029 C   0  0  0  0  0  0  0  0  0  0  0  0
   -3.3939   -5.6956    2.1169 C   0  0  0  0  0  0  0  0  0  0  0  0
   -4.1989   -5.8326    3.2512 C   0  0  0  0  0  0  0  0  0  0  0  0
   -5.7646   -6.7043    3.1440 S   0  0  0  0  0  0  0  0  0  0  0  0
   -6.7259   -5.1960    2.8135 C   0  0  0  0  0  0  0  0  0  0  0  0
   -3.7725   -5.3075    4.4752 C   0  0  0  0  0  0  0  0  0  0  0  0
   -2.5452   -4.6462    4.5650 C   0  0  0  0  0  0  0  0  0  0  0  0
   -0.6410   -1.7312    2.1654 C   0  0  0  0  0  0  0  0  0  0  0  0
   -1.7490   -0.7312    2.9366 S   0  0  0  0  0  0  0  0  0  0  0  0
   -1.6438    0.5050    1.7550 C   0  0  0  0  0  0  0  0  0  0  0  0
   -0.7373    0.1103    0.7559 C   0  0  0  0  0  0  0  0  0  0  0  0
   -0.2439    0.9538   -0.2962 N   0  0  0  0  0  0  0  0  0  0  0  0
   -0.6022    0.6664   -1.6667 C   0  0  0  0  0  0  0  0  0  0  0  0
    0.3260    0.8597   -2.7085 C   0  0  0  0  0  0  0  0  0  0  0  0
   -0.0600    0.6909   -4.0412 C   0  0  0  0  0  0  0  0  0  0  0  0
   -1.3668    0.3033   -4.3526 C   0  0  0  0  0  0  0  0  0  0  0  0
   -1.9007    0.2295   -6.0657 S   0  0  0  0  0  0  0  0  0  0  0  0
   -1.3663   -1.4897   -6.3042 C   0  0  0  0  0  0  0  0  0  0  0  0
   -2.2750    0.0396   -3.3229 C   0  0  0  0  0  0  0  0  0  0  0  0
   -1.8976    0.2186   -1.9875 C   0  0  0  0  0  0  0  0  0  0  0  0
    0.6967    2.0047    0.0267 C   0  0  0  0  0  0  0  0  0  0  0  0
    1.6875    1.8056    1.0060 C   0  0  0  0  0  0  0  0  0  0  0  0
    2.6338    2.7993    1.2682 C   0  0  0  0  0  0  0  0  0  0  0  0
    2.6023    4.0052    0.5604 C   0  0  0  0  0  0  0  0  0  0  0  0
    3.8603    5.2527    0.8493 S   0  0  0  0  0  0  0  0  0  0  0  0
    2.8499    6.1785    2.0422 C   0  0  0  0  0  0  0  0  0  0  0  0
    1.6092    4.2207   -0.4008 C   0  0  0  0  0  0  0  0  0  0  0  0
    0.6555    3.2327   -0.6584 C   0  0  0  0  0  0  0  0  0  0  0  0
   -0.2075   -1.1388    1.0271 C   0  0  0  0  0  0  0  0  0  0  0  0
    0.9471   -2.0823    0.2816 S   0  0  0  0  0  0  0  0  0  0  0  0
   -2.3860    1.7737    1.7947 C   0  0  0  0  0  0  0  0  0  0  0  0
   -2.8575    2.4105    2.9366 C   0  0  0  0  0  0  0  0  0  0  0  0
   -3.4727    3.6430    2.6677 C   0  0  0  0  0  0  0  0  0  0  0  0
   -4.0911    4.7208    3.9645 S   0  0  0  0  0  0  0  0  0  0  0  0
   -2.4464    5.3655    4.4422 C   0  0  0  0  0  0  0  0  0  0  0  0
   -1.9193    6.3735    3.4263 C   0  0  0  0  0  0  0  0  0  0  0  0
   -3.5637    3.9335    1.3066 C   0  0  0  0  0  0  0  0  0  0  0  0
   -2.7865    2.7083    0.4566 S   0  0  0  0  0  0  0  0  0  0  0  0
   -4.0722    5.1769    0.6991 C   0  0  0  0  0  0  0  0  0  0  0  0
   -4.7789    5.2150   -0.4498 C   0  0  0  0  0  0  0  0  0  0  0  0
   -5.4867    4.0396   -1.0019 C   0  0  0  0  0  0  0  0  0  0  0  0
   -5.7736    3.0664   -0.2490 O   0  0  0  0  0  0  0  0  0  0  0  0
   -5.9298    4.0365   -2.3722 N   0  0  0  0  0  0  0  0  0  0  0  0
   -6.5821    2.8243   -2.9033 C   0  0  0  0  0  0  0  0  0  0  0  0
   -5.5379    1.7943   -3.3225 C   0  0  0  0  0  0  0  0  0  0  0  0
   -5.6737    5.1942   -3.2108 C   0  0  0  0  0  0  0  0  0  0  0  0
   -5.8477    5.0779   -4.8492 S   0  0  0  0  0  0  0  0  0  0  0  0
   -5.2292    6.4400   -2.6118 N   0  0  0  0  0  0  0  0  0  0  0  0
   -5.1623    7.6929   -3.3889 C   0  0  0  0  0  0  0  0  0  0  0  0
   -6.5246    8.3794   -3.4167 C   0  0  0  0  0  0  0  0  0  0  0  0
   -4.8943    6.4721   -1.2095 C   0  0  0  0  0  0  0  0  0  0  0  0
   -4.6291    7.5737   -0.6477 O   0  0  0  0  0  0  0  0  0  0  0  0
    4.6531   -7.3251   -0.8727 H   0  0  0  0  0  0  0  0  0  0  0  0
    7.1130   -3.3394   -3.2219 H   0  0  0  0  0  0  0  0  0  0  0  0
    2.1307   -2.2046   -3.2011 H   0  0  0  0  0  0  0  0  0  0  0  0
    4.1309    0.5467   -2.6759 H   0  0  0  0  0  0  0  0  0  0  0  0
    3.1688    0.6156   -5.2834 H   0  0  0  0  0  0  0  0  0  0  0  0
    4.5202    2.8869   -4.9961 H   0  0  0  0  0  0  0  0  0  0  0  0
    7.0705    2.3262   -5.0130 H   0  0  0  0  0  0  0  0  0  0  0  0
    7.3476   -0.2990   -5.3001 H   0  0  0  0  0  0  0  0  0  0  0  0
    4.9382   -1.2908   -5.9299 H   0  0  0  0  0  0  0  0  0  0  0  0
    5.2688    0.2211   -6.8706 H   0  0  0  0  0  0  0  0  0  0  0  0
    6.4634    0.0342   -2.6892 H   0  0  0  0  0  0  0  0  0  0  0  0
    4.6059   -6.1190    1.4578 H   0  0  0  0  0  0  0  0  0  0  0  0
    5.4217   -3.7023    1.8461 H   0  0  0  0  0  0  0  0  0  0  0  0
    5.4505   -2.6182    3.2776 H   0  0  0  0  0  0  0  0  0  0  0  0
    3.3828   -1.4231    2.2773 H   0  0  0  0  0  0  0  0  0  0  0  0
    4.9464   -1.2063    1.4032 H   0  0  0  0  0  0  0  0  0  0  0  0
    3.7336   -2.3586    0.7560 H   0  0  0  0  0  0  0  0  0  0  0  0
    0.1979   -6.1109    4.7649 H   0  0  0  0  0  0  0  0  0  0  0  0
    1.6999   -6.3592    6.7023 H   0  0  0  0  0  0  0  0  0  0  0  0
    4.9270   -3.6023    6.7356 H   0  0  0  0  0  0  0  0  0  0  0  0
    4.5188   -5.3343    6.3809 H   0  0  0  0  0  0  0  0  0  0  0  0
    5.5586   -4.9195    7.7938 H   0  0  0  0  0  0  0  0  0  0  0  0
    2.2873   -2.1000    6.8096 H   0  0  0  0  0  0  0  0  0  0  0  0
    0.7812   -1.8369    4.8772 H   0  0  0  0  0  0  0  0  0  0  0  0
   -1.5530   -4.9440    1.3159 H   0  0  0  0  0  0  0  0  0  0  0  0
   -3.7150   -6.1055    1.1673 H   0  0  0  0  0  0  0  0  0  0  0  0
   -6.6590   -4.5028    3.6777 H   0  0  0  0  0  0  0  0  0  0  0  0
   -6.3483   -4.6925    1.8986 H   0  0  0  0  0  0  0  0  0  0  0  0
   -7.7901   -5.4708    2.6581 H   0  0  0  0  0  0  0  0  0  0  0  0
   -4.3929   -5.4080    5.3571 H   0  0  0  0  0  0  0  0  0  0  0  0
   -2.2383   -4.2310    5.5172 H   0  0  0  0  0  0  0  0  0  0  0  0
    1.3418    1.1647   -2.4914 H   0  0  0  0  0  0  0  0  0  0  0  0
    0.6519    0.8882   -4.8326 H   0  0  0  0  0  0  0  0  0  0  0  0
   -1.9149   -2.1573   -5.6087 H   0  0  0  0  0  0  0  0  0  0  0  0
   -0.2726   -1.5727   -6.1329 H   0  0  0  0  0  0  0  0  0  0  0  0
   -1.5897   -1.7962   -7.3460 H   0  0  0  0  0  0  0  0  0  0  0  0
   -3.2846   -0.2700   -3.5567 H   0  0  0  0  0  0  0  0  0  0  0  0
   -2.6303    0.0493   -1.2092 H   0  0  0  0  0  0  0  0  0  0  0  0
    1.7515    0.8689    1.5436 H   0  0  0  0  0  0  0  0  0  0  0  0
    3.4025    2.6227    2.0097 H   0  0  0  0  0  0  0  0  0  0  0  0
    1.9027    6.5059    1.5678 H   0  0  0  0  0  0  0  0  0  0  0  0
    2.6286    5.5476    2.9266 H   0  0  0  0  0  0  0  0  0  0  0  0
    3.4125    7.0752    2.3705 H   0  0  0  0  0  0  0  0  0  0  0  0
    1.5792    5.1505   -0.9526 H   0  0  0  0  0  0  0  0  0  0  0  0
   -0.1079    3.4188   -1.4034 H   0  0  0  0  0  0  0  0  0  0  0  0
   -2.7121    2.0291    3.9387 H   0  0  0  0  0  0  0  0  0  0  0  0
   -2.5474    5.8695    5.4245 H   0  0  0  0  0  0  0  0  0  0  0  0
   -1.7207    4.5334    4.5601 H   0  0  0  0  0  0  0  0  0  0  0  0
   -1.6678    5.8663    2.4727 H   0  0  0  0  0  0  0  0  0  0  0  0
   -0.9982    6.8510    3.8205 H   0  0  0  0  0  0  0  0  0  0  0  0
   -2.6792    7.1620    3.2392 H   0  0  0  0  0  0  0  0  0  0  0  0
   -3.7266    6.1014    1.1427 H   0  0  0  0  0  0  0  0  0  0  0  0
   -7.2484    2.3767   -2.1354 H   0  0  0  0  0  0  0  0  0  0  0  0
   -7.2422    3.0605   -3.7633 H   0  0  0  0  0  0  0  0  0  0  0  0
   -4.9302    1.4881   -2.4453 H   0  0  0  0  0  0  0  0  0  0  0  0
   -6.0431    0.8951   -3.7339 H   0  0  0  0  0  0  0  0  0  0  0  0
   -4.8675    2.2156   -4.1025 H   0  0  0  0  0  0  0  0  0  0  0  0
   -4.4163    8.3888   -2.9494 H   0  0  0  0  0  0  0  0  0  0  0  0
   -4.8142    7.5059   -4.4248 H   0  0  0  0  0  0  0  0  0  0  0  0
   -6.8531    8.6205   -2.3839 H   0  0  0  0  0  0  0  0  0  0  0  0
   -6.4548    9.3215   -4.0027 H   0  0  0  0  0  0  0  0  0  0  0  0
   -7.2765    7.7156   -3.8928 H   0  0  0  0  0  0  0  0  0  0  0  0
  1  2  2  3
  2  3  1  0
  3  4  2  0
  3  5  1  0
  5  6  2  0
  6  7  1  0
  7  8  2  0
  8  9  1  0
  9 10  2  0
 10 11  1  0
 11 12  2  3
 12 13  1  0
 13 14  3  0
 12 15  1  0
 15 16  3  0
  8 17  1  0
 17 18  1  0
 18 19  1  0
 19 20  2  0
 20 21  1  0
 21 22  1  0
 21 23  1  0
  1 24  1  0
 24 25  2  0
 25 26  1  0
 26 27  1  0
 27 28  1  0
 28 29  1  0
 26 30  2  0
 30 31  1  0
 30 32  1  0
 32 33  2  0
 33 34  1  0
 34 35  1  0
 35 36  2  0
 36 37  1  0
 37 38  2  0
 38 39  1  0
 39 40  1  0
 38 41  1  0
 41 42  2  0
 34 43  1  0
 43 44  2  0
 44 45  1  0
 45 46  2  0
 46 47  1  0
 47 48  1  0
 46 49  1  0
 49 50  2  0
 33 51  1  0
 51 52  1  0
 52 53  1  0
 53 54  2  0
 54 55  1  0
 55 56  1  0
 56 57  2  0
 57 58  1  0
 58 59  2  0
 59 60  1  0
 60 61  1  0
 59 62  1  0
 62 63  2  0
 55 64  1  0
 64 65  2  0
 65 66  1  0
 66 67  2  0
 67 68  1  0
 68 69  1  0
 67 70  1  0
 70 71  2  0
 54 72  1  0
 72 73  1  0
 53 74  1  0
 74 75  2  0
 75 76  1  0
 76 77  1  0
 77 78  1  0
 78 79  1  0
 76 80  2  0
 80 81  1  0
 80 82  1  0
 82 83  2  3
 83 84  1  0
 84 85  2  0
 84 86  1  0
 86 87  1  0
 87 88  1  0
 86 89  1  0
 89 90  2  0
 89 91  1  0
 91 92  1  0
 92 93  1  0
 91 94  1  0
 94 95  2  0
 11  2  1  0
 23 17  1  0
 31 24  1  0
 73 32  1  0
 81 74  1  0
 94 83  1  0
 10  5  1  0
 22 18  1  0
 42 35  1  0
 50 43  1  0
 72 51  2  0
 23  7  1  0
 63 56  1  0
 71 64  1  0
  1 96  1  0
  6 97  1  0
  9 98  1  0
 17 99  1  0
 18100  1  0
 19101  1  0
 20102  1  0
 21103  1  0
 22104  1  0
 22105  1  0
 23106  1  0
 25107  1  0
 28108  1  0
 28109  1  0
 29110  1  0
 29111  1  0
 29112  1  0
 36113  1  0
 37114  1  0
 40115  1  0
 40116  1  0
 40117  1  0
 41118  1  0
 42119  1  0
 44120  1  0
 45121  1  0
 48122  1  0
 48123  1  0
 48124  1  0
 49125  1  0
 50126  1  0
 57127  1  0
 58128  1  0
 61129  1  0
 61130  1  0
 61131  1  0
 62132  1  0
 63133  1  0
 65134  1  0
 66135  1  0
 69136  1  0
 69137  1  0
 69138  1  0
 70139  1  0
 71140  1  0
 75141  1  0
 78142  1  0
 78143  1  0
 79144  1  0
 79145  1  0
 79146  1  0
 82147  1  0
 87148  1  0
 87149  1  0
 88150  1  0
 88151  1  0
 88152  1  0
 92153  1  0
 92154  1  0
 93155  1  0
 93156  1  0
 93157  1  0
M  END

