
     RDKit          3D

177195  0  0  0  0  0  0  0  0999 V2000
   -7.5171    0.7487    4.0197 C   0  0  0  0  0  0  0  0  0  0  0  0
   -7.9365   -0.5186    3.8276 C   0  0  0  0  0  0  0  0  0  0  0  0
   -9.2309   -1.0158    4.3183 C   0  0  0  0  0  0  0  0  0  0  0  0
   -9.9170   -0.5103    5.2464 O   0  0  0  0  0  0  0  0  0  0  0  0
   -9.6224   -2.1556    3.5092 C   0  0  0  0  0  0  0  0  0  0  0  0
  -10.7134   -3.0428    3.6590 C   0  0  0  0  0  0  0  0  0  0  0  0
  -10.7664   -4.0444    2.6996 C   0  0  0  0  0  0  0  0  0  0  0  0
   -9.8635   -4.1107    1.5915 C   0  0  0  0  0  0  0  0  0  0  0  0
   -8.7801   -3.2635    1.4464 C   0  0  0  0  0  0  0  0  0  0  0  0
   -8.6281   -2.3496    2.5219 C   0  0  0  0  0  0  0  0  0  0  0  0
   -7.4367   -1.5298    2.8529 C   0  0  0  0  0  0  0  0  0  0  0  0
   -6.1813   -2.0440    2.8594 C   0  0  0  0  0  0  0  0  0  0  0  0
   -5.9180   -3.3851    2.3603 C   0  0  0  0  0  0  0  0  0  0  0  0
   -5.7215   -4.4938    2.1285 N   0  0  0  0  0  0  0  0  0  0  0  0
   -5.0949   -1.4775    3.6587 C   0  0  0  0  0  0  0  0  0  0  0  0
   -4.2187   -1.0563    4.2891 N   0  0  0  0  0  0  0  0  0  0  0  0
  -10.5705   -5.3043    1.0559 C   0  0  0  0  0  0  0  0  0  0  0  0
   -9.8063   -6.6612    1.1281 C   0  0  0  0  0  0  0  0  0  0  0  0
   -8.8391   -6.6317    2.2798 C   0  0  0  0  0  0  0  0  0  0  0  0
   -9.5900   -6.5878    3.3877 C   0  0  0  0  0  0  0  0  0  0  0  0
  -11.0327   -6.6299    2.9565 C   0  0  0  0  0  0  0  0  0  0  0  0
  -10.8880   -7.5375    1.7412 C   0  0  0  0  0  0  0  0  0  0  0  0
  -11.4224   -5.3055    2.2407 C   0  0  0  0  0  0  0  0  0  0  0  0
   -6.3968    1.3647    3.2922 C   0  0  0  0  0  0  0  0  0  0  0  0
   -5.4455    2.2022    3.8810 C   0  0  0  0  0  0  0  0  0  0  0  0
   -4.3401    2.4699    3.0448 C   0  0  0  0  0  0  0  0  0  0  0  0
   -2.7744    3.1954    3.6052 S   0  0  0  0  0  0  0  0  0  0  0  0
   -3.2844    4.0096    5.1754 C   0  0  0  0  0  0  0  0  0  0  0  0
   -3.1388    3.0349    6.3522 C   0  0  0  0  0  0  0  0  0  0  0  0
   -4.4911    1.9310    1.7528 C   0  0  0  0  0  0  0  0  0  0  0  0
   -5.9460    1.0845    1.6923 S   0  0  0  0  0  0  0  0  0  0  0  0
   -3.4589    1.7848    0.7171 C   0  0  0  0  0  0  0  0  0  0  0  0
   -2.7613    2.9009    0.1886 C   0  0  0  0  0  0  0  0  0  0  0  0
   -2.9491    4.2018    0.6600 O   0  0  0  0  0  0  0  0  0  0  0  0
   -4.1732    4.9367    0.6054 C   0  0  0  0  0  0  0  0  0  0  0  0
   -3.9167    6.3468    1.1187 C   0  0  0  0  0  0  0  0  0  0  0  0
   -1.7453    2.7085   -0.7799 C   0  0  0  0  0  0  0  0  0  0  0  0
   -1.0440    3.8278   -1.2444 O   0  0  0  0  0  0  0  0  0  0  0  0
   -1.3015    4.4493   -2.5094 C   0  0  0  0  0  0  0  0  0  0  0  0
   -2.6240    5.1914   -2.5272 C   0  0  0  0  0  0  0  0  0  0  0  0
   -1.3771    1.3974   -1.1895 C   0  0  0  0  0  0  0  0  0  0  0  0
   -2.0529    0.3136   -0.6524 C   0  0  0  0  0  0  0  0  0  0  0  0
   -3.0873    0.4888    0.3020 C   0  0  0  0  0  0  0  0  0  0  0  0
   -3.6236   -0.6520    0.8197 N   0  0  0  0  0  0  0  0  0  0  0  0
   -2.7629   -1.8021    0.0152 S   0  0  0  0  0  0  0  0  0  0  0  0
   -1.7273   -0.9635   -0.9537 N   0  0  0  0  0  0  0  0  0  0  0  0
   -0.0929    1.1554   -1.8542 C   0  0  0  0  0  0  0  0  0  0  0  0
    1.1033    0.9487   -1.1439 C   0  0  0  0  0  0  0  0  0  0  0  0
    1.2213    0.0143   -0.0604 N   0  0  0  0  0  0  0  0  0  0  0  0
    1.5380    0.5241    1.2350 C   0  0  0  0  0  0  0  0  0  0  0  0
    0.5559    0.6172    2.2282 C   0  0  0  0  0  0  0  0  0  0  0  0
    0.8903    1.0388    3.5183 C   0  0  0  0  0  0  0  0  0  0  0  0
    2.2204    1.3108    3.8473 C   0  0  0  0  0  0  0  0  0  0  0  0
    2.6668    1.7430    5.5205 S   0  0  0  0  0  0  0  0  0  0  0  0
    3.0048    3.4892    5.1115 C   0  0  0  0  0  0  0  0  0  0  0  0
    3.2209    1.1108    2.8802 C   0  0  0  0  0  0  0  0  0  0  0  0
    2.8922    0.6884    1.5869 C   0  0  0  0  0  0  0  0  0  0  0  0
    1.2849   -1.4247   -0.3092 C   0  0  0  0  0  0  0  0  0  0  0  0
    1.4011   -1.9367   -1.6282 C   0  0  0  0  0  0  0  0  0  0  0  0
    1.3509   -3.3147   -1.8756 C   0  0  0  0  0  0  0  0  0  0  0  0
    1.1931   -4.2097   -0.8179 C   0  0  0  0  0  0  0  0  0  0  0  0
    1.0028   -5.9732   -1.1498 S   0  0  0  0  0  0  0  0  0  0  0  0
    2.7800   -6.3480   -1.1920 C   0  0  0  0  0  0  0  0  0  0  0  0
    1.0716   -3.7242    0.4955 C   0  0  0  0  0  0  0  0  0  0  0  0
    1.1291   -2.3524    0.7436 C   0  0  0  0  0  0  0  0  0  0  0  0
    2.1931    1.3068   -1.9418 C   0  0  0  0  0  0  0  0  0  0  0  0
    3.8304    1.4811   -1.6358 S   0  0  0  0  0  0  0  0  0  0  0  0
    4.2375    1.8504   -3.2465 C   0  0  0  0  0  0  0  0  0  0  0  0
    3.0653    1.8251   -4.0477 C   0  0  0  0  0  0  0  0  0  0  0  0
    3.0138    2.0237   -5.4633 N   0  0  0  0  0  0  0  0  0  0  0  0
    2.7570    0.8987   -6.3447 C   0  0  0  0  0  0  0  0  0  0  0  0
    2.9197    1.0129   -7.7482 C   0  0  0  0  0  0  0  0  0  0  0  0
    2.5881   -0.0345   -8.6059 C   0  0  0  0  0  0  0  0  0  0  0  0
    2.1748   -1.2658   -8.0746 C   0  0  0  0  0  0  0  0  0  0  0  0
    1.8403   -2.6638   -9.1720 S   0  0  0  0  0  0  0  0  0  0  0  0
    0.0212   -2.5509   -9.1017 C   0  0  0  0  0  0  0  0  0  0  0  0
    1.9864   -1.3938   -6.7020 C   0  0  0  0  0  0  0  0  0  0  0  0
    2.3368   -0.3544   -5.8380 C   0  0  0  0  0  0  0  0  0  0  0  0
    2.7058    3.3672   -5.8894 C   0  0  0  0  0  0  0  0  0  0  0  0
    1.3851    3.8144   -5.8488 C   0  0  0  0  0  0  0  0  0  0  0  0
    1.0815    5.1820   -5.9401 C   0  0  0  0  0  0  0  0  0  0  0  0
    2.1125    6.1072   -6.1377 C   0  0  0  0  0  0  0  0  0  0  0  0
    1.7085    7.8400   -6.3757 S   0  0  0  0  0  0  0  0  0  0  0  0
    1.2897    8.2339   -4.6474 C   0  0  0  0  0  0  0  0  0  0  0  0
    3.4340    5.6749   -6.2415 C   0  0  0  0  0  0  0  0  0  0  0  0
    3.7356    4.3121   -6.0901 C   0  0  0  0  0  0  0  0  0  0  0  0
    1.9458    1.5709   -3.2559 C   0  0  0  0  0  0  0  0  0  0  0  0
    0.2879    1.5819   -3.4544 S   0  0  0  0  0  0  0  0  0  0  0  0
    5.6320    2.0650   -3.5871 C   0  0  0  0  0  0  0  0  0  0  0  0
    6.5486    1.1654   -3.1886 C   0  0  0  0  0  0  0  0  0  0  0  0
    6.2334   -0.2292   -2.8602 C   0  0  0  0  0  0  0  0  0  0  0  0
    5.3622   -0.9493   -3.4479 O   0  0  0  0  0  0  0  0  0  0  0  0
    7.2491   -0.7803   -2.0179 C   0  0  0  0  0  0  0  0  0  0  0  0
    7.0533   -1.8357   -1.0857 C   0  0  0  0  0  0  0  0  0  0  0  0
    7.9725   -1.8400   -0.0400 C   0  0  0  0  0  0  0  0  0  0  0  0
    8.9674   -0.8333    0.1240 C   0  0  0  0  0  0  0  0  0  0  0  0
    9.1880    0.1861   -0.7769 C   0  0  0  0  0  0  0  0  0  0  0  0
    8.2815    0.1853   -1.8887 C   0  0  0  0  0  0  0  0  0  0  0  0
    7.9593    1.3568   -2.7455 C   0  0  0  0  0  0  0  0  0  0  0  0
    8.8105    2.3857   -2.9834 C   0  0  0  0  0  0  0  0  0  0  0  0
   10.2366    2.2640   -2.8082 C   0  0  0  0  0  0  0  0  0  0  0  0
   11.3821    2.1769   -2.6692 N   0  0  0  0  0  0  0  0  0  0  0  0
    8.3309    3.7424   -3.0876 C   0  0  0  0  0  0  0  0  0  0  0  0
    8.0490    4.8801   -3.0793 N   0  0  0  0  0  0  0  0  0  0  0  0
    9.3209   -1.3788    1.4637 C   0  0  0  0  0  0  0  0  0  0  0  0
    8.7911   -0.6150    2.7293 C   0  0  0  0  0  0  0  0  0  0  0  0
    7.4664    0.0427    2.3951 C   0  0  0  0  0  0  0  0  0  0  0  0
    6.5846   -0.9497    2.2421 C   0  0  0  0  0  0  0  0  0  0  0  0
    7.3420   -2.2451    2.4663 C   0  0  0  0  0  0  0  0  0  0  0  0
    8.3006   -1.7849    3.5474 C   0  0  0  0  0  0  0  0  0  0  0  0
    8.3327   -2.4407    1.2754 C   0  0  0  0  0  0  0  0  0  0  0  0
   -8.0385    1.3777    4.7429 H   0  0  0  0  0  0  0  0  0  0  0  0
  -11.3993   -2.9745    4.4934 H   0  0  0  0  0  0  0  0  0  0  0  0
   -8.0450   -3.4072    0.6618 H   0  0  0  0  0  0  0  0  0  0  0  0
  -11.1180   -5.1156    0.1034 H   0  0  0  0  0  0  0  0  0  0  0  0
   -9.3818   -7.0157    0.1656 H   0  0  0  0  0  0  0  0  0  0  0  0
   -7.7604   -6.6698    2.2422 H   0  0  0  0  0  0  0  0  0  0  0  0
   -9.2032   -6.5934    4.3983 H   0  0  0  0  0  0  0  0  0  0  0  0
  -11.7386   -6.9874    3.7241 H   0  0  0  0  0  0  0  0  0  0  0  0
  -10.5238   -8.5594    1.9830 H   0  0  0  0  0  0  0  0  0  0  0  0
  -11.8033   -7.6014    1.1064 H   0  0  0  0  0  0  0  0  0  0  0  0
  -12.5081   -5.1893    2.0069 H   0  0  0  0  0  0  0  0  0  0  0  0
   -5.5485    2.5193    4.9092 H   0  0  0  0  0  0  0  0  0  0  0  0
   -4.3101    4.4301    5.1081 H   0  0  0  0  0  0  0  0  0  0  0  0
   -2.5993    4.8633    5.3468 H   0  0  0  0  0  0  0  0  0  0  0  0
   -2.3137    2.3222    6.1837 H   0  0  0  0  0  0  0  0  0  0  0  0
   -4.0742    2.4566    6.5154 H   0  0  0  0  0  0  0  0  0  0  0  0
   -2.9548    3.6039    7.2957 H   0  0  0  0  0  0  0  0  0  0  0  0
   -4.9596    4.4541    1.2315 H   0  0  0  0  0  0  0  0  0  0  0  0
   -4.5494    4.9735   -0.4353 H   0  0  0  0  0  0  0  0  0  0  0  0
   -4.7983    6.9989    0.9180 H   0  0  0  0  0  0  0  0  0  0  0  0
   -3.6891    6.3211    2.2024 H   0  0  0  0  0  0  0  0  0  0  0  0
   -3.0434    6.7839    0.5826 H   0  0  0  0  0  0  0  0  0  0  0  0
   -1.3183    3.7038   -3.3377 H   0  0  0  0  0  0  0  0  0  0  0  0
   -0.4769    5.1635   -2.7221 H   0  0  0  0  0  0  0  0  0  0  0  0
   -2.7789    5.6578   -3.5293 H   0  0  0  0  0  0  0  0  0  0  0  0
   -3.4531    4.4811   -2.3554 H   0  0  0  0  0  0  0  0  0  0  0  0
   -2.6279    5.9852   -1.7531 H   0  0  0  0  0  0  0  0  0  0  0  0
   -0.4550    0.3038    2.0162 H   0  0  0  0  0  0  0  0  0  0  0  0
    0.1179    1.0481    4.2779 H   0  0  0  0  0  0  0  0  0  0  0  0
    2.1506    3.9264    4.5514 H   0  0  0  0  0  0  0  0  0  0  0  0
    3.9339    3.5562    4.4921 H   0  0  0  0  0  0  0  0  0  0  0  0
    3.1440    4.0647    6.0529 H   0  0  0  0  0  0  0  0  0  0  0  0
    4.2681    1.2250    3.1527 H   0  0  0  0  0  0  0  0  0  0  0  0
    3.6884    0.4492    0.8983 H   0  0  0  0  0  0  0  0  0  0  0  0
    1.4802   -1.2891   -2.4753 H   0  0  0  0  0  0  0  0  0  0  0  0
    1.3620   -3.6856   -2.8836 H   0  0  0  0  0  0  0  0  0  0  0  0
    3.3164   -5.6279   -1.8445 H   0  0  0  0  0  0  0  0  0  0  0  0
    3.1940   -6.3082   -0.1671 H   0  0  0  0  0  0  0  0  0  0  0  0
    2.9260   -7.3649   -1.5987 H   0  0  0  0  0  0  0  0  0  0  0  0
    0.8964   -4.4276    1.3124 H   0  0  0  0  0  0  0  0  0  0  0  0
    1.0060   -2.0283    1.7576 H   0  0  0  0  0  0  0  0  0  0  0  0
    3.2813    1.9412   -8.1761 H   0  0  0  0  0  0  0  0  0  0  0  0
    2.7352    0.0789   -9.6715 H   0  0  0  0  0  0  0  0  0  0  0  0
   -0.3884   -2.7504  -10.1128 H   0  0  0  0  0  0  0  0  0  0  0  0
   -0.3230   -1.5473   -8.7566 H   0  0  0  0  0  0  0  0  0  0  0  0
   -0.3543   -3.3291   -8.4004 H   0  0  0  0  0  0  0  0  0  0  0  0
    1.6204   -2.3283   -6.2912 H   0  0  0  0  0  0  0  0  0  0  0  0
    2.2024   -0.5268   -4.7906 H   0  0  0  0  0  0  0  0  0  0  0  0
    0.5935    3.1287   -5.6224 H   0  0  0  0  0  0  0  0  0  0  0  0
    0.0804    5.5026   -5.7448 H   0  0  0  0  0  0  0  0  0  0  0  0
    0.1859    8.3936   -4.5909 H   0  0  0  0  0  0  0  0  0  0  0  0
    1.5777    7.4340   -3.9341 H   0  0  0  0  0  0  0  0  0  0  0  0
    1.7910    9.1825   -4.3610 H   0  0  0  0  0  0  0  0  0  0  0  0
    4.2467    6.3855   -6.3663 H   0  0  0  0  0  0  0  0  0  0  0  0
    4.7699    3.9979   -6.0861 H   0  0  0  0  0  0  0  0  0  0  0  0
    5.9156    3.0815   -3.7357 H   0  0  0  0  0  0  0  0  0  0  0  0
    6.1688   -2.4507   -1.0824 H   0  0  0  0  0  0  0  0  0  0  0  0
    9.8521    1.0020   -0.5360 H   0  0  0  0  0  0  0  0  0  0  0  0
   10.3736   -1.7500    1.5515 H   0  0  0  0  0  0  0  0  0  0  0  0
    9.5374    0.0384    3.2194 H   0  0  0  0  0  0  0  0  0  0  0  0
    7.2461    1.1022    2.3919 H   0  0  0  0  0  0  0  0  0  0  0  0
    5.5195   -0.8094    2.1171 H   0  0  0  0  0  0  0  0  0  0  0  0
    6.7033   -3.1189    2.7111 H   0  0  0  0  0  0  0  0  0  0  0  0
    9.1060   -2.5320    3.7806 H   0  0  0  0  0  0  0  0  0  0  0  0
    7.7866   -1.4808    4.4856 H   0  0  0  0  0  0  0  0  0  0  0  0
    8.7926   -3.4639    1.1972 H   0  0  0  0  0  0  0  0  0  0  0  0
  1  2  2  3
  2  3  1  0
  3  4  2  0
  3  5  1  0
  5  6  2  0
  6  7  1  0
  7  8  2  0
  8  9  1  0
  9 10  2  0
 10 11  1  0
 11 12  2  3
 12 13  1  0
 13 14  3  0
 12 15  1  0
 15 16  3  0
  8 17  1  0
 17 18  1  0
 18 19  1  0
 19 20  2  0
 20 21  1  0
 21 22  1  0
 21 23  1  0
  1 24  1  0
 24 25  2  0
 25 26  1  0
 26 27  1  0
 27 28  1  0
 28 29  1  0
 26 30  2  0
 30 31  1  0
 30 32  1  0
 32 33  2  0
 33 34  1  0
 34 35  1  0
 35 36  1  0
 33 37  1  0
 37 38  1  0
 38 39  1  0
 39 40  1  0
 37 41  2  0
 41 42  1  0
 42 43  1  0
 43 44  2  0
 44 45  1  0
 45 46  1  0
 41 47  1  0
 47 48  2  0
 48 49  1  0
 49 50  1  0
 50 51  2  0
 51 52  1  0
 52 53  2  0
 53 54  1  0
 54 55  1  0
 53 56  1  0
 56 57  2  0
 49 58  1  0
 58 59  2  0
 59 60  1  0
 60 61  2  0
 61 62  1  0
 62 63  1  0
 61 64  1  0
 64 65  2  0
 48 66  1  0
 66 67  1  0
 67 68  1  0
 68 69  2  0
 69 70  1  0
 70 71  1  0
 71 72  2  0
 72 73  1  0
 73 74  2  0
 74 75  1  0
 75 76  1  0
 74 77  1  0
 77 78  2  0
 70 79  1  0
 79 80  2  0
 80 81  1  0
 81 82  2  0
 82 83  1  0
 83 84  1  0
 82 85  1  0
 85 86  2  0
 69 87  1  0
 87 88  1  0
 68 89  1  0
 89 90  2  3
 90 91  1  0
 91 92  2  0
 91 93  1  0
 93 94  2  0
 94 95  1  0
 95 96  2  0
 96 97  1  0
 97 98  2  0
 98 99  1  0
 99100  2  3
100101  1  0
101102  3  0
100103  1  0
103104  3  0
 96105  1  0
105106  1  0
106107  1  0
107108  2  0
108109  1  0
109110  1  0
109111  1  0
 11  2  1  0
 23 17  1  0
 31 24  1  0
 43 32  1  0
 88 47  1  0
 99 90  1  0
111105  1  0
 10  5  1  0
 22 18  1  0
 46 42  2  0
 57 50  1  0
 65 58  1  0
 87 66  2  0
 98 93  1  0
110106  1  0
 23  7  1  0
 78 71  1  0
 86 79  1  0
111 95  1  0
  1112  1  0
  6113  1  0
  9114  1  0
 17115  1  0
 18116  1  0
 19117  1  0
 20118  1  0
 21119  1  0
 22120  1  0
 22121  1  0
 23122  1  0
 25123  1  0
 28124  1  0
 28125  1  0
 29126  1  0
 29127  1  0
 29128  1  0
 35129  1  0
 35130  1  0
 36131  1  0
 36132  1  0
 36133  1  0
 39134  1  0
 39135  1  0
 40136  1  0
 40137  1  0
 40138  1  0
 51139  1  0
 52140  1  0
 55141  1  0
 55142  1  0
 55143  1  0
 56144  1  0
 57145  1  0
 59146  1  0
 60147  1  0
 63148  1  0
 63149  1  0
 63150  1  0
 64151  1  0
 65152  1  0
 72153  1  0
 73154  1  0
 76155  1  0
 76156  1  0
 76157  1  0
 77158  1  0
 78159  1  0
 80160  1  0
 81161  1  0
 84162  1  0
 84163  1  0
 84164  1  0
 85165  1  0
 86166  1  0
 89167  1  0
 94168  1  0
 97169  1  0
105170  1  0
106171  1  0
107172  1  0
108173  1  0
109174  1  0
110175  1  0
110176  1  0
111177  1  0
M  END

