
     RDKit          3D

183201  0  0  0  0  0  0  0  0999 V2000
   -0.2331   -0.3480    8.6755 C   0  0  0  0  0  0  0  0  0  0  0  0
    0.5945   -1.2672    8.1174 C   0  0  0  0  0  0  0  0  0  0  0  0
    0.6819   -1.5716    6.6798 C   0  0  0  0  0  0  0  0  0  0  0  0
   -0.0926   -1.1671    5.7800 O   0  0  0  0  0  0  0  0  0  0  0  0
    1.8671   -2.3440    6.4245 C   0  0  0  0  0  0  0  0  0  0  0  0
    2.3440   -2.7501    5.1564 C   0  0  0  0  0  0  0  0  0  0  0  0
    3.5770   -3.3636    5.1947 C   0  0  0  0  0  0  0  0  0  0  0  0
    4.2942   -3.5953    6.4092 C   0  0  0  0  0  0  0  0  0  0  0  0
    3.8237   -3.2100    7.6580 C   0  0  0  0  0  0  0  0  0  0  0  0
    2.5492   -2.5692    7.6432 C   0  0  0  0  0  0  0  0  0  0  0  0
    1.7334   -2.0046    8.7652 C   0  0  0  0  0  0  0  0  0  0  0  0
    1.8774   -2.2752   10.0886 C   0  0  0  0  0  0  0  0  0  0  0  0
    0.8892   -1.8927   11.0634 C   0  0  0  0  0  0  0  0  0  0  0  0
    0.0975   -1.5991   11.8552 N   0  0  0  0  0  0  0  0  0  0  0  0
    2.9659   -3.0618   10.6108 C   0  0  0  0  0  0  0  0  0  0  0  0
    3.8378   -3.6900   11.0420 N   0  0  0  0  0  0  0  0  0  0  0  0
    5.4160   -4.2332    5.6414 C   0  0  0  0  0  0  0  0  0  0  0  0
    5.5380   -5.7875    5.6658 C   0  0  0  0  0  0  0  0  0  0  0  0
    4.1682   -6.4146    5.8109 C   0  0  0  0  0  0  0  0  0  0  0  0
    3.5190   -6.1798    4.6704 C   0  0  0  0  0  0  0  0  0  0  0  0
    4.4649   -5.3944    3.7919 C   0  0  0  0  0  0  0  0  0  0  0  0
    5.7705   -6.0573    4.1923 C   0  0  0  0  0  0  0  0  0  0  0  0
    4.6889   -3.9746    4.3952 C   0  0  0  0  0  0  0  0  0  0  0  0
   -1.2147    0.4097    7.8749 C   0  0  0  0  0  0  0  0  0  0  0  0
   -2.3598   -0.1557    7.3243 C   0  0  0  0  0  0  0  0  0  0  0  0
   -2.7605    0.4363    6.1148 C   0  0  0  0  0  0  0  0  0  0  0  0
   -4.0440   -0.3172    5.1048 S   0  0  0  0  0  0  0  0  0  0  0  0
   -3.0868   -1.7865    4.5848 C   0  0  0  0  0  0  0  0  0  0  0  0
   -2.1686   -1.4828    3.4077 C   0  0  0  0  0  0  0  0  0  0  0  0
   -1.9644    1.5290    5.7237 C   0  0  0  0  0  0  0  0  0  0  0  0
   -0.7663    1.6952    6.9002 S   0  0  0  0  0  0  0  0  0  0  0  0
   -1.6988    1.9518    4.3361 C   0  0  0  0  0  0  0  0  0  0  0  0
   -2.5990    2.1388    3.2633 C   0  0  0  0  0  0  0  0  0  0  0  0
   -3.9274    2.6681    3.4368 N   0  0  0  0  0  0  0  0  0  0  0  0
   -3.9994    4.0329    3.8761 C   0  0  0  0  0  0  0  0  0  0  0  0
   -3.7787    5.0745    2.9618 C   0  0  0  0  0  0  0  0  0  0  0  0
   -3.7691    6.4003    3.3951 C   0  0  0  0  0  0  0  0  0  0  0  0
   -3.9847    6.6983    4.7457 C   0  0  0  0  0  0  0  0  0  0  0  0
   -3.9373    8.4031    5.2995 S   0  0  0  0  0  0  0  0  0  0  0  0
   -5.6888    8.7069    4.9064 C   0  0  0  0  0  0  0  0  0  0  0  0
   -4.1994    5.6607    5.6627 C   0  0  0  0  0  0  0  0  0  0  0  0
   -4.1999    4.3309    5.2325 C   0  0  0  0  0  0  0  0  0  0  0  0
   -5.1246    1.9795    2.9977 C   0  0  0  0  0  0  0  0  0  0  0  0
   -5.0560    0.8974    2.0975 C   0  0  0  0  0  0  0  0  0  0  0  0
   -6.2138    0.2070    1.7240 C   0  0  0  0  0  0  0  0  0  0  0  0
   -7.4546    0.5809    2.2519 C   0  0  0  0  0  0  0  0  0  0  0  0
   -8.9363   -0.3160    1.7896 S   0  0  0  0  0  0  0  0  0  0  0  0
   -8.6932   -1.6001    3.0542 C   0  0  0  0  0  0  0  0  0  0  0  0
   -7.5409    1.6627    3.1300 C   0  0  0  0  0  0  0  0  0  0  0  0
   -6.3894    2.3575    3.4992 C   0  0  0  0  0  0  0  0  0  0  0  0
   -1.8931    2.2351    2.0517 C   0  0  0  0  0  0  0  0  0  0  0  0
   -2.3012    2.4723    0.4348 S   0  0  0  0  0  0  0  0  0  0  0  0
   -0.6859    2.4350   -0.1200 C   0  0  0  0  0  0  0  0  0  0  0  0
    0.1817    2.2986    0.9794 C   0  0  0  0  0  0  0  0  0  0  0  0
    1.6095    2.5216    0.9378 N   0  0  0  0  0  0  0  0  0  0  0  0
    2.1433    3.6275    0.1817 C   0  0  0  0  0  0  0  0  0  0  0  0
    3.3683    3.4931   -0.4922 C   0  0  0  0  0  0  0  0  0  0  0  0
    3.9107    4.5762   -1.1883 C   0  0  0  0  0  0  0  0  0  0  0  0
    3.2404    5.8045   -1.2114 C   0  0  0  0  0  0  0  0  0  0  0  0
    3.9502    7.2012   -2.0840 S   0  0  0  0  0  0  0  0  0  0  0  0
    3.1227    6.7766   -3.6519 C   0  0  0  0  0  0  0  0  0  0  0  0
    2.0231    5.9477   -0.5338 C   0  0  0  0  0  0  0  0  0  0  0  0
    1.4760    4.8652    0.1580 C   0  0  0  0  0  0  0  0  0  0  0  0
    2.4659    1.8754    1.8965 C   0  0  0  0  0  0  0  0  0  0  0  0
    2.5427    0.4740    1.9522 C   0  0  0  0  0  0  0  0  0  0  0  0
    3.3229   -0.1444    2.9337 C   0  0  0  0  0  0  0  0  0  0  0  0
    4.0043    0.6270    3.8872 C   0  0  0  0  0  0  0  0  0  0  0  0
    4.9430   -0.1709    5.1932 S   0  0  0  0  0  0  0  0  0  0  0  0
    6.5036   -0.1441    4.2543 C   0  0  0  0  0  0  0  0  0  0  0  0
    3.9278    2.0228    3.8348 C   0  0  0  0  0  0  0  0  0  0  0  0
    3.1702    2.6446    2.8389 C   0  0  0  0  0  0  0  0  0  0  0  0
   -0.5421    2.1567    2.1564 C   0  0  0  0  0  0  0  0  0  0  0  0
   -0.1079    1.9604    3.7468 S   0  0  0  0  0  0  0  0  0  0  0  0
   -0.2828    2.3322   -1.5321 C   0  0  0  0  0  0  0  0  0  0  0  0
    0.8246    1.6191   -1.9877 C   0  0  0  0  0  0  0  0  0  0  0  0
    0.9015    1.5292   -3.3810 C   0  0  0  0  0  0  0  0  0  0  0  0
    1.9282    0.7221   -4.0785 C   0  0  0  0  0  0  0  0  0  0  0  0
    2.0532   -0.6510   -3.7740 C   0  0  0  0  0  0  0  0  0  0  0  0
    1.2680   -1.1887   -2.7407 O   0  0  0  0  0  0  0  0  0  0  0  0
    1.3074   -2.5424   -2.2969 C   0  0  0  0  0  0  0  0  0  0  0  0
    0.4115   -2.6933   -1.0764 C   0  0  0  0  0  0  0  0  0  0  0  0
    2.9444   -1.4457   -4.5161 C   0  0  0  0  0  0  0  0  0  0  0  0
    3.7131   -0.8772   -5.5340 C   0  0  0  0  0  0  0  0  0  0  0  0
    3.6208    0.4864   -5.8040 C   0  0  0  0  0  0  0  0  0  0  0  0
    2.7334    1.3020   -5.0786 C   0  0  0  0  0  0  0  0  0  0  0  0
    2.6405    2.6862   -5.3019 O   0  0  0  0  0  0  0  0  0  0  0  0
    3.3615    3.4240   -6.2872 C   0  0  0  0  0  0  0  0  0  0  0  0
    2.7330    3.2442   -7.6644 C   0  0  0  0  0  0  0  0  0  0  0  0
   -0.1643    2.1634   -4.0249 C   0  0  0  0  0  0  0  0  0  0  0  0
   -1.1800    2.8394   -2.8638 S   0  0  0  0  0  0  0  0  0  0  0  0
   -0.4115    2.1962   -5.4751 C   0  0  0  0  0  0  0  0  0  0  0  0
   -0.6789    1.0895   -6.1997 C   0  0  0  0  0  0  0  0  0  0  0  0
   -0.8334   -0.2603   -5.6463 C   0  0  0  0  0  0  0  0  0  0  0  0
   -1.1019   -0.5455   -4.4478 O   0  0  0  0  0  0  0  0  0  0  0  0
   -0.7133   -1.2245   -6.7148 C   0  0  0  0  0  0  0  0  0  0  0  0
   -0.7832   -2.6326   -6.5976 C   0  0  0  0  0  0  0  0  0  0  0  0
   -0.7146   -3.3001   -7.8047 C   0  0  0  0  0  0  0  0  0  0  0  0
   -0.5651   -2.6269   -9.0588 C   0  0  0  0  0  0  0  0  0  0  0  0
   -0.4794   -1.2488   -9.1795 C   0  0  0  0  0  0  0  0  0  0  0  0
   -0.5573   -0.5364   -7.9465 C   0  0  0  0  0  0  0  0  0  0  0  0
   -0.6012    0.9382   -7.6908 C   0  0  0  0  0  0  0  0  0  0  0  0
   -0.6618    1.9309   -8.6187 C   0  0  0  0  0  0  0  0  0  0  0  0
   -0.3266    1.7193  -10.0033 C   0  0  0  0  0  0  0  0  0  0  0  0
   -0.0360    1.5626  -11.1159 N   0  0  0  0  0  0  0  0  0  0  0  0
   -1.0315    3.2803   -8.2798 C   0  0  0  0  0  0  0  0  0  0  0  0
   -1.3027    4.3654   -7.9831 N   0  0  0  0  0  0  0  0  0  0  0  0
   -0.6000   -3.9384   -9.7846 C   0  0  0  0  0  0  0  0  0  0  0  0
    0.7592   -4.4782  -10.3192 C   0  0  0  0  0  0  0  0  0  0  0  0
    0.5192   -5.9292  -10.6525 C   0  0  0  0  0  0  0  0  0  0  0  0
    0.3673   -6.5669   -9.4845 C   0  0  0  0  0  0  0  0  0  0  0  0
    0.5100   -5.5209   -8.4028 C   0  0  0  0  0  0  0  0  0  0  0  0
    1.5814   -4.6629   -9.0528 C   0  0  0  0  0  0  0  0  0  0  0  0
   -0.7604   -4.6274   -8.4995 C   0  0  0  0  0  0  0  0  0  0  0  0
   -0.0990   -0.0301    9.6938 H   0  0  0  0  0  0  0  0  0  0  0  0
    1.8099   -2.5658    4.2364 H   0  0  0  0  0  0  0  0  0  0  0  0
    4.4217   -3.3637    8.5400 H   0  0  0  0  0  0  0  0  0  0  0  0
    6.3796   -3.6811    5.7145 H   0  0  0  0  0  0  0  0  0  0  0  0
    6.3144   -6.1904    6.3515 H   0  0  0  0  0  0  0  0  0  0  0  0
    3.8036   -7.0158    6.6352 H   0  0  0  0  0  0  0  0  0  0  0  0
    2.5380   -6.5542    4.4020 H   0  0  0  0  0  0  0  0  0  0  0  0
    4.2350   -5.4187    2.7065 H   0  0  0  0  0  0  0  0  0  0  0  0
    5.8076   -7.1437    3.9404 H   0  0  0  0  0  0  0  0  0  0  0  0
    6.6731   -5.5504    3.7798 H   0  0  0  0  0  0  0  0  0  0  0  0
    5.2027   -3.2550    3.7185 H   0  0  0  0  0  0  0  0  0  0  0  0
   -2.7884   -1.0804    7.6927 H   0  0  0  0  0  0  0  0  0  0  0  0
   -2.5019   -2.1999    5.4300 H   0  0  0  0  0  0  0  0  0  0  0  0
   -3.8078   -2.5699    4.2710 H   0  0  0  0  0  0  0  0  0  0  0  0
   -2.7574   -1.1336    2.5386 H   0  0  0  0  0  0  0  0  0  0  0  0
   -1.6238   -2.4065    3.1180 H   0  0  0  0  0  0  0  0  0  0  0  0
   -1.4247   -0.7127    3.6744 H   0  0  0  0  0  0  0  0  0  0  0  0
   -3.6169    4.8552    1.9149 H   0  0  0  0  0  0  0  0  0  0  0  0
   -3.5898    7.1959    2.6831 H   0  0  0  0  0  0  0  0  0  0  0  0
   -5.9311    9.7663    5.1290 H   0  0  0  0  0  0  0  0  0  0  0  0
   -6.3360    8.0486    5.5210 H   0  0  0  0  0  0  0  0  0  0  0  0
   -5.8739    8.5180    3.8263 H   0  0  0  0  0  0  0  0  0  0  0  0
   -4.3455    5.8847    6.7089 H   0  0  0  0  0  0  0  0  0  0  0  0
   -4.3414    3.5322    5.9502 H   0  0  0  0  0  0  0  0  0  0  0  0
   -4.1146    0.5747    1.6851 H   0  0  0  0  0  0  0  0  0  0  0  0
   -6.1433   -0.6283    1.0387 H   0  0  0  0  0  0  0  0  0  0  0  0
   -8.6490   -1.1465    4.0697 H   0  0  0  0  0  0  0  0  0  0  0  0
   -9.5412   -2.3138    3.0149 H   0  0  0  0  0  0  0  0  0  0  0  0
   -7.7478   -2.1490    2.8527 H   0  0  0  0  0  0  0  0  0  0  0  0
   -8.5005    1.9653    3.5258 H   0  0  0  0  0  0  0  0  0  0  0  0
   -6.4952    3.1878    4.1829 H   0  0  0  0  0  0  0  0  0  0  0  0
    3.8974    2.5512   -0.4771 H   0  0  0  0  0  0  0  0  0  0  0  0
    4.8501    4.4610   -1.7131 H   0  0  0  0  0  0  0  0  0  0  0  0
    2.0188    6.8061   -3.5244 H   0  0  0  0  0  0  0  0  0  0  0  0
    3.4180    7.5114   -4.4280 H   0  0  0  0  0  0  0  0  0  0  0  0
    3.4363    5.7630   -3.9755 H   0  0  0  0  0  0  0  0  0  0  0  0
    1.5049    6.8998   -0.5386 H   0  0  0  0  0  0  0  0  0  0  0  0
    0.5435    4.9948    0.6918 H   0  0  0  0  0  0  0  0  0  0  0  0
    1.9943   -0.1290    1.2409 H   0  0  0  0  0  0  0  0  0  0  0  0
    3.3949   -1.2209    2.9556 H   0  0  0  0  0  0  0  0  0  0  0  0
    6.3784   -0.6563    3.2755 H   0  0  0  0  0  0  0  0  0  0  0  0
    6.8241    0.9102    4.0878 H   0  0  0  0  0  0  0  0  0  0  0  0
    7.2835   -0.6729    4.8355 H   0  0  0  0  0  0  0  0  0  0  0  0
    4.4401    2.6284    4.5746 H   0  0  0  0  0  0  0  0  0  0  0  0
    3.0978    3.7253    2.8220 H   0  0  0  0  0  0  0  0  0  0  0  0
    1.5282    1.1228   -1.3319 H   0  0  0  0  0  0  0  0  0  0  0  0
    2.3500   -2.8120   -2.0192 H   0  0  0  0  0  0  0  0  0  0  0  0
    0.9469   -3.2111   -3.1078 H   0  0  0  0  0  0  0  0  0  0  0  0
    0.4732   -3.7343   -0.6952 H   0  0  0  0  0  0  0  0  0  0  0  0
   -0.6419   -2.4629   -1.3429 H   0  0  0  0  0  0  0  0  0  0  0  0
    0.7487   -2.0001   -0.2769 H   0  0  0  0  0  0  0  0  0  0  0  0
    3.0443   -2.5054   -4.3184 H   0  0  0  0  0  0  0  0  0  0  0  0
    4.4015   -1.4961   -6.0971 H   0  0  0  0  0  0  0  0  0  0  0  0
    4.2517    0.8921   -6.5820 H   0  0  0  0  0  0  0  0  0  0  0  0
    3.3110    4.4994   -6.0257 H   0  0  0  0  0  0  0  0  0  0  0  0
    4.4341    3.1321   -6.2953 H   0  0  0  0  0  0  0  0  0  0  0  0
    3.3563    3.7625   -8.4254 H   0  0  0  0  0  0  0  0  0  0  0  0
    2.6595    2.1685   -7.9347 H   0  0  0  0  0  0  0  0  0  0  0  0
    1.7144    3.6911   -7.6735 H   0  0  0  0  0  0  0  0  0  0  0  0
   -0.2189    3.1399   -5.9444 H   0  0  0  0  0  0  0  0  0  0  0  0
   -0.9153   -3.1438   -5.6503 H   0  0  0  0  0  0  0  0  0  0  0  0
   -0.4008   -0.8006  -10.1531 H   0  0  0  0  0  0  0  0  0  0  0  0
   -1.4627   -4.0356  -10.4806 H   0  0  0  0  0  0  0  0  0  0  0  0
    1.2347   -3.8747  -11.1217 H   0  0  0  0  0  0  0  0  0  0  0  0
    0.5602   -6.3963  -11.6305 H   0  0  0  0  0  0  0  0  0  0  0  0
    0.2678   -7.6419   -9.3559 H   0  0  0  0  0  0  0  0  0  0  0  0
    0.7483   -5.9107   -7.3914 H   0  0  0  0  0  0  0  0  0  0  0  0
    1.8011   -3.7190   -8.5067 H   0  0  0  0  0  0  0  0  0  0  0  0
    2.5381   -5.2067   -9.2290 H   0  0  0  0  0  0  0  0  0  0  0  0
   -1.7267   -5.1589   -8.3739 H   0  0  0  0  0  0  0  0  0  0  0  0
  1  2  2  3
  2  3  1  0
  3  4  2  0
  3  5  1  0
  5  6  2  0
  6  7  1  0
  7  8  2  0
  8  9  1  0
  9 10  2  0
 10 11  1  0
 11 12  2  3
 12 13  1  0
 13 14  3  0
 12 15  1  0
 15 16  3  0
  8 17  1  0
 17 18  1  0
 18 19  1  0
 19 20  2  0
 20 21  1  0
 21 22  1  0
 21 23  1  0
  1 24  1  0
 24 25  2  0
 25 26  1  0
 26 27  1  0
 27 28  1  0
 28 29  1  0
 26 30  2  0
 30 31  1  0
 30 32  1  0
 32 33  2  0
 33 34  1  0
 34 35  1  0
 35 36  2  0
 36 37  1  0
 37 38  2  0
 38 39  1  0
 39 40  1  0
 38 41  1  0
 41 42  2  0
 34 43  1  0
 43 44  2  0
 44 45  1  0
 45 46  2  0
 46 47  1  0
 47 48  1  0
 46 49  1  0
 49 50  2  0
 33 51  1  0
 51 52  1  0
 52 53  1  0
 53 54  2  0
 54 55  1  0
 55 56  1  0
 56 57  2  0
 57 58  1  0
 58 59  2  0
 59 60  1  0
 60 61  1  0
 59 62  1  0
 62 63  2  0
 55 64  1  0
 64 65  2  0
 65 66  1  0
 66 67  2  0
 67 68  1  0
 68 69  1  0
 67 70  1  0
 70 71  2  0
 54 72  1  0
 72 73  1  0
 53 74  1  0
 74 75  2  0
 75 76  1  0
 76 77  1  0
 77 78  2  0
 78 79  1  0
 79 80  1  0
 80 81  1  0
 78 82  1  0
 82 83  2  0
 83 84  1  0
 84 85  2  0
 85 86  1  0
 86 87  1  0
 87 88  1  0
 76 89  2  0
 89 90  1  0
 89 91  1  0
 91 92  2  3
 92 93  1  0
 93 94  2  0
 93 95  1  0
 95 96  2  0
 96 97  1  0
 97 98  2  0
 98 99  1  0
 99100  2  0
100101  1  0
101102  2  3
102103  1  0
103104  3  0
102105  1  0
105106  3  0
 98107  1  0
107108  1  0
108109  1  0
109110  2  0
110111  1  0
111112  1  0
111113  1  0
 11  2  1  0
 23 17  1  0
 31 24  1  0
 73 32  1  0
 90 74  1  0
101 92  1  0
113107  1  0
 10  5  1  0
 22 18  1  0
 42 35  1  0
 50 43  1  0
 72 51  2  0
 85 77  1  0
100 95  1  0
112108  1  0
 23  7  1  0
 63 56  1  0
 71 64  1  0
113 97  1  0
  1114  1  0
  6115  1  0
  9116  1  0
 17117  1  0
 18118  1  0
 19119  1  0
 20120  1  0
 21121  1  0
 22122  1  0
 22123  1  0
 23124  1  0
 25125  1  0
 28126  1  0
 28127  1  0
 29128  1  0
 29129  1  0
 29130  1  0
 36131  1  0
 37132  1  0
 40133  1  0
 40134  1  0
 40135  1  0
 41136  1  0
 42137  1  0
 44138  1  0
 45139  1  0
 48140  1  0
 48141  1  0
 48142  1  0
 49143  1  0
 50144  1  0
 57145  1  0
 58146  1  0
 61147  1  0
 61148  1  0
 61149  1  0
 62150  1  0
 63151  1  0
 65152  1  0
 66153  1  0
 69154  1  0
 69155  1  0
 69156  1  0
 70157  1  0
 71158  1  0
 75159  1  0
 80160  1  0
 80161  1  0
 81162  1  0
 81163  1  0
 81164  1  0
 82165  1  0
 83166  1  0
 84167  1  0
 87168  1  0
 87169  1  0
 88170  1  0
 88171  1  0
 88172  1  0
 91173  1  0
 96174  1  0
 99175  1  0
107176  1  0
108177  1  0
109178  1  0
110179  1  0
111180  1  0
112181  1  0
112182  1  0
113183  1  0
M  END

