
     RDKit          3D

207225  0  0  0  0  0  0  0  0999 V2000
   -1.6593    5.2192    4.7023 C   0  0  0  0  0  0  0  0  0  0  0  0
   -0.6076    6.0403    4.4948 C   0  0  0  0  0  0  0  0  0  0  0  0
    0.7170    5.9224    5.1181 C   0  0  0  0  0  0  0  0  0  0  0  0
    0.9484    5.5284    6.2936 O   0  0  0  0  0  0  0  0  0  0  0  0
    1.7192    6.3967    4.1845 C   0  0  0  0  0  0  0  0  0  0  0  0
    3.1221    6.2478    4.2900 C   0  0  0  0  0  0  0  0  0  0  0  0
    3.8019    6.5353    3.1167 C   0  0  0  0  0  0  0  0  0  0  0  0
    3.1431    6.9545    1.9174 C   0  0  0  0  0  0  0  0  0  0  0  0
    1.7768    7.1532    1.8252 C   0  0  0  0  0  0  0  0  0  0  0  0
    1.0621    6.8893    3.0313 C   0  0  0  0  0  0  0  0  0  0  0  0
   -0.4078    6.8659    3.2636 C   0  0  0  0  0  0  0  0  0  0  0  0
   -1.3424    7.6014    2.6025 C   0  0  0  0  0  0  0  0  0  0  0  0
   -0.9955    8.4441    1.4890 C   0  0  0  0  0  0  0  0  0  0  0  0
   -0.7313    9.1132    0.5790 N   0  0  0  0  0  0  0  0  0  0  0  0
   -2.7259    7.6184    3.0036 C   0  0  0  0  0  0  0  0  0  0  0  0
   -3.8374    7.5932    3.3054 N   0  0  0  0  0  0  0  0  0  0  0  0
    4.4456    6.9116    1.1761 C   0  0  0  0  0  0  0  0  0  0  0  0
    5.0776    8.2814    0.8117 C   0  0  0  0  0  0  0  0  0  0  0  0
    6.5152    7.9888    0.4547 C   0  0  0  0  0  0  0  0  0  0  0  0
    7.1317    7.6548    1.5898 C   0  0  0  0  0  0  0  0  0  0  0  0
    6.0926    7.7283    2.6790 C   0  0  0  0  0  0  0  0  0  0  0  0
    5.3030    8.9211    2.1680 C   0  0  0  0  0  0  0  0  0  0  0  0
    5.1304    6.5289    2.4159 C   0  0  0  0  0  0  0  0  0  0  0  0
   -1.5762    3.8550    5.2939 C   0  0  0  0  0  0  0  0  0  0  0  0
   -2.6439    2.9676    5.2369 C   0  0  0  0  0  0  0  0  0  0  0  0
   -2.2807    1.6133    5.2017 C   0  0  0  0  0  0  0  0  0  0  0  0
   -3.5020    0.3628    4.7953 S   0  0  0  0  0  0  0  0  0  0  0  0
   -3.6693    0.8005    3.0264 C   0  0  0  0  0  0  0  0  0  0  0  0
   -2.4172    0.4788    2.2147 C   0  0  0  0  0  0  0  0  0  0  0  0
   -0.9001    1.3928    5.3235 C   0  0  0  0  0  0  0  0  0  0  0  0
   -0.1884    2.9136    5.3731 S   0  0  0  0  0  0  0  0  0  0  0  0
   -0.1273    0.2132    4.8677 C   0  0  0  0  0  0  0  0  0  0  0  0
   -0.5427   -1.1395    4.7695 C   0  0  0  0  0  0  0  0  0  0  0  0
   -1.4716   -1.8016    5.6696 N   0  0  0  0  0  0  0  0  0  0  0  0
   -1.6479   -1.3925    7.0531 C   0  0  0  0  0  0  0  0  0  0  0  0
   -2.8234   -1.7515    7.7466 C   0  0  0  0  0  0  0  0  0  0  0  0
   -2.9665   -1.4714    9.1052 C   0  0  0  0  0  0  0  0  0  0  0  0
   -1.9502   -0.8145    9.8004 C   0  0  0  0  0  0  0  0  0  0  0  0
   -2.0996   -0.5186   11.5623 S   0  0  0  0  0  0  0  0  0  0  0  0
   -3.1863    0.9368   11.3725 C   0  0  0  0  0  0  0  0  0  0  0  0
   -0.7904   -0.4210    9.1246 C   0  0  0  0  0  0  0  0  0  0  0  0
   -0.6264   -0.7282    7.7706 C   0  0  0  0  0  0  0  0  0  0  0  0
   -1.9657   -3.1048    5.3083 C   0  0  0  0  0  0  0  0  0  0  0  0
   -3.0932   -3.2400    4.4829 C   0  0  0  0  0  0  0  0  0  0  0  0
   -3.5791   -4.5083    4.1568 C   0  0  0  0  0  0  0  0  0  0  0  0
   -2.9383   -5.6529    4.6439 C   0  0  0  0  0  0  0  0  0  0  0  0
   -3.5747   -7.2802    4.2370 S   0  0  0  0  0  0  0  0  0  0  0  0
   -4.5108   -7.4328    5.7967 C   0  0  0  0  0  0  0  0  0  0  0  0
   -1.8000   -5.5242    5.4520 C   0  0  0  0  0  0  0  0  0  0  0  0
   -1.3269   -4.2563    5.7943 C   0  0  0  0  0  0  0  0  0  0  0  0
    0.2090   -1.8232    3.7892 C   0  0  0  0  0  0  0  0  0  0  0  0
   -0.2904   -2.9457    2.6416 S   0  0  0  0  0  0  0  0  0  0  0  0
    0.8361   -2.5294    1.4451 C   0  0  0  0  0  0  0  0  0  0  0  0
    1.6845   -1.5321    1.9774 C   0  0  0  0  0  0  0  0  0  0  0  0
    2.7655   -0.8738    1.2610 N   0  0  0  0  0  0  0  0  0  0  0  0
    3.7135   -0.0778    2.0007 C   0  0  0  0  0  0  0  0  0  0  0  0
    3.8248    1.3018    1.7643 C   0  0  0  0  0  0  0  0  0  0  0  0
    4.6863    2.0818    2.5489 C   0  0  0  0  0  0  0  0  0  0  0  0
    5.4348    1.4869    3.5701 C   0  0  0  0  0  0  0  0  0  0  0  0
    6.5230    2.4849    4.5850 S   0  0  0  0  0  0  0  0  0  0  0  0
    5.2115    2.9146    5.7769 C   0  0  0  0  0  0  0  0  0  0  0  0
    5.3291    0.1109    3.8069 C   0  0  0  0  0  0  0  0  0  0  0  0
    4.4761   -0.6702    3.0203 C   0  0  0  0  0  0  0  0  0  0  0  0
    3.1711   -1.2982   -0.0498 C   0  0  0  0  0  0  0  0  0  0  0  0
    3.5161   -2.6397   -0.2868 C   0  0  0  0  0  0  0  0  0  0  0  0
    3.8764   -3.0517   -1.5711 C   0  0  0  0  0  0  0  0  0  0  0  0
    3.9192   -2.1287   -2.6247 C   0  0  0  0  0  0  0  0  0  0  0  0
    4.4232   -2.6607   -4.2598 S   0  0  0  0  0  0  0  0  0  0  0  0
    6.2009   -2.4763   -3.8961 C   0  0  0  0  0  0  0  0  0  0  0  0
    3.5967   -0.7883   -2.3924 C   0  0  0  0  0  0  0  0  0  0  0  0
    3.2167   -0.3785   -1.1101 C   0  0  0  0  0  0  0  0  0  0  0  0
    1.2370   -1.1177    3.2398 C   0  0  0  0  0  0  0  0  0  0  0  0
    1.2209    0.4314    3.8651 S   0  0  0  0  0  0  0  0  0  0  0  0
    0.4065   -2.5169    0.0410 C   0  0  0  0  0  0  0  0  0  0  0  0
    0.0398   -1.3491   -0.6167 C   0  0  0  0  0  0  0  0  0  0  0  0
   -0.2661   -1.5505   -1.9678 C   0  0  0  0  0  0  0  0  0  0  0  0
   -0.6469   -0.5515   -2.8914 C   0  0  0  0  0  0  0  0  0  0  0  0
   -1.0045    0.8142   -2.4595 C   0  0  0  0  0  0  0  0  0  0  0  0
   -0.2266    1.6710   -1.6940 C   0  0  0  0  0  0  0  0  0  0  0  0
   -0.9334    2.7744   -1.1951 C   0  0  0  0  0  0  0  0  0  0  0  0
   -0.1820    3.9153   -0.0894 Cl  0  0  0  0  0  0  0  0  0  0  0  0
   -2.2831    2.7927   -1.5713 C   0  0  0  0  0  0  0  0  0  0  0  0
   -3.6273    3.9797   -1.0516 Si  0  0  0  0  0  4  0  0  0  0  0  0
   -3.4607    4.2480    0.8111 C   0  0  0  0  0  0  0  0  0  0  0  0
   -4.7187    4.8193    1.4547 C   0  0  0  0  0  0  0  0  0  0  0  0
   -5.2947    3.1884   -1.4621 C   0  0  0  0  0  0  0  0  0  0  0  0
   -6.4410    4.1937   -1.5319 C   0  0  0  0  0  0  0  0  0  0  0  0
   -3.4659    5.5927   -2.0102 C   0  0  0  0  0  0  0  0  0  0  0  0
   -2.1924    6.3519   -1.6741 C   0  0  0  0  0  0  0  0  0  0  0  0
   -2.5639    1.4330   -2.5163 S   0  0  0  0  0  0  0  0  0  0  0  0
   -0.8592   -0.9698   -4.2102 C   0  0  0  0  0  0  0  0  0  0  0  0
   -0.8090   -2.3115   -4.5986 C   0  0  0  0  0  0  0  0  0  0  0  0
   -0.5147   -3.3193   -3.6521 C   0  0  0  0  0  0  0  0  0  0  0  0
   -0.6936   -4.7515   -3.9552 C   0  0  0  0  0  0  0  0  0  0  0  0
   -0.0163   -5.6023   -5.2373 S   0  0  0  0  0  0  0  0  0  0  0  0
   -0.9295   -7.0022   -5.0393 C   0  0  0  0  0  0  0  0  0  0  0  0
   -0.8540   -8.4220   -6.2373 Si  0  0  0  0  0  4  0  0  0  0  0  0
   -2.2012   -9.7078   -5.9327 C   0  0  0  0  0  0  0  0  0  0  0  0
   -2.2001  -10.8011   -6.9938 C   0  0  0  0  0  0  0  0  0  0  0  0
   -1.0463   -7.7212   -7.9702 C   0  0  0  0  0  0  0  0  0  0  0  0
   -2.3943   -7.0335   -8.1559 C   0  0  0  0  0  0  0  0  0  0  0  0
    0.8419   -9.2232   -6.1208 C   0  0  0  0  0  0  0  0  0  0  0  0
    1.1056   -9.7407   -4.7125 C   0  0  0  0  0  0  0  0  0  0  0  0
   -1.7733   -6.8163   -3.9427 C   0  0  0  0  0  0  0  0  0  0  0  0
   -1.6352   -5.5642   -3.3388 C   0  0  0  0  0  0  0  0  0  0  0  0
   -2.9265   -7.9865   -3.3396 Cl  0  0  0  0  0  0  0  0  0  0  0  0
   -0.2016   -2.8952   -2.3471 C   0  0  0  0  0  0  0  0  0  0  0  0
    0.2666   -3.8264   -1.0114 S   0  0  0  0  0  0  0  0  0  0  0  0
   -1.1310   -2.4952   -5.9553 C   0  0  0  0  0  0  0  0  0  0  0  0
   -1.3657   -1.2963   -6.6210 C   0  0  0  0  0  0  0  0  0  0  0  0
   -1.2569   -0.0114   -5.5380 S   0  0  0  0  0  0  0  0  0  0  0  0
   -1.7576   -1.1811   -8.0312 C   0  0  0  0  0  0  0  0  0  0  0  0
   -0.9614   -0.6539   -8.9698 C   0  0  0  0  0  0  0  0  0  0  0  0
   -1.2796   -0.5416  -10.3950 C   0  0  0  0  0  0  0  0  0  0  0  0
   -2.3833   -0.8214  -10.9338 O   0  0  0  0  0  0  0  0  0  0  0  0
   -0.1040   -0.0298  -11.0888 C   0  0  0  0  0  0  0  0  0  0  0  0
    0.0775    0.2330  -12.4433 C   0  0  0  0  0  0  0  0  0  0  0  0
    1.3297    0.7143  -12.8651 C   0  0  0  0  0  0  0  0  0  0  0  0
    2.3776    0.8868  -11.9359 C   0  0  0  0  0  0  0  0  0  0  0  0
    2.1767    0.5999  -10.5710 C   0  0  0  0  0  0  0  0  0  0  0  0
    0.9152    0.1533  -10.1720 C   0  0  0  0  0  0  0  0  0  0  0  0
    0.4333   -0.2022   -8.8397 C   0  0  0  0  0  0  0  0  0  0  0  0
    1.1271   -0.1838   -7.7862 O   0  0  0  0  0  0  0  0  0  0  0  0
   -2.5656    5.3844    4.1438 H   0  0  0  0  0  0  0  0  0  0  0  0
    3.6225    5.8681    5.1701 H   0  0  0  0  0  0  0  0  0  0  0  0
    1.3152    7.4223    0.8872 H   0  0  0  0  0  0  0  0  0  0  0  0
    4.4742    6.1394    0.3658 H   0  0  0  0  0  0  0  0  0  0  0  0
    4.5199    8.8915    0.0692 H   0  0  0  0  0  0  0  0  0  0  0  0
    6.9860    8.0964   -0.5168 H   0  0  0  0  0  0  0  0  0  0  0  0
    8.1941    7.4607    1.7007 H   0  0  0  0  0  0  0  0  0  0  0  0
    6.4889    7.8148    3.7137 H   0  0  0  0  0  0  0  0  0  0  0  0
    4.3687    9.1241    2.7374 H   0  0  0  0  0  0  0  0  0  0  0  0
    5.9095    9.8610    2.1131 H   0  0  0  0  0  0  0  0  0  0  0  0
    5.6069    5.5267    2.3907 H   0  0  0  0  0  0  0  0  0  0  0  0
   -3.6602    3.2908    5.0496 H   0  0  0  0  0  0  0  0  0  0  0  0
   -3.9218    1.8774    2.9316 H   0  0  0  0  0  0  0  0  0  0  0  0
   -4.5228    0.2223    2.6140 H   0  0  0  0  0  0  0  0  0  0  0  0
   -2.1369   -0.5840    2.3598 H   0  0  0  0  0  0  0  0  0  0  0  0
   -2.6059    0.6519    1.1374 H   0  0  0  0  0  0  0  0  0  0  0  0
   -1.5823    1.1362    2.5238 H   0  0  0  0  0  0  0  0  0  0  0  0
   -3.6249   -2.2756    7.2347 H   0  0  0  0  0  0  0  0  0  0  0  0
   -3.8599   -1.7920    9.6291 H   0  0  0  0  0  0  0  0  0  0  0  0
   -3.4682    1.3018   12.3842 H   0  0  0  0  0  0  0  0  0  0  0  0
   -2.6697    1.7555   10.8188 H   0  0  0  0  0  0  0  0  0  0  0  0
   -4.1115    0.6395   10.8301 H   0  0  0  0  0  0  0  0  0  0  0  0
    0.0032    0.0906    9.6521 H   0  0  0  0  0  0  0  0  0  0  0  0
    0.3154   -0.4705    7.3106 H   0  0  0  0  0  0  0  0  0  0  0  0
   -3.5918   -2.3683    4.0889 H   0  0  0  0  0  0  0  0  0  0  0  0
   -4.4482   -4.6013    3.5157 H   0  0  0  0  0  0  0  0  0  0  0  0
   -3.8085   -7.4724    6.6541 H   0  0  0  0  0  0  0  0  0  0  0  0
   -5.2032   -6.5743    5.9140 H   0  0  0  0  0  0  0  0  0  0  0  0
   -5.1040   -8.3713    5.7777 H   0  0  0  0  0  0  0  0  0  0  0  0
   -1.2971   -6.4071    5.8278 H   0  0  0  0  0  0  0  0  0  0  0  0
   -0.4461   -4.1624    6.4193 H   0  0  0  0  0  0  0  0  0  0  0  0
    3.2142    1.7835    1.0168 H   0  0  0  0  0  0  0  0  0  0  0  0
    4.7518    3.1494    2.3770 H   0  0  0  0  0  0  0  0  0  0  0  0
    4.7051    1.9960    6.1465 H   0  0  0  0  0  0  0  0  0  0  0  0
    4.4727    3.5791    5.2825 H   0  0  0  0  0  0  0  0  0  0  0  0
    5.6579    3.4531    6.6440 H   0  0  0  0  0  0  0  0  0  0  0  0
    5.9050   -0.3516    4.5995 H   0  0  0  0  0  0  0  0  0  0  0  0
    4.3772   -1.7275    3.2334 H   0  0  0  0  0  0  0  0  0  0  0  0
    3.4878   -3.3656    0.5185 H   0  0  0  0  0  0  0  0  0  0  0  0
    4.1292   -4.0940   -1.7487 H   0  0  0  0  0  0  0  0  0  0  0  0
    6.4623   -1.4074   -3.7609 H   0  0  0  0  0  0  0  0  0  0  0  0
    6.4669   -3.0495   -2.9854 H   0  0  0  0  0  0  0  0  0  0  0  0
    6.7810   -2.8841   -4.7445 H   0  0  0  0  0  0  0  0  0  0  0  0
    3.6357   -0.0685   -3.1979 H   0  0  0  0  0  0  0  0  0  0  0  0
    2.9458    0.6496   -0.9509 H   0  0  0  0  0  0  0  0  0  0  0  0
    0.0157   -0.3936   -0.1180 H   0  0  0  0  0  0  0  0  0  0  0  0
    0.8118    1.4893   -1.4627 H   0  0  0  0  0  0  0  0  0  0  0  0
   -3.2447    3.2604    1.2701 H   0  0  0  0  0  0  0  0  0  0  0  0
   -2.6036    4.9223    1.0232 H   0  0  0  0  0  0  0  0  0  0  0  0
   -4.5024    5.0739    2.5077 H   0  0  0  0  0  0  0  0  0  0  0  0
   -5.5270    4.0572    1.4467 H   0  0  0  0  0  0  0  0  0  0  0  0
   -5.0469    5.7358    0.9226 H   0  0  0  0  0  0  0  0  0  0  0  0
   -5.2144    2.6933   -2.4514 H   0  0  0  0  0  0  0  0  0  0  0  0
   -5.5246    2.4123   -0.7007 H   0  0  0  0  0  0  0  0  0  0  0  0
   -6.5994    4.6949   -0.5575 H   0  0  0  0  0  0  0  0  0  0  0  0
   -7.3774    3.6607   -1.7951 H   0  0  0  0  0  0  0  0  0  0  0  0
   -6.2503    4.9549   -2.3170 H   0  0  0  0  0  0  0  0  0  0  0  0
   -3.4742    5.3553   -3.0920 H   0  0  0  0  0  0  0  0  0  0  0  0
   -4.3359    6.2370   -1.7758 H   0  0  0  0  0  0  0  0  0  0  0  0
   -2.1582    7.2918   -2.2616 H   0  0  0  0  0  0  0  0  0  0  0  0
   -1.2957    5.7534   -1.9420 H   0  0  0  0  0  0  0  0  0  0  0  0
   -2.1682    6.6159   -0.5985 H   0  0  0  0  0  0  0  0  0  0  0  0
   -3.1867   -9.2023   -5.9386 H   0  0  0  0  0  0  0  0  0  0  0  0
   -2.0427  -10.1647   -4.9343 H   0  0  0  0  0  0  0  0  0  0  0  0
   -2.4148  -10.3765   -7.9946 H   0  0  0  0  0  0  0  0  0  0  0  0
   -1.2290  -11.3310   -7.0090 H   0  0  0  0  0  0  0  0  0  0  0  0
   -2.9972  -11.5436   -6.7571 H   0  0  0  0  0  0  0  0  0  0  0  0
   -0.2308   -6.9891   -8.1476 H   0  0  0  0  0  0  0  0  0  0  0  0
   -0.9445   -8.5468   -8.7057 H   0  0  0  0  0  0  0  0  0  0  0  0
   -3.2250   -7.7512   -7.9953 H   0  0  0  0  0  0  0  0  0  0  0  0
   -2.4673   -6.6438   -9.1925 H   0  0  0  0  0  0  0  0  0  0  0  0
   -2.4994   -6.1817   -7.4506 H   0  0  0  0  0  0  0  0  0  0  0  0
    1.6124   -8.4680   -6.3925 H   0  0  0  0  0  0  0  0  0  0  0  0
    0.9030  -10.0634   -6.8445 H   0  0  0  0  0  0  0  0  0  0  0  0
    1.0896   -8.9010   -3.9871 H   0  0  0  0  0  0  0  0  0  0  0  0
    0.3427  -10.4975   -4.4272 H   0  0  0  0  0  0  0  0  0  0  0  0
    2.1076  -10.2203   -4.6759 H   0  0  0  0  0  0  0  0  0  0  0  0
   -2.2498   -5.2388   -2.5085 H   0  0  0  0  0  0  0  0  0  0  0  0
   -1.2093   -3.4522   -6.4464 H   0  0  0  0  0  0  0  0  0  0  0  0
   -2.7049   -1.6063   -8.3250 H   0  0  0  0  0  0  0  0  0  0  0  0
   -0.7298    0.0852  -13.1555 H   0  0  0  0  0  0  0  0  0  0  0  0
    1.4937    0.9353  -13.9121 H   0  0  0  0  0  0  0  0  0  0  0  0
    3.3478    1.2319  -12.2767 H   0  0  0  0  0  0  0  0  0  0  0  0
    2.9813    0.7276   -9.8575 H   0  0  0  0  0  0  0  0  0  0  0  0
  1  2  2  3
  2  3  1  0
  3  4  2  0
  3  5  1  0
  5  6  2  0
  6  7  1  0
  7  8  2  0
  8  9  1  0
  9 10  2  0
 10 11  1  0
 11 12  2  3
 12 13  1  0
 13 14  3  0
 12 15  1  0
 15 16  3  0
  8 17  1  0
 17 18  1  0
 18 19  1  0
 19 20  2  0
 20 21  1  0
 21 22  1  0
 21 23  1  0
  1 24  1  0
 24 25  2  0
 25 26  1  0
 26 27  1  0
 27 28  1  0
 28 29  1  0
 26 30  2  0
 30 31  1  0
 30 32  1  0
 32 33  2  0
 33 34  1  0
 34 35  1  0
 35 36  2  0
 36 37  1  0
 37 38  2  0
 38 39  1  0
 39 40  1  0
 38 41  1  0
 41 42  2  0
 34 43  1  0
 43 44  2  0
 44 45  1  0
 45 46  2  0
 46 47  1  0
 47 48  1  0
 46 49  1  0
 49 50  2  0
 33 51  1  0
 51 52  1  0
 52 53  1  0
 53 54  2  0
 54 55  1  0
 55 56  1  0
 56 57  2  0
 57 58  1  0
 58 59  2  0
 59 60  1  0
 60 61  1  0
 59 62  1  0
 62 63  2  0
 55 64  1  0
 64 65  2  0
 65 66  1  0
 66 67  2  0
 67 68  1  0
 68 69  1  0
 67 70  1  0
 70 71  2  0
 54 72  1  0
 72 73  1  0
 53 74  1  0
 74 75  2  0
 75 76  1  0
 76 77  2  0
 77 78  1  0
 78 79  2  0
 79 80  1  0
 80 81  1  0
 80 82  2  0
 82 83  1  0
 83 84  1  0
 84 85  1  0
 83 86  1  0
 86 87  1  0
 83 88  1  0
 88 89  1  0
 82 90  1  0
 77 91  1  0
 91 92  2  0
 92 93  1  0
 93 94  1  0
 94 95  1  0
 95 96  1  0
 96 97  1  0
 97 98  1  0
 98 99  1  0
 97100  1  0
100101  1  0
 97102  1  0
102103  1  0
 96104  2  0
104105  1  0
104106  1  0
 93107  2  0
107108  1  0
 92109  1  0
109110  2  0
110111  1  0
110112  1  0
112113  2  3
113114  1  0
114115  2  0
114116  1  0
116117  2  0
117118  1  0
118119  2  0
119120  1  0
120121  2  0
121122  1  0
122123  2  0
 11  2  1  0
 23 17  1  0
 31 24  1  0
 73 32  1  0
108 74  1  0
122113  1  0
 10  5  1  0
 22 18  1  0
 42 35  1  0
 50 43  1  0
 72 51  2  0
107 76  1  0
121116  1  0
 23  7  1  0
 63 56  1  0
 71 64  1  0
 90 78  1  0
111 91  1  0
105 94  2  0
  1124  1  0
  6125  1  0
  9126  1  0
 17127  1  0
 18128  1  0
 19129  1  0
 20130  1  0
 21131  1  0
 22132  1  0
 22133  1  0
 23134  1  0
 25135  1  0
 28136  1  0
 28137  1  0
 29138  1  0
 29139  1  0
 29140  1  0
 36141  1  0
 37142  1  0
 40143  1  0
 40144  1  0
 40145  1  0
 41146  1  0
 42147  1  0
 44148  1  0
 45149  1  0
 48150  1  0
 48151  1  0
 48152  1  0
 49153  1  0
 50154  1  0
 57155  1  0
 58156  1  0
 61157  1  0
 61158  1  0
 61159  1  0
 62160  1  0
 63161  1  0
 65162  1  0
 66163  1  0
 69164  1  0
 69165  1  0
 69166  1  0
 70167  1  0
 71168  1  0
 75169  1  0
 79170  1  0
 84171  1  0
 84172  1  0
 85173  1  0
 85174  1  0
 85175  1  0
 86176  1  0
 86177  1  0
 87178  1  0
 87179  1  0
 87180  1  0
 88181  1  0
 88182  1  0
 89183  1  0
 89184  1  0
 89185  1  0
 98186  1  0
 98187  1  0
 99188  1  0
 99189  1  0
 99190  1  0
100191  1  0
100192  1  0
101193  1  0
101194  1  0
101195  1  0
102196  1  0
102197  1  0
103198  1  0
103199  1  0
103200  1  0
105201  1  0
109202  1  0
112203  1  0
117204  1  0
118205  1  0
119206  1  0
120207  1  0
M  END

