
     RDKit          3D

169185  0  0  0  0  0  0  0  0999 V2000
    7.6548   -2.4297    2.5135 C   0  0  0  0  0  0  0  0  0  0  0  0
    8.4734   -1.3672    2.6290 C   0  0  0  0  0  0  0  0  0  0  0  0
    8.1902   -0.0173    2.1122 C   0  0  0  0  0  0  0  0  0  0  0  0
    7.0757    0.4218    1.7143 O   0  0  0  0  0  0  0  0  0  0  0  0
    9.4289    0.7146    2.0170 C   0  0  0  0  0  0  0  0  0  0  0  0
    9.6075    1.9991    1.4562 C   0  0  0  0  0  0  0  0  0  0  0  0
   10.9263    2.3939    1.3759 C   0  0  0  0  0  0  0  0  0  0  0  0
   12.0168    1.5686    1.7996 C   0  0  0  0  0  0  0  0  0  0  0  0
   11.8486    0.3094    2.3498 C   0  0  0  0  0  0  0  0  0  0  0  0
   10.4910   -0.1025    2.4762 C   0  0  0  0  0  0  0  0  0  0  0  0
    9.9296   -1.3888    2.9810 C   0  0  0  0  0  0  0  0  0  0  0  0
   10.5476   -2.2803    3.8001 C   0  0  0  0  0  0  0  0  0  0  0  0
   11.9147   -2.1167    4.2197 C   0  0  0  0  0  0  0  0  0  0  0  0
   13.0130   -1.9909    4.5677 N   0  0  0  0  0  0  0  0  0  0  0  0
    9.8428   -3.3736    4.4191 C   0  0  0  0  0  0  0  0  0  0  0  0
    9.2801   -4.2552    4.9186 N   0  0  0  0  0  0  0  0  0  0  0  0
   13.0002    2.6119    1.3485 C   0  0  0  0  0  0  0  0  0  0  0  0
   13.7657    2.3270    0.0239 C   0  0  0  0  0  0  0  0  0  0  0  0
   14.3595    3.6485   -0.4053 C   0  0  0  0  0  0  0  0  0  0  0  0
   13.3361    4.4166   -0.7955 C   0  0  0  0  0  0  0  0  0  0  0  0
   12.0861    3.5843   -0.6173 C   0  0  0  0  0  0  0  0  0  0  0  0
   12.6477    2.2300   -1.0020 C   0  0  0  0  0  0  0  0  0  0  0  0
   11.8812    3.4573    0.9201 C   0  0  0  0  0  0  0  0  0  0  0  0
    6.2698   -2.3057    2.0376 C   0  0  0  0  0  0  0  0  0  0  0  0
    5.8254   -2.7404    0.7977 C   0  0  0  0  0  0  0  0  0  0  0  0
    4.5143   -2.3410    0.5195 C   0  0  0  0  0  0  0  0  0  0  0  0
    3.7231   -2.6693   -1.0639 S   0  0  0  0  0  0  0  0  0  0  0  0
    4.2080   -1.0652   -1.7858 C   0  0  0  0  0  0  0  0  0  0  0  0
    3.5218   -0.8834   -3.1306 C   0  0  0  0  0  0  0  0  0  0  0  0
    3.9372   -1.6084    1.5475 C   0  0  0  0  0  0  0  0  0  0  0  0
    5.0438   -1.4484    2.8042 S   0  0  0  0  0  0  0  0  0  0  0  0
    2.6160   -0.9876    1.5121 C   0  0  0  0  0  0  0  0  0  0  0  0
    1.4038   -1.6722    1.6083 C   0  0  0  0  0  0  0  0  0  0  0  0
    1.2719   -3.0917    1.8385 N   0  0  0  0  0  0  0  0  0  0  0  0
    0.3170   -3.8636    1.0782 C   0  0  0  0  0  0  0  0  0  0  0  0
    0.1425   -3.6256   -0.2979 C   0  0  0  0  0  0  0  0  0  0  0  0
   -0.8656   -4.2832   -1.0062 C   0  0  0  0  0  0  0  0  0  0  0  0
   -1.7159   -5.1809   -0.3471 C   0  0  0  0  0  0  0  0  0  0  0  0
   -3.0686   -5.9444   -1.2381 S   0  0  0  0  0  0  0  0  0  0  0  0
   -4.3148   -4.7578   -0.6388 C   0  0  0  0  0  0  0  0  0  0  0  0
   -1.5235   -5.4574    1.0121 C   0  0  0  0  0  0  0  0  0  0  0  0
   -0.5192   -4.7958    1.7255 C   0  0  0  0  0  0  0  0  0  0  0  0
    2.0052   -3.7016    2.9152 C   0  0  0  0  0  0  0  0  0  0  0  0
    2.0349   -3.0966    4.1804 C   0  0  0  0  0  0  0  0  0  0  0  0
    2.7342   -3.6903    5.2305 C   0  0  0  0  0  0  0  0  0  0  0  0
    3.4090   -4.8978    5.0249 C   0  0  0  0  0  0  0  0  0  0  0  0
    4.2706   -5.6884    6.3860 S   0  0  0  0  0  0  0  0  0  0  0  0
    2.8066   -6.6437    6.9041 C   0  0  0  0  0  0  0  0  0  0  0  0
    3.4001   -5.4987    3.7614 C   0  0  0  0  0  0  0  0  0  0  0  0
    2.6988   -4.9057    2.7085 C   0  0  0  0  0  0  0  0  0  0  0  0
    0.3323   -0.8184    1.3638 C   0  0  0  0  0  0  0  0  0  0  0  0
   -1.3261   -1.0276    1.2800 S   0  0  0  0  0  0  0  0  0  0  0  0
   -1.6165    0.5591    0.7333 C   0  0  0  0  0  0  0  0  0  0  0  0
   -0.4003    1.2662    0.6308 C   0  0  0  0  0  0  0  0  0  0  0  0
   -0.2264    2.4266   -0.1949 N   0  0  0  0  0  0  0  0  0  0  0  0
    0.5345    3.5464    0.2990 C   0  0  0  0  0  0  0  0  0  0  0  0
    0.1938    4.1455    1.5238 C   0  0  0  0  0  0  0  0  0  0  0  0
    0.9404    5.2187    2.0211 C   0  0  0  0  0  0  0  0  0  0  0  0
    2.0625    5.6800    1.3183 C   0  0  0  0  0  0  0  0  0  0  0  0
    3.0440    7.0197    1.9874 S   0  0  0  0  0  0  0  0  0  0  0  0
    2.1589    8.3050    1.0505 C   0  0  0  0  0  0  0  0  0  0  0  0
    2.4127    5.0848    0.0968 C   0  0  0  0  0  0  0  0  0  0  0  0
    1.6507    4.0321   -0.4107 C   0  0  0  0  0  0  0  0  0  0  0  0
   -0.4681    2.2862   -1.6068 C   0  0  0  0  0  0  0  0  0  0  0  0
   -1.2267    3.2476   -2.2857 C   0  0  0  0  0  0  0  0  0  0  0  0
   -1.4705    3.1091   -3.6581 C   0  0  0  0  0  0  0  0  0  0  0  0
   -0.9508    2.0084   -4.3595 C   0  0  0  0  0  0  0  0  0  0  0  0
   -1.2409    1.8452   -6.1231 S   0  0  0  0  0  0  0  0  0  0  0  0
   -2.6884    0.7625   -5.9126 C   0  0  0  0  0  0  0  0  0  0  0  0
   -0.1862    1.0484   -3.6841 C   0  0  0  0  0  0  0  0  0  0  0  0
    0.0445    1.1789   -2.3141 C   0  0  0  0  0  0  0  0  0  0  0  0
    0.6652    0.4540    1.0290 C   0  0  0  0  0  0  0  0  0  0  0  0
    2.3310    0.6308    1.0555 S   0  0  0  0  0  0  0  0  0  0  0  0
   -2.9834    1.0752    0.5787 C   0  0  0  0  0  0  0  0  0  0  0  0
   -3.5069    1.8709    1.6121 C   0  0  0  0  0  0  0  0  0  0  0  0
   -2.6724    2.4974    2.4751 F   0  0  0  0  0  0  0  0  0  0  0  0
   -4.8701    1.8378    1.9074 C   0  0  0  0  0  0  0  0  0  0  0  0
   -5.3160    2.4994    3.0135 F   0  0  0  0  0  0  0  0  0  0  0  0
   -5.7359    0.9902    1.1951 C   0  0  0  0  0  0  0  0  0  0  0  0
   -5.2400    0.3241    0.0511 C   0  0  0  0  0  0  0  0  0  0  0  0
   -6.0334   -0.5081   -0.6735 N   0  0  0  0  0  0  0  0  0  0  0  0
   -5.5658   -1.2193   -1.7333 C   0  0  0  0  0  0  0  0  0  0  0  0
   -6.4189   -2.0826   -2.4296 O   0  0  0  0  0  0  0  0  0  0  0  0
   -7.7732   -2.2715   -2.0412 C   0  0  0  0  0  0  0  0  0  0  0  0
   -8.4198   -3.3334   -2.9062 C   0  0  0  0  0  0  0  0  0  0  0  0
   -4.2163   -1.0983   -2.0875 C   0  0  0  0  0  0  0  0  0  0  0  0
   -3.3997   -0.3209   -1.3301 N   0  0  0  0  0  0  0  0  0  0  0  0
   -3.8668    0.3963   -0.2729 C   0  0  0  0  0  0  0  0  0  0  0  0
   -3.6380   -1.8554   -3.2478 C   0  0  0  0  0  0  0  0  0  0  0  0
   -6.9403    0.5166    1.9212 C   0  0  0  0  0  0  0  0  0  0  0  0
   -8.0429   -0.0143    1.3711 C   0  0  0  0  0  0  0  0  0  0  0  0
   -8.7395    0.5084    0.1942 C   0  0  0  0  0  0  0  0  0  0  0  0
   -8.2865    1.3510   -0.6288 O   0  0  0  0  0  0  0  0  0  0  0  0
  -10.0920   -0.0146    0.2110 C   0  0  0  0  0  0  0  0  0  0  0  0
  -11.1441    0.2762   -0.6584 C   0  0  0  0  0  0  0  0  0  0  0  0
  -12.3992   -0.3138   -0.4186 C   0  0  0  0  0  0  0  0  0  0  0  0
  -13.4774   -0.0782   -1.2890 C   0  0  0  0  0  0  0  0  0  0  0  0
  -14.7186   -0.6779   -1.0514 C   0  0  0  0  0  0  0  0  0  0  0  0
  -15.7518   -0.4563   -1.9042 F   0  0  0  0  0  0  0  0  0  0  0  0
  -14.9018   -1.5039    0.0575 C   0  0  0  0  0  0  0  0  0  0  0  0
  -16.1152   -2.0678    0.3089 F   0  0  0  0  0  0  0  0  0  0  0  0
  -13.8366   -1.7357    0.9417 C   0  0  0  0  0  0  0  0  0  0  0  0
  -12.5842   -1.1573    0.7089 C   0  0  0  0  0  0  0  0  0  0  0  0
  -11.5138   -1.4106    1.5827 C   0  0  0  0  0  0  0  0  0  0  0  0
  -10.2598   -0.8430    1.3126 C   0  0  0  0  0  0  0  0  0  0  0  0
   -8.9725   -0.9546    2.0532 C   0  0  0  0  0  0  0  0  0  0  0  0
   -8.6153   -1.8975    2.9626 C   0  0  0  0  0  0  0  0  0  0  0  0
   -7.2394   -2.0749    3.3618 C   0  0  0  0  0  0  0  0  0  0  0  0
   -6.1362   -2.1728    3.6806 N   0  0  0  0  0  0  0  0  0  0  0  0
   -9.5515   -2.8117    3.5554 C   0  0  0  0  0  0  0  0  0  0  0  0
  -10.2978   -3.5349    4.0730 N   0  0  0  0  0  0  0  0  0  0  0  0
    8.0304   -3.4292    2.6291 H   0  0  0  0  0  0  0  0  0  0  0  0
    8.7917    2.6016    1.0790 H   0  0  0  0  0  0  0  0  0  0  0  0
   12.7015   -0.3017    2.6014 H   0  0  0  0  0  0  0  0  0  0  0  0
   13.6144    3.0391    2.1778 H   0  0  0  0  0  0  0  0  0  0  0  0
   14.4715    1.4715    0.0475 H   0  0  0  0  0  0  0  0  0  0  0  0
   15.4125    3.9071   -0.4830 H   0  0  0  0  0  0  0  0  0  0  0  0
   13.4142    5.4022   -1.2453 H   0  0  0  0  0  0  0  0  0  0  0  0
   11.1991    3.9299   -1.1950 H   0  0  0  0  0  0  0  0  0  0  0  0
   13.0140    2.1859   -2.0576 H   0  0  0  0  0  0  0  0  0  0  0  0
   11.9437    1.3826   -0.8369 H   0  0  0  0  0  0  0  0  0  0  0  0
   11.7797    4.4168    1.4697 H   0  0  0  0  0  0  0  0  0  0  0  0
    6.4516   -3.2747    0.0957 H   0  0  0  0  0  0  0  0  0  0  0  0
    5.3136   -1.0345   -1.9238 H   0  0  0  0  0  0  0  0  0  0  0  0
    3.9068   -0.2408   -1.1103 H   0  0  0  0  0  0  0  0  0  0  0  0
    2.4208   -1.0144   -3.0216 H   0  0  0  0  0  0  0  0  0  0  0  0
    3.7084    0.1425   -3.5145 H   0  0  0  0  0  0  0  0  0  0  0  0
    3.9082   -1.6234   -3.8557 H   0  0  0  0  0  0  0  0  0  0  0  0
    0.7629   -2.9072   -0.8163 H   0  0  0  0  0  0  0  0  0  0  0  0
   -1.0116   -4.0751   -2.0584 H   0  0  0  0  0  0  0  0  0  0  0  0
   -4.5886   -5.0035    0.4084 H   0  0  0  0  0  0  0  0  0  0  0  0
   -3.9331   -3.7156   -0.6816 H   0  0  0  0  0  0  0  0  0  0  0  0
   -5.2239   -4.8337   -1.2713 H   0  0  0  0  0  0  0  0  0  0  0  0
   -2.1811   -6.1481    1.5251 H   0  0  0  0  0  0  0  0  0  0  0  0
   -0.4167   -4.9792    2.7859 H   0  0  0  0  0  0  0  0  0  0  0  0
    1.4898   -2.1793    4.3585 H   0  0  0  0  0  0  0  0  0  0  0  0
    2.7315   -3.2283    6.2096 H   0  0  0  0  0  0  0  0  0  0  0  0
    2.4759   -7.3099    6.0772 H   0  0  0  0  0  0  0  0  0  0  0  0
    1.9801   -5.9566    7.1803 H   0  0  0  0  0  0  0  0  0  0  0  0
    3.0692   -7.2667    7.7835 H   0  0  0  0  0  0  0  0  0  0  0  0
    3.9220   -6.4313    3.5983 H   0  0  0  0  0  0  0  0  0  0  0  0
    2.6930   -5.3793    1.7350 H   0  0  0  0  0  0  0  0  0  0  0  0
   -0.6601    3.7963    2.0852 H   0  0  0  0  0  0  0  0  0  0  0  0
    0.6594    5.6825    2.9598 H   0  0  0  0  0  0  0  0  0  0  0  0
    1.0944    8.3428    1.3694 H   0  0  0  0  0  0  0  0  0  0  0  0
    2.2161    8.0888   -0.0385 H   0  0  0  0  0  0  0  0  0  0  0  0
    2.6315    9.2907    1.2466 H   0  0  0  0  0  0  0  0  0  0  0  0
    3.2772    5.4436   -0.4534 H   0  0  0  0  0  0  0  0  0  0  0  0
    1.9382    3.5778   -1.3560 H   0  0  0  0  0  0  0  0  0  0  0  0
   -1.6416    4.0945   -1.7483 H   0  0  0  0  0  0  0  0  0  0  0  0
   -2.0611    3.8517   -4.1763 H   0  0  0  0  0  0  0  0  0  0  0  0
   -2.3789   -0.1689   -5.3948 H   0  0  0  0  0  0  0  0  0  0  0  0
   -3.4671    1.2877   -5.3188 H   0  0  0  0  0  0  0  0  0  0  0  0
   -3.1010    0.4976   -6.9037 H   0  0  0  0  0  0  0  0  0  0  0  0
    0.2192    0.1965   -4.2200 H   0  0  0  0  0  0  0  0  0  0  0  0
    0.6310    0.4238   -1.8057 H   0  0  0  0  0  0  0  0  0  0  0  0
   -7.8185   -2.6039   -0.9774 H   0  0  0  0  0  0  0  0  0  0  0  0
   -8.3240   -1.3141   -2.1500 H   0  0  0  0  0  0  0  0  0  0  0  0
   -9.4571   -3.5192   -2.5613 H   0  0  0  0  0  0  0  0  0  0  0  0
   -8.4473   -2.9900   -3.9645 H   0  0  0  0  0  0  0  0  0  0  0  0
   -7.8336   -4.2755   -2.8458 H   0  0  0  0  0  0  0  0  0  0  0  0
   -4.2278   -1.6482   -4.1636 H   0  0  0  0  0  0  0  0  0  0  0  0
   -2.5843   -1.5543   -3.4149 H   0  0  0  0  0  0  0  0  0  0  0  0
   -3.6715   -2.9399   -3.0241 H   0  0  0  0  0  0  0  0  0  0  0  0
   -6.8208    0.4218    2.9928 H   0  0  0  0  0  0  0  0  0  0  0  0
  -10.9857    0.9400   -1.5031 H   0  0  0  0  0  0  0  0  0  0  0  0
  -13.3629    0.5695   -2.1488 H   0  0  0  0  0  0  0  0  0  0  0  0
  -14.0000   -2.3896    1.7889 H   0  0  0  0  0  0  0  0  0  0  0  0
  -11.6721   -2.0255    2.4529 H   0  0  0  0  0  0  0  0  0  0  0  0
  1  2  2  3
  2  3  1  0
  3  4  2  0
  3  5  1  0
  5  6  2  0
  6  7  1  0
  7  8  2  0
  8  9  1  0
  9 10  2  0
 10 11  1  0
 11 12  2  3
 12 13  1  0
 13 14  3  0
 12 15  1  0
 15 16  3  0
  8 17  1  0
 17 18  1  0
 18 19  1  0
 19 20  2  0
 20 21  1  0
 21 22  1  0
 21 23  1  0
  1 24  1  0
 24 25  2  0
 25 26  1  0
 26 27  1  0
 27 28  1  0
 28 29  1  0
 26 30  2  0
 30 31  1  0
 30 32  1  0
 32 33  2  0
 33 34  1  0
 34 35  1  0
 35 36  2  0
 36 37  1  0
 37 38  2  0
 38 39  1  0
 39 40  1  0
 38 41  1  0
 41 42  2  0
 34 43  1  0
 43 44  2  0
 44 45  1  0
 45 46  2  0
 46 47  1  0
 47 48  1  0
 46 49  1  0
 49 50  2  0
 33 51  1  0
 51 52  1  0
 52 53  1  0
 53 54  2  0
 54 55  1  0
 55 56  1  0
 56 57  2  0
 57 58  1  0
 58 59  2  0
 59 60  1  0
 60 61  1  0
 59 62  1  0
 62 63  2  0
 55 64  1  0
 64 65  2  0
 65 66  1  0
 66 67  2  0
 67 68  1  0
 68 69  1  0
 67 70  1  0
 70 71  2  0
 54 72  1  0
 72 73  1  0
 53 74  1  0
 74 75  2  0
 75 76  1  0
 75 77  1  0
 77 78  1  0
 77 79  2  0
 79 80  1  0
 80 81  2  0
 81 82  1  0
 82 83  1  0
 83 84  1  0
 84 85  1  0
 82 86  2  0
 86 87  1  0
 87 88  2  0
 86 89  1  0
 79 90  1  0
 90 91  2  3
 91 92  1  0
 92 93  2  0
 92 94  1  0
 94 95  2  0
 95 96  1  0
 96 97  2  0
 97 98  1  0
 98 99  1  0
 98100  2  0
100101  1  0
100102  1  0
102103  2  0
103104  1  0
104105  2  0
105106  1  0
106107  2  3
107108  1  0
108109  3  0
107110  1  0
110111  3  0
 11  2  1  0
 23 17  1  0
 31 24  1  0
 73 32  1  0
 88 74  1  0
106 91  1  0
 10  5  1  0
 22 18  1  0
 42 35  1  0
 50 43  1  0
 72 51  2  0
 88 80  1  0
105 94  1  0
 23  7  1  0
 63 56  1  0
 71 64  1  0
103 96  1  0
  1112  1  0
  6113  1  0
  9114  1  0
 17115  1  0
 18116  1  0
 19117  1  0
 20118  1  0
 21119  1  0
 22120  1  0
 22121  1  0
 23122  1  0
 25123  1  0
 28124  1  0
 28125  1  0
 29126  1  0
 29127  1  0
 29128  1  0
 36129  1  0
 37130  1  0
 40131  1  0
 40132  1  0
 40133  1  0
 41134  1  0
 42135  1  0
 44136  1  0
 45137  1  0
 48138  1  0
 48139  1  0
 48140  1  0
 49141  1  0
 50142  1  0
 57143  1  0
 58144  1  0
 61145  1  0
 61146  1  0
 61147  1  0
 62148  1  0
 63149  1  0
 65150  1  0
 66151  1  0
 69152  1  0
 69153  1  0
 69154  1  0
 70155  1  0
 71156  1  0
 84157  1  0
 84158  1  0
 85159  1  0
 85160  1  0
 85161  1  0
 89162  1  0
 89163  1  0
 89164  1  0
 90165  1  0
 95166  1  0
 97167  1  0
102168  1  0
104169  1  0
M  END

