
     RDKit          3D

150164  0  0  0  0  0  0  0  0999 V2000
   -2.4068    4.1835   -1.4437 C   0  0  0  0  0  0  0  0  0  0  0  0
   -3.3726    5.0694   -1.1324 C   0  0  0  0  0  0  0  0  0  0  0  0
   -4.8178    4.8462   -1.2824 C   0  0  0  0  0  0  0  0  0  0  0  0
   -5.3630    3.8087   -1.7424 O   0  0  0  0  0  0  0  0  0  0  0  0
   -5.5095    6.0884   -1.0200 C   0  0  0  0  0  0  0  0  0  0  0  0
   -6.9127    6.2919   -0.9937 C   0  0  0  0  0  0  0  0  0  0  0  0
   -7.2816    7.5780   -0.6540 C   0  0  0  0  0  0  0  0  0  0  0  0
   -6.3363    8.6066   -0.3420 C   0  0  0  0  0  0  0  0  0  0  0  0
   -4.9657    8.4202   -0.3786 C   0  0  0  0  0  0  0  0  0  0  0  0
   -4.5547    7.1050   -0.7455 C   0  0  0  0  0  0  0  0  0  0  0  0
   -3.1844    6.5189   -0.7984 C   0  0  0  0  0  0  0  0  0  0  0  0
   -2.0176    7.1420   -0.4748 C   0  0  0  0  0  0  0  0  0  0  0  0
   -1.9063    8.5710   -0.3258 C   0  0  0  0  0  0  0  0  0  0  0  0
   -1.7848    9.7179   -0.2102 N   0  0  0  0  0  0  0  0  0  0  0  0
   -0.8052    6.4204   -0.1929 C   0  0  0  0  0  0  0  0  0  0  0  0
    0.1765    5.8505    0.0418 N   0  0  0  0  0  0  0  0  0  0  0  0
   -7.4526    9.5757   -0.0865 C   0  0  0  0  0  0  0  0  0  0  0  0
   -7.7188   10.6666   -1.1695 C   0  0  0  0  0  0  0  0  0  0  0  0
   -7.3467   10.1420   -2.5395 C   0  0  0  0  0  0  0  0  0  0  0  0
   -8.2329    9.1861   -2.8290 C   0  0  0  0  0  0  0  0  0  0  0  0
   -9.1765    9.0920   -1.6523 C   0  0  0  0  0  0  0  0  0  0  0  0
   -9.2305   10.5609   -1.2758 C   0  0  0  0  0  0  0  0  0  0  0  0
   -8.4218    8.5246   -0.4124 C   0  0  0  0  0  0  0  0  0  0  0  0
   -2.5377    2.7145   -1.4071 C   0  0  0  0  0  0  0  0  0  0  0  0
   -3.4118    1.9577   -0.6271 C   0  0  0  0  0  0  0  0  0  0  0  0
   -3.0519    0.6053   -0.5180 C   0  0  0  0  0  0  0  0  0  0  0  0
   -4.0470   -0.5335    0.4557 S   0  0  0  0  0  0  0  0  0  0  0  0
   -3.2688   -0.1374    2.0646 C   0  0  0  0  0  0  0  0  0  0  0  0
   -4.0732    0.9169    2.8151 C   0  0  0  0  0  0  0  0  0  0  0  0
   -1.8693    0.2775   -1.1996 C   0  0  0  0  0  0  0  0  0  0  0  0
   -1.3077    1.6971   -1.9098 S   0  0  0  0  0  0  0  0  0  0  0  0
   -1.0204   -0.9299   -1.0377 C   0  0  0  0  0  0  0  0  0  0  0  0
    0.2412   -1.1072   -1.6493 C   0  0  0  0  0  0  0  0  0  0  0  0
    0.6039   -0.5715   -2.9376 N   0  0  0  0  0  0  0  0  0  0  0  0
    1.9613   -0.1760   -3.1994 C   0  0  0  0  0  0  0  0  0  0  0  0
    2.6783   -0.7734   -4.2509 C   0  0  0  0  0  0  0  0  0  0  0  0
    4.0005   -0.4126   -4.4990 C   0  0  0  0  0  0  0  0  0  0  0  0
    4.6206    0.5658   -3.7110 C   0  0  0  0  0  0  0  0  0  0  0  0
    6.3257    1.0059   -4.0423 S   0  0  0  0  0  0  0  0  0  0  0  0
    5.9096    2.2372   -5.3253 C   0  0  0  0  0  0  0  0  0  0  0  0
    3.9172    1.1677   -2.6590 C   0  0  0  0  0  0  0  0  0  0  0  0
    2.5939    0.7912   -2.3968 C   0  0  0  0  0  0  0  0  0  0  0  0
   -0.3186   -0.6909   -4.0400 C   0  0  0  0  0  0  0  0  0  0  0  0
   -1.1104   -1.8432   -4.1932 C   0  0  0  0  0  0  0  0  0  0  0  0
   -1.9979   -1.9606   -5.2664 C   0  0  0  0  0  0  0  0  0  0  0  0
   -2.1098   -0.9226   -6.1979 C   0  0  0  0  0  0  0  0  0  0  0  0
   -3.2334   -1.0765   -7.5868 S   0  0  0  0  0  0  0  0  0  0  0  0
   -4.6379   -0.3496   -6.6887 C   0  0  0  0  0  0  0  0  0  0  0  0
   -1.3258    0.2313   -6.0576 C   0  0  0  0  0  0  0  0  0  0  0  0
   -0.4265    0.3398   -4.9903 C   0  0  0  0  0  0  0  0  0  0  0  0
    1.0237   -2.0256   -0.9478 C   0  0  0  0  0  0  0  0  0  0  0  0
    2.6454   -2.4461   -0.9536 S   0  0  0  0  0  0  0  0  0  0  0  0
    2.5500   -3.4459    0.4260 C   0  0  0  0  0  0  0  0  0  0  0  0
    1.2144   -3.4560    0.8745 C   0  0  0  0  0  0  0  0  0  0  0  0
    0.6856   -4.2998    1.9155 N   0  0  0  0  0  0  0  0  0  0  0  0
    0.6303   -5.7290    1.6933 C   0  0  0  0  0  0  0  0  0  0  0  0
    0.4699   -6.2460    0.3924 C   0  0  0  0  0  0  0  0  0  0  0  0
    0.4608   -7.6280    0.1733 C   0  0  0  0  0  0  0  0  0  0  0  0
    0.6180   -8.5095    1.2488 C   0  0  0  0  0  0  0  0  0  0  0  0
    0.6347  -10.2797    0.9593 S   0  0  0  0  0  0  0  0  0  0  0  0
    2.4110  -10.3145    0.5483 C   0  0  0  0  0  0  0  0  0  0  0  0
    0.7582   -8.0062    2.5482 C   0  0  0  0  0  0  0  0  0  0  0  0
    0.7531   -6.6242    2.7710 C   0  0  0  0  0  0  0  0  0  0  0  0
   -0.0638   -3.6911    2.9926 C   0  0  0  0  0  0  0  0  0  0  0  0
   -1.3012   -4.2303    3.3989 C   0  0  0  0  0  0  0  0  0  0  0  0
   -2.0403   -3.6282    4.4152 C   0  0  0  0  0  0  0  0  0  0  0  0
   -1.5531   -2.4744    5.0481 C   0  0  0  0  0  0  0  0  0  0  0  0
   -2.5016   -1.7116    6.3645 S   0  0  0  0  0  0  0  0  0  0  0  0
   -1.7074   -2.7216    7.6591 C   0  0  0  0  0  0  0  0  0  0  0  0
   -0.3365   -1.9132    4.6381 C   0  0  0  0  0  0  0  0  0  0  0  0
    0.4060   -2.5140    3.6150 C   0  0  0  0  0  0  0  0  0  0  0  0
    0.4126   -2.6253    0.0983 C   0  0  0  0  0  0  0  0  0  0  0  0
   -1.1352   -2.0163    0.2731 S   0  0  0  0  0  0  0  0  0  0  0  0
    3.7206   -3.7507    1.2630 C   0  0  0  0  0  0  0  0  0  0  0  0
    3.8477   -4.7660    2.2029 C   0  0  0  0  0  0  0  0  0  0  0  0
    4.9593   -4.6159    3.0428 C   0  0  0  0  0  0  0  0  0  0  0  0
    5.3737   -5.8240    4.3096 S   0  0  0  0  0  0  0  0  0  0  0  0
    4.5209   -4.9502    5.6725 C   0  0  0  0  0  0  0  0  0  0  0  0
    3.0075   -5.0871    5.5564 C   0  0  0  0  0  0  0  0  0  0  0  0
    5.7030   -3.4644    2.7899 C   0  0  0  0  0  0  0  0  0  0  0  0
    5.0133   -2.6910    1.4634 S   0  0  0  0  0  0  0  0  0  0  0  0
    6.9472   -3.0782    3.4885 C   0  0  0  0  0  0  0  0  0  0  0  0
    7.4392   -1.8302    3.5905 C   0  0  0  0  0  0  0  0  0  0  0  0
    8.8694   -1.5783    3.8303 C   0  0  0  0  0  0  0  0  0  0  0  0
    9.7191   -2.3929    4.2869 O   0  0  0  0  0  0  0  0  0  0  0  0
    9.1311   -0.2308    3.3960 C   0  0  0  0  0  0  0  0  0  0  0  0
   10.4569    0.7883    3.3342 S   0  0  0  0  0  0  0  0  0  0  0  0
    9.5367    2.0974    2.7429 C   0  0  0  0  0  0  0  0  0  0  0  0
    8.1956    1.7167    2.6154 C   0  0  0  0  0  0  0  0  0  0  0  0
    7.9963    0.3838    2.9886 C   0  0  0  0  0  0  0  0  0  0  0  0
    6.8350   -0.5163    3.1887 C   0  0  0  0  0  0  0  0  0  0  0  0
    5.5632   -0.0987    3.3854 C   0  0  0  0  0  0  0  0  0  0  0  0
    5.1188    1.2120    2.9778 C   0  0  0  0  0  0  0  0  0  0  0  0
    4.7513    2.2626    2.6517 N   0  0  0  0  0  0  0  0  0  0  0  0
    4.6048   -0.8931    4.1135 C   0  0  0  0  0  0  0  0  0  0  0  0
    3.8294   -1.5181    4.7029 N   0  0  0  0  0  0  0  0  0  0  0  0
   -1.4128    4.5345   -1.6588 H   0  0  0  0  0  0  0  0  0  0  0  0
   -7.6372    5.5124   -1.2096 H   0  0  0  0  0  0  0  0  0  0  0  0
   -4.3118    9.2345   -0.1130 H   0  0  0  0  0  0  0  0  0  0  0  0
   -7.5058    9.9257    0.9702 H   0  0  0  0  0  0  0  0  0  0  0  0
   -7.3240   11.6757   -0.9262 H   0  0  0  0  0  0  0  0  0  0  0  0
   -6.5591   10.5043   -3.1960 H   0  0  0  0  0  0  0  0  0  0  0  0
   -8.2923    8.6355   -3.7628 H   0  0  0  0  0  0  0  0  0  0  0  0
  -10.1549    8.6141   -1.8692 H   0  0  0  0  0  0  0  0  0  0  0  0
   -9.7595   10.7584   -0.3153 H   0  0  0  0  0  0  0  0  0  0  0  0
   -9.6618   11.2091   -2.0724 H   0  0  0  0  0  0  0  0  0  0  0  0
   -9.0692    8.2337    0.4428 H   0  0  0  0  0  0  0  0  0  0  0  0
   -4.2325    2.3828   -0.0700 H   0  0  0  0  0  0  0  0  0  0  0  0
   -2.2258    0.2148    1.9371 H   0  0  0  0  0  0  0  0  0  0  0  0
   -3.2390   -1.0695    2.6704 H   0  0  0  0  0  0  0  0  0  0  0  0
   -3.9895    1.9011    2.3055 H   0  0  0  0  0  0  0  0  0  0  0  0
   -3.6834    1.0201    3.8496 H   0  0  0  0  0  0  0  0  0  0  0  0
   -5.1421    0.6185    2.8664 H   0  0  0  0  0  0  0  0  0  0  0  0
    2.2100   -1.5372   -4.8627 H   0  0  0  0  0  0  0  0  0  0  0  0
    4.5418   -0.8918   -5.3058 H   0  0  0  0  0  0  0  0  0  0  0  0
    6.8050    2.4085   -5.9641 H   0  0  0  0  0  0  0  0  0  0  0  0
    5.6247    3.1960   -4.8418 H   0  0  0  0  0  0  0  0  0  0  0  0
    5.0843    1.8785   -5.9756 H   0  0  0  0  0  0  0  0  0  0  0  0
    4.3948    1.9142   -2.0396 H   0  0  0  0  0  0  0  0  0  0  0  0
    2.0558    1.2532   -1.5772 H   0  0  0  0  0  0  0  0  0  0  0  0
   -1.0264   -2.6626   -3.4900 H   0  0  0  0  0  0  0  0  0  0  0  0
   -2.5905   -2.8625   -5.3760 H   0  0  0  0  0  0  0  0  0  0  0  0
   -4.3973    0.6867   -6.3806 H   0  0  0  0  0  0  0  0  0  0  0  0
   -5.5286   -0.3321   -7.3564 H   0  0  0  0  0  0  0  0  0  0  0  0
   -4.8798   -0.9642   -5.7992 H   0  0  0  0  0  0  0  0  0  0  0  0
   -1.4051    1.0350   -6.7772 H   0  0  0  0  0  0  0  0  0  0  0  0
    0.1755    1.2353   -4.8964 H   0  0  0  0  0  0  0  0  0  0  0  0
    0.3464   -5.5845   -0.4590 H   0  0  0  0  0  0  0  0  0  0  0  0
    0.3364   -8.0094   -0.8338 H   0  0  0  0  0  0  0  0  0  0  0  0
    2.7082  -11.3621    0.3300 H   0  0  0  0  0  0  0  0  0  0  0  0
    3.0114   -9.9295    1.3961 H   0  0  0  0  0  0  0  0  0  0  0  0
    2.5926   -9.7020   -0.3556 H   0  0  0  0  0  0  0  0  0  0  0  0
    0.8813   -8.6870    3.3863 H   0  0  0  0  0  0  0  0  0  0  0  0
    0.8636   -6.2508    3.7805 H   0  0  0  0  0  0  0  0  0  0  0  0
   -1.7051   -5.1073    2.9071 H   0  0  0  0  0  0  0  0  0  0  0  0
   -2.9950   -4.0523    4.7145 H   0  0  0  0  0  0  0  0  0  0  0  0
   -0.6073   -2.5523    7.6634 H   0  0  0  0  0  0  0  0  0  0  0  0
   -2.1163   -2.4391    8.6522 H   0  0  0  0  0  0  0  0  0  0  0  0
   -1.9230   -3.7965    7.4868 H   0  0  0  0  0  0  0  0  0  0  0  0
    0.0438   -1.0169    5.1203 H   0  0  0  0  0  0  0  0  0  0  0  0
    1.3462   -2.0698    3.2988 H   0  0  0  0  0  0  0  0  0  0  0  0
    3.1867   -5.6028    2.2817 H   0  0  0  0  0  0  0  0  0  0  0  0
    4.8122   -3.8829    5.6905 H   0  0  0  0  0  0  0  0  0  0  0  0
    4.8502   -5.4115    6.6283 H   0  0  0  0  0  0  0  0  0  0  0  0
    2.6263   -4.4990    4.6914 H   0  0  0  0  0  0  0  0  0  0  0  0
    2.7307   -6.1501    5.4211 H   0  0  0  0  0  0  0  0  0  0  0  0
    2.5207   -4.7034    6.4823 H   0  0  0  0  0  0  0  0  0  0  0  0
    7.5554   -3.8988    3.8563 H   0  0  0  0  0  0  0  0  0  0  0  0
    9.9254    3.0791    2.5068 H   0  0  0  0  0  0  0  0  0  0  0  0
    7.4242    2.3859    2.2717 H   0  0  0  0  0  0  0  0  0  0  0  0
  1  2  2  3
  2  3  1  0
  3  4  2  0
  3  5  1  0
  5  6  2  0
  6  7  1  0
  7  8  2  0
  8  9  1  0
  9 10  2  0
 10 11  1  0
 11 12  2  3
 12 13  1  0
 13 14  3  0
 12 15  1  0
 15 16  3  0
  8 17  1  0
 17 18  1  0
 18 19  1  0
 19 20  2  0
 20 21  1  0
 21 22  1  0
 21 23  1  0
  1 24  1  0
 24 25  2  0
 25 26  1  0
 26 27  1  0
 27 28  1  0
 28 29  1  0
 26 30  2  0
 30 31  1  0
 30 32  1  0
 32 33  2  0
 33 34  1  0
 34 35  1  0
 35 36  2  0
 36 37  1  0
 37 38  2  0
 38 39  1  0
 39 40  1  0
 38 41  1  0
 41 42  2  0
 34 43  1  0
 43 44  2  0
 44 45  1  0
 45 46  2  0
 46 47  1  0
 47 48  1  0
 46 49  1  0
 49 50  2  0
 33 51  1  0
 51 52  1  0
 52 53  1  0
 53 54  2  0
 54 55  1  0
 55 56  1  0
 56 57  2  0
 57 58  1  0
 58 59  2  0
 59 60  1  0
 60 61  1  0
 59 62  1  0
 62 63  2  0
 55 64  1  0
 64 65  2  0
 65 66  1  0
 66 67  2  0
 67 68  1  0
 68 69  1  0
 67 70  1  0
 70 71  2  0
 54 72  1  0
 72 73  1  0
 53 74  1  0
 74 75  2  0
 75 76  1  0
 76 77  1  0
 77 78  1  0
 78 79  1  0
 76 80  2  0
 80 81  1  0
 80 82  1  0
 82 83  2  3
 83 84  1  0
 84 85  2  0
 84 86  1  0
 86 87  1  0
 87 88  1  0
 88 89  2  0
 89 90  1  0
 90 91  1  0
 91 92  2  3
 92 93  1  0
 93 94  3  0
 92 95  1  0
 95 96  3  0
 11  2  1  0
 23 17  1  0
 31 24  1  0
 73 32  1  0
 81 74  1  0
 91 83  1  0
 10  5  1  0
 22 18  1  0
 42 35  1  0
 50 43  1  0
 72 51  2  0
 90 86  2  0
 23  7  1  0
 63 56  1  0
 71 64  1  0
  1 97  1  0
  6 98  1  0
  9 99  1  0
 17100  1  0
 18101  1  0
 19102  1  0
 20103  1  0
 21104  1  0
 22105  1  0
 22106  1  0
 23107  1  0
 25108  1  0
 28109  1  0
 28110  1  0
 29111  1  0
 29112  1  0
 29113  1  0
 36114  1  0
 37115  1  0
 40116  1  0
 40117  1  0
 40118  1  0
 41119  1  0
 42120  1  0
 44121  1  0
 45122  1  0
 48123  1  0
 48124  1  0
 48125  1  0
 49126  1  0
 50127  1  0
 57128  1  0
 58129  1  0
 61130  1  0
 61131  1  0
 61132  1  0
 62133  1  0
 63134  1  0
 65135  1  0
 66136  1  0
 69137  1  0
 69138  1  0
 69139  1  0
 70140  1  0
 71141  1  0
 75142  1  0
 78143  1  0
 78144  1  0
 79145  1  0
 79146  1  0
 79147  1  0
 82148  1  0
 88149  1  0
 89150  1  0
M  END

