
     RDKit          3D

168182  0  0  0  0  0  0  0  0999 V2000
    0.3552   -5.4749   -5.4629 C   0  0  0  0  0  0  0  0  0  0  0  0
    0.8969   -4.4026   -6.0893 C   0  0  0  0  0  0  0  0  0  0  0  0
    1.6543   -3.2579   -5.5011 C   0  0  0  0  0  0  0  0  0  0  0  0
    2.3463   -3.2685   -4.4541 O   0  0  0  0  0  0  0  0  0  0  0  0
    1.8134   -2.2791   -6.5608 C   0  0  0  0  0  0  0  0  0  0  0  0
    2.5518   -1.1426   -6.4783 C   0  0  0  0  0  0  0  0  0  0  0  0
    2.8220   -0.4896   -7.6610 C   0  0  0  0  0  0  0  0  0  0  0  0
    2.4508   -1.0558   -8.9608 C   0  0  0  0  0  0  0  0  0  0  0  0
    1.7152   -2.1577   -9.0643 C   0  0  0  0  0  0  0  0  0  0  0  0
    1.3401   -2.7938   -7.7892 C   0  0  0  0  0  0  0  0  0  0  0  0
    0.8952   -4.1557   -7.5546 C   0  0  0  0  0  0  0  0  0  0  0  0
    1.3036   -5.0728   -8.4193 C   0  0  0  0  0  0  0  0  0  0  0  0
    0.4815   -5.3841   -9.5370 C   0  0  0  0  0  0  0  0  0  0  0  0
   -0.1343   -5.6016  -10.4937 N   0  0  0  0  0  0  0  0  0  0  0  0
    2.7032   -4.9109   -8.8186 C   0  0  0  0  0  0  0  0  0  0  0  0
    3.7430   -4.7479   -9.2056 N   0  0  0  0  0  0  0  0  0  0  0  0
    3.1111    0.1935   -9.6140 C   0  0  0  0  0  0  0  0  0  0  0  0
    4.4652   -0.1072  -10.2930 C   0  0  0  0  0  0  0  0  0  0  0  0
    5.1692    1.2511  -10.4511 C   0  0  0  0  0  0  0  0  0  0  0  0
    5.5365    1.6495   -9.2325 C   0  0  0  0  0  0  0  0  0  0  0  0
    5.0804    0.5674   -8.2837 C   0  0  0  0  0  0  0  0  0  0  0  0
    5.3421   -0.6480   -9.1390 C   0  0  0  0  0  0  0  0  0  0  0  0
    3.5141    0.6405   -8.2954 C   0  0  0  0  0  0  0  0  0  0  0  0
    0.1680   -5.4552   -3.9909 C   0  0  0  0  0  0  0  0  0  0  0  0
   -0.1496   -6.5689   -3.1721 C   0  0  0  0  0  0  0  0  0  0  0  0
   -0.3300   -6.1888   -1.7879 C   0  0  0  0  0  0  0  0  0  0  0  0
   -0.4697   -7.5597   -0.5370 S   0  0  0  0  0  0  0  0  0  0  0  0
   -2.2553   -7.9701   -0.5240 C   0  0  0  0  0  0  0  0  0  0  0  0
   -2.6644   -9.0138   -1.5526 C   0  0  0  0  0  0  0  0  0  0  0  0
   -0.1927   -4.8272   -1.5201 C   0  0  0  0  0  0  0  0  0  0  0  0
    0.1640   -4.1758   -2.9541 S   0  0  0  0  0  0  0  0  0  0  0  0
   -0.3216   -3.9934   -0.2582 C   0  0  0  0  0  0  0  0  0  0  0  0
   -1.1156   -2.8232   -0.2264 C   0  0  0  0  0  0  0  0  0  0  0  0
   -1.8383   -2.3304   -1.3307 N   0  0  0  0  0  0  0  0  0  0  0  0
   -1.2207   -1.3325   -2.2489 C   0  0  0  0  0  0  0  0  0  0  0  0
    0.1252   -0.9740   -2.0782 C   0  0  0  0  0  0  0  0  0  0  0  0
    0.7526   -0.0715   -2.9822 C   0  0  0  0  0  0  0  0  0  0  0  0
    0.0050    0.4649   -4.0385 C   0  0  0  0  0  0  0  0  0  0  0  0
    0.8395    1.4988   -5.2849 S   0  0  0  0  0  0  0  0  0  0  0  0
    0.0605    3.0941   -4.8833 C   0  0  0  0  0  0  0  0  0  0  0  0
   -1.3122    0.0909   -4.2281 C   0  0  0  0  0  0  0  0  0  0  0  0
   -1.9350   -0.8096   -3.3482 C   0  0  0  0  0  0  0  0  0  0  0  0
   -3.1879   -2.8096   -1.6405 C   0  0  0  0  0  0  0  0  0  0  0  0
   -4.2177   -1.9300   -1.5447 C   0  0  0  0  0  0  0  0  0  0  0  0
   -5.3633   -2.0606   -2.3664 C   0  0  0  0  0  0  0  0  0  0  0  0
   -5.6016   -3.3318   -3.0322 C   0  0  0  0  0  0  0  0  0  0  0  0
   -6.8184   -3.2270   -4.3535 S   0  0  0  0  0  0  0  0  0  0  0  0
   -7.1184   -4.9992   -4.6931 C   0  0  0  0  0  0  0  0  0  0  0  0
   -4.5803   -4.2221   -3.0606 C   0  0  0  0  0  0  0  0  0  0  0  0
   -3.3466   -4.0734   -2.3864 C   0  0  0  0  0  0  0  0  0  0  0  0
   -0.7687   -1.9434    0.8843 C   0  0  0  0  0  0  0  0  0  0  0  0
   -1.1759   -0.3920    1.2940 S   0  0  0  0  0  0  0  0  0  0  0  0
    0.0334   -0.0607    2.4530 C   0  0  0  0  0  0  0  0  0  0  0  0
    0.8399   -1.2652    2.4965 C   0  0  0  0  0  0  0  0  0  0  0  0
    2.1755   -1.2818    2.9562 N   0  0  0  0  0  0  0  0  0  0  0  0
    3.1806   -0.6385    2.0913 C   0  0  0  0  0  0  0  0  0  0  0  0
    3.9692    0.4161    2.5389 C   0  0  0  0  0  0  0  0  0  0  0  0
    4.7779    1.1122    1.6372 C   0  0  0  0  0  0  0  0  0  0  0  0
    4.7498    0.8111    0.2742 C   0  0  0  0  0  0  0  0  0  0  0  0
    5.4802    1.9559   -0.9069 S   0  0  0  0  0  0  0  0  0  0  0  0
    6.5108    0.8215   -1.9087 C   0  0  0  0  0  0  0  0  0  0  0  0
    3.9599   -0.2508   -0.1686 C   0  0  0  0  0  0  0  0  0  0  0  0
    3.1954   -0.9869    0.7355 C   0  0  0  0  0  0  0  0  0  0  0  0
    2.5319   -2.0221    4.1733 C   0  0  0  0  0  0  0  0  0  0  0  0
    3.1454   -1.3575    5.2878 C   0  0  0  0  0  0  0  0  0  0  0  0
    3.3114   -2.0337    6.4891 C   0  0  0  0  0  0  0  0  0  0  0  0
    2.9247   -3.3886    6.6186 C   0  0  0  0  0  0  0  0  0  0  0  0
    2.9399   -4.1756    8.2418 S   0  0  0  0  0  0  0  0  0  0  0  0
    4.6469   -3.7358    8.7523 C   0  0  0  0  0  0  0  0  0  0  0  0
    2.4165   -4.0528    5.5080 C   0  0  0  0  0  0  0  0  0  0  0  0
    2.1673   -3.3415    4.3141 C   0  0  0  0  0  0  0  0  0  0  0  0
    0.3244   -2.2980    1.6147 C   0  0  0  0  0  0  0  0  0  0  0  0
    0.8793   -3.7774    0.9587 S   0  0  0  0  0  0  0  0  0  0  0  0
    0.3071    1.3580    2.9371 C   0  0  0  0  0  0  0  0  0  0  0  0
   -0.0237    2.4485    2.1234 C   0  0  0  0  0  0  0  0  0  0  0  0
    0.1577    3.7393    2.6876 C   0  0  0  0  0  0  0  0  0  0  0  0
   -0.3056    5.1852    1.6733 S   0  0  0  0  0  0  0  0  0  0  0  0
   -2.1576    5.2151    1.6116 C   0  0  0  0  0  0  0  0  0  0  0  0
   -2.8567    3.9079    1.2202 C   0  0  0  0  0  0  0  0  0  0  0  0
    0.6749    3.7915    3.9566 C   0  0  0  0  0  0  0  0  0  0  0  0
    0.8643    2.0872    4.3933 S   0  0  0  0  0  0  0  0  0  0  0  0
    0.5198    5.1139    4.9199 C   0  0  0  0  0  0  0  0  0  0  0  0
   -0.8189    5.9348    4.5763 C   0  0  0  0  0  0  0  0  0  0  0  0
   -1.8235    5.1980    4.7985 C   0  0  0  0  0  0  0  0  0  0  0  0
   -2.0490    5.0725    6.2714 C   0  0  0  0  0  0  0  0  0  0  0  0
   -2.9121    5.9025    6.9604 C   0  0  0  0  0  0  0  0  0  0  0  0
   -3.2857    7.3455    6.6413 C   0  0  0  0  0  0  0  0  0  0  0  0
   -2.3089    8.2255    6.5164 O   0  0  0  0  0  0  0  0  0  0  0  0
   -4.7233    7.7919    6.7110 N   0  0  0  0  0  0  0  0  0  0  0  0
   -5.5578    8.7637    5.9314 C   0  0  0  0  0  0  0  0  0  0  0  0
   -5.3101   10.1101    6.5084 C   0  0  0  0  0  0  0  0  0  0  0  0
   -5.5487    7.0172    7.6824 C   0  0  0  0  0  0  0  0  0  0  0  0
   -7.0497    7.6109    8.1350 S   0  0  0  0  0  0  0  0  0  0  0  0
   -5.1390    5.7349    8.1010 N   0  0  0  0  0  0  0  0  0  0  0  0
   -3.8085    5.2226    7.9011 C   0  0  0  0  0  0  0  0  0  0  0  0
   -3.4498    4.1626    8.5050 O   0  0  0  0  0  0  0  0  0  0  0  0
   -6.0772    4.8952    8.8788 C   0  0  0  0  0  0  0  0  0  0  0  0
   -7.0242    4.1410    7.9852 C   0  0  0  0  0  0  0  0  0  0  0  0
   -0.9845    4.2276    6.8980 C   0  0  0  0  0  0  0  0  0  0  0  0
    0.4420    4.6812    6.4470 C   0  0  0  0  0  0  0  0  0  0  0  0
   -0.0971   -6.3181   -6.0417 H   0  0  0  0  0  0  0  0  0  0  0  0
    2.9146   -0.8236   -5.5327 H   0  0  0  0  0  0  0  0  0  0  0  0
    1.4000   -2.5551  -10.0283 H   0  0  0  0  0  0  0  0  0  0  0  0
    2.4070    0.8776  -10.1852 H   0  0  0  0  0  0  0  0  0  0  0  0
    4.4500   -0.7528  -11.1972 H   0  0  0  0  0  0  0  0  0  0  0  0
    5.3538    1.7270  -11.3987 H   0  0  0  0  0  0  0  0  0  0  0  0
    6.1215    2.5312   -9.0504 H   0  0  0  0  0  0  0  0  0  0  0  0
    5.5816    0.5979   -7.3032 H   0  0  0  0  0  0  0  0  0  0  0  0
    4.9337   -1.5840   -8.7173 H   0  0  0  0  0  0  0  0  0  0  0  0
    6.3999   -0.7730   -9.4190 H   0  0  0  0  0  0  0  0  0  0  0  0
    3.1043    1.6487   -8.0121 H   0  0  0  0  0  0  0  0  0  0  0  0
   -0.2617   -7.5370   -3.5577 H   0  0  0  0  0  0  0  0  0  0  0  0
   -2.8815   -7.0661   -0.6202 H   0  0  0  0  0  0  0  0  0  0  0  0
   -2.4644   -8.4102    0.4748 H   0  0  0  0  0  0  0  0  0  0  0  0
   -2.2507  -10.0027   -1.3125 H   0  0  0  0  0  0  0  0  0  0  0  0
   -3.7663   -9.1021   -1.5605 H   0  0  0  0  0  0  0  0  0  0  0  0
   -2.3320   -8.7190   -2.5652 H   0  0  0  0  0  0  0  0  0  0  0  0
    0.7369   -1.4000   -1.3043 H   0  0  0  0  0  0  0  0  0  0  0  0
    1.7828    0.1854   -2.8461 H   0  0  0  0  0  0  0  0  0  0  0  0
    0.2972    3.8205   -5.6919 H   0  0  0  0  0  0  0  0  0  0  0  0
   -1.0301    2.9762   -4.8260 H   0  0  0  0  0  0  0  0  0  0  0  0
    0.4448    3.4909   -3.9317 H   0  0  0  0  0  0  0  0  0  0  0  0
   -1.8646    0.4814   -5.0411 H   0  0  0  0  0  0  0  0  0  0  0  0
   -2.9194   -1.0925   -3.5574 H   0  0  0  0  0  0  0  0  0  0  0  0
   -3.9554   -0.9059   -1.2092 H   0  0  0  0  0  0  0  0  0  0  0  0
   -5.6064   -1.2365   -2.9605 H   0  0  0  0  0  0  0  0  0  0  0  0
   -7.3144   -5.5571   -3.7625 H   0  0  0  0  0  0  0  0  0  0  0  0
   -6.2364   -5.4220   -5.2181 H   0  0  0  0  0  0  0  0  0  0  0  0
   -7.9788   -5.0821   -5.4043 H   0  0  0  0  0  0  0  0  0  0  0  0
   -4.6380   -5.0653   -3.7320 H   0  0  0  0  0  0  0  0  0  0  0  0
   -2.5181   -4.5333   -2.7726 H   0  0  0  0  0  0  0  0  0  0  0  0
    3.9063    0.7823    3.5350 H   0  0  0  0  0  0  0  0  0  0  0  0
    5.3583    1.9526    1.9739 H   0  0  0  0  0  0  0  0  0  0  0  0
    6.3265   -0.2452   -1.6758 H   0  0  0  0  0  0  0  0  0  0  0  0
    7.5824    1.0545   -1.7497 H   0  0  0  0  0  0  0  0  0  0  0  0
    6.2729    0.9921   -2.9835 H   0  0  0  0  0  0  0  0  0  0  0  0
    3.9277   -0.4925   -1.2327 H   0  0  0  0  0  0  0  0  0  0  0  0
    2.5744   -1.7604    0.3533 H   0  0  0  0  0  0  0  0  0  0  0  0
    3.3499   -0.3256    5.2675 H   0  0  0  0  0  0  0  0  0  0  0  0
    3.6919   -1.5009    7.3442 H   0  0  0  0  0  0  0  0  0  0  0  0
    5.2693   -3.3690    7.8996 H   0  0  0  0  0  0  0  0  0  0  0  0
    4.5624   -2.9261    9.5245 H   0  0  0  0  0  0  0  0  0  0  0  0
    5.1559   -4.6182    9.2130 H   0  0  0  0  0  0  0  0  0  0  0  0
    2.1044   -5.0768    5.6123 H   0  0  0  0  0  0  0  0  0  0  0  0
    1.6680   -3.8447    3.4998 H   0  0  0  0  0  0  0  0  0  0  0  0
   -0.5029    2.3184    1.1949 H   0  0  0  0  0  0  0  0  0  0  0  0
   -2.4369    5.9750    0.8803 H   0  0  0  0  0  0  0  0  0  0  0  0
   -2.6044    5.5368    2.5501 H   0  0  0  0  0  0  0  0  0  0  0  0
   -2.9011    3.1911    2.0699 H   0  0  0  0  0  0  0  0  0  0  0  0
   -3.9016    4.1299    0.9704 H   0  0  0  0  0  0  0  0  0  0  0  0
   -2.3825    3.4202    0.3431 H   0  0  0  0  0  0  0  0  0  0  0  0
    1.4512    5.6905    4.7415 H   0  0  0  0  0  0  0  0  0  0  0  0
   -1.3494    6.8329    4.9768 H   0  0  0  0  0  0  0  0  0  0  0  0
   -1.5193    4.2937    4.2668 H   0  0  0  0  0  0  0  0  0  0  0  0
   -5.3498    8.7233    4.8143 H   0  0  0  0  0  0  0  0  0  0  0  0
   -6.6030    8.5378    5.8595 H   0  0  0  0  0  0  0  0  0  0  0  0
   -5.9591   10.8631    6.0642 H   0  0  0  0  0  0  0  0  0  0  0  0
   -4.2317   10.2974    6.3392 H   0  0  0  0  0  0  0  0  0  0  0  0
   -5.6229    9.9650    7.5851 H   0  0  0  0  0  0  0  0  0  0  0  0
   -5.5056    4.1868    9.4983 H   0  0  0  0  0  0  0  0  0  0  0  0
   -6.6640    5.5350    9.5904 H   0  0  0  0  0  0  0  0  0  0  0  0
   -7.9888    3.9985    8.5018 H   0  0  0  0  0  0  0  0  0  0  0  0
   -6.6055    3.1133    7.7586 H   0  0  0  0  0  0  0  0  0  0  0  0
   -7.2201    4.6662    7.0161 H   0  0  0  0  0  0  0  0  0  0  0  0
   -1.1158    3.1369    6.6460 H   0  0  0  0  0  0  0  0  0  0  0  0
   -1.0198    4.2920    8.0395 H   0  0  0  0  0  0  0  0  0  0  0  0
    1.2093    3.9235    6.7328 H   0  0  0  0  0  0  0  0  0  0  0  0
    0.7160    5.6104    7.0265 H   0  0  0  0  0  0  0  0  0  0  0  0
  1  2  2  3
  2  3  1  0
  3  4  2  0
  3  5  1  0
  5  6  2  0
  6  7  1  0
  7  8  2  0
  8  9  1  0
  9 10  2  0
 10 11  1  0
 11 12  2  3
 12 13  1  0
 13 14  3  0
 12 15  1  0
 15 16  3  0
  8 17  1  0
 17 18  1  0
 18 19  1  0
 19 20  2  0
 20 21  1  0
 21 22  1  0
 21 23  1  0
  1 24  1  0
 24 25  2  0
 25 26  1  0
 26 27  1  0
 27 28  1  0
 28 29  1  0
 26 30  2  0
 30 31  1  0
 30 32  1  0
 32 33  2  0
 33 34  1  0
 34 35  1  0
 35 36  2  0
 36 37  1  0
 37 38  2  0
 38 39  1  0
 39 40  1  0
 38 41  1  0
 41 42  2  0
 34 43  1  0
 43 44  2  0
 44 45  1  0
 45 46  2  0
 46 47  1  0
 47 48  1  0
 46 49  1  0
 49 50  2  0
 33 51  1  0
 51 52  1  0
 52 53  1  0
 53 54  2  0
 54 55  1  0
 55 56  1  0
 56 57  2  0
 57 58  1  0
 58 59  2  0
 59 60  1  0
 60 61  1  0
 59 62  1  0
 62 63  2  0
 55 64  1  0
 64 65  2  0
 65 66  1  0
 66 67  2  0
 67 68  1  0
 68 69  1  0
 67 70  1  0
 70 71  2  0
 54 72  1  0
 72 73  1  0
 53 74  1  0
 74 75  2  0
 75 76  1  0
 76 77  1  0
 77 78  1  0
 78 79  1  0
 76 80  2  0
 80 81  1  0
 80 82  1  0
 82 83  1  0
 83 84  2  0
 84 85  1  0
 85 86  2  3
 86 87  1  0
 87 88  2  0
 87 89  1  0
 89 90  1  0
 90 91  1  0
 89 92  1  0
 92 93  2  0
 92 94  1  0
 94 95  1  0
 95 96  2  0
 94 97  1  0
 97 98  1  0
 85 99  1  0
 99100  1  0
 11  2  1  0
 23 17  1  0
 31 24  1  0
 73 32  1  0
 81 74  1  0
100 82  1  0
 10  5  1  0
 22 18  1  0
 42 35  1  0
 50 43  1  0
 72 51  2  0
 95 86  1  0
 23  7  1  0
 63 56  1  0
 71 64  1  0
  1101  1  0
  6102  1  0
  9103  1  0
 17104  1  0
 18105  1  0
 19106  1  0
 20107  1  0
 21108  1  0
 22109  1  0
 22110  1  0
 23111  1  0
 25112  1  0
 28113  1  0
 28114  1  0
 29115  1  0
 29116  1  0
 29117  1  0
 36118  1  0
 37119  1  0
 40120  1  0
 40121  1  0
 40122  1  0
 41123  1  0
 42124  1  0
 44125  1  0
 45126  1  0
 48127  1  0
 48128  1  0
 48129  1  0
 49130  1  0
 50131  1  0
 57132  1  0
 58133  1  0
 61134  1  0
 61135  1  0
 61136  1  0
 62137  1  0
 63138  1  0
 65139  1  0
 66140  1  0
 69141  1  0
 69142  1  0
 69143  1  0
 70144  1  0
 71145  1  0
 75146  1  0
 78147  1  0
 78148  1  0
 79149  1  0
 79150  1  0
 79151  1  0
 82152  1  0
 83153  1  0
 84154  1  0
 90155  1  0
 90156  1  0
 91157  1  0
 91158  1  0
 91159  1  0
 97160  1  0
 97161  1  0
 98162  1  0
 98163  1  0
 98164  1  0
 99165  1  0
 99166  1  0
100167  1  0
100168  1  0
M  END

