
     RDKit          3D

153167  0  0  0  0  0  0  0  0999 V2000
   -1.6067   -4.1774   -2.9454 C   0  0  0  0  0  0  0  0  0  0  0  0
   -1.6164   -5.1816   -3.8403 C   0  0  0  0  0  0  0  0  0  0  0  0
   -0.5542   -5.4888   -4.8020 C   0  0  0  0  0  0  0  0  0  0  0  0
    0.6648   -5.1797   -4.6935 O   0  0  0  0  0  0  0  0  0  0  0  0
   -1.1165   -6.2976   -5.8637 C   0  0  0  0  0  0  0  0  0  0  0  0
   -0.4649   -6.7289   -7.0432 C   0  0  0  0  0  0  0  0  0  0  0  0
   -1.2879   -7.4061   -7.9214 C   0  0  0  0  0  0  0  0  0  0  0  0
   -2.6783   -7.6409   -7.6644 C   0  0  0  0  0  0  0  0  0  0  0  0
   -3.3216   -7.2290   -6.5086 C   0  0  0  0  0  0  0  0  0  0  0  0
   -2.4840   -6.5570   -5.5767 C   0  0  0  0  0  0  0  0  0  0  0  0
   -2.8056   -6.0009   -4.2321 C   0  0  0  0  0  0  0  0  0  0  0  0
   -3.8474   -6.3519   -3.4353 C   0  0  0  0  0  0  0  0  0  0  0  0
   -3.8705   -6.0383   -2.0299 C   0  0  0  0  0  0  0  0  0  0  0  0
   -3.8881   -5.7931   -0.8998 N   0  0  0  0  0  0  0  0  0  0  0  0
   -4.9384   -7.1711   -3.8926 C   0  0  0  0  0  0  0  0  0  0  0  0
   -5.8302   -7.8197   -4.2505 N   0  0  0  0  0  0  0  0  0  0  0  0
   -2.8310   -8.3013   -9.0021 C   0  0  0  0  0  0  0  0  0  0  0  0
   -3.5375   -7.4692  -10.1152 C   0  0  0  0  0  0  0  0  0  0  0  0
   -3.2180   -8.1672  -11.4160 C   0  0  0  0  0  0  0  0  0  0  0  0
   -1.9170   -7.9598  -11.6478 C   0  0  0  0  0  0  0  0  0  0  0  0
   -1.4023   -7.1265  -10.4985 C   0  0  0  0  0  0  0  0  0  0  0  0
   -2.6303   -6.2595  -10.2717 C   0  0  0  0  0  0  0  0  0  0  0  0
   -1.4038   -8.0688   -9.2588 C   0  0  0  0  0  0  0  0  0  0  0  0
   -0.5240   -3.1914   -2.7962 C   0  0  0  0  0  0  0  0  0  0  0  0
    0.0614   -2.4520   -3.8182 C   0  0  0  0  0  0  0  0  0  0  0  0
    0.8450   -1.3812   -3.3617 C   0  0  0  0  0  0  0  0  0  0  0  0
    1.6608   -0.2525   -4.5001 S   0  0  0  0  0  0  0  0  0  0  0  0
    3.0130   -1.3954   -4.9468 C   0  0  0  0  0  0  0  0  0  0  0  0
    4.0329   -1.5261   -3.8276 C   0  0  0  0  0  0  0  0  0  0  0  0
    0.8600   -1.2523   -1.9699 C   0  0  0  0  0  0  0  0  0  0  0  0
   -0.1296   -2.4589   -1.3448 S   0  0  0  0  0  0  0  0  0  0  0  0
    1.2491   -0.0565   -1.2041 C   0  0  0  0  0  0  0  0  0  0  0  0
    1.6662   -0.0222    0.1402 C   0  0  0  0  0  0  0  0  0  0  0  0
    2.1704   -1.1419    0.8841 N   0  0  0  0  0  0  0  0  0  0  0  0
    1.2719   -2.0338    1.5832 C   0  0  0  0  0  0  0  0  0  0  0  0
    1.6236   -3.3825    1.7859 C   0  0  0  0  0  0  0  0  0  0  0  0
    0.7697   -4.2459    2.4801 C   0  0  0  0  0  0  0  0  0  0  0  0
   -0.4479   -3.7723    2.9806 C   0  0  0  0  0  0  0  0  0  0  0  0
   -1.5160   -4.8617    3.9267 S   0  0  0  0  0  0  0  0  0  0  0  0
   -2.4801   -5.3807    2.4702 C   0  0  0  0  0  0  0  0  0  0  0  0
   -0.8173   -2.4392    2.7711 C   0  0  0  0  0  0  0  0  0  0  0  0
    0.0313   -1.5762    2.0678 C   0  0  0  0  0  0  0  0  0  0  0  0
    3.5990   -1.2190    1.0777 C   0  0  0  0  0  0  0  0  0  0  0  0
    4.1409   -1.4561    2.3553 C   0  0  0  0  0  0  0  0  0  0  0  0
    5.5282   -1.4978    2.5396 C   0  0  0  0  0  0  0  0  0  0  0  0
    6.3870   -1.2958    1.4507 C   0  0  0  0  0  0  0  0  0  0  0  0
    8.1662   -1.3643    1.6817 S   0  0  0  0  0  0  0  0  0  0  0  0
    8.2783   -3.1208    1.2147 C   0  0  0  0  0  0  0  0  0  0  0  0
    5.8573   -1.0379    0.1818 C   0  0  0  0  0  0  0  0  0  0  0  0
    4.4739   -0.9987   -0.0030 C   0  0  0  0  0  0  0  0  0  0  0  0
    1.6143    1.2649    0.6650 C   0  0  0  0  0  0  0  0  0  0  0  0
    1.6038    1.8586    2.2313 S   0  0  0  0  0  0  0  0  0  0  0  0
    0.9935    3.3997    1.8149 C   0  0  0  0  0  0  0  0  0  0  0  0
    0.8313    3.4360    0.4123 C   0  0  0  0  0  0  0  0  0  0  0  0
    0.2517    4.5140   -0.3311 N   0  0  0  0  0  0  0  0  0  0  0  0
   -1.1690    4.5472   -0.6260 C   0  0  0  0  0  0  0  0  0  0  0  0
   -2.0309    3.5347   -0.1471 C   0  0  0  0  0  0  0  0  0  0  0  0
   -3.4080    3.6029   -0.3758 C   0  0  0  0  0  0  0  0  0  0  0  0
   -3.9525    4.6807   -1.0796 C   0  0  0  0  0  0  0  0  0  0  0  0
   -5.7263    4.7904   -1.3217 S   0  0  0  0  0  0  0  0  0  0  0  0
   -5.7039    3.8021   -2.8460 C   0  0  0  0  0  0  0  0  0  0  0  0
   -3.1118    5.6875   -1.5664 C   0  0  0  0  0  0  0  0  0  0  0  0
   -1.7328    5.6269   -1.3367 C   0  0  0  0  0  0  0  0  0  0  0  0
    1.1749    5.4154   -0.9657 C   0  0  0  0  0  0  0  0  0  0  0  0
    1.5353    5.2260   -2.3100 C   0  0  0  0  0  0  0  0  0  0  0  0
    2.4833    6.0617   -2.9077 C   0  0  0  0  0  0  0  0  0  0  0  0
    3.0673    7.0987   -2.1695 C   0  0  0  0  0  0  0  0  0  0  0  0
    4.2829    8.1686   -2.9414 S   0  0  0  0  0  0  0  0  0  0  0  0
    5.7135    7.3086   -2.2066 C   0  0  0  0  0  0  0  0  0  0  0  0
    2.7014    7.3001   -0.8329 C   0  0  0  0  0  0  0  0  0  0  0  0
    1.7730    6.4468   -0.2275 C   0  0  0  0  0  0  0  0  0  0  0  0
    1.1712    2.2213   -0.1814 C   0  0  0  0  0  0  0  0  0  0  0  0
    0.8102    1.5278   -1.6665 S   0  0  0  0  0  0  0  0  0  0  0  0
    0.3961    4.3114    2.8162 C   0  0  0  0  0  0  0  0  0  0  0  0
   -0.4542    5.3884    2.5709 C   0  0  0  0  0  0  0  0  0  0  0  0
   -1.1906    5.7985    3.6878 C   0  0  0  0  0  0  0  0  0  0  0  0
   -2.5062    7.0132    3.5804 S   0  0  0  0  0  0  0  0  0  0  0  0
   -3.6779    5.9342    2.6694 C   0  0  0  0  0  0  0  0  0  0  0  0
   -4.2093    4.7990    3.5346 C   0  0  0  0  0  0  0  0  0  0  0  0
   -0.8609    5.1176    4.8536 C   0  0  0  0  0  0  0  0  0  0  0  0
    0.2694    3.9359    4.4558 S   0  0  0  0  0  0  0  0  0  0  0  0
   -1.6228    5.1402    6.1130 C   0  0  0  0  0  0  0  0  0  0  0  0
   -1.0467    5.0723    7.3321 C   0  0  0  0  0  0  0  0  0  0  0  0
    0.3122    5.5300    7.6271 C   0  0  0  0  0  0  0  0  0  0  0  0
    1.1858    5.8388    6.7761 O   0  0  0  0  0  0  0  0  0  0  0  0
    0.4611    5.6546    9.0689 C   0  0  0  0  0  0  0  0  0  0  0  0
    1.5895    6.0538    9.7968 C   0  0  0  0  0  0  0  0  0  0  0  0
    3.0288    6.6603    8.9773 Cl  0  0  0  0  0  0  0  0  0  0  0  0
    1.5532    5.9463   11.1997 C   0  0  0  0  0  0  0  0  0  0  0  0
    2.9379    6.4817   12.1592 Cl  0  0  0  0  0  0  0  0  0  0  0  0
    0.4379    5.3523   11.8344 C   0  0  0  0  0  0  0  0  0  0  0  0
    0.4634    5.0860   13.5817 Cl  0  0  0  0  0  0  0  0  0  0  0  0
   -0.6768    4.9283   11.0730 C   0  0  0  0  0  0  0  0  0  0  0  0
   -1.8427    3.8326   11.8199 Cl  0  0  0  0  0  0  0  0  0  0  0  0
   -0.7032    5.2233    9.6916 C   0  0  0  0  0  0  0  0  0  0  0  0
   -1.7308    4.9120    8.6508 C   0  0  0  0  0  0  0  0  0  0  0  0
   -3.0598    4.7188    8.8426 C   0  0  0  0  0  0  0  0  0  0  0  0
   -3.8733    4.0206    7.8798 C   0  0  0  0  0  0  0  0  0  0  0  0
   -4.5259    3.4552    7.1073 N   0  0  0  0  0  0  0  0  0  0  0  0
   -3.7507    5.2322    9.9942 C   0  0  0  0  0  0  0  0  0  0  0  0
   -4.3258    5.6364   10.9189 N   0  0  0  0  0  0  0  0  0  0  0  0
   -2.4682   -3.9962   -2.3275 H   0  0  0  0  0  0  0  0  0  0  0  0
    0.5741   -6.5195   -7.2592 H   0  0  0  0  0  0  0  0  0  0  0  0
   -4.3755   -7.3937   -6.3788 H   0  0  0  0  0  0  0  0  0  0  0  0
   -3.1238   -9.3714   -8.9409 H   0  0  0  0  0  0  0  0  0  0  0  0
   -4.6136   -7.2505   -9.9412 H   0  0  0  0  0  0  0  0  0  0  0  0
   -3.9129   -8.6493  -12.0917 H   0  0  0  0  0  0  0  0  0  0  0  0
   -1.3795   -8.2504  -12.5414 H   0  0  0  0  0  0  0  0  0  0  0  0
   -0.4539   -6.5823  -10.6898 H   0  0  0  0  0  0  0  0  0  0  0  0
   -2.5737   -5.6101   -9.3696 H   0  0  0  0  0  0  0  0  0  0  0  0
   -2.8902   -5.6214  -11.1510 H   0  0  0  0  0  0  0  0  0  0  0  0
   -0.7902   -8.9927   -9.3541 H   0  0  0  0  0  0  0  0  0  0  0  0
   -0.1277   -2.6348   -4.8699 H   0  0  0  0  0  0  0  0  0  0  0  0
    2.6039   -2.3942   -5.2140 H   0  0  0  0  0  0  0  0  0  0  0  0
    3.5208   -0.9842   -5.8471 H   0  0  0  0  0  0  0  0  0  0  0  0
    3.5879   -2.0624   -2.9621 H   0  0  0  0  0  0  0  0  0  0  0  0
    4.3804   -0.5236   -3.5086 H   0  0  0  0  0  0  0  0  0  0  0  0
    4.9044   -2.1083   -4.1940 H   0  0  0  0  0  0  0  0  0  0  0  0
    2.5607   -3.7647    1.4022 H   0  0  0  0  0  0  0  0  0  0  0  0
    1.0644   -5.2807    2.6359 H   0  0  0  0  0  0  0  0  0  0  0  0
   -1.8297   -5.9128    1.7455 H   0  0  0  0  0  0  0  0  0  0  0  0
   -3.2863   -6.0684    2.8004 H   0  0  0  0  0  0  0  0  0  0  0  0
   -2.9452   -4.4982    1.9824 H   0  0  0  0  0  0  0  0  0  0  0  0
   -1.7588   -2.0690    3.1583 H   0  0  0  0  0  0  0  0  0  0  0  0
   -0.2795   -0.5505    1.9256 H   0  0  0  0  0  0  0  0  0  0  0  0
    3.4910   -1.5902    3.2124 H   0  0  0  0  0  0  0  0  0  0  0  0
    5.9346   -1.6757    3.5285 H   0  0  0  0  0  0  0  0  0  0  0  0
    7.6435   -3.7384    1.8812 H   0  0  0  0  0  0  0  0  0  0  0  0
    9.3305   -3.4572    1.3084 H   0  0  0  0  0  0  0  0  0  0  0  0
    7.9532   -3.2545    0.1613 H   0  0  0  0  0  0  0  0  0  0  0  0
    6.5196   -0.8736   -0.6628 H   0  0  0  0  0  0  0  0  0  0  0  0
    4.0800   -0.7906   -0.9890 H   0  0  0  0  0  0  0  0  0  0  0  0
   -1.6475    2.6940    0.4203 H   0  0  0  0  0  0  0  0  0  0  0  0
   -4.0530    2.8241    0.0128 H   0  0  0  0  0  0  0  0  0  0  0  0
   -5.0365    4.2698   -3.5943 H   0  0  0  0  0  0  0  0  0  0  0  0
   -6.7351    3.7584   -3.2595 H   0  0  0  0  0  0  0  0  0  0  0  0
   -5.3619    2.7700   -2.6175 H   0  0  0  0  0  0  0  0  0  0  0  0
   -3.5331    6.5310   -2.1001 H   0  0  0  0  0  0  0  0  0  0  0  0
   -1.1156    6.4415   -1.6914 H   0  0  0  0  0  0  0  0  0  0  0  0
    1.0868    4.4261   -2.8845 H   0  0  0  0  0  0  0  0  0  0  0  0
    2.7602    5.9037   -3.9411 H   0  0  0  0  0  0  0  0  0  0  0  0
    6.6391    7.6422   -2.7189 H   0  0  0  0  0  0  0  0  0  0  0  0
    5.7893    7.5772   -1.1346 H   0  0  0  0  0  0  0  0  0  0  0  0
    5.6156    6.2123   -2.3170 H   0  0  0  0  0  0  0  0  0  0  0  0
    3.1535    8.0948   -0.2544 H   0  0  0  0  0  0  0  0  0  0  0  0
    1.5101    6.6034    0.8113 H   0  0  0  0  0  0  0  0  0  0  0  0
   -0.6274    5.8229    1.6065 H   0  0  0  0  0  0  0  0  0  0  0  0
   -4.5321    6.5553    2.3288 H   0  0  0  0  0  0  0  0  0  0  0  0
   -3.1871    5.5168    1.7686 H   0  0  0  0  0  0  0  0  0  0  0  0
   -4.9905    4.2377    2.9846 H   0  0  0  0  0  0  0  0  0  0  0  0
   -4.6537    5.2050    4.4698 H   0  0  0  0  0  0  0  0  0  0  0  0
   -3.3942    4.0932    3.7913 H   0  0  0  0  0  0  0  0  0  0  0  0
   -2.6939    5.1526    6.0198 H   0  0  0  0  0  0  0  0  0  0  0  0
  1  2  2  3
  2  3  1  0
  3  4  2  0
  3  5  1  0
  5  6  2  0
  6  7  1  0
  7  8  2  0
  8  9  1  0
  9 10  2  0
 10 11  1  0
 11 12  2  3
 12 13  1  0
 13 14  3  0
 12 15  1  0
 15 16  3  0
  8 17  1  0
 17 18  1  0
 18 19  1  0
 19 20  2  0
 20 21  1  0
 21 22  1  0
 21 23  1  0
  1 24  1  0
 24 25  2  0
 25 26  1  0
 26 27  1  0
 27 28  1  0
 28 29  1  0
 26 30  2  0
 30 31  1  0
 30 32  1  0
 32 33  2  0
 33 34  1  0
 34 35  1  0
 35 36  2  0
 36 37  1  0
 37 38  2  0
 38 39  1  0
 39 40  1  0
 38 41  1  0
 41 42  2  0
 34 43  1  0
 43 44  2  0
 44 45  1  0
 45 46  2  0
 46 47  1  0
 47 48  1  0
 46 49  1  0
 49 50  2  0
 33 51  1  0
 51 52  1  0
 52 53  1  0
 53 54  2  0
 54 55  1  0
 55 56  1  0
 56 57  2  0
 57 58  1  0
 58 59  2  0
 59 60  1  0
 60 61  1  0
 59 62  1  0
 62 63  2  0
 55 64  1  0
 64 65  2  0
 65 66  1  0
 66 67  2  0
 67 68  1  0
 68 69  1  0
 67 70  1  0
 70 71  2  0
 54 72  1  0
 72 73  1  0
 53 74  1  0
 74 75  2  0
 75 76  1  0
 76 77  1  0
 77 78  1  0
 78 79  1  0
 76 80  2  0
 80 81  1  0
 80 82  1  0
 82 83  2  3
 83 84  1  0
 84 85  2  0
 84 86  1  0
 86 87  2  0
 87 88  1  0
 87 89  1  0
 89 90  1  0
 89 91  2  0
 91 92  1  0
 91 93  1  0
 93 94  1  0
 93 95  2  0
 95 96  1  0
 96 97  2  3
 97 98  1  0
 98 99  3  0
 97100  1  0
100101  3  0
 11  2  1  0
 23 17  1  0
 31 24  1  0
 73 32  1  0
 81 74  1  0
 96 83  1  0
 10  5  1  0
 22 18  1  0
 42 35  1  0
 50 43  1  0
 72 51  2  0
 95 86  1  0
 23  7  1  0
 63 56  1  0
 71 64  1  0
  1102  1  0
  6103  1  0
  9104  1  0
 17105  1  0
 18106  1  0
 19107  1  0
 20108  1  0
 21109  1  0
 22110  1  0
 22111  1  0
 23112  1  0
 25113  1  0
 28114  1  0
 28115  1  0
 29116  1  0
 29117  1  0
 29118  1  0
 36119  1  0
 37120  1  0
 40121  1  0
 40122  1  0
 40123  1  0
 41124  1  0
 42125  1  0
 44126  1  0
 45127  1  0
 48128  1  0
 48129  1  0
 48130  1  0
 49131  1  0
 50132  1  0
 57133  1  0
 58134  1  0
 61135  1  0
 61136  1  0
 61137  1  0
 62138  1  0
 63139  1  0
 65140  1  0
 66141  1  0
 69142  1  0
 69143  1  0
 69144  1  0
 70145  1  0
 71146  1  0
 75147  1  0
 78148  1  0
 78149  1  0
 79150  1  0
 79151  1  0
 79152  1  0
 82153  1  0
M  END

