
     RDKit          3D

170188  0  0  0  0  0  0  0  0999 V2000
   -1.4552    4.0355    5.8920 C   0  0  0  0  0  0  0  0  0  0  0  0
   -2.6288    3.3996    6.1289 C   0  0  0  0  0  0  0  0  0  0  0  0
   -2.7586    1.9574    6.3927 C   0  0  0  0  0  0  0  0  0  0  0  0
   -1.8576    1.1868    6.8119 O   0  0  0  0  0  0  0  0  0  0  0  0
   -4.1121    1.5422    6.1814 C   0  0  0  0  0  0  0  0  0  0  0  0
   -4.6434    0.2604    6.4274 C   0  0  0  0  0  0  0  0  0  0  0  0
   -5.9936    0.1604    6.1883 C   0  0  0  0  0  0  0  0  0  0  0  0
   -6.7985    1.2677    5.7791 C   0  0  0  0  0  0  0  0  0  0  0  0
   -6.2892    2.5431    5.5780 C   0  0  0  0  0  0  0  0  0  0  0  0
   -4.8798    2.6583    5.7726 C   0  0  0  0  0  0  0  0  0  0  0  0
   -3.9966    3.8694    5.7287 C   0  0  0  0  0  0  0  0  0  0  0  0
   -4.3709    5.1004    5.2878 C   0  0  0  0  0  0  0  0  0  0  0  0
   -3.5682    6.2833    5.4449 C   0  0  0  0  0  0  0  0  0  0  0  0
   -2.9413    7.2522    5.5738 N   0  0  0  0  0  0  0  0  0  0  0  0
   -5.5564    5.2896    4.4875 C   0  0  0  0  0  0  0  0  0  0  0  0
   -6.4979    5.4418    3.8256 N   0  0  0  0  0  0  0  0  0  0  0  0
   -8.0253    0.4086    5.8288 C   0  0  0  0  0  0  0  0  0  0  0  0
   -8.9709    0.6136    7.0492 C   0  0  0  0  0  0  0  0  0  0  0  0
   -9.8763   -0.5924    7.0836 C   0  0  0  0  0  0  0  0  0  0  0  0
   -9.1101   -1.6335    7.4445 C   0  0  0  0  0  0  0  0  0  0  0  0
   -7.7225   -1.0908    7.6498 C   0  0  0  0  0  0  0  0  0  0  0  0
   -8.0845    0.2618    8.2347 C   0  0  0  0  0  0  0  0  0  0  0  0
   -7.1944   -0.7292    6.2295 C   0  0  0  0  0  0  0  0  0  0  0  0
   -0.3737    3.3435    5.1628 C   0  0  0  0  0  0  0  0  0  0  0  0
   -0.2561    3.5724    3.7999 C   0  0  0  0  0  0  0  0  0  0  0  0
   -0.8377    4.5299    3.0565 N   0  0  0  0  0  0  0  0  0  0  0  0
   -0.4387    4.2855    1.8129 N   0  0  0  0  0  0  0  0  0  0  0  0
   -0.7813    5.1258    0.6703 C   0  0  0  0  0  0  0  0  0  0  0  0
   -2.2690    5.4502    0.6596 C   0  0  0  0  0  0  0  0  0  0  0  0
    0.3517    3.2204    1.7272 N   0  0  0  0  0  0  0  0  0  0  0  0
    0.4599    2.7577    2.9857 C   0  0  0  0  0  0  0  0  0  0  0  0
    1.0875    1.5972    3.4505 C   0  0  0  0  0  0  0  0  0  0  0  0
    1.1531    1.4364    4.8689 C   0  0  0  0  0  0  0  0  0  0  0  0
    0.4725    2.3566    5.7223 C   0  0  0  0  0  0  0  0  0  0  0  0
    0.7175    2.2909    7.4731 Cl  0  0  0  0  0  0  0  0  0  0  0  0
    1.9637    0.0528    5.6002 Cl  0  0  0  0  0  0  0  0  0  0  0  0
    1.5169    0.5514    2.4855 C   0  0  0  0  0  0  0  0  0  0  0  0
    0.8142    0.1726    1.3226 C   0  0  0  0  0  0  0  0  0  0  0  0
   -0.5300    0.5564    0.9877 N   0  0  0  0  0  0  0  0  0  0  0  0
   -1.5634   -0.2662    1.5571 C   0  0  0  0  0  0  0  0  0  0  0  0
   -1.9457   -0.1030    2.8958 C   0  0  0  0  0  0  0  0  0  0  0  0
   -2.9379   -0.9149    3.4429 C   0  0  0  0  0  0  0  0  0  0  0  0
   -3.5715   -1.8840    2.6564 C   0  0  0  0  0  0  0  0  0  0  0  0
   -4.8848   -2.8850    3.3575 S   0  0  0  0  0  0  0  0  0  0  0  0
   -6.2055   -1.9207    2.5718 C   0  0  0  0  0  0  0  0  0  0  0  0
   -3.1669   -2.0742    1.3335 C   0  0  0  0  0  0  0  0  0  0  0  0
   -2.1791   -1.2600    0.7786 C   0  0  0  0  0  0  0  0  0  0  0  0
   -0.8236    1.3228   -0.2134 C   0  0  0  0  0  0  0  0  0  0  0  0
    0.1918    1.6946   -1.1249 C   0  0  0  0  0  0  0  0  0  0  0  0
   -0.1212    2.3459   -2.3211 C   0  0  0  0  0  0  0  0  0  0  0  0
   -1.4502    2.6719   -2.6150 C   0  0  0  0  0  0  0  0  0  0  0  0
   -1.8655    3.4383   -4.1824 S   0  0  0  0  0  0  0  0  0  0  0  0
   -1.9986    1.8566   -5.0646 C   0  0  0  0  0  0  0  0  0  0  0  0
   -2.4553    2.3841   -1.6887 C   0  0  0  0  0  0  0  0  0  0  0  0
   -2.1480    1.7216   -0.4985 C   0  0  0  0  0  0  0  0  0  0  0  0
    1.4880   -0.8108    0.6213 C   0  0  0  0  0  0  0  0  0  0  0  0
    1.1864   -1.5825   -0.8310 S   0  0  0  0  0  0  0  0  0  0  0  0
    2.6246   -2.4827   -0.7793 C   0  0  0  0  0  0  0  0  0  0  0  0
    3.3255   -2.1941    0.3998 C   0  0  0  0  0  0  0  0  0  0  0  0
    4.5565   -2.8175    0.7866 N   0  0  0  0  0  0  0  0  0  0  0  0
    4.5985   -3.7735    1.8798 C   0  0  0  0  0  0  0  0  0  0  0  0
    5.8282   -4.2175    2.4067 C   0  0  0  0  0  0  0  0  0  0  0  0
    5.8710   -5.1649    3.4280 C   0  0  0  0  0  0  0  0  0  0  0  0
    4.6891   -5.6566    3.9867 C   0  0  0  0  0  0  0  0  0  0  0  0
    4.7619   -6.8526    5.3222 S   0  0  0  0  0  0  0  0  0  0  0  0
    5.0471   -5.6077    6.6207 C   0  0  0  0  0  0  0  0  0  0  0  0
    3.4576   -5.2234    3.4888 C   0  0  0  0  0  0  0  0  0  0  0  0
    3.4095   -4.2965    2.4404 C   0  0  0  0  0  0  0  0  0  0  0  0
    5.7408   -2.4757    0.0445 C   0  0  0  0  0  0  0  0  0  0  0  0
    6.4508   -3.4681   -0.6469 C   0  0  0  0  0  0  0  0  0  0  0  0
    7.6844   -3.1687   -1.2314 C   0  0  0  0  0  0  0  0  0  0  0  0
    8.2132   -1.8757   -1.1253 C   0  0  0  0  0  0  0  0  0  0  0  0
    9.8579   -1.5303   -1.7388 S   0  0  0  0  0  0  0  0  0  0  0  0
   10.6585   -2.0191   -0.1743 C   0  0  0  0  0  0  0  0  0  0  0  0
    7.4681   -0.8656   -0.4987 C   0  0  0  0  0  0  0  0  0  0  0  0
    6.2338   -1.1625    0.0768 C   0  0  0  0  0  0  0  0  0  0  0  0
    2.6573   -1.2329    1.1559 C   0  0  0  0  0  0  0  0  0  0  0  0
    2.9670   -0.3654    2.5614 S   0  0  0  0  0  0  0  0  0  0  0  0
    3.1066   -3.2400   -1.9267 C   0  0  0  0  0  0  0  0  0  0  0  0
    3.2188   -4.6208   -2.0181 C   0  0  0  0  0  0  0  0  0  0  0  0
    3.2445   -5.0831   -3.3461 C   0  0  0  0  0  0  0  0  0  0  0  0
    3.1892   -6.8348   -3.7437 S   0  0  0  0  0  0  0  0  0  0  0  0
    4.9988   -7.0635   -3.7125 C   0  0  0  0  0  0  0  0  0  0  0  0
    5.6017   -6.7865   -5.0798 C   0  0  0  0  0  0  0  0  0  0  0  0
    3.1582   -4.0677   -4.3072 C   0  0  0  0  0  0  0  0  0  0  0  0
    3.0263   -2.6169   -3.4731 S   0  0  0  0  0  0  0  0  0  0  0  0
    2.7643   -4.2327   -5.7219 C   0  0  0  0  0  0  0  0  0  0  0  0
    2.5909   -3.1562   -6.5213 C   0  0  0  0  0  0  0  0  0  0  0  0
    3.4954   -2.0058   -6.5041 C   0  0  0  0  0  0  0  0  0  0  0  0
    4.7134   -2.0365   -6.1788 O   0  0  0  0  0  0  0  0  0  0  0  0
    2.7846   -0.8232   -6.9175 C   0  0  0  0  0  0  0  0  0  0  0  0
    3.2814    0.5000   -6.9227 C   0  0  0  0  0  0  0  0  0  0  0  0
    2.3330    1.4490   -7.2440 C   0  0  0  0  0  0  0  0  0  0  0  0
    0.9774    1.1239   -7.5598 C   0  0  0  0  0  0  0  0  0  0  0  0
    0.4901   -0.1721   -7.5687 C   0  0  0  0  0  0  0  0  0  0  0  0
    1.4425   -1.1739   -7.2244 C   0  0  0  0  0  0  0  0  0  0  0  0
    1.2674   -2.6504   -7.0310 C   0  0  0  0  0  0  0  0  0  0  0  0
    0.1108   -3.3593   -7.1778 C   0  0  0  0  0  0  0  0  0  0  0  0
    0.0066   -4.7635   -6.8624 C   0  0  0  0  0  0  0  0  0  0  0  0
   -0.1102   -5.8873   -6.5984 N   0  0  0  0  0  0  0  0  0  0  0  0
   -1.1229   -2.7747   -7.6419 C   0  0  0  0  0  0  0  0  0  0  0  0
   -2.1231   -2.3278   -8.0133 N   0  0  0  0  0  0  0  0  0  0  0  0
    0.6608    2.5789   -7.7758 C   0  0  0  0  0  0  0  0  0  0  0  0
    0.4960    3.0804   -9.2389 C   0  0  0  0  0  0  0  0  0  0  0  0
    1.3611    2.2564  -10.1669 C   0  0  0  0  0  0  0  0  0  0  0  0
    2.6291    2.5576   -9.8742 C   0  0  0  0  0  0  0  0  0  0  0  0
    2.5833    3.5786   -8.7578 C   0  0  0  0  0  0  0  0  0  0  0  0
    1.3404    4.3416   -9.1817 C   0  0  0  0  0  0  0  0  0  0  0  0
    2.0534    2.9085   -7.4536 C   0  0  0  0  0  0  0  0  0  0  0  0
   -1.4526    5.0935    5.7349 H   0  0  0  0  0  0  0  0  0  0  0  0
   -4.0558   -0.5689    6.8006 H   0  0  0  0  0  0  0  0  0  0  0  0
   -6.9507    3.3644    5.3568 H   0  0  0  0  0  0  0  0  0  0  0  0
   -8.5299    0.2908    4.8389 H   0  0  0  0  0  0  0  0  0  0  0  0
   -9.4870    1.5917    7.0968 H   0  0  0  0  0  0  0  0  0  0  0  0
  -10.9468   -0.6229    6.9083 H   0  0  0  0  0  0  0  0  0  0  0  0
   -9.4627   -2.6467    7.6119 H   0  0  0  0  0  0  0  0  0  0  0  0
   -7.0491   -1.7222    8.2706 H   0  0  0  0  0  0  0  0  0  0  0  0
   -8.6411    0.1972    9.1987 H   0  0  0  0  0  0  0  0  0  0  0  0
   -7.2189    0.9501    8.3836 H   0  0  0  0  0  0  0  0  0  0  0  0
   -7.1574   -1.5655    5.4949 H   0  0  0  0  0  0  0  0  0  0  0  0
   -0.1962    6.0656    0.7137 H   0  0  0  0  0  0  0  0  0  0  0  0
   -0.5186    4.5946   -0.2724 H   0  0  0  0  0  0  0  0  0  0  0  0
   -2.5210    6.1217    1.5027 H   0  0  0  0  0  0  0  0  0  0  0  0
   -2.8674    4.5172    0.7543 H   0  0  0  0  0  0  0  0  0  0  0  0
   -2.5454    5.9490   -0.2968 H   0  0  0  0  0  0  0  0  0  0  0  0
   -1.4846    0.6545    3.5131 H   0  0  0  0  0  0  0  0  0  0  0  0
   -3.2126   -0.7861    4.4768 H   0  0  0  0  0  0  0  0  0  0  0  0
   -6.1229   -2.0092    1.4683 H   0  0  0  0  0  0  0  0  0  0  0  0
   -6.1443   -0.8533    2.8663 H   0  0  0  0  0  0  0  0  0  0  0  0
   -7.1816   -2.3284    2.8918 H   0  0  0  0  0  0  0  0  0  0  0  0
   -3.6356   -2.8378    0.7272 H   0  0  0  0  0  0  0  0  0  0  0  0
   -1.8928   -1.4020   -0.2578 H   0  0  0  0  0  0  0  0  0  0  0  0
    1.2286    1.4651   -0.9259 H   0  0  0  0  0  0  0  0  0  0  0  0
    0.6678    2.5811   -3.0295 H   0  0  0  0  0  0  0  0  0  0  0  0
   -0.9978    1.3796   -5.1319 H   0  0  0  0  0  0  0  0  0  0  0  0
   -2.6939    1.1695   -4.5417 H   0  0  0  0  0  0  0  0  0  0  0  0
   -2.3789    2.0430   -6.0879 H   0  0  0  0  0  0  0  0  0  0  0  0
   -3.4819    2.6536   -1.9027 H   0  0  0  0  0  0  0  0  0  0  0  0
   -2.9534    1.5101    0.1918 H   0  0  0  0  0  0  0  0  0  0  0  0
    6.7649   -3.8238    2.0444 H   0  0  0  0  0  0  0  0  0  0  0  0
    6.8308   -5.4945    3.8037 H   0  0  0  0  0  0  0  0  0  0  0  0
    5.6624   -6.0602    7.4247 H   0  0  0  0  0  0  0  0  0  0  0  0
    4.0739   -5.2952    7.0504 H   0  0  0  0  0  0  0  0  0  0  0  0
    5.5810   -4.7109    6.2351 H   0  0  0  0  0  0  0  0  0  0  0  0
    2.5364   -5.6025    3.9117 H   0  0  0  0  0  0  0  0  0  0  0  0
    2.4382   -3.9924    2.0794 H   0  0  0  0  0  0  0  0  0  0  0  0
    6.0679   -4.4833   -0.6967 H   0  0  0  0  0  0  0  0  0  0  0  0
    8.2482   -3.9519   -1.7203 H   0  0  0  0  0  0  0  0  0  0  0  0
   10.4416   -1.2720    0.6196 H   0  0  0  0  0  0  0  0  0  0  0  0
   10.2991   -3.0183    0.1521 H   0  0  0  0  0  0  0  0  0  0  0  0
   11.7549   -2.0705   -0.3295 H   0  0  0  0  0  0  0  0  0  0  0  0
    7.8648    0.1360   -0.4221 H   0  0  0  0  0  0  0  0  0  0  0  0
    5.6791   -0.3871    0.5862 H   0  0  0  0  0  0  0  0  0  0  0  0
    3.1696   -5.2764   -1.1601 H   0  0  0  0  0  0  0  0  0  0  0  0
    5.4746   -6.4091   -2.9525 H   0  0  0  0  0  0  0  0  0  0  0  0
    5.2091   -8.1212   -3.4388 H   0  0  0  0  0  0  0  0  0  0  0  0
    6.6939   -6.9734   -5.0460 H   0  0  0  0  0  0  0  0  0  0  0  0
    5.4329   -5.7314   -5.3731 H   0  0  0  0  0  0  0  0  0  0  0  0
    5.1494   -7.4610   -5.8373 H   0  0  0  0  0  0  0  0  0  0  0  0
    2.2930   -5.1638   -5.9617 H   0  0  0  0  0  0  0  0  0  0  0  0
    4.3009    0.7560   -6.6646 H   0  0  0  0  0  0  0  0  0  0  0  0
   -0.5485   -0.3489   -7.7890 H   0  0  0  0  0  0  0  0  0  0  0  0
   -0.0623    3.0113   -7.0448 H   0  0  0  0  0  0  0  0  0  0  0  0
   -0.5503    3.2217   -9.5817 H   0  0  0  0  0  0  0  0  0  0  0  0
    1.0380    1.6077  -10.9723 H   0  0  0  0  0  0  0  0  0  0  0  0
    3.5042    2.1940  -10.4031 H   0  0  0  0  0  0  0  0  0  0  0  0
    3.5003    4.1874   -8.6336 H   0  0  0  0  0  0  0  0  0  0  0  0
    0.9807    5.0779   -8.4251 H   0  0  0  0  0  0  0  0  0  0  0  0
    1.4486    4.8481  -10.1734 H   0  0  0  0  0  0  0  0  0  0  0  0
    2.1681    3.5240   -6.5334 H   0  0  0  0  0  0  0  0  0  0  0  0
  1  2  2  3
  2  3  1  0
  3  4  2  0
  3  5  1  0
  5  6  2  0
  6  7  1  0
  7  8  2  0
  8  9  1  0
  9 10  2  0
 10 11  1  0
 11 12  2  3
 12 13  1  0
 13 14  3  0
 12 15  1  0
 15 16  3  0
  8 17  1  0
 17 18  1  0
 18 19  1  0
 19 20  2  0
 20 21  1  0
 21 22  1  0
 21 23  1  0
  1 24  1  0
 24 25  1  0
 25 26  2  0
 26 27  1  0
 27 28  1  0
 28 29  1  0
 27 30  1  0
 30 31  2  0
 31 32  1  0
 32 33  2  0
 33 34  1  0
 34 35  1  0
 33 36  1  0
 32 37  1  0
 37 38  2  0
 38 39  1  0
 39 40  1  0
 40 41  2  0
 41 42  1  0
 42 43  2  0
 43 44  1  0
 44 45  1  0
 43 46  1  0
 46 47  2  0
 39 48  1  0
 48 49  2  0
 49 50  1  0
 50 51  2  0
 51 52  1  0
 52 53  1  0
 51 54  1  0
 54 55  2  0
 38 56  1  0
 56 57  1  0
 57 58  1  0
 58 59  2  0
 59 60  1  0
 60 61  1  0
 61 62  2  0
 62 63  1  0
 63 64  2  0
 64 65  1  0
 65 66  1  0
 64 67  1  0
 67 68  2  0
 60 69  1  0
 69 70  2  0
 70 71  1  0
 71 72  2  0
 72 73  1  0
 73 74  1  0
 72 75  1  0
 75 76  2  0
 59 77  1  0
 77 78  1  0
 58 79  1  0
 79 80  2  0
 80 81  1  0
 81 82  1  0
 82 83  1  0
 83 84  1  0
 81 85  2  0
 85 86  1  0
 85 87  1  0
 87 88  2  3
 88 89  1  0
 89 90  2  0
 89 91  1  0
 91 92  2  0
 92 93  1  0
 93 94  2  0
 94 95  1  0
 95 96  2  0
 96 97  1  0
 97 98  2  3
 98 99  1  0
 99100  3  0
 98101  1  0
101102  3  0
 94103  1  0
103104  1  0
104105  1  0
105106  2  0
106107  1  0
107108  1  0
107109  1  0
 11  2  1  0
 23 17  1  0
 34 24  2  0
 78 37  1  0
 86 79  1  0
 97 88  1  0
109103  1  0
 10  5  1  0
 22 18  1  0
 31 25  1  0
 47 40  1  0
 55 48  1  0
 77 56  2  0
 96 91  1  0
108104  1  0
 23  7  1  0
 68 61  1  0
 76 69  1  0
109 93  1  0
  1110  1  0
  6111  1  0
  9112  1  0
 17113  1  0
 18114  1  0
 19115  1  0
 20116  1  0
 21117  1  0
 22118  1  0
 22119  1  0
 23120  1  0
 28121  1  0
 28122  1  0
 29123  1  0
 29124  1  0
 29125  1  0
 41126  1  0
 42127  1  0
 45128  1  0
 45129  1  0
 45130  1  0
 46131  1  0
 47132  1  0
 49133  1  0
 50134  1  0
 53135  1  0
 53136  1  0
 53137  1  0
 54138  1  0
 55139  1  0
 62140  1  0
 63141  1  0
 66142  1  0
 66143  1  0
 66144  1  0
 67145  1  0
 68146  1  0
 70147  1  0
 71148  1  0
 74149  1  0
 74150  1  0
 74151  1  0
 75152  1  0
 76153  1  0
 80154  1  0
 83155  1  0
 83156  1  0
 84157  1  0
 84158  1  0
 84159  1  0
 87160  1  0
 92161  1  0
 95162  1  0
103163  1  0
104164  1  0
105165  1  0
106166  1  0
107167  1  0
108168  1  0
108169  1  0
109170  1  0
M  END

