
     RDKit          3D

161179  0  0  0  0  0  0  0  0999 V2000
   -3.5834   -1.2879    4.0756 C   0  0  0  0  0  0  0  0  0  0  0  0
   -2.6916   -2.2805    4.2664 C   0  0  0  0  0  0  0  0  0  0  0  0
   -1.7502   -2.7460    3.2366 C   0  0  0  0  0  0  0  0  0  0  0  0
   -1.5148   -2.1892    2.1322 O   0  0  0  0  0  0  0  0  0  0  0  0
   -1.2232   -4.0324    3.6382 C   0  0  0  0  0  0  0  0  0  0  0  0
   -0.3591   -4.8664    2.8911 C   0  0  0  0  0  0  0  0  0  0  0  0
   -0.0362   -6.0516    3.5242 C   0  0  0  0  0  0  0  0  0  0  0  0
   -0.4959   -6.3855    4.8387 C   0  0  0  0  0  0  0  0  0  0  0  0
   -1.3439   -5.5737    5.5763 C   0  0  0  0  0  0  0  0  0  0  0  0
   -1.7492   -4.3773    4.9130 C   0  0  0  0  0  0  0  0  0  0  0  0
   -2.6807   -3.2991    5.3637 C   0  0  0  0  0  0  0  0  0  0  0  0
   -3.2905   -3.1922    6.5743 C   0  0  0  0  0  0  0  0  0  0  0  0
   -3.3771   -4.2826    7.5067 C   0  0  0  0  0  0  0  0  0  0  0  0
   -3.4648   -5.1520    8.2646 N   0  0  0  0  0  0  0  0  0  0  0  0
   -3.9189   -1.9725    7.0058 C   0  0  0  0  0  0  0  0  0  0  0  0
   -4.4326   -0.9921    7.3620 N   0  0  0  0  0  0  0  0  0  0  0  0
    0.2608   -7.6798    4.7919 C   0  0  0  0  0  0  0  0  0  0  0  0
    1.6083   -7.7816    5.5726 C   0  0  0  0  0  0  0  0  0  0  0  0
    2.3026   -6.4359    5.6106 C   0  0  0  0  0  0  0  0  0  0  0  0
    2.6981   -6.1756    4.3594 C   0  0  0  0  0  0  0  0  0  0  0  0
    2.2432   -7.3440    3.5145 C   0  0  0  0  0  0  0  0  0  0  0  0
    2.4645   -8.4597    4.5208 C   0  0  0  0  0  0  0  0  0  0  0  0
    0.6878   -7.3626    3.4235 C   0  0  0  0  0  0  0  0  0  0  0  0
   -3.3249   -0.1568    3.1740 C   0  0  0  0  0  0  0  0  0  0  0  0
   -1.8890    0.7083    3.1375 S   0  0  0  0  0  0  0  0  0  0  0  0
   -2.3888    1.8728    2.0334 C   0  0  0  0  0  0  0  0  0  0  0  0
   -3.6965    1.5800    1.6494 C   0  0  0  0  0  0  0  0  0  0  0  0
   -4.2233    0.4466    2.3009 C   0  0  0  0  0  0  0  0  0  0  0  0
   -5.5140   -0.0488    2.0816 O   0  0  0  0  0  0  0  0  0  0  0  0
   -6.0004   -0.4120    0.7914 C   0  0  0  0  0  0  0  0  0  0  0  0
   -5.9187    0.7209   -0.2538 C   0  0  0  0  0  0  0  0  0  0  0  0
   -5.7589    2.1205    0.3563 C   0  0  0  0  0  0  0  0  0  0  0  0
   -4.3981    2.3552    0.7192 O   0  0  0  0  0  0  0  0  0  0  0  0
   -1.4978    2.9029    1.4755 C   0  0  0  0  0  0  0  0  0  0  0  0
   -0.3145    3.3517    2.0960 C   0  0  0  0  0  0  0  0  0  0  0  0
   -0.1174    3.3761    3.5281 N   0  0  0  0  0  0  0  0  0  0  0  0
   -1.2386    3.6793    4.3878 C   0  0  0  0  0  0  0  0  0  0  0  0
   -1.4726    2.9172    5.5467 C   0  0  0  0  0  0  0  0  0  0  0  0
   -2.6917    3.0192    6.2244 C   0  0  0  0  0  0  0  0  0  0  0  0
   -3.6740    3.9046    5.7690 C   0  0  0  0  0  0  0  0  0  0  0  0
   -5.3007    3.9017    6.5171 S   0  0  0  0  0  0  0  0  0  0  0  0
   -5.9311    2.6551    5.3525 C   0  0  0  0  0  0  0  0  0  0  0  0
   -3.4075    4.7412    4.6800 C   0  0  0  0  0  0  0  0  0  0  0  0
   -2.1958    4.6351    3.9945 C   0  0  0  0  0  0  0  0  0  0  0  0
    1.1666    3.0757    4.1024 C   0  0  0  0  0  0  0  0  0  0  0  0
    1.7547    3.9695    5.0108 C   0  0  0  0  0  0  0  0  0  0  0  0
    2.9956    3.6730    5.5823 C   0  0  0  0  0  0  0  0  0  0  0  0
    3.6439    2.4722    5.2716 C   0  0  0  0  0  0  0  0  0  0  0  0
    5.2233    2.0896    6.0263 S   0  0  0  0  0  0  0  0  0  0  0  0
    6.1848    2.7097    4.6165 C   0  0  0  0  0  0  0  0  0  0  0  0
    3.0486    1.5669    4.3818 C   0  0  0  0  0  0  0  0  0  0  0  0
    1.8191    1.8724    3.7935 C   0  0  0  0  0  0  0  0  0  0  0  0
    0.5777    3.8895    1.1657 C   0  0  0  0  0  0  0  0  0  0  0  0
    2.2468    3.9986    1.1348 S   0  0  0  0  0  0  0  0  0  0  0  0
    2.3666    4.1306   -0.5609 C   0  0  0  0  0  0  0  0  0  0  0  0
    1.0606    4.1393   -1.0977 C   0  0  0  0  0  0  0  0  0  0  0  0
    0.7032    4.4638   -2.4580 N   0  0  0  0  0  0  0  0  0  0  0  0
   -0.3393    5.4295   -2.6573 C   0  0  0  0  0  0  0  0  0  0  0  0
   -1.5504    5.0554   -3.2594 C   0  0  0  0  0  0  0  0  0  0  0  0
   -2.5971    5.9777   -3.3596 C   0  0  0  0  0  0  0  0  0  0  0  0
   -2.4409    7.2767   -2.8567 C   0  0  0  0  0  0  0  0  0  0  0  0
   -3.7820    8.4590   -2.9625 S   0  0  0  0  0  0  0  0  0  0  0  0
   -4.5121    7.9478   -1.3777 C   0  0  0  0  0  0  0  0  0  0  0  0
   -1.2266    7.6536   -2.2706 C   0  0  0  0  0  0  0  0  0  0  0  0
   -0.1808    6.7389   -2.1736 C   0  0  0  0  0  0  0  0  0  0  0  0
    1.5392    4.1561   -3.5765 C   0  0  0  0  0  0  0  0  0  0  0  0
    1.2672    3.0273   -4.3622 C   0  0  0  0  0  0  0  0  0  0  0  0
    2.0767    2.7291   -5.4632 C   0  0  0  0  0  0  0  0  0  0  0  0
    3.1543    3.5607   -5.7859 C   0  0  0  0  0  0  0  0  0  0  0  0
    4.1942    3.1793   -7.2024 S   0  0  0  0  0  0  0  0  0  0  0  0
    5.3556    2.1652   -6.2333 C   0  0  0  0  0  0  0  0  0  0  0  0
    3.4140    4.7008   -5.0143 C   0  0  0  0  0  0  0  0  0  0  0  0
    2.6026    5.0042   -3.9170 C   0  0  0  0  0  0  0  0  0  0  0  0
    0.1052    3.9537   -0.1039 C   0  0  0  0  0  0  0  0  0  0  0  0
   -1.4275    3.2685   -0.1823 S   0  0  0  0  0  0  0  0  0  0  0  0
    3.5062    3.5157   -1.2437 C   0  0  0  0  0  0  0  0  0  0  0  0
    4.8506    3.8404   -1.1044 C   0  0  0  0  0  0  0  0  0  0  0  0
    5.7104    2.8869   -1.6812 C   0  0  0  0  0  0  0  0  0  0  0  0
    7.4513    3.0870   -1.7142 Cl  0  0  0  0  0  0  0  0  0  0  0  0
    5.0500    1.7746   -2.2015 C   0  0  0  0  0  0  0  0  0  0  0  0
    3.4055    2.0267   -1.9992 S   0  0  0  0  0  0  0  0  0  0  0  0
    5.6419    0.6958   -3.0195 C   0  0  0  0  0  0  0  0  0  0  0  0
    5.0552   -0.5073   -3.1987 C   0  0  0  0  0  0  0  0  0  0  0  0
    3.9258   -1.0405   -2.4197 C   0  0  0  0  0  0  0  0  0  0  0  0
    3.7025   -0.8240   -1.1953 O   0  0  0  0  0  0  0  0  0  0  0  0
    3.1752   -1.9565   -3.2463 C   0  0  0  0  0  0  0  0  0  0  0  0
    1.8933   -2.4989   -2.9847 C   0  0  0  0  0  0  0  0  0  0  0  0
    1.3425   -3.1701   -4.0603 C   0  0  0  0  0  0  0  0  0  0  0  0
    2.0068   -3.3058   -5.3215 C   0  0  0  0  0  0  0  0  0  0  0  0
    3.2701   -2.7985   -5.5716 C   0  0  0  0  0  0  0  0  0  0  0  0
    3.8647   -2.1190   -4.4718 C   0  0  0  0  0  0  0  0  0  0  0  0
    5.1456   -1.3608   -4.4215 C   0  0  0  0  0  0  0  0  0  0  0  0
    6.2353   -1.5701   -5.2009 C   0  0  0  0  0  0  0  0  0  0  0  0
    6.2688   -2.6124   -6.1961 C   0  0  0  0  0  0  0  0  0  0  0  0
    6.3092   -3.4523   -6.9890 N   0  0  0  0  0  0  0  0  0  0  0  0
    7.4749   -0.8623   -5.0068 C   0  0  0  0  0  0  0  0  0  0  0  0
    8.4638   -0.2792   -4.8708 N   0  0  0  0  0  0  0  0  0  0  0  0
    0.8260   -4.0462   -5.8818 C   0  0  0  0  0  0  0  0  0  0  0  0
    0.9622   -5.5861   -6.0732 C   0  0  0  0  0  0  0  0  0  0  0  0
    1.9160   -6.1516   -5.0435 C   0  0  0  0  0  0  0  0  0  0  0  0
    1.3131   -6.0349   -3.8586 C   0  0  0  0  0  0  0  0  0  0  0  0
   -0.0346   -5.4002   -4.1240 C   0  0  0  0  0  0  0  0  0  0  0  0
   -0.3476   -6.0454   -5.4639 C   0  0  0  0  0  0  0  0  0  0  0  0
    0.1543   -3.9232   -4.5832 C   0  0  0  0  0  0  0  0  0  0  0  0
   -4.4879   -1.2378    4.6620 H   0  0  0  0  0  0  0  0  0  0  0  0
    0.0030   -4.6102    1.9038 H   0  0  0  0  0  0  0  0  0  0  0  0
   -1.6479   -5.8660    6.5683 H   0  0  0  0  0  0  0  0  0  0  0  0
   -0.3930   -8.5778    4.8540 H   0  0  0  0  0  0  0  0  0  0  0  0
    1.5488   -8.3062    6.5477 H   0  0  0  0  0  0  0  0  0  0  0  0
    2.5410   -5.8464    6.4862 H   0  0  0  0  0  0  0  0  0  0  0  0
    3.3159   -5.3396    4.0508 H   0  0  0  0  0  0  0  0  0  0  0  0
    2.7772   -7.4607    2.5470 H   0  0  0  0  0  0  0  0  0  0  0  0
    2.0636   -9.4468    4.1853 H   0  0  0  0  0  0  0  0  0  0  0  0
    3.5319   -8.5761    4.8251 H   0  0  0  0  0  0  0  0  0  0  0  0
    0.2713   -8.0460    2.6532 H   0  0  0  0  0  0  0  0  0  0  0  0
   -7.0544   -0.7368    0.9040 H   0  0  0  0  0  0  0  0  0  0  0  0
   -5.4173   -1.2824    0.4209 H   0  0  0  0  0  0  0  0  0  0  0  0
   -6.8468    0.7091   -0.8620 H   0  0  0  0  0  0  0  0  0  0  0  0
   -5.0689    0.5310   -0.9499 H   0  0  0  0  0  0  0  0  0  0  0  0
   -6.0484    2.8766   -0.4058 H   0  0  0  0  0  0  0  0  0  0  0  0
   -6.4264    2.2541    1.2366 H   0  0  0  0  0  0  0  0  0  0  0  0
   -0.7592    2.1705    5.8659 H   0  0  0  0  0  0  0  0  0  0  0  0
   -2.8928    2.3707    7.0676 H   0  0  0  0  0  0  0  0  0  0  0  0
   -5.3317    1.7229    5.4235 H   0  0  0  0  0  0  0  0  0  0  0  0
   -6.9883    2.4239    5.6014 H   0  0  0  0  0  0  0  0  0  0  0  0
   -5.8857    3.0427    4.3114 H   0  0  0  0  0  0  0  0  0  0  0  0
   -4.1619    5.4362    4.3311 H   0  0  0  0  0  0  0  0  0  0  0  0
   -2.0310    5.2514    3.1191 H   0  0  0  0  0  0  0  0  0  0  0  0
    1.2598    4.8987    5.2612 H   0  0  0  0  0  0  0  0  0  0  0  0
    3.4488    4.3738    6.2720 H   0  0  0  0  0  0  0  0  0  0  0  0
    7.2599    2.7219    4.8945 H   0  0  0  0  0  0  0  0  0  0  0  0
    6.0403    2.0395    3.7436 H   0  0  0  0  0  0  0  0  0  0  0  0
    5.8652    3.7435    4.3584 H   0  0  0  0  0  0  0  0  0  0  0  0
    3.5387    0.6309    4.1441 H   0  0  0  0  0  0  0  0  0  0  0  0
    1.3670    1.1673    3.1062 H   0  0  0  0  0  0  0  0  0  0  0  0
   -1.6919    4.0452   -3.6134 H   0  0  0  0  0  0  0  0  0  0  0  0
   -3.5389    5.6760   -3.8001 H   0  0  0  0  0  0  0  0  0  0  0  0
   -3.7670    8.0523   -0.5614 H   0  0  0  0  0  0  0  0  0  0  0  0
   -5.3781    8.6054   -1.1521 H   0  0  0  0  0  0  0  0  0  0  0  0
   -4.8573    6.8945   -1.4414 H   0  0  0  0  0  0  0  0  0  0  0  0
   -1.0964    8.6520   -1.8725 H   0  0  0  0  0  0  0  0  0  0  0  0
    0.7495    7.0317   -1.6924 H   0  0  0  0  0  0  0  0  0  0  0  0
    0.4329    2.3812   -4.1151 H   0  0  0  0  0  0  0  0  0  0  0  0
    1.8648    1.8524   -6.0588 H   0  0  0  0  0  0  0  0  0  0  0  0
    6.1444    1.7681   -6.9044 H   0  0  0  0  0  0  0  0  0  0  0  0
    5.8318    2.7796   -5.4382 H   0  0  0  0  0  0  0  0  0  0  0  0
    4.8114    1.3146   -5.7746 H   0  0  0  0  0  0  0  0  0  0  0  0
    4.2403    5.3533   -5.2646 H   0  0  0  0  0  0  0  0  0  0  0  0
    2.8028    5.8904   -3.3289 H   0  0  0  0  0  0  0  0  0  0  0  0
    5.2006    4.7295   -0.5970 H   0  0  0  0  0  0  0  0  0  0  0  0
    6.4667    0.9939   -3.6424 H   0  0  0  0  0  0  0  0  0  0  0  0
    1.3649   -2.3479   -2.0513 H   0  0  0  0  0  0  0  0  0  0  0  0
    3.7111   -2.8745   -6.5509 H   0  0  0  0  0  0  0  0  0  0  0  0
    0.2947   -3.5079   -6.7044 H   0  0  0  0  0  0  0  0  0  0  0  0
    1.1424   -5.9186   -7.1157 H   0  0  0  0  0  0  0  0  0  0  0  0
    2.8793   -6.6184   -5.2277 H   0  0  0  0  0  0  0  0  0  0  0  0
    1.7007   -6.3933   -2.9102 H   0  0  0  0  0  0  0  0  0  0  0  0
   -0.7964   -5.5577   -3.3340 H   0  0  0  0  0  0  0  0  0  0  0  0
   -1.2511   -5.6170   -5.9630 H   0  0  0  0  0  0  0  0  0  0  0  0
   -0.4444   -7.1537   -5.4072 H   0  0  0  0  0  0  0  0  0  0  0  0
   -0.7791   -3.3179   -4.6184 H   0  0  0  0  0  0  0  0  0  0  0  0
  1  2  2  3
  2  3  1  0
  3  4  2  0
  3  5  1  0
  5  6  2  0
  6  7  1  0
  7  8  2  0
  8  9  1  0
  9 10  2  0
 10 11  1  0
 11 12  2  3
 12 13  1  0
 13 14  3  0
 12 15  1  0
 15 16  3  0
  8 17  1  0
 17 18  1  0
 18 19  1  0
 19 20  2  0
 20 21  1  0
 21 22  1  0
 21 23  1  0
  1 24  1  0
 24 25  1  0
 25 26  1  0
 26 27  2  0
 27 28  1  0
 28 29  1  0
 29 30  1  0
 30 31  1  0
 31 32  1  0
 32 33  1  0
 26 34  1  0
 34 35  2  0
 35 36  1  0
 36 37  1  0
 37 38  2  0
 38 39  1  0
 39 40  2  0
 40 41  1  0
 41 42  1  0
 40 43  1  0
 43 44  2  0
 36 45  1  0
 45 46  2  0
 46 47  1  0
 47 48  2  0
 48 49  1  0
 49 50  1  0
 48 51  1  0
 51 52  2  0
 35 53  1  0
 53 54  1  0
 54 55  1  0
 55 56  2  0
 56 57  1  0
 57 58  1  0
 58 59  2  0
 59 60  1  0
 60 61  2  0
 61 62  1  0
 62 63  1  0
 61 64  1  0
 64 65  2  0
 57 66  1  0
 66 67  2  0
 67 68  1  0
 68 69  2  0
 69 70  1  0
 70 71  1  0
 69 72  1  0
 72 73  2  0
 56 74  1  0
 74 75  1  0
 55 76  1  0
 76 77  2  0
 77 78  1  0
 78 79  1  0
 78 80  2  0
 80 81  1  0
 80 82  1  0
 82 83  2  3
 83 84  1  0
 84 85  2  0
 84 86  1  0
 86 87  2  0
 87 88  1  0
 88 89  2  0
 89 90  1  0
 90 91  2  0
 91 92  1  0
 92 93  2  3
 93 94  1  0
 94 95  3  0
 93 96  1  0
 96 97  3  0
 89 98  1  0
 98 99  1  0
 99100  1  0
100101  2  0
101102  1  0
102103  1  0
102104  1  0
 11  2  1  0
 23 17  1  0
 28 24  2  0
 75 34  1  0
 81 76  1  0
 92 83  1  0
104 98  1  0
 10  5  1  0
 22 18  1  0
 33 27  1  0
 44 37  1  0
 52 45  1  0
 74 53  2  0
 91 86  1  0
103 99  1  0
 23  7  1  0
 65 58  1  0
 73 66  1  0
104 88  1  0
  1105  1  0
  6106  1  0
  9107  1  0
 17108  1  0
 18109  1  0
 19110  1  0
 20111  1  0
 21112  1  0
 22113  1  0
 22114  1  0
 23115  1  0
 30116  1  0
 30117  1  0
 31118  1  0
 31119  1  0
 32120  1  0
 32121  1  0
 38122  1  0
 39123  1  0
 42124  1  0
 42125  1  0
 42126  1  0
 43127  1  0
 44128  1  0
 46129  1  0
 47130  1  0
 50131  1  0
 50132  1  0
 50133  1  0
 51134  1  0
 52135  1  0
 59136  1  0
 60137  1  0
 63138  1  0
 63139  1  0
 63140  1  0
 64141  1  0
 65142  1  0
 67143  1  0
 68144  1  0
 71145  1  0
 71146  1  0
 71147  1  0
 72148  1  0
 73149  1  0
 77150  1  0
 82151  1  0
 87152  1  0
 90153  1  0
 98154  1  0
 99155  1  0
100156  1  0
101157  1  0
102158  1  0
103159  1  0
103160  1  0
104161  1  0
M  END

