
     RDKit          3D

170191  0  0  0  0  0  0  0  0999 V2000
    2.0675    6.8190    8.3170 C   0  0  0  0  0  0  0  0  0  0  0  0
    3.0865    6.3025    9.0218 C   0  0  0  0  0  0  0  0  0  0  0  0
    3.0205    6.1049   10.4715 C   0  0  0  0  0  0  0  0  0  0  0  0
    2.2758    6.7348   11.2711 O   0  0  0  0  0  0  0  0  0  0  0  0
    3.8679    4.9777   10.8167 C   0  0  0  0  0  0  0  0  0  0  0  0
    3.9159    4.2806   12.0467 C   0  0  0  0  0  0  0  0  0  0  0  0
    4.6730    3.1241   12.0026 C   0  0  0  0  0  0  0  0  0  0  0  0
    5.3465    2.6702   10.8216 C   0  0  0  0  0  0  0  0  0  0  0  0
    5.2974    3.3382    9.6130 C   0  0  0  0  0  0  0  0  0  0  0  0
    4.5381    4.5404    9.6422 C   0  0  0  0  0  0  0  0  0  0  0  0
    4.1992    5.4453    8.5253 C   0  0  0  0  0  0  0  0  0  0  0  0
    4.9719    5.6989    7.4411 C   0  0  0  0  0  0  0  0  0  0  0  0
    6.1654    4.9469    7.1520 C   0  0  0  0  0  0  0  0  0  0  0  0
    7.1324    4.3555    6.9122 N   0  0  0  0  0  0  0  0  0  0  0  0
    4.7451    6.8507    6.6080 C   0  0  0  0  0  0  0  0  0  0  0  0
    4.5773    7.7783    5.9347 N   0  0  0  0  0  0  0  0  0  0  0  0
    5.8131    1.4402   11.5382 C   0  0  0  0  0  0  0  0  0  0  0  0
    5.1040    0.0967   11.1955 C   0  0  0  0  0  0  0  0  0  0  0  0
    3.6681    0.3497   10.8007 C   0  0  0  0  0  0  0  0  0  0  0  0
    3.0396    0.7638   11.8999 C   0  0  0  0  0  0  0  0  0  0  0  0
    4.0693    0.7807   13.0074 C   0  0  0  0  0  0  0  0  0  0  0  0
    4.8749   -0.4403   12.5943 C   0  0  0  0  0  0  0  0  0  0  0  0
    5.1220    1.9008   12.7471 C   0  0  0  0  0  0  0  0  0  0  0  0
    1.7560    6.3785    6.9491 C   0  0  0  0  0  0  0  0  0  0  0  0
    1.3815    7.2064    5.8916 C   0  0  0  0  0  0  0  0  0  0  0  0
    1.2117    6.4951    4.6896 C   0  0  0  0  0  0  0  0  0  0  0  0
    0.9336    7.0445    3.4199 C   0  0  0  0  0  0  0  0  0  0  0  0
    0.7092    8.4854    3.2271 C   0  0  0  0  0  0  0  0  0  0  0  0
    1.7336    9.5144    2.3810 S   0  0  0  0  0  0  0  0  0  0  0  0
    0.8055   10.9049    2.5964 C   0  0  0  0  0  0  0  0  0  0  0  0
    1.1280   12.2435    1.9992 C   0  0  0  0  0  0  0  0  0  0  0  0
    0.6246   12.3319    0.5633 C   0  0  0  0  0  0  0  0  0  0  0  0
   -0.3405   10.5702    3.3154 C   0  0  0  0  0  0  0  0  0  0  0  0
   -1.6141   11.7169    3.7056 Cl  0  0  0  0  0  0  0  0  0  0  0  0
   -0.3899    9.2137    3.6746 C   0  0  0  0  0  0  0  0  0  0  0  0
   -1.7333    8.4954    4.5497 Cl  0  0  0  0  0  0  0  0  0  0  0  0
    0.9004    6.1516    2.3348 C   0  0  0  0  0  0  0  0  0  0  0  0
    1.0766    4.7751    2.4970 C   0  0  0  0  0  0  0  0  0  0  0  0
    1.3157    4.2221    3.7642 C   0  0  0  0  0  0  0  0  0  0  0  0
    1.4542    2.7686    3.9558 C   0  0  0  0  0  0  0  0  0  0  0  0
    2.6190    2.1009    4.3035 C   0  0  0  0  0  0  0  0  0  0  0  0
    2.4749    0.7066    4.2998 C   0  0  0  0  0  0  0  0  0  0  0  0
    1.2026    0.2888    3.9202 C   0  0  0  0  0  0  0  0  0  0  0  0
    0.7121   -1.1235    3.8913 C   0  0  0  0  0  0  0  0  0  0  0  0
    0.1475   -1.5217    5.2480 C   0  0  0  0  0  0  0  0  0  0  0  0
    0.2468    1.6393    3.6353 S   0  0  0  0  0  0  0  0  0  0  0  0
    1.4076    5.1179    4.8365 C   0  0  0  0  0  0  0  0  0  0  0  0
    1.8020    4.7734    6.4278 S   0  0  0  0  0  0  0  0  0  0  0  0
    1.0399    4.0646    1.2953 C   0  0  0  0  0  0  0  0  0  0  0  0
    0.8511    4.8753    0.1784 C   0  0  0  0  0  0  0  0  0  0  0  0
    0.6897    6.4837    0.6921 S   0  0  0  0  0  0  0  0  0  0  0  0
    0.7806    4.3782   -1.2123 C   0  0  0  0  0  0  0  0  0  0  0  0
    1.4968    3.2444   -1.6132 C   0  0  0  0  0  0  0  0  0  0  0  0
    2.3574    2.4993   -0.8970 N   0  0  0  0  0  0  0  0  0  0  0  0
    2.6381    1.4559   -1.6693 N   0  0  0  0  0  0  0  0  0  0  0  0
    3.4542    0.3343   -1.2224 C   0  0  0  0  0  0  0  0  0  0  0  0
    2.6068   -0.6477   -0.4202 C   0  0  0  0  0  0  0  0  0  0  0  0
    1.9862    1.4795   -2.8288 N   0  0  0  0  0  0  0  0  0  0  0  0
    1.2837    2.6277   -2.8078 C   0  0  0  0  0  0  0  0  0  0  0  0
    0.3293    3.0793   -3.7175 C   0  0  0  0  0  0  0  0  0  0  0  0
   -0.3568    4.2706   -3.3906 C   0  0  0  0  0  0  0  0  0  0  0  0
   -0.1224    4.9254   -2.1567 C   0  0  0  0  0  0  0  0  0  0  0  0
   -0.8535    6.0304   -1.8526 F   0  0  0  0  0  0  0  0  0  0  0  0
   -1.2825    4.7806   -4.2447 F   0  0  0  0  0  0  0  0  0  0  0  0
   -0.1122    2.2319   -4.8339 C   0  0  0  0  0  0  0  0  0  0  0  0
    0.7126    1.4828   -5.6765 C   0  0  0  0  0  0  0  0  0  0  0  0
   -0.0041    0.5501   -6.4434 C   0  0  0  0  0  0  0  0  0  0  0  0
    0.5373   -0.3809   -7.3561 C   0  0  0  0  0  0  0  0  0  0  0  0
    1.9868   -0.4896   -7.5940 C   0  0  0  0  0  0  0  0  0  0  0  0
    3.0928   -1.0723   -6.4675 S   0  0  0  0  0  0  0  0  0  0  0  0
    4.4226   -1.0632   -7.5032 C   0  0  0  0  0  0  0  0  0  0  0  0
    5.7775   -1.5995   -7.1554 C   0  0  0  0  0  0  0  0  0  0  0  0
    5.8905   -3.0673   -7.5535 C   0  0  0  0  0  0  0  0  0  0  0  0
    4.0051   -0.6243   -8.7587 C   0  0  0  0  0  0  0  0  0  0  0  0
    5.0651   -0.5417  -10.1617 Cl  0  0  0  0  0  0  0  0  0  0  0  0
    2.6408   -0.3096   -8.8120 C   0  0  0  0  0  0  0  0  0  0  0  0
    1.8318    0.2402  -10.2727 Cl  0  0  0  0  0  0  0  0  0  0  0  0
   -0.3615   -1.2960   -7.9350 C   0  0  0  0  0  0  0  0  0  0  0  0
   -1.7238   -1.3106   -7.6277 C   0  0  0  0  0  0  0  0  0  0  0  0
   -2.2700   -0.3654   -6.7378 C   0  0  0  0  0  0  0  0  0  0  0  0
   -3.6723   -0.4329   -6.2907 C   0  0  0  0  0  0  0  0  0  0  0  0
   -4.7986   -0.2877   -7.0927 C   0  0  0  0  0  0  0  0  0  0  0  0
   -6.0020   -0.4682   -6.3979 C   0  0  0  0  0  0  0  0  0  0  0  0
   -5.8210   -0.7646   -5.0485 C   0  0  0  0  0  0  0  0  0  0  0  0
   -6.9035   -1.1216   -4.0730 C   0  0  0  0  0  0  0  0  0  0  0  0
   -6.7323   -0.3824   -2.7447 C   0  0  0  0  0  0  0  0  0  0  0  0
   -4.1653   -0.8231   -4.7321 S   0  0  0  0  0  0  0  0  0  0  0  0
   -1.3778    0.5599   -6.1751 C   0  0  0  0  0  0  0  0  0  0  0  0
   -1.7118    1.7310   -5.0182 S   0  0  0  0  0  0  0  0  0  0  0  0
   -2.4088   -2.4024   -8.1784 C   0  0  0  0  0  0  0  0  0  0  0  0
   -1.5867   -3.2541   -8.9150 C   0  0  0  0  0  0  0  0  0  0  0  0
   -0.0138   -2.6344   -8.8918 S   0  0  0  0  0  0  0  0  0  0  0  0
   -1.8979   -4.5826   -9.4842 C   0  0  0  0  0  0  0  0  0  0  0  0
   -2.5364   -5.5683   -8.8215 C   0  0  0  0  0  0  0  0  0  0  0  0
   -2.0274   -6.9439   -8.8549 C   0  0  0  0  0  0  0  0  0  0  0  0
   -1.3912   -7.4728   -9.8044 O   0  0  0  0  0  0  0  0  0  0  0  0
   -2.2573   -7.5520   -7.5546 C   0  0  0  0  0  0  0  0  0  0  0  0
   -1.8512   -8.8328   -7.1145 C   0  0  0  0  0  0  0  0  0  0  0  0
   -2.2032   -9.1083   -5.8048 C   0  0  0  0  0  0  0  0  0  0  0  0
   -2.8884   -8.1702   -4.9635 C   0  0  0  0  0  0  0  0  0  0  0  0
   -3.2844   -6.9138   -5.3888 C   0  0  0  0  0  0  0  0  0  0  0  0
   -2.9704   -6.6347   -6.7466 C   0  0  0  0  0  0  0  0  0  0  0  0
   -3.3376   -5.4570   -7.5686 C   0  0  0  0  0  0  0  0  0  0  0  0
   -4.5534   -4.8634   -7.5223 C   0  0  0  0  0  0  0  0  0  0  0  0
   -5.4054   -4.9297   -6.3641 C   0  0  0  0  0  0  0  0  0  0  0  0
   -6.1028   -4.9758   -5.4433 N   0  0  0  0  0  0  0  0  0  0  0  0
   -5.1383   -4.2720   -8.7011 C   0  0  0  0  0  0  0  0  0  0  0  0
   -5.6173   -3.8006   -9.6441 N   0  0  0  0  0  0  0  0  0  0  0  0
   -2.9110   -9.1673   -3.8434 C   0  0  0  0  0  0  0  0  0  0  0  0
   -4.2659   -9.8663   -3.5293 C   0  0  0  0  0  0  0  0  0  0  0  0
   -5.0978   -9.9700   -4.7856 C   0  0  0  0  0  0  0  0  0  0  0  0
   -4.4763  -10.8411   -5.5807 C   0  0  0  0  0  0  0  0  0  0  0  0
   -3.2441  -11.3029   -4.8363 C   0  0  0  0  0  0  0  0  0  0  0  0
   -3.8033  -11.3084   -3.4271 C   0  0  0  0  0  0  0  0  0  0  0  0
   -2.2215  -10.1317   -4.7082 C   0  0  0  0  0  0  0  0  0  0  0  0
    1.3327    7.4341    8.8193 H   0  0  0  0  0  0  0  0  0  0  0  0
    3.3605    4.5855   12.9240 H   0  0  0  0  0  0  0  0  0  0  0  0
    5.7373    2.9173    8.7231 H   0  0  0  0  0  0  0  0  0  0  0  0
    6.9220    1.3751   11.6470 H   0  0  0  0  0  0  0  0  0  0  0  0
    5.6651   -0.5749   10.5117 H   0  0  0  0  0  0  0  0  0  0  0  0
    3.2034    0.1513    9.8400 H   0  0  0  0  0  0  0  0  0  0  0  0
    1.9751    0.9546   11.9897 H   0  0  0  0  0  0  0  0  0  0  0  0
    3.6499    0.7507   14.0364 H   0  0  0  0  0  0  0  0  0  0  0  0
    4.2866   -1.3876   12.6139 H   0  0  0  0  0  0  0  0  0  0  0  0
    5.8158   -0.5717   13.1804 H   0  0  0  0  0  0  0  0  0  0  0  0
    5.8015    2.1145   13.6015 H   0  0  0  0  0  0  0  0  0  0  0  0
    1.3005    8.2830    5.9792 H   0  0  0  0  0  0  0  0  0  0  0  0
    0.6782   13.0584    2.6103 H   0  0  0  0  0  0  0  0  0  0  0  0
    2.2293   12.3897    2.0029 H   0  0  0  0  0  0  0  0  0  0  0  0
   -0.4752   12.1844    0.5285 H   0  0  0  0  0  0  0  0  0  0  0  0
    0.8659   13.3329    0.1516 H   0  0  0  0  0  0  0  0  0  0  0  0
    1.1208   11.5584   -0.0628 H   0  0  0  0  0  0  0  0  0  0  0  0
    3.5483    2.6005    4.5585 H   0  0  0  0  0  0  0  0  0  0  0  0
    3.2756    0.0279    4.5658 H   0  0  0  0  0  0  0  0  0  0  0  0
   -0.0830   -1.2152    3.1187 H   0  0  0  0  0  0  0  0  0  0  0  0
    1.5433   -1.8055    3.6141 H   0  0  0  0  0  0  0  0  0  0  0  0
   -0.2787   -2.5452    5.1909 H   0  0  0  0  0  0  0  0  0  0  0  0
    0.9559   -1.5134    6.0133 H   0  0  0  0  0  0  0  0  0  0  0  0
   -0.6572   -0.8203    5.5552 H   0  0  0  0  0  0  0  0  0  0  0  0
    1.1396    2.9914    1.2409 H   0  0  0  0  0  0  0  0  0  0  0  0
    3.8940   -0.1866   -2.1040 H   0  0  0  0  0  0  0  0  0  0  0  0
    4.2879    0.7086   -0.5926 H   0  0  0  0  0  0  0  0  0  0  0  0
    1.8284   -1.0935   -1.0687 H   0  0  0  0  0  0  0  0  0  0  0  0
    2.1209   -0.1276    0.4362 H   0  0  0  0  0  0  0  0  0  0  0  0
    3.2562   -1.4585   -0.0243 H   0  0  0  0  0  0  0  0  0  0  0  0
    1.7888    1.5870   -5.7011 H   0  0  0  0  0  0  0  0  0  0  0  0
    6.5568   -1.0069   -7.6806 H   0  0  0  0  0  0  0  0  0  0  0  0
    5.9465   -1.5003   -6.0628 H   0  0  0  0  0  0  0  0  0  0  0  0
    5.6108   -3.2063   -8.6198 H   0  0  0  0  0  0  0  0  0  0  0  0
    5.2157   -3.6843   -6.9246 H   0  0  0  0  0  0  0  0  0  0  0  0
    6.9362   -3.4128   -7.4121 H   0  0  0  0  0  0  0  0  0  0  0  0
   -4.7498   -0.0615   -8.1465 H   0  0  0  0  0  0  0  0  0  0  0  0
   -6.9752   -0.4059   -6.8686 H   0  0  0  0  0  0  0  0  0  0  0  0
   -6.8745   -2.2185   -3.8926 H   0  0  0  0  0  0  0  0  0  0  0  0
   -7.8996   -0.8583   -4.4989 H   0  0  0  0  0  0  0  0  0  0  0  0
   -6.7684    0.7125   -2.9180 H   0  0  0  0  0  0  0  0  0  0  0  0
   -5.7689   -0.6527   -2.2628 H   0  0  0  0  0  0  0  0  0  0  0  0
   -7.5642   -0.6538   -2.0615 H   0  0  0  0  0  0  0  0  0  0  0  0
   -3.4497   -2.5600   -7.9993 H   0  0  0  0  0  0  0  0  0  0  0  0
   -1.2398   -4.8822  -10.2924 H   0  0  0  0  0  0  0  0  0  0  0  0
   -1.3316   -9.5447   -7.7447 H   0  0  0  0  0  0  0  0  0  0  0  0
   -3.8003   -6.2321   -4.7337 H   0  0  0  0  0  0  0  0  0  0  0  0
   -2.3207   -8.8640   -2.9512 H   0  0  0  0  0  0  0  0  0  0  0  0
   -4.8056   -9.4721   -2.6392 H   0  0  0  0  0  0  0  0  0  0  0  0
   -6.0465   -9.4841   -4.9908 H   0  0  0  0  0  0  0  0  0  0  0  0
   -4.8350  -11.1949   -6.5402 H   0  0  0  0  0  0  0  0  0  0  0  0
   -2.8212  -12.2665   -5.1893 H   0  0  0  0  0  0  0  0  0  0  0  0
   -4.6445  -12.0336   -3.2837 H   0  0  0  0  0  0  0  0  0  0  0  0
   -3.0302  -11.4745   -2.6400 H   0  0  0  0  0  0  0  0  0  0  0  0
   -1.2137  -10.4247   -4.3389 H   0  0  0  0  0  0  0  0  0  0  0  0
  1  2  2  3
  2  3  1  0
  3  4  2  0
  3  5  1  0
  5  6  2  0
  6  7  1  0
  7  8  2  0
  8  9  1  0
  9 10  2  0
 10 11  1  0
 11 12  2  3
 12 13  1  0
 13 14  3  0
 12 15  1  0
 15 16  3  0
  8 17  1  0
 17 18  1  0
 18 19  1  0
 19 20  2  0
 20 21  1  0
 21 22  1  0
 21 23  1  0
  1 24  1  0
 24 25  2  0
 25 26  1  0
 26 27  2  0
 27 28  1  0
 28 29  1  0
 29 30  1  0
 30 31  1  0
 31 32  1  0
 30 33  2  0
 33 34  1  0
 33 35  1  0
 35 36  1  0
 27 37  1  0
 37 38  2  0
 38 39  1  0
 39 40  1  0
 40 41  2  0
 41 42  1  0
 42 43  2  0
 43 44  1  0
 44 45  1  0
 43 46  1  0
 39 47  2  0
 47 48  1  0
 38 49  1  0
 49 50  2  0
 50 51  1  0
 50 52  1  0
 52 53  1  0
 53 54  2  0
 54 55  1  0
 55 56  1  0
 56 57  1  0
 55 58  1  0
 58 59  2  0
 59 60  1  0
 60 61  2  0
 61 62  1  0
 62 63  1  0
 61 64  1  0
 60 65  1  0
 65 66  2  0
 66 67  1  0
 67 68  2  0
 68 69  1  0
 69 70  1  0
 70 71  1  0
 71 72  1  0
 72 73  1  0
 71 74  2  0
 74 75  1  0
 74 76  1  0
 76 77  1  0
 68 78  1  0
 78 79  2  0
 79 80  1  0
 80 81  1  0
 81 82  2  0
 82 83  1  0
 83 84  2  0
 84 85  1  0
 85 86  1  0
 84 87  1  0
 80 88  2  0
 88 89  1  0
 79 90  1  0
 90 91  2  0
 91 92  1  0
 91 93  1  0
 93 94  2  3
 94 95  1  0
 95 96  2  0
 95 97  1  0
 97 98  2  0
 98 99  1  0
 99100  2  0
100101  1  0
101102  2  0
102103  1  0
103104  2  3
104105  1  0
105106  3  0
104107  1  0
107108  3  0
100109  1  0
109110  1  0
110111  1  0
111112  2  0
112113  1  0
113114  1  0
113115  1  0
 11  2  1  0
 23 17  1  0
 48 24  1  0
 62 52  2  0
 89 65  1  0
103 94  1  0
115109  1  0
 10  5  1  0
 22 18  1  0
 47 26  1  0
 59 53  1  0
 88 67  1  0
102 97  1  0
114110  1  0
 23  7  1  0
 35 28  2  0
 51 37  1  0
 76 69  2  0
 92 78  1  0
115 99  1  0
 46 40  1  0
 87 81  1  0
  1116  1  0
  6117  1  0
  9118  1  0
 17119  1  0
 18120  1  0
 19121  1  0
 20122  1  0
 21123  1  0
 22124  1  0
 22125  1  0
 23126  1  0
 25127  1  0
 31128  1  0
 31129  1  0
 32130  1  0
 32131  1  0
 32132  1  0
 41133  1  0
 42134  1  0
 44135  1  0
 44136  1  0
 45137  1  0
 45138  1  0
 45139  1  0
 49140  1  0
 56141  1  0
 56142  1  0
 57143  1  0
 57144  1  0
 57145  1  0
 66146  1  0
 72147  1  0
 72148  1  0
 73149  1  0
 73150  1  0
 73151  1  0
 82152  1  0
 83153  1  0
 85154  1  0
 85155  1  0
 86156  1  0
 86157  1  0
 86158  1  0
 90159  1  0
 93160  1  0
 98161  1  0
101162  1  0
109163  1  0
110164  1  0
111165  1  0
112166  1  0
113167  1  0
114168  1  0
114169  1  0
115170  1  0
M  END

