
     RDKit          3D

180199  0  0  0  0  0  0  0  0999 V2000
   -5.1726    8.3682   -0.4561 C   0  0  0  0  0  0  0  0  0  0  0  0
   -5.2763    8.2882    0.8838 C   0  0  0  0  0  0  0  0  0  0  0  0
   -4.3287    8.8427    1.8643 C   0  0  0  0  0  0  0  0  0  0  0  0
   -3.9919   10.0433    1.8882 O   0  0  0  0  0  0  0  0  0  0  0  0
   -4.3290    7.9532    3.0173 C   0  0  0  0  0  0  0  0  0  0  0  0
   -3.5572    8.0913    4.1933 C   0  0  0  0  0  0  0  0  0  0  0  0
   -3.7335    7.0593    5.0945 C   0  0  0  0  0  0  0  0  0  0  0  0
   -4.5676    5.9201    4.8405 C   0  0  0  0  0  0  0  0  0  0  0  0
   -5.3638    5.8053    3.7051 C   0  0  0  0  0  0  0  0  0  0  0  0
   -5.2549    6.9029    2.8054 C   0  0  0  0  0  0  0  0  0  0  0  0
   -6.0344    7.2076    1.5765 C   0  0  0  0  0  0  0  0  0  0  0  0
   -7.3337    6.8965    1.3348 C   0  0  0  0  0  0  0  0  0  0  0  0
   -8.0697    5.9528    2.1497 C   0  0  0  0  0  0  0  0  0  0  0  0
   -8.6661    5.2005    2.7953 N   0  0  0  0  0  0  0  0  0  0  0  0
   -8.1141    7.7250    0.4467 C   0  0  0  0  0  0  0  0  0  0  0  0
   -8.6984    8.4394   -0.2256 N   0  0  0  0  0  0  0  0  0  0  0  0
   -4.1780    5.3211    6.1624 C   0  0  0  0  0  0  0  0  0  0  0  0
   -3.1209    4.1807    6.2009 C   0  0  0  0  0  0  0  0  0  0  0  0
   -2.1233    4.3436    5.0725 C   0  0  0  0  0  0  0  0  0  0  0  0
   -1.4059    5.4298    5.3483 C   0  0  0  0  0  0  0  0  0  0  0  0
   -1.9399    5.9750    6.6542 C   0  0  0  0  0  0  0  0  0  0  0  0
   -2.2570    4.6551    7.3496 C   0  0  0  0  0  0  0  0  0  0  0  0
   -3.3803    6.5138    6.4496 C   0  0  0  0  0  0  0  0  0  0  0  0
   -3.8834    8.2194   -1.1824 C   0  0  0  0  0  0  0  0  0  0  0  0
   -2.6277    7.9674   -0.6195 C   0  0  0  0  0  0  0  0  0  0  0  0
   -1.7552    7.2507   -1.4677 C   0  0  0  0  0  0  0  0  0  0  0  0
   -0.5322    6.6550   -1.0888 C   0  0  0  0  0  0  0  0  0  0  0  0
    0.2139    7.0171    0.1869 C   0  0  0  0  0  0  0  0  0  0  0  0
    1.4840    7.7950   -0.1266 C   0  0  0  0  0  0  0  0  0  0  0  0
   -0.0474    5.6427   -1.9304 C   0  0  0  0  0  0  0  0  0  0  0  0
   -0.6607    5.2801   -3.1355 C   0  0  0  0  0  0  0  0  0  0  0  0
   -1.7732    6.0131   -3.6117 C   0  0  0  0  0  0  0  0  0  0  0  0
   -2.4154    5.7017   -4.9487 C   0  0  0  0  0  0  0  0  0  0  0  0
   -1.5303    6.1700   -6.1000 C   0  0  0  0  0  0  0  0  0  0  0  0
   -2.3219    6.9642   -2.7192 C   0  0  0  0  0  0  0  0  0  0  0  0
   -3.8623    7.6156   -2.7540 S   0  0  0  0  0  0  0  0  0  0  0  0
   -0.1903    4.0444   -3.6530 C   0  0  0  0  0  0  0  0  0  0  0  0
    0.7564    3.4429   -2.8258 C   0  0  0  0  0  0  0  0  0  0  0  0
    1.0556    4.4582   -1.5117 S   0  0  0  0  0  0  0  0  0  0  0  0
    1.0425    2.0055   -2.7153 C   0  0  0  0  0  0  0  0  0  0  0  0
    0.0376    1.0400   -2.4369 C   0  0  0  0  0  0  0  0  0  0  0  0
   -1.1745    0.8781   -3.1944 N   0  0  0  0  0  0  0  0  0  0  0  0
   -2.4245    1.0786   -2.4992 C   0  0  0  0  0  0  0  0  0  0  0  0
   -3.1784   -0.0299   -2.0738 C   0  0  0  0  0  0  0  0  0  0  0  0
   -4.4655    0.1462   -1.5568 C   0  0  0  0  0  0  0  0  0  0  0  0
   -5.0131    1.4328   -1.4537 C   0  0  0  0  0  0  0  0  0  0  0  0
   -6.7138    1.6602   -0.9161 S   0  0  0  0  0  0  0  0  0  0  0  0
   -7.4048    1.2413   -2.5461 C   0  0  0  0  0  0  0  0  0  0  0  0
   -4.2427    2.5435   -1.8169 C   0  0  0  0  0  0  0  0  0  0  0  0
   -2.9552    2.3650   -2.3268 C   0  0  0  0  0  0  0  0  0  0  0  0
   -1.1666    0.0054   -4.3611 C   0  0  0  0  0  0  0  0  0  0  0  0
   -0.0155   -0.7374   -4.7193 C   0  0  0  0  0  0  0  0  0  0  0  0
   -0.0689   -1.7077   -5.7237 C   0  0  0  0  0  0  0  0  0  0  0  0
   -1.2640   -1.9499   -6.3993 C   0  0  0  0  0  0  0  0  0  0  0  0
   -1.3566   -3.2685   -7.6170 S   0  0  0  0  0  0  0  0  0  0  0  0
   -1.7529   -4.5555   -6.3881 C   0  0  0  0  0  0  0  0  0  0  0  0
   -2.3907   -1.1739   -6.1173 C   0  0  0  0  0  0  0  0  0  0  0  0
   -2.3434   -0.1972   -5.1174 C   0  0  0  0  0  0  0  0  0  0  0  0
    0.4849    0.0766   -1.5326 C   0  0  0  0  0  0  0  0  0  0  0  0
   -0.2633   -1.1210   -0.6484 S   0  0  0  0  0  0  0  0  0  0  0  0
    1.0996   -1.4508    0.3280 C   0  0  0  0  0  0  0  0  0  0  0  0
    2.1582   -0.6176   -0.0678 C   0  0  0  0  0  0  0  0  0  0  0  0
    3.3445   -0.3659    0.7016 N   0  0  0  0  0  0  0  0  0  0  0  0
    3.3876    0.9232    1.3515 C   0  0  0  0  0  0  0  0  0  0  0  0
    2.4284    1.2459    2.3241 C   0  0  0  0  0  0  0  0  0  0  0  0
    2.2942    2.5605    2.7710 C   0  0  0  0  0  0  0  0  0  0  0  0
    3.1050    3.5731    2.2317 C   0  0  0  0  0  0  0  0  0  0  0  0
    2.8300    5.2861    2.6957 S   0  0  0  0  0  0  0  0  0  0  0  0
    4.3044    5.3633    3.7606 C   0  0  0  0  0  0  0  0  0  0  0  0
    4.0743    3.2521    1.2757 C   0  0  0  0  0  0  0  0  0  0  0  0
    4.2342    1.9344    0.8597 C   0  0  0  0  0  0  0  0  0  0  0  0
    4.5706   -1.0788    0.4026 C   0  0  0  0  0  0  0  0  0  0  0  0
    5.6783   -0.9670    1.2662 C   0  0  0  0  0  0  0  0  0  0  0  0
    6.8874   -1.5886    0.9538 C   0  0  0  0  0  0  0  0  0  0  0  0
    7.0103   -2.3353   -0.2227 C   0  0  0  0  0  0  0  0  0  0  0  0
    8.5917   -3.0831   -0.6546 S   0  0  0  0  0  0  0  0  0  0  0  0
    8.2153   -4.6653    0.1566 C   0  0  0  0  0  0  0  0  0  0  0  0
    5.9128   -2.4800   -1.0743 C   0  0  0  0  0  0  0  0  0  0  0  0
    4.7016   -1.8632   -0.7662 C   0  0  0  0  0  0  0  0  0  0  0  0
    1.7632    0.2092   -1.1181 C   0  0  0  0  0  0  0  0  0  0  0  0
    2.4402    1.5417   -1.8572 S   0  0  0  0  0  0  0  0  0  0  0  0
    1.1120   -2.4838    1.3742 C   0  0  0  0  0  0  0  0  0  0  0  0
   -0.0224   -3.0643    1.9336 C   0  0  0  0  0  0  0  0  0  0  0  0
    0.2233   -4.2750    2.5863 C   0  0  0  0  0  0  0  0  0  0  0  0
   -1.1055   -5.3605    3.1342 S   0  0  0  0  0  0  0  0  0  0  0  0
   -1.2848   -4.6246    4.7958 C   0  0  0  0  0  0  0  0  0  0  0  0
   -2.3681   -3.5558    4.7755 C   0  0  0  0  0  0  0  0  0  0  0  0
    1.5666   -4.6625    2.5472 C   0  0  0  0  0  0  0  0  0  0  0  0
    2.4191   -3.4878    1.7105 S   0  0  0  0  0  0  0  0  0  0  0  0
    2.0656   -6.0302    2.7070 C   0  0  0  0  0  0  0  0  0  0  0  0
    1.7098   -7.0282    1.8734 C   0  0  0  0  0  0  0  0  0  0  0  0
    0.9013   -6.8845    0.6533 C   0  0  0  0  0  0  0  0  0  0  0  0
    0.3825   -5.8200    0.2174 O   0  0  0  0  0  0  0  0  0  0  0  0
    0.9007   -8.1319   -0.0642 C   0  0  0  0  0  0  0  0  0  0  0  0
    0.0863   -8.4650   -1.1650 C   0  0  0  0  0  0  0  0  0  0  0  0
    0.2239   -9.7644   -1.5858 C   0  0  0  0  0  0  0  0  0  0  0  0
    1.1393  -10.6901   -0.9891 C   0  0  0  0  0  0  0  0  0  0  0  0
    1.9392  -10.3708    0.1000 C   0  0  0  0  0  0  0  0  0  0  0  0
    1.7749   -9.0361    0.5832 C   0  0  0  0  0  0  0  0  0  0  0  0
    2.2752   -8.4153    1.8456 C   0  0  0  0  0  0  0  0  0  0  0  0
    2.9468   -9.0375    2.8395 C   0  0  0  0  0  0  0  0  0  0  0  0
    2.7960   -8.6330    4.2073 C   0  0  0  0  0  0  0  0  0  0  0  0
    2.6441   -8.3078    5.3038 N   0  0  0  0  0  0  0  0  0  0  0  0
    3.7990  -10.1687    2.5980 C   0  0  0  0  0  0  0  0  0  0  0  0
    4.5155  -11.0549    2.4038 N   0  0  0  0  0  0  0  0  0  0  0  0
    0.7142  -11.7539   -1.9650 C   0  0  0  0  0  0  0  0  0  0  0  0
    1.6383  -12.0556   -3.1800 C   0  0  0  0  0  0  0  0  0  0  0  0
    2.3635  -10.7973   -3.5975 C   0  0  0  0  0  0  0  0  0  0  0  0
    1.4481   -9.9811   -4.1162 C   0  0  0  0  0  0  0  0  0  0  0  0
    0.1254  -10.7005   -4.0228 C   0  0  0  0  0  0  0  0  0  0  0  0
    0.6029  -12.1189   -4.2864 C   0  0  0  0  0  0  0  0  0  0  0  0
   -0.2774  -10.8268   -2.5251 C   0  0  0  0  0  0  0  0  0  0  0  0
   -6.0238    8.0763   -1.0635 H   0  0  0  0  0  0  0  0  0  0  0  0
   -2.9275    8.9385    4.3983 H   0  0  0  0  0  0  0  0  0  0  0  0
   -6.0115    4.9531    3.5525 H   0  0  0  0  0  0  0  0  0  0  0  0
   -5.0428    5.1925    6.8594 H   0  0  0  0  0  0  0  0  0  0  0  0
   -3.5325    3.1540    6.3116 H   0  0  0  0  0  0  0  0  0  0  0  0
   -1.9291    3.6480    4.2634 H   0  0  0  0  0  0  0  0  0  0  0  0
   -0.5415    5.7826    4.8004 H   0  0  0  0  0  0  0  0  0  0  0  0
   -1.2499    6.6453    7.2094 H   0  0  0  0  0  0  0  0  0  0  0  0
   -1.3578    4.0230    7.5268 H   0  0  0  0  0  0  0  0  0  0  0  0
   -2.8124    4.7808    8.3083 H   0  0  0  0  0  0  0  0  0  0  0  0
   -3.7676    7.1231    7.2979 H   0  0  0  0  0  0  0  0  0  0  0  0
   -2.4307    8.1467    0.4200 H   0  0  0  0  0  0  0  0  0  0  0  0
    0.4522    6.1018    0.7786 H   0  0  0  0  0  0  0  0  0  0  0  0
   -0.3946    7.6639    0.8506 H   0  0  0  0  0  0  0  0  0  0  0  0
    1.9088    8.2095    0.8126 H   0  0  0  0  0  0  0  0  0  0  0  0
    1.2582    8.6350   -0.8203 H   0  0  0  0  0  0  0  0  0  0  0  0
    2.2320    7.1304   -0.6036 H   0  0  0  0  0  0  0  0  0  0  0  0
   -3.4039    6.2024   -5.0446 H   0  0  0  0  0  0  0  0  0  0  0  0
   -2.6134    4.6090   -5.0401 H   0  0  0  0  0  0  0  0  0  0  0  0
   -0.5535    5.6371   -6.0912 H   0  0  0  0  0  0  0  0  0  0  0  0
   -2.0360    5.9620   -7.0684 H   0  0  0  0  0  0  0  0  0  0  0  0
   -1.3568    7.2638   -6.0244 H   0  0  0  0  0  0  0  0  0  0  0  0
   -0.6252    3.5414   -4.5021 H   0  0  0  0  0  0  0  0  0  0  0  0
   -2.7928   -1.0327   -2.1972 H   0  0  0  0  0  0  0  0  0  0  0  0
   -5.0422   -0.7154   -1.2627 H   0  0  0  0  0  0  0  0  0  0  0  0
   -8.5102    1.2630   -2.5047 H   0  0  0  0  0  0  0  0  0  0  0  0
   -7.0624    1.9716   -3.3109 H   0  0  0  0  0  0  0  0  0  0  0  0
   -7.0735    0.2229   -2.8467 H   0  0  0  0  0  0  0  0  0  0  0  0
   -4.6511    3.5401   -1.7247 H   0  0  0  0  0  0  0  0  0  0  0  0
   -2.3869    3.2346   -2.5945 H   0  0  0  0  0  0  0  0  0  0  0  0
    0.9244   -0.6085   -4.1958 H   0  0  0  0  0  0  0  0  0  0  0  0
    0.8110   -2.2980   -5.9496 H   0  0  0  0  0  0  0  0  0  0  0  0
   -1.8884   -5.5261   -6.9068 H   0  0  0  0  0  0  0  0  0  0  0  0
   -0.9231   -4.6564   -5.6539 H   0  0  0  0  0  0  0  0  0  0  0  0
   -2.6929   -4.3019   -5.8493 H   0  0  0  0  0  0  0  0  0  0  0  0
   -3.3121   -1.3478   -6.6519 H   0  0  0  0  0  0  0  0  0  0  0  0
   -3.2380    0.3725   -4.9114 H   0  0  0  0  0  0  0  0  0  0  0  0
    1.7538    0.4837    2.7030 H   0  0  0  0  0  0  0  0  0  0  0  0
    1.5351    2.8093    3.5041 H   0  0  0  0  0  0  0  0  0  0  0  0
    5.2181    5.3275    3.1256 H   0  0  0  0  0  0  0  0  0  0  0  0
    4.3005    6.3213    4.3203 H   0  0  0  0  0  0  0  0  0  0  0  0
    4.3122    4.5143    4.4798 H   0  0  0  0  0  0  0  0  0  0  0  0
    4.6939    4.0268    0.8566 H   0  0  0  0  0  0  0  0  0  0  0  0
    4.9614    1.7065    0.0944 H   0  0  0  0  0  0  0  0  0  0  0  0
    5.6113   -0.3840    2.1769 H   0  0  0  0  0  0  0  0  0  0  0  0
    7.7389   -1.4748    1.6160 H   0  0  0  0  0  0  0  0  0  0  0  0
    9.0978   -5.3297    0.0709 H   0  0  0  0  0  0  0  0  0  0  0  0
    7.3516   -5.1516   -0.3412 H   0  0  0  0  0  0  0  0  0  0  0  0
    7.9888   -4.5082    1.2299 H   0  0  0  0  0  0  0  0  0  0  0  0
    6.0064   -3.0565   -1.9799 H   0  0  0  0  0  0  0  0  0  0  0  0
    3.8773   -1.9739   -1.4537 H   0  0  0  0  0  0  0  0  0  0  0  0
   -1.0202   -2.6663    1.7892 H   0  0  0  0  0  0  0  0  0  0  0  0
   -1.5819   -5.4268    5.5023 H   0  0  0  0  0  0  0  0  0  0  0  0
   -0.3226   -4.1915    5.1471 H   0  0  0  0  0  0  0  0  0  0  0  0
   -2.5392   -3.1783    5.8038 H   0  0  0  0  0  0  0  0  0  0  0  0
   -3.3137   -3.9787    4.3639 H   0  0  0  0  0  0  0  0  0  0  0  0
   -2.0475   -2.7115    4.1300 H   0  0  0  0  0  0  0  0  0  0  0  0
    2.8453   -6.1822    3.4402 H   0  0  0  0  0  0  0  0  0  0  0  0
   -0.6204   -7.7759   -1.6134 H   0  0  0  0  0  0  0  0  0  0  0  0
    2.5790  -11.1079    0.5520 H   0  0  0  0  0  0  0  0  0  0  0  0
    0.2301  -12.6483   -1.4951 H   0  0  0  0  0  0  0  0  0  0  0  0
    2.2778  -12.9496   -3.0756 H   0  0  0  0  0  0  0  0  0  0  0  0
    3.4280  -10.5922   -3.5351 H   0  0  0  0  0  0  0  0  0  0  0  0
    1.6372   -9.0089   -4.5645 H   0  0  0  0  0  0  0  0  0  0  0  0
   -0.6686  -10.3221   -4.7045 H   0  0  0  0  0  0  0  0  0  0  0  0
    1.0528  -12.2515   -5.3023 H   0  0  0  0  0  0  0  0  0  0  0  0
   -0.1934  -12.8828   -4.1343 H   0  0  0  0  0  0  0  0  0  0  0  0
   -1.3242  -11.1366   -2.3386 H   0  0  0  0  0  0  0  0  0  0  0  0
  1  2  2  3
  2  3  1  0
  3  4  2  0
  3  5  1  0
  5  6  2  0
  6  7  1  0
  7  8  2  0
  8  9  1  0
  9 10  2  0
 10 11  1  0
 11 12  2  3
 12 13  1  0
 13 14  3  0
 12 15  1  0
 15 16  3  0
  8 17  1  0
 17 18  1  0
 18 19  1  0
 19 20  2  0
 20 21  1  0
 21 22  1  0
 21 23  1  0
  1 24  1  0
 24 25  2  0
 25 26  1  0
 26 27  2  0
 27 28  1  0
 28 29  1  0
 27 30  1  0
 30 31  2  0
 31 32  1  0
 32 33  1  0
 33 34  1  0
 32 35  2  0
 35 36  1  0
 31 37  1  0
 37 38  2  0
 38 39  1  0
 38 40  1  0
 40 41  2  0
 41 42  1  0
 42 43  1  0
 43 44  2  0
 44 45  1  0
 45 46  2  0
 46 47  1  0
 47 48  1  0
 46 49  1  0
 49 50  2  0
 42 51  1  0
 51 52  2  0
 52 53  1  0
 53 54  2  0
 54 55  1  0
 55 56  1  0
 54 57  1  0
 57 58  2  0
 41 59  1  0
 59 60  1  0
 60 61  1  0
 61 62  2  0
 62 63  1  0
 63 64  1  0
 64 65  2  0
 65 66  1  0
 66 67  2  0
 67 68  1  0
 68 69  1  0
 67 70  1  0
 70 71  2  0
 63 72  1  0
 72 73  2  0
 73 74  1  0
 74 75  2  0
 75 76  1  0
 76 77  1  0
 75 78  1  0
 78 79  2  0
 62 80  1  0
 80 81  1  0
 61 82  1  0
 82 83  2  0
 83 84  1  0
 84 85  1  0
 85 86  1  0
 86 87  1  0
 84 88  2  0
 88 89  1  0
 88 90  1  0
 90 91  2  3
 91 92  1  0
 92 93  2  0
 92 94  1  0
 94 95  2  0
 95 96  1  0
 96 97  2  0
 97 98  1  0
 98 99  2  0
 99100  1  0
100101  2  3
101102  1  0
102103  3  0
101104  1  0
104105  3  0
 97106  1  0
106107  1  0
107108  1  0
108109  2  0
109110  1  0
110111  1  0
110112  1  0
 11  2  1  0
 23 17  1  0
 36 24  1  0
 81 40  1  0
 89 82  1  0
100 91  1  0
112106  1  0
 10  5  1  0
 22 18  1  0
 35 26  1  0
 50 43  1  0
 58 51  1  0
 80 59  2  0
 99 94  1  0
111107  1  0
 23  7  1  0
 39 30  1  0
 71 64  1  0
 79 72  1  0
112 96  1  0
  1113  1  0
  6114  1  0
  9115  1  0
 17116  1  0
 18117  1  0
 19118  1  0
 20119  1  0
 21120  1  0
 22121  1  0
 22122  1  0
 23123  1  0
 25124  1  0
 28125  1  0
 28126  1  0
 29127  1  0
 29128  1  0
 29129  1  0
 33130  1  0
 33131  1  0
 34132  1  0
 34133  1  0
 34134  1  0
 37135  1  0
 44136  1  0
 45137  1  0
 48138  1  0
 48139  1  0
 48140  1  0
 49141  1  0
 50142  1  0
 52143  1  0
 53144  1  0
 56145  1  0
 56146  1  0
 56147  1  0
 57148  1  0
 58149  1  0
 65150  1  0
 66151  1  0
 69152  1  0
 69153  1  0
 69154  1  0
 70155  1  0
 71156  1  0
 73157  1  0
 74158  1  0
 77159  1  0
 77160  1  0
 77161  1  0
 78162  1  0
 79163  1  0
 83164  1  0
 86165  1  0
 86166  1  0
 87167  1  0
 87168  1  0
 87169  1  0
 90170  1  0
 95171  1  0
 98172  1  0
106173  1  0
107174  1  0
108175  1  0
109176  1  0
110177  1  0
111178  1  0
111179  1  0
112180  1  0
M  END

