
     RDKit          3D

169187  0  0  0  0  0  0  0  0999 V2000
    0.5354   -5.1371    0.6531 C   0  0  0  0  0  0  0  0  0  0  0  0
    0.9859   -5.0794    1.9120 C   0  0  0  0  0  0  0  0  0  0  0  0
    0.6057   -4.0623    2.9013 C   0  0  0  0  0  0  0  0  0  0  0  0
   -0.4253   -3.3372    2.8747 O   0  0  0  0  0  0  0  0  0  0  0  0
    1.6500   -3.9662    3.9002 C   0  0  0  0  0  0  0  0  0  0  0  0
    1.7781   -2.9933    4.9196 C   0  0  0  0  0  0  0  0  0  0  0  0
    2.9798   -3.0471    5.6051 C   0  0  0  0  0  0  0  0  0  0  0  0
    4.0102   -3.9901    5.2916 C   0  0  0  0  0  0  0  0  0  0  0  0
    3.8903   -4.9507    4.3058 C   0  0  0  0  0  0  0  0  0  0  0  0
    2.6452   -4.9317    3.6162 C   0  0  0  0  0  0  0  0  0  0  0  0
    2.2234   -5.7416    2.4394 C   0  0  0  0  0  0  0  0  0  0  0  0
    2.7175   -6.9484    2.0688 C   0  0  0  0  0  0  0  0  0  0  0  0
    2.1810   -7.6989    0.9608 C   0  0  0  0  0  0  0  0  0  0  0  0
    1.7648   -8.2905    0.0632 N   0  0  0  0  0  0  0  0  0  0  0  0
    3.7206   -7.6400    2.8511 C   0  0  0  0  0  0  0  0  0  0  0  0
    4.4988   -8.2145    3.4860 N   0  0  0  0  0  0  0  0  0  0  0  0
    4.9015   -3.4032    6.3421 C   0  0  0  0  0  0  0  0  0  0  0  0
    5.0781   -4.2315    7.6498 C   0  0  0  0  0  0  0  0  0  0  0  0
    5.6532   -3.2771    8.6719 C   0  0  0  0  0  0  0  0  0  0  0  0
    4.6774   -2.4148    8.9762 C   0  0  0  0  0  0  0  0  0  0  0  0
    3.4740   -2.8105    8.1452 C   0  0  0  0  0  0  0  0  0  0  0  0
    3.6613   -4.3203    8.1864 C   0  0  0  0  0  0  0  0  0  0  0  0
    3.8364   -2.4461    6.6703 C   0  0  0  0  0  0  0  0  0  0  0  0
   -0.5313   -4.2834    0.1138 C   0  0  0  0  0  0  0  0  0  0  0  0
   -1.8748   -4.2775    0.4715 C   0  0  0  0  0  0  0  0  0  0  0  0
   -2.6445   -3.3782   -0.2921 C   0  0  0  0  0  0  0  0  0  0  0  0
   -4.4179   -3.1702   -0.0852 S   0  0  0  0  0  0  0  0  0  0  0  0
   -4.3600   -2.6549    1.6769 C   0  0  0  0  0  0  0  0  0  0  0  0
   -3.4902   -1.4128    1.9314 C   0  0  0  0  0  0  0  0  0  0  0  0
   -1.9079   -2.7219   -1.2794 C   0  0  0  0  0  0  0  0  0  0  0  0
   -0.3076   -3.2447   -1.1686 S   0  0  0  0  0  0  0  0  0  0  0  0
   -2.3711   -1.7675   -2.3125 C   0  0  0  0  0  0  0  0  0  0  0  0
   -1.6964   -1.6037   -3.5302 C   0  0  0  0  0  0  0  0  0  0  0  0
   -1.0820   -2.7041   -4.2339 N   0  0  0  0  0  0  0  0  0  0  0  0
    0.1220   -2.4990   -4.9920 C   0  0  0  0  0  0  0  0  0  0  0  0
    0.1847   -2.9113   -6.3336 C   0  0  0  0  0  0  0  0  0  0  0  0
    1.3644   -2.7597   -7.0586 C   0  0  0  0  0  0  0  0  0  0  0  0
    2.5003   -2.2120   -6.4490 C   0  0  0  0  0  0  0  0  0  0  0  0
    4.0277   -2.0609   -7.3862 S   0  0  0  0  0  0  0  0  0  0  0  0
    3.6659   -0.3582   -7.9304 C   0  0  0  0  0  0  0  0  0  0  0  0
    2.4462   -1.8148   -5.1037 C   0  0  0  0  0  0  0  0  0  0  0  0
    1.2600   -1.9513   -4.3838 C   0  0  0  0  0  0  0  0  0  0  0  0
   -1.6887   -4.0241   -4.1949 C   0  0  0  0  0  0  0  0  0  0  0  0
   -0.8892   -5.1782   -4.2318 C   0  0  0  0  0  0  0  0  0  0  0  0
   -1.4644   -6.4470   -4.0755 C   0  0  0  0  0  0  0  0  0  0  0  0
   -2.8314   -6.5787   -3.8461 C   0  0  0  0  0  0  0  0  0  0  0  0
   -3.5366   -8.1953   -3.5489 S   0  0  0  0  0  0  0  0  0  0  0  0
   -3.2555   -8.1870   -1.7354 C   0  0  0  0  0  0  0  0  0  0  0  0
   -3.6486   -5.4393   -3.8371 C   0  0  0  0  0  0  0  0  0  0  0  0
   -3.0823   -4.1731   -4.0272 C   0  0  0  0  0  0  0  0  0  0  0  0
   -1.8936   -0.3338   -4.0665 C   0  0  0  0  0  0  0  0  0  0  0  0
   -0.7461    0.6678   -4.7782 S   0  0  0  0  0  0  0  0  0  0  0  0
   -1.3922    2.1407   -4.2431 C   0  0  0  0  0  0  0  0  0  0  0  0
   -2.5700    1.8382   -3.5244 C   0  0  0  0  0  0  0  0  0  0  0  0
   -3.4546    2.8700   -3.0439 N   0  0  0  0  0  0  0  0  0  0  0  0
   -3.9138    2.9631   -1.6750 C   0  0  0  0  0  0  0  0  0  0  0  0
   -3.1666    2.4181   -0.6163 C   0  0  0  0  0  0  0  0  0  0  0  0
   -3.5893    2.5623    0.7089 C   0  0  0  0  0  0  0  0  0  0  0  0
   -4.7439    3.2894    1.0072 C   0  0  0  0  0  0  0  0  0  0  0  0
   -5.2512    3.5210    2.7127 S   0  0  0  0  0  0  0  0  0  0  0  0
   -6.1119    1.9319    2.8082 C   0  0  0  0  0  0  0  0  0  0  0  0
   -5.5096    3.8228   -0.0352 C   0  0  0  0  0  0  0  0  0  0  0  0
   -5.0980    3.6690   -1.3608 C   0  0  0  0  0  0  0  0  0  0  0  0
   -3.8425    3.8720   -4.0075 C   0  0  0  0  0  0  0  0  0  0  0  0
   -3.6272    5.2374   -3.7431 C   0  0  0  0  0  0  0  0  0  0  0  0
   -4.0441    6.2073   -4.6568 C   0  0  0  0  0  0  0  0  0  0  0  0
   -4.6878    5.8310   -5.8436 C   0  0  0  0  0  0  0  0  0  0  0  0
   -5.3424    7.0769   -6.9582 S   0  0  0  0  0  0  0  0  0  0  0  0
   -3.8632    7.1340   -8.0240 C   0  0  0  0  0  0  0  0  0  0  0  0
   -4.8954    4.4767   -6.1188 C   0  0  0  0  0  0  0  0  0  0  0  0
   -4.4672    3.5008   -5.2077 C   0  0  0  0  0  0  0  0  0  0  0  0
   -2.7842    0.4557   -3.3684 C   0  0  0  0  0  0  0  0  0  0  0  0
   -3.3106   -0.3951   -2.0205 S   0  0  0  0  0  0  0  0  0  0  0  0
   -0.4752    3.1124   -3.6309 C   0  0  0  0  0  0  0  0  0  0  0  0
   -0.1847    3.1059   -1.9964 S   0  0  0  0  0  0  0  0  0  0  0  0
    0.3870    4.6670   -1.7327 C   0  0  0  0  0  0  0  0  0  0  0  0
    0.3629    5.2275   -3.0304 C   0  0  0  0  0  0  0  0  0  0  0  0
    1.2253    6.2370   -3.6376 C   0  0  0  0  0  0  0  0  0  0  0  0
    1.6752    7.2701   -3.0792 O   0  0  0  0  0  0  0  0  0  0  0  0
    1.3962    5.9335   -5.0227 N   0  0  0  0  0  0  0  0  0  0  0  0
    2.0339    6.7664   -6.0417 C   0  0  0  0  0  0  0  0  0  0  0  0
    0.9827    7.5946   -6.7591 C   0  0  0  0  0  0  0  0  0  0  0  0
    0.6281    4.7455   -5.2702 C   0  0  0  0  0  0  0  0  0  0  0  0
    0.8899    3.9458   -6.1967 O   0  0  0  0  0  0  0  0  0  0  0  0
   -0.0878    4.3822   -4.0556 C   0  0  0  0  0  0  0  0  0  0  0  0
    1.0451    5.2087   -0.5041 C   0  0  0  0  0  0  0  0  0  0  0  0
    1.0446    4.6931    0.7629 C   0  0  0  0  0  0  0  0  0  0  0  0
    0.4527    3.4206    1.2573 C   0  0  0  0  0  0  0  0  0  0  0  0
   -0.4130    2.6990    0.7016 O   0  0  0  0  0  0  0  0  0  0  0  0
    1.0010    3.0784    2.5383 C   0  0  0  0  0  0  0  0  0  0  0  0
    0.8479    1.8437    3.2083 C   0  0  0  0  0  0  0  0  0  0  0  0
    1.5721    1.7551    4.3673 C   0  0  0  0  0  0  0  0  0  0  0  0
    2.3743    2.8214    4.8805 C   0  0  0  0  0  0  0  0  0  0  0  0
    2.5361    4.0262    4.2159 C   0  0  0  0  0  0  0  0  0  0  0  0
    1.8040    4.1405    2.9955 C   0  0  0  0  0  0  0  0  0  0  0  0
    1.7997    5.2268    1.9543 C   0  0  0  0  0  0  0  0  0  0  0  0
    2.2308    6.5030    2.1682 C   0  0  0  0  0  0  0  0  0  0  0  0
    2.1892    7.5457    1.1763 C   0  0  0  0  0  0  0  0  0  0  0  0
    2.1922    8.4099    0.3973 N   0  0  0  0  0  0  0  0  0  0  0  0
    2.6475    6.9570    3.4700 C   0  0  0  0  0  0  0  0  0  0  0  0
    2.9512    7.3489    4.5188 N   0  0  0  0  0  0  0  0  0  0  0  0
    2.7659    1.9864    6.0563 C   0  0  0  0  0  0  0  0  0  0  0  0
    2.0629    2.2757    7.4209 C   0  0  0  0  0  0  0  0  0  0  0  0
    0.6518    2.7785    7.2037 C   0  0  0  0  0  0  0  0  0  0  0  0
   -0.0490    1.7582    6.7186 C   0  0  0  0  0  0  0  0  0  0  0  0
    0.9068    0.5965    6.6065 C   0  0  0  0  0  0  0  0  0  0  0  0
    1.7497    0.8505    7.8539 C   0  0  0  0  0  0  0  0  0  0  0  0
    1.9752    0.8772    5.5130 C   0  0  0  0  0  0  0  0  0  0  0  0
    1.0872   -5.6885   -0.0924 H   0  0  0  0  0  0  0  0  0  0  0  0
    1.0169   -2.2498    5.1237 H   0  0  0  0  0  0  0  0  0  0  0  0
    4.7149   -5.6080    4.0790 H   0  0  0  0  0  0  0  0  0  0  0  0
    5.8372   -2.9430    5.9303 H   0  0  0  0  0  0  0  0  0  0  0  0
    5.6246   -5.1948    7.5482 H   0  0  0  0  0  0  0  0  0  0  0  0
    6.6425   -3.2985    9.1280 H   0  0  0  0  0  0  0  0  0  0  0  0
    4.7129   -1.6476    9.7471 H   0  0  0  0  0  0  0  0  0  0  0  0
    2.5061   -2.4255    8.5115 H   0  0  0  0  0  0  0  0  0  0  0  0
    2.9563   -4.8885    7.5337 H   0  0  0  0  0  0  0  0  0  0  0  0
    3.5983   -4.7530    9.2154 H   0  0  0  0  0  0  0  0  0  0  0  0
    4.1139   -1.3813    6.4899 H   0  0  0  0  0  0  0  0  0  0  0  0
   -2.2900   -4.8943    1.2558 H   0  0  0  0  0  0  0  0  0  0  0  0
   -5.4047   -2.4480    1.9997 H   0  0  0  0  0  0  0  0  0  0  0  0
   -3.9953   -3.5093    2.2924 H   0  0  0  0  0  0  0  0  0  0  0  0
   -2.7668   -1.6186    2.7498 H   0  0  0  0  0  0  0  0  0  0  0  0
   -2.9303   -1.0697    1.0291 H   0  0  0  0  0  0  0  0  0  0  0  0
   -4.1377   -0.5785    2.2507 H   0  0  0  0  0  0  0  0  0  0  0  0
   -0.6940   -3.3572   -6.8031 H   0  0  0  0  0  0  0  0  0  0  0  0
    1.4013   -3.0961   -8.0863 H   0  0  0  0  0  0  0  0  0  0  0  0
    2.6938   -0.3126   -8.4646 H   0  0  0  0  0  0  0  0  0  0  0  0
    3.6499    0.3218   -7.0540 H   0  0  0  0  0  0  0  0  0  0  0  0
    4.4702   -0.0325   -8.6199 H   0  0  0  0  0  0  0  0  0  0  0  0
    3.3226   -1.4141   -4.6256 H   0  0  0  0  0  0  0  0  0  0  0  0
    1.2302   -1.6422   -3.3443 H   0  0  0  0  0  0  0  0  0  0  0  0
    0.1818   -5.1072   -4.3641 H   0  0  0  0  0  0  0  0  0  0  0  0
   -0.8255   -7.3234   -4.1071 H   0  0  0  0  0  0  0  0  0  0  0  0
   -2.9372   -9.2097   -1.4207 H   0  0  0  0  0  0  0  0  0  0  0  0
   -4.2081   -7.9166   -1.2184 H   0  0  0  0  0  0  0  0  0  0  0  0
   -2.4563   -7.4743   -1.4202 H   0  0  0  0  0  0  0  0  0  0  0  0
   -4.7144   -5.5306   -3.6724 H   0  0  0  0  0  0  0  0  0  0  0  0
   -3.7463   -3.3123   -4.0411 H   0  0  0  0  0  0  0  0  0  0  0  0
   -2.2725    1.8514   -0.8033 H   0  0  0  0  0  0  0  0  0  0  0  0
   -2.9986    2.1255    1.5102 H   0  0  0  0  0  0  0  0  0  0  0  0
   -6.3668    1.7140    3.8634 H   0  0  0  0  0  0  0  0  0  0  0  0
   -7.0385    1.9535    2.2004 H   0  0  0  0  0  0  0  0  0  0  0  0
   -5.4681    1.1139    2.4272 H   0  0  0  0  0  0  0  0  0  0  0  0
   -6.4119    4.3810    0.1817 H   0  0  0  0  0  0  0  0  0  0  0  0
   -5.7196    4.0791   -2.1483 H   0  0  0  0  0  0  0  0  0  0  0  0
   -3.1328    5.5383   -2.8243 H   0  0  0  0  0  0  0  0  0  0  0  0
   -3.8886    7.2570   -4.4289 H   0  0  0  0  0  0  0  0  0  0  0  0
   -3.5773    6.1063   -8.3505 H   0  0  0  0  0  0  0  0  0  0  0  0
   -3.0209    7.6049   -7.4673 H   0  0  0  0  0  0  0  0  0  0  0  0
   -4.0928    7.7458   -8.9210 H   0  0  0  0  0  0  0  0  0  0  0  0
   -5.4006    4.1740   -7.0282 H   0  0  0  0  0  0  0  0  0  0  0  0
   -4.6461    2.4555   -5.4299 H   0  0  0  0  0  0  0  0  0  0  0  0
    2.7949    7.4308   -5.5680 H   0  0  0  0  0  0  0  0  0  0  0  0
    2.5496    6.1148   -6.7817 H   0  0  0  0  0  0  0  0  0  0  0  0
    1.4571    8.2099   -7.5570 H   0  0  0  0  0  0  0  0  0  0  0  0
    0.2323    6.9241   -7.2280 H   0  0  0  0  0  0  0  0  0  0  0  0
    0.4768    8.2706   -6.0474 H   0  0  0  0  0  0  0  0  0  0  0  0
    1.5809    6.1295   -0.6971 H   0  0  0  0  0  0  0  0  0  0  0  0
    0.2582    1.0212    2.8393 H   0  0  0  0  0  0  0  0  0  0  0  0
    3.2386    4.7492    4.5779 H   0  0  0  0  0  0  0  0  0  0  0  0
    3.8544    1.7729    6.1155 H   0  0  0  0  0  0  0  0  0  0  0  0
    2.6583    2.8591    8.1586 H   0  0  0  0  0  0  0  0  0  0  0  0
    0.2348    3.7260    7.5388 H   0  0  0  0  0  0  0  0  0  0  0  0
   -1.1192    1.7401    6.5751 H   0  0  0  0  0  0  0  0  0  0  0  0
    0.4319   -0.4050    6.5608 H   0  0  0  0  0  0  0  0  0  0  0  0
    1.1525    0.7918    8.8037 H   0  0  0  0  0  0  0  0  0  0  0  0
    2.6470    0.1903    7.9318 H   0  0  0  0  0  0  0  0  0  0  0  0
    2.5742   -0.0085    5.2003 H   0  0  0  0  0  0  0  0  0  0  0  0
  1  2  2  3
  2  3  1  0
  3  4  2  0
  3  5  1  0
  5  6  2  0
  6  7  1  0
  7  8  2  0
  8  9  1  0
  9 10  2  0
 10 11  1  0
 11 12  2  3
 12 13  1  0
 13 14  3  0
 12 15  1  0
 15 16  3  0
  8 17  1  0
 17 18  1  0
 18 19  1  0
 19 20  2  0
 20 21  1  0
 21 22  1  0
 21 23  1  0
  1 24  1  0
 24 25  2  0
 25 26  1  0
 26 27  1  0
 27 28  1  0
 28 29  1  0
 26 30  2  0
 30 31  1  0
 30 32  1  0
 32 33  2  0
 33 34  1  0
 34 35  1  0
 35 36  2  0
 36 37  1  0
 37 38  2  0
 38 39  1  0
 39 40  1  0
 38 41  1  0
 41 42  2  0
 34 43  1  0
 43 44  2  0
 44 45  1  0
 45 46  2  0
 46 47  1  0
 47 48  1  0
 46 49  1  0
 49 50  2  0
 33 51  1  0
 51 52  1  0
 52 53  1  0
 53 54  2  0
 54 55  1  0
 55 56  1  0
 56 57  2  0
 57 58  1  0
 58 59  2  0
 59 60  1  0
 60 61  1  0
 59 62  1  0
 62 63  2  0
 55 64  1  0
 64 65  2  0
 65 66  1  0
 66 67  2  0
 67 68  1  0
 68 69  1  0
 67 70  1  0
 70 71  2  0
 54 72  1  0
 72 73  1  0
 53 74  1  0
 74 75  1  0
 75 76  1  0
 76 77  2  0
 77 78  1  0
 78 79  2  0
 78 80  1  0
 80 81  1  0
 81 82  1  0
 80 83  1  0
 83 84  2  0
 83 85  1  0
 76 86  1  0
 86 87  2  3
 87 88  1  0
 88 89  2  0
 88 90  1  0
 90 91  2  0
 91 92  1  0
 92 93  2  0
 93 94  1  0
 94 95  2  0
 95 96  1  0
 96 97  2  3
 97 98  1  0
 98 99  3  0
 97100  1  0
100101  3  0
 93102  1  0
102103  1  0
103104  1  0
104105  2  0
105106  1  0
106107  1  0
106108  1  0
 11  2  1  0
 23 17  1  0
 31 24  1  0
 73 32  1  0
 85 74  2  0
 96 87  1  0
108102  1  0
 10  5  1  0
 22 18  1  0
 42 35  1  0
 50 43  1  0
 72 51  2  0
 85 77  1  0
 95 90  1  0
107103  1  0
 23  7  1  0
 63 56  1  0
 71 64  1  0
108 92  1  0
  1109  1  0
  6110  1  0
  9111  1  0
 17112  1  0
 18113  1  0
 19114  1  0
 20115  1  0
 21116  1  0
 22117  1  0
 22118  1  0
 23119  1  0
 25120  1  0
 28121  1  0
 28122  1  0
 29123  1  0
 29124  1  0
 29125  1  0
 36126  1  0
 37127  1  0
 40128  1  0
 40129  1  0
 40130  1  0
 41131  1  0
 42132  1  0
 44133  1  0
 45134  1  0
 48135  1  0
 48136  1  0
 48137  1  0
 49138  1  0
 50139  1  0
 57140  1  0
 58141  1  0
 61142  1  0
 61143  1  0
 61144  1  0
 62145  1  0
 63146  1  0
 65147  1  0
 66148  1  0
 69149  1  0
 69150  1  0
 69151  1  0
 70152  1  0
 71153  1  0
 81154  1  0
 81155  1  0
 82156  1  0
 82157  1  0
 82158  1  0
 86159  1  0
 91160  1  0
 94161  1  0
102162  1  0
103163  1  0
104164  1  0
105165  1  0
106166  1  0
107167  1  0
107168  1  0
108169  1  0
M  END

