
     RDKit          3D

181200  0  0  0  0  0  0  0  0999 V2000
   -2.4455    7.9446    1.4256 C   0  0  0  0  0  0  0  0  0  0  0  0
   -2.2098    7.3349    2.6067 C   0  0  0  0  0  0  0  0  0  0  0  0
   -2.0733    5.8811    2.7470 C   0  0  0  0  0  0  0  0  0  0  0  0
   -2.7762    5.0070    2.1747 O   0  0  0  0  0  0  0  0  0  0  0  0
   -0.9917    5.5961    3.6465 C   0  0  0  0  0  0  0  0  0  0  0  0
   -0.3328    4.3564    3.7984 C   0  0  0  0  0  0  0  0  0  0  0  0
    0.8120    4.4336    4.5628 C   0  0  0  0  0  0  0  0  0  0  0  0
    1.2817    5.6435    5.1661 C   0  0  0  0  0  0  0  0  0  0  0  0
    0.6377    6.8657    5.0159 C   0  0  0  0  0  0  0  0  0  0  0  0
   -0.5429    6.8109    4.2202 C   0  0  0  0  0  0  0  0  0  0  0  0
   -1.3895    7.9231    3.7023 C   0  0  0  0  0  0  0  0  0  0  0  0
   -1.5196    9.1688    4.2085 C   0  0  0  0  0  0  0  0  0  0  0  0
   -2.5371   10.0715    3.7298 C   0  0  0  0  0  0  0  0  0  0  0  0
   -3.3581   10.7924    3.3436 N   0  0  0  0  0  0  0  0  0  0  0  0
   -0.7451    9.6350    5.3310 C   0  0  0  0  0  0  0  0  0  0  0  0
   -0.1385   10.0237    6.2365 N   0  0  0  0  0  0  0  0  0  0  0  0
    2.4644    4.9120    5.7342 C   0  0  0  0  0  0  0  0  0  0  0  0
    2.4204    4.5695    7.2517 C   0  0  0  0  0  0  0  0  0  0  0  0
    3.4877    3.5255    7.4712 C   0  0  0  0  0  0  0  0  0  0  0  0
    3.0521    2.4029    6.8829 C   0  0  0  0  0  0  0  0  0  0  0  0
    1.7033    2.7262    6.2905 C   0  0  0  0  0  0  0  0  0  0  0  0
    1.1972    3.6742    7.3651 C   0  0  0  0  0  0  0  0  0  0  0  0
    1.9875    3.6795    5.0976 C   0  0  0  0  0  0  0  0  0  0  0  0
   -2.3616    7.1508    0.1841 C   0  0  0  0  0  0  0  0  0  0  0  0
   -1.0923    6.8417   -0.3041 C   0  0  0  0  0  0  0  0  0  0  0  0
    0.0866    7.3731    0.0630 N   0  0  0  0  0  0  0  0  0  0  0  0
    1.0046    6.5855   -0.4901 N   0  0  0  0  0  0  0  0  0  0  0  0
    2.4362    6.8334   -0.4074 C   0  0  0  0  0  0  0  0  0  0  0  0
    2.8626    7.7938   -1.5107 C   0  0  0  0  0  0  0  0  0  0  0  0
    0.4735    5.5718   -1.1684 N   0  0  0  0  0  0  0  0  0  0  0  0
   -0.8548    5.7356   -1.0595 C   0  0  0  0  0  0  0  0  0  0  0  0
   -1.8725    4.8601   -1.4299 C   0  0  0  0  0  0  0  0  0  0  0  0
   -3.2032    5.2288   -1.1000 C   0  0  0  0  0  0  0  0  0  0  0  0
   -3.4492    6.3736   -0.2903 C   0  0  0  0  0  0  0  0  0  0  0  0
   -5.0855    6.7417    0.2587 Cl  0  0  0  0  0  0  0  0  0  0  0  0
   -4.5424    4.1922   -1.5955 Cl  0  0  0  0  0  0  0  0  0  0  0  0
   -1.5234    3.4959   -1.8755 C   0  0  0  0  0  0  0  0  0  0  0  0
   -0.9384    3.2678   -3.1336 C   0  0  0  0  0  0  0  0  0  0  0  0
   -0.7197    4.3767   -3.9750 O   0  0  0  0  0  0  0  0  0  0  0  0
    0.3700    4.5231   -4.8936 C   0  0  0  0  0  0  0  0  0  0  0  0
    1.7192    4.3990   -4.1927 C   0  0  0  0  0  0  0  0  0  0  0  0
   -0.6084    1.9437   -3.5302 C   0  0  0  0  0  0  0  0  0  0  0  0
   -0.3961    1.6705   -4.8808 O   0  0  0  0  0  0  0  0  0  0  0  0
   -1.4840    1.3373   -5.7481 C   0  0  0  0  0  0  0  0  0  0  0  0
   -2.4092    2.5230   -6.0070 C   0  0  0  0  0  0  0  0  0  0  0  0
   -0.5736    0.8966   -2.5777 C   0  0  0  0  0  0  0  0  0  0  0  0
   -1.1782    1.1362   -1.3251 C   0  0  0  0  0  0  0  0  0  0  0  0
   -1.6601    2.4274   -0.9831 C   0  0  0  0  0  0  0  0  0  0  0  0
   -2.1979    2.5675    0.2576 N   0  0  0  0  0  0  0  0  0  0  0  0
   -2.0687    1.0288    0.8307 S   0  0  0  0  0  0  0  0  0  0  0  0
   -1.3568    0.1692   -0.3831 N   0  0  0  0  0  0  0  0  0  0  0  0
    0.1104   -0.4100   -2.8369 C   0  0  0  0  0  0  0  0  0  0  0  0
   -0.4709   -1.4176   -3.6494 C   0  0  0  0  0  0  0  0  0  0  0  0
   -0.0965   -1.4717   -5.0457 N   0  0  0  0  0  0  0  0  0  0  0  0
   -1.0332   -1.8560   -6.0801 C   0  0  0  0  0  0  0  0  0  0  0  0
   -2.3660   -2.2089   -5.7657 C   0  0  0  0  0  0  0  0  0  0  0  0
   -3.2520   -2.6013   -6.7703 C   0  0  0  0  0  0  0  0  0  0  0  0
   -2.8339   -2.6235   -8.1040 C   0  0  0  0  0  0  0  0  0  0  0  0
   -3.9479   -3.2130   -9.3791 S   0  0  0  0  0  0  0  0  0  0  0  0
   -3.3377   -4.9257   -9.2779 C   0  0  0  0  0  0  0  0  0  0  0  0
   -1.5333   -2.2383   -8.4362 C   0  0  0  0  0  0  0  0  0  0  0  0
   -0.6392   -1.8525   -7.4375 C   0  0  0  0  0  0  0  0  0  0  0  0
    1.3290   -1.5054   -5.3060 C   0  0  0  0  0  0  0  0  0  0  0  0
    1.9988   -0.3602   -5.7573 C   0  0  0  0  0  0  0  0  0  0  0  0
    3.3925   -0.3145   -5.7556 C   0  0  0  0  0  0  0  0  0  0  0  0
    4.1301   -1.4110   -5.3044 C   0  0  0  0  0  0  0  0  0  0  0  0
    5.9168   -1.3135   -5.1779 S   0  0  0  0  0  0  0  0  0  0  0  0
    5.8885   -0.6637   -3.4759 C   0  0  0  0  0  0  0  0  0  0  0  0
    3.4740   -2.5896   -4.9230 C   0  0  0  0  0  0  0  0  0  0  0  0
    2.0769   -2.6397   -4.9348 C   0  0  0  0  0  0  0  0  0  0  0  0
   -0.4189   -2.6294   -2.9531 C   0  0  0  0  0  0  0  0  0  0  0  0
   -1.2728   -4.0778   -3.0607 S   0  0  0  0  0  0  0  0  0  0  0  0
   -0.5778   -4.7494   -1.6529 C   0  0  0  0  0  0  0  0  0  0  0  0
    0.3614   -3.8496   -1.1391 C   0  0  0  0  0  0  0  0  0  0  0  0
    1.2989   -4.1557   -0.1058 N   0  0  0  0  0  0  0  0  0  0  0  0
    0.8733   -4.4721    1.2241 C   0  0  0  0  0  0  0  0  0  0  0  0
    0.3938   -3.4673    2.0723 C   0  0  0  0  0  0  0  0  0  0  0  0
    0.0683   -3.7668    3.3990 C   0  0  0  0  0  0  0  0  0  0  0  0
    0.2006   -5.0802    3.8776 C   0  0  0  0  0  0  0  0  0  0  0  0
   -0.1806   -5.4699    5.5854 S   0  0  0  0  0  0  0  0  0  0  0  0
    1.4863   -5.0454    6.1795 C   0  0  0  0  0  0  0  0  0  0  0  0
    0.6589   -6.0899    3.0237 C   0  0  0  0  0  0  0  0  0  0  0  0
    1.0039   -5.7849    1.7040 C   0  0  0  0  0  0  0  0  0  0  0  0
    2.6560   -4.4264   -0.4775 C   0  0  0  0  0  0  0  0  0  0  0  0
    2.9454   -5.4663   -1.3797 C   0  0  0  0  0  0  0  0  0  0  0  0
    4.2700   -5.7387   -1.7369 C   0  0  0  0  0  0  0  0  0  0  0  0
    5.3094   -4.9499   -1.2261 C   0  0  0  0  0  0  0  0  0  0  0  0
    7.0103   -5.3077   -1.6674 S   0  0  0  0  0  0  0  0  0  0  0  0
    6.8909   -4.5089   -3.3016 C   0  0  0  0  0  0  0  0  0  0  0  0
    5.0167   -3.9072   -0.3342 C   0  0  0  0  0  0  0  0  0  0  0  0
    3.6969   -3.6509    0.0403 C   0  0  0  0  0  0  0  0  0  0  0  0
    0.4007   -2.6748   -1.8792 C   0  0  0  0  0  0  0  0  0  0  0  0
    0.9864   -1.1534   -1.5558 S   0  0  0  0  0  0  0  0  0  0  0  0
   -1.2192   -5.7951   -0.8461 C   0  0  0  0  0  0  0  0  0  0  0  0
   -2.1370   -5.4846    0.0954 C   0  0  0  0  0  0  0  0  0  0  0  0
   -2.5837   -4.1240    0.4372 C   0  0  0  0  0  0  0  0  0  0  0  0
   -2.4908   -3.0972   -0.2872 O   0  0  0  0  0  0  0  0  0  0  0  0
   -3.1447   -4.1365    1.7621 C   0  0  0  0  0  0  0  0  0  0  0  0
   -3.6298   -3.0221    2.4868 C   0  0  0  0  0  0  0  0  0  0  0  0
   -4.0757   -3.3315    3.7573 C   0  0  0  0  0  0  0  0  0  0  0  0
   -4.0287   -4.6535    4.3034 C   0  0  0  0  0  0  0  0  0  0  0  0
   -3.5411   -5.7482    3.5999 C   0  0  0  0  0  0  0  0  0  0  0  0
   -3.1208   -5.4591    2.2675 C   0  0  0  0  0  0  0  0  0  0  0  0
   -2.6173   -6.3701    1.1971 C   0  0  0  0  0  0  0  0  0  0  0  0
   -2.7900   -7.7149    1.1216 C   0  0  0  0  0  0  0  0  0  0  0  0
   -2.6367   -8.4333   -0.1164 C   0  0  0  0  0  0  0  0  0  0  0  0
   -2.5449   -8.9995   -1.1181 N   0  0  0  0  0  0  0  0  0  0  0  0
   -3.3261   -8.4895    2.2089 C   0  0  0  0  0  0  0  0  0  0  0  0
   -3.7513   -9.1321    3.0725 N   0  0  0  0  0  0  0  0  0  0  0  0
   -4.6098   -4.1569    5.5951 C   0  0  0  0  0  0  0  0  0  0  0  0
   -3.6359   -3.9991    6.7949 C   0  0  0  0  0  0  0  0  0  0  0  0
   -4.3621   -3.1467    7.8101 C   0  0  0  0  0  0  0  0  0  0  0  0
   -4.4183   -1.9090    7.2966 C   0  0  0  0  0  0  0  0  0  0  0  0
   -3.7345   -1.9716    5.9495 C   0  0  0  0  0  0  0  0  0  0  0  0
   -2.6401   -2.9643    6.2975 C   0  0  0  0  0  0  0  0  0  0  0  0
   -4.6727   -2.8044    5.0277 C   0  0  0  0  0  0  0  0  0  0  0  0
   -2.2732    9.0094    1.3299 H   0  0  0  0  0  0  0  0  0  0  0  0
   -0.6578    3.4456    3.3103 H   0  0  0  0  0  0  0  0  0  0  0  0
    1.0679    7.7732    5.4158 H   0  0  0  0  0  0  0  0  0  0  0  0
    3.4405    5.2863    5.3509 H   0  0  0  0  0  0  0  0  0  0  0  0
    2.4475    5.4343    7.9440 H   0  0  0  0  0  0  0  0  0  0  0  0
    4.3894    3.6199    8.0595 H   0  0  0  0  0  0  0  0  0  0  0  0
    3.5417    1.4323    6.9166 H   0  0  0  0  0  0  0  0  0  0  0  0
    1.0541    1.8555    6.0660 H   0  0  0  0  0  0  0  0  0  0  0  0
    1.0977    3.1895    8.3678 H   0  0  0  0  0  0  0  0  0  0  0  0
    0.2358    4.1781    7.1200 H   0  0  0  0  0  0  0  0  0  0  0  0
    2.6592    3.2827    4.3016 H   0  0  0  0  0  0  0  0  0  0  0  0
    2.6829    7.2753    0.5754 H   0  0  0  0  0  0  0  0  0  0  0  0
    2.9892    5.8711   -0.5113 H   0  0  0  0  0  0  0  0  0  0  0  0
    2.5857    7.3808   -2.5057 H   0  0  0  0  0  0  0  0  0  0  0  0
    3.9659    7.9421   -1.4795 H   0  0  0  0  0  0  0  0  0  0  0  0
    2.3635    8.7748   -1.3707 H   0  0  0  0  0  0  0  0  0  0  0  0
    0.3077    3.7889   -5.7176 H   0  0  0  0  0  0  0  0  0  0  0  0
    0.2996    5.5317   -5.3549 H   0  0  0  0  0  0  0  0  0  0  0  0
    1.8107    5.1581   -3.3977 H   0  0  0  0  0  0  0  0  0  0  0  0
    2.5312    4.5564   -4.9309 H   0  0  0  0  0  0  0  0  0  0  0  0
    1.8426    3.3915   -3.7484 H   0  0  0  0  0  0  0  0  0  0  0  0
   -1.0723    0.9884   -6.7188 H   0  0  0  0  0  0  0  0  0  0  0  0
   -2.0836    0.5188   -5.2896 H   0  0  0  0  0  0  0  0  0  0  0  0
   -3.2073    2.2107   -6.7130 H   0  0  0  0  0  0  0  0  0  0  0  0
   -1.8527    3.3677   -6.4614 H   0  0  0  0  0  0  0  0  0  0  0  0
   -2.9019    2.8521   -5.0643 H   0  0  0  0  0  0  0  0  0  0  0  0
   -2.7217   -2.1803   -4.7467 H   0  0  0  0  0  0  0  0  0  0  0  0
   -4.2598   -2.8870   -6.5088 H   0  0  0  0  0  0  0  0  0  0  0  0
   -3.3466   -5.2740   -8.2230 H   0  0  0  0  0  0  0  0  0  0  0  0
   -2.3085   -4.9969   -9.6853 H   0  0  0  0  0  0  0  0  0  0  0  0
   -4.0046   -5.5755   -9.8774 H   0  0  0  0  0  0  0  0  0  0  0  0
   -1.2087   -2.2471   -9.4696 H   0  0  0  0  0  0  0  0  0  0  0  0
    0.3632   -1.5713   -7.7260 H   0  0  0  0  0  0  0  0  0  0  0  0
    1.4425    0.5043   -6.0827 H   0  0  0  0  0  0  0  0  0  0  0  0
    3.8953    0.5850   -6.0840 H   0  0  0  0  0  0  0  0  0  0  0  0
    5.2730   -1.3148   -2.8270 H   0  0  0  0  0  0  0  0  0  0  0  0
    5.4687    0.3661   -3.4686 H   0  0  0  0  0  0  0  0  0  0  0  0
    6.9206   -0.6388   -3.0735 H   0  0  0  0  0  0  0  0  0  0  0  0
    4.0344   -3.4434   -4.5802 H   0  0  0  0  0  0  0  0  0  0  0  0
    1.5760   -3.5398   -4.6036 H   0  0  0  0  0  0  0  0  0  0  0  0
    0.3031   -2.4449    1.7125 H   0  0  0  0  0  0  0  0  0  0  0  0
   -0.2566   -2.9689    4.0534 H   0  0  0  0  0  0  0  0  0  0  0  0
    1.5251   -5.2122    7.2765 H   0  0  0  0  0  0  0  0  0  0  0  0
    2.2467   -5.6898    5.6868 H   0  0  0  0  0  0  0  0  0  0  0  0
    1.7102   -3.9776    5.9686 H   0  0  0  0  0  0  0  0  0  0  0  0
    0.7631   -7.1011    3.3818 H   0  0  0  0  0  0  0  0  0  0  0  0
    1.3685   -6.5684    1.0543 H   0  0  0  0  0  0  0  0  0  0  0  0
    2.1496   -6.0780   -1.7880 H   0  0  0  0  0  0  0  0  0  0  0  0
    4.4829   -6.5491   -2.4224 H   0  0  0  0  0  0  0  0  0  0  0  0
    7.9144   -4.2438   -3.6520 H   0  0  0  0  0  0  0  0  0  0  0  0
    6.2869   -3.5756   -3.2424 H   0  0  0  0  0  0  0  0  0  0  0  0
    6.4273   -5.2178   -4.0345 H   0  0  0  0  0  0  0  0  0  0  0  0
    5.8175   -3.2963    0.0679 H   0  0  0  0  0  0  0  0  0  0  0  0
    3.4808   -2.8420    0.7260 H   0  0  0  0  0  0  0  0  0  0  0  0
   -0.8082   -6.7921   -0.9151 H   0  0  0  0  0  0  0  0  0  0  0  0
   -3.6344   -2.0111    2.0958 H   0  0  0  0  0  0  0  0  0  0  0  0
   -3.4833   -6.7174    4.0632 H   0  0  0  0  0  0  0  0  0  0  0  0
   -5.6029   -4.5982    5.8338 H   0  0  0  0  0  0  0  0  0  0  0  0
   -3.2046   -4.9433    7.1877 H   0  0  0  0  0  0  0  0  0  0  0  0
   -4.6837   -3.4361    8.8073 H   0  0  0  0  0  0  0  0  0  0  0  0
   -4.7873   -1.0241    7.8056 H   0  0  0  0  0  0  0  0  0  0  0  0
   -3.3926   -0.9977    5.5419 H   0  0  0  0  0  0  0  0  0  0  0  0
   -1.9388   -2.6002    7.0920 H   0  0  0  0  0  0  0  0  0  0  0  0
   -2.0483   -3.2879    5.4248 H   0  0  0  0  0  0  0  0  0  0  0  0
   -5.7069   -2.4025    4.9080 H   0  0  0  0  0  0  0  0  0  0  0  0
  1  2  2  3
  2  3  1  0
  3  4  2  0
  3  5  1  0
  5  6  2  0
  6  7  1  0
  7  8  2  0
  8  9  1  0
  9 10  2  0
 10 11  1  0
 11 12  2  3
 12 13  1  0
 13 14  3  0
 12 15  1  0
 15 16  3  0
  8 17  1  0
 17 18  1  0
 18 19  1  0
 19 20  2  0
 20 21  1  0
 21 22  1  0
 21 23  1  0
  1 24  1  0
 24 25  1  0
 25 26  2  0
 26 27  1  0
 27 28  1  0
 28 29  1  0
 27 30  1  0
 30 31  2  0
 31 32  1  0
 32 33  2  0
 33 34  1  0
 34 35  1  0
 33 36  1  0
 32 37  1  0
 37 38  2  0
 38 39  1  0
 39 40  1  0
 40 41  1  0
 38 42  1  0
 42 43  1  0
 43 44  1  0
 44 45  1  0
 42 46  2  0
 46 47  1  0
 47 48  1  0
 48 49  2  0
 49 50  1  0
 50 51  1  0
 46 52  1  0
 52 53  2  0
 53 54  1  0
 54 55  1  0
 55 56  2  0
 56 57  1  0
 57 58  2  0
 58 59  1  0
 59 60  1  0
 58 61  1  0
 61 62  2  0
 54 63  1  0
 63 64  2  0
 64 65  1  0
 65 66  2  0
 66 67  1  0
 67 68  1  0
 66 69  1  0
 69 70  2  0
 53 71  1  0
 71 72  1  0
 72 73  1  0
 73 74  2  0
 74 75  1  0
 75 76  1  0
 76 77  2  0
 77 78  1  0
 78 79  2  0
 79 80  1  0
 80 81  1  0
 79 82  1  0
 82 83  2  0
 75 84  1  0
 84 85  2  0
 85 86  1  0
 86 87  2  0
 87 88  1  0
 88 89  1  0
 87 90  1  0
 90 91  2  0
 74 92  1  0
 92 93  1  0
 73 94  1  0
 94 95  2  3
 95 96  1  0
 96 97  2  0
 96 98  1  0
 98 99  2  0
 99100  1  0
100101  2  0
101102  1  0
102103  2  0
103104  1  0
104105  2  3
105106  1  0
106107  3  0
105108  1  0
108109  3  0
101110  1  0
110111  1  0
111112  1  0
112113  2  0
113114  1  0
114115  1  0
114116  1  0
 11  2  1  0
 23 17  1  0
 34 24  2  0
 48 37  1  0
 93 52  1  0
104 95  1  0
116110  1  0
 10  5  1  0
 22 18  1  0
 31 25  1  0
 51 47  2  0
 62 55  1  0
 70 63  1  0
 92 71  2  0
103 98  1  0
115111  1  0
 23  7  1  0
 83 76  1  0
 91 84  1  0
116100  1  0
  1117  1  0
  6118  1  0
  9119  1  0
 17120  1  0
 18121  1  0
 19122  1  0
 20123  1  0
 21124  1  0
 22125  1  0
 22126  1  0
 23127  1  0
 28128  1  0
 28129  1  0
 29130  1  0
 29131  1  0
 29132  1  0
 40133  1  0
 40134  1  0
 41135  1  0
 41136  1  0
 41137  1  0
 44138  1  0
 44139  1  0
 45140  1  0
 45141  1  0
 45142  1  0
 56143  1  0
 57144  1  0
 60145  1  0
 60146  1  0
 60147  1  0
 61148  1  0
 62149  1  0
 64150  1  0
 65151  1  0
 68152  1  0
 68153  1  0
 68154  1  0
 69155  1  0
 70156  1  0
 77157  1  0
 78158  1  0
 81159  1  0
 81160  1  0
 81161  1  0
 82162  1  0
 83163  1  0
 85164  1  0
 86165  1  0
 89166  1  0
 89167  1  0
 89168  1  0
 90169  1  0
 91170  1  0
 94171  1  0
 99172  1  0
102173  1  0
110174  1  0
111175  1  0
112176  1  0
113177  1  0
114178  1  0
115179  1  0
115180  1  0
116181  1  0
M  END

