
     RDKit          3D

168185  0  0  0  0  0  0  0  0999 V2000
   -4.4622    1.8050    5.5768 C   0  0  0  0  0  0  0  0  0  0  0  0
   -4.8571    2.6959    4.6402 C   0  0  0  0  0  0  0  0  0  0  0  0
   -4.1702    2.9845    3.3675 C   0  0  0  0  0  0  0  0  0  0  0  0
   -3.4147    2.2058    2.7206 O   0  0  0  0  0  0  0  0  0  0  0  0
   -4.4914    4.3354    2.9582 C   0  0  0  0  0  0  0  0  0  0  0  0
   -3.9488    5.0461    1.8639 C   0  0  0  0  0  0  0  0  0  0  0  0
   -4.3535    6.3649    1.7959 C   0  0  0  0  0  0  0  0  0  0  0  0
   -5.2158    6.9672    2.7678 C   0  0  0  0  0  0  0  0  0  0  0  0
   -5.7566    6.2768    3.8379 C   0  0  0  0  0  0  0  0  0  0  0  0
   -5.3856    4.9044    3.8996 C   0  0  0  0  0  0  0  0  0  0  0  0
   -5.7553    3.8645    4.9021 C   0  0  0  0  0  0  0  0  0  0  0  0
   -6.8115    3.8910    5.7559 C   0  0  0  0  0  0  0  0  0  0  0  0
   -7.2505    2.7144    6.4644 C   0  0  0  0  0  0  0  0  0  0  0  0
   -7.6081    1.7709    7.0354 N   0  0  0  0  0  0  0  0  0  0  0  0
   -7.6268    5.0598    5.9601 C   0  0  0  0  0  0  0  0  0  0  0  0
   -8.2629    6.0096    6.1420 N   0  0  0  0  0  0  0  0  0  0  0  0
   -5.1066    8.2939    2.0776 C   0  0  0  0  0  0  0  0  0  0  0  0
   -4.1913    9.3834    2.7183 C   0  0  0  0  0  0  0  0  0  0  0  0
   -3.0377    8.7332    3.4479 C   0  0  0  0  0  0  0  0  0  0  0  0
   -2.2574    8.1810    2.5172 C   0  0  0  0  0  0  0  0  0  0  0  0
   -2.9083    8.4724    1.1838 C   0  0  0  0  0  0  0  0  0  0  0  0
   -3.4506    9.8575    1.4843 C   0  0  0  0  0  0  0  0  0  0  0  0
   -4.2433    7.6726    1.0641 C   0  0  0  0  0  0  0  0  0  0  0  0
   -3.3129    0.9048    5.4364 C   0  0  0  0  0  0  0  0  0  0  0  0
   -2.1722    0.9752    6.2229 C   0  0  0  0  0  0  0  0  0  0  0  0
   -1.1340    0.1670    5.7572 C   0  0  0  0  0  0  0  0  0  0  0  0
    0.5183    0.2029    6.4745 S   0  0  0  0  0  0  0  0  0  0  0  0
    1.0519    1.7262    5.6149 C   0  0  0  0  0  0  0  0  0  0  0  0
    1.2823    2.8371    6.6287 C   0  0  0  0  0  0  0  0  0  0  0  0
   -1.4785   -0.5999    4.6449 C   0  0  0  0  0  0  0  0  0  0  0  0
   -3.0663   -0.2428    4.2309 S   0  0  0  0  0  0  0  0  0  0  0  0
   -0.5396   -1.1697    3.6836 C   0  0  0  0  0  0  0  0  0  0  0  0
   -0.6366   -2.4410    3.0721 C   0  0  0  0  0  0  0  0  0  0  0  0
   -1.3532   -3.5686    3.6427 N   0  0  0  0  0  0  0  0  0  0  0  0
   -1.6465   -3.6034    5.0563 C   0  0  0  0  0  0  0  0  0  0  0  0
   -0.6574   -3.2994    6.0108 C   0  0  0  0  0  0  0  0  0  0  0  0
   -0.9870   -3.1866    7.3619 C   0  0  0  0  0  0  0  0  0  0  0  0
   -2.3027   -3.4269    7.7809 C   0  0  0  0  0  0  0  0  0  0  0  0
   -2.7329   -3.2564    9.5140 S   0  0  0  0  0  0  0  0  0  0  0  0
   -3.2748   -1.5280    9.3320 C   0  0  0  0  0  0  0  0  0  0  0  0
   -3.2781   -3.7874    6.8495 C   0  0  0  0  0  0  0  0  0  0  0  0
   -2.9530   -3.8798    5.4947 C   0  0  0  0  0  0  0  0  0  0  0  0
   -1.7845   -4.6791    2.8306 C   0  0  0  0  0  0  0  0  0  0  0  0
   -1.4225   -5.9908    3.1817 C   0  0  0  0  0  0  0  0  0  0  0  0
   -1.8821   -7.0748    2.4352 C   0  0  0  0  0  0  0  0  0  0  0  0
   -2.7357   -6.8636    1.3461 C   0  0  0  0  0  0  0  0  0  0  0  0
   -3.3118   -8.2621    0.3751 S   0  0  0  0  0  0  0  0  0  0  0  0
   -4.9269   -8.3532    1.2103 C   0  0  0  0  0  0  0  0  0  0  0  0
   -3.1170   -5.5616    1.0018 C   0  0  0  0  0  0  0  0  0  0  0  0
   -2.6470   -4.4723    1.7444 C   0  0  0  0  0  0  0  0  0  0  0  0
    0.0808   -2.4515    1.8606 C   0  0  0  0  0  0  0  0  0  0  0  0
    0.2808   -3.5158    0.5596 S   0  0  0  0  0  0  0  0  0  0  0  0
    1.1366   -2.3851   -0.3970 C   0  0  0  0  0  0  0  0  0  0  0  0
    1.3289   -1.2092    0.3332 C   0  0  0  0  0  0  0  0  0  0  0  0
    2.3087   -0.2052    0.0074 N   0  0  0  0  0  0  0  0  0  0  0  0
    3.7210   -0.4478    0.2713 C   0  0  0  0  0  0  0  0  0  0  0  0
    4.1429   -1.5526    1.0404 C   0  0  0  0  0  0  0  0  0  0  0  0
    5.5003   -1.8017    1.2558 C   0  0  0  0  0  0  0  0  0  0  0  0
    6.4622   -0.9375    0.7276 C   0  0  0  0  0  0  0  0  0  0  0  0
    8.2077   -1.2631    0.9857 S   0  0  0  0  0  0  0  0  0  0  0  0
    8.2676   -0.4492    2.6133 C   0  0  0  0  0  0  0  0  0  0  0  0
    6.0647    0.1678   -0.0299 C   0  0  0  0  0  0  0  0  0  0  0  0
    4.7078    0.4049   -0.2641 C   0  0  0  0  0  0  0  0  0  0  0  0
    1.8504    1.1091   -0.3506 C   0  0  0  0  0  0  0  0  0  0  0  0
    1.9827    2.1722    0.5569 C   0  0  0  0  0  0  0  0  0  0  0  0
    1.5777    3.4576    0.1911 C   0  0  0  0  0  0  0  0  0  0  0  0
    1.0544    3.6940   -1.0846 C   0  0  0  0  0  0  0  0  0  0  0  0
    0.5750    5.3569   -1.5642 S   0  0  0  0  0  0  0  0  0  0  0  0
    2.2284    5.7843   -2.2057 C   0  0  0  0  0  0  0  0  0  0  0  0
    0.9190    2.6349   -1.9885 C   0  0  0  0  0  0  0  0  0  0  0  0
    1.3082    1.3430   -1.6194 C   0  0  0  0  0  0  0  0  0  0  0  0
    0.7122   -1.2815    1.5664 C   0  0  0  0  0  0  0  0  0  0  0  0
    0.4343   -0.1489    2.7446 S   0  0  0  0  0  0  0  0  0  0  0  0
    1.5509   -2.5378   -1.8048 C   0  0  0  0  0  0  0  0  0  0  0  0
    2.9215   -2.7092   -2.0549 C   0  0  0  0  0  0  0  0  0  0  0  0
    3.4789   -2.3245   -3.2824 C   0  0  0  0  0  0  0  0  0  0  0  0
    2.6675   -1.8305   -4.3204 C   0  0  0  0  0  0  0  0  0  0  0  0
    1.2760   -1.8235   -4.1239 C   0  0  0  0  0  0  0  0  0  0  0  0
    0.1983   -1.3596   -5.0213 C   0  0  0  0  0  0  0  0  0  0  0  0
    0.2740   -1.1331   -6.3477 C   0  0  0  0  0  0  0  0  0  0  0  0
   -0.8806   -0.8229   -7.2081 C   0  0  0  0  0  0  0  0  0  0  0  0
   -2.0369   -1.6167   -7.2987 C   0  0  0  0  0  0  0  0  0  0  0  0
   -2.9387   -1.1820   -8.2611 C   0  0  0  0  0  0  0  0  0  0  0  0
   -2.2780    0.1631   -9.0192 S   0  0  0  0  0  0  0  0  0  0  0  0
   -0.8493    0.2131   -8.1366 C   0  0  0  0  0  0  0  0  0  0  0  0
   -0.9837   -1.3301   -4.1622 C   0  0  0  0  0  0  0  0  0  0  0  0
   -2.1304   -0.9321   -4.5070 O   0  0  0  0  0  0  0  0  0  0  0  0
   -0.6899   -1.8202   -2.8575 N   0  0  0  0  0  0  0  0  0  0  0  0
   -1.7227   -2.3704   -1.9789 C   0  0  0  0  0  0  0  0  0  0  0  0
   -1.8834   -3.8707   -2.2302 C   0  0  0  0  0  0  0  0  0  0  0  0
    0.7201   -2.1338   -2.8836 C   0  0  0  0  0  0  0  0  0  0  0  0
    3.2802   -1.0326   -5.4007 C   0  0  0  0  0  0  0  0  0  0  0  0
    4.2738   -1.4511   -6.2047 C   0  0  0  0  0  0  0  0  0  0  0  0
    4.9067   -2.7862   -6.1889 C   0  0  0  0  0  0  0  0  0  0  0  0
    4.4922   -3.8182   -5.5968 O   0  0  0  0  0  0  0  0  0  0  0  0
    6.0583   -2.7194   -7.0510 C   0  0  0  0  0  0  0  0  0  0  0  0
    6.1435   -1.4872   -7.6304 C   0  0  0  0  0  0  0  0  0  0  0  0
    7.4266   -1.4315   -8.7570 S   0  0  0  0  0  0  0  0  0  0  0  0
    7.8564   -3.0402   -8.4327 C   0  0  0  0  0  0  0  0  0  0  0  0
    8.8308   -3.8984   -8.9271 C   0  0  0  0  0  0  0  0  0  0  0  0
    8.7287   -5.1635   -8.3292 C   0  0  0  0  0  0  0  0  0  0  0  0
    7.4317   -5.1904   -7.2184 S   0  0  0  0  0  0  0  0  0  0  0  0
    7.0250   -3.5931   -7.5016 C   0  0  0  0  0  0  0  0  0  0  0  0
    5.0339   -0.6193   -7.2117 C   0  0  0  0  0  0  0  0  0  0  0  0
    4.7695    0.6139   -7.7094 C   0  0  0  0  0  0  0  0  0  0  0  0
    3.5668    1.3402   -7.4162 C   0  0  0  0  0  0  0  0  0  0  0  0
    2.5965    1.9345   -7.1946 N   0  0  0  0  0  0  0  0  0  0  0  0
    5.6991    1.2723   -8.5879 C   0  0  0  0  0  0  0  0  0  0  0  0
    6.4455    1.8136   -9.2853 N   0  0  0  0  0  0  0  0  0  0  0  0
   -4.8456    1.8963    6.5801 H   0  0  0  0  0  0  0  0  0  0  0  0
   -3.2542    4.6098    1.1544 H   0  0  0  0  0  0  0  0  0  0  0  0
   -6.3698    6.7827    4.5570 H   0  0  0  0  0  0  0  0  0  0  0  0
   -6.0720    8.6706    1.6689 H   0  0  0  0  0  0  0  0  0  0  0  0
   -4.7250   10.1719    3.2865 H   0  0  0  0  0  0  0  0  0  0  0  0
   -2.8184    8.7849    4.5090 H   0  0  0  0  0  0  0  0  0  0  0  0
   -1.2981    7.7021    2.6881 H   0  0  0  0  0  0  0  0  0  0  0  0
   -2.2353    8.4045    0.3067 H   0  0  0  0  0  0  0  0  0  0  0  0
   -4.1202   10.2585    0.6857 H   0  0  0  0  0  0  0  0  0  0  0  0
   -2.6527   10.6075    1.7034 H   0  0  0  0  0  0  0  0  0  0  0  0
   -4.6906    7.6583    0.0446 H   0  0  0  0  0  0  0  0  0  0  0  0
   -2.0544    1.6861    7.0406 H   0  0  0  0  0  0  0  0  0  0  0  0
    2.0048    1.5167    5.0826 H   0  0  0  0  0  0  0  0  0  0  0  0
    0.3091    2.0664    4.8611 H   0  0  0  0  0  0  0  0  0  0  0  0
    1.5386    3.7766    6.0967 H   0  0  0  0  0  0  0  0  0  0  0  0
    0.3648    2.9996    7.2316 H   0  0  0  0  0  0  0  0  0  0  0  0
    2.1190    2.5624    7.3041 H   0  0  0  0  0  0  0  0  0  0  0  0
    0.3596   -3.0939    5.6950 H   0  0  0  0  0  0  0  0  0  0  0  0
   -0.2322   -2.9129    8.0836 H   0  0  0  0  0  0  0  0  0  0  0  0
   -2.4641   -0.9070    8.8947 H   0  0  0  0  0  0  0  0  0  0  0  0
   -4.1731   -1.4801    8.6801 H   0  0  0  0  0  0  0  0  0  0  0  0
   -3.5381   -1.1234   10.3329 H   0  0  0  0  0  0  0  0  0  0  0  0
   -4.2955   -3.9680    7.1715 H   0  0  0  0  0  0  0  0  0  0  0  0
   -3.7286   -4.1218    4.7782 H   0  0  0  0  0  0  0  0  0  0  0  0
   -0.7697   -6.1678    4.0301 H   0  0  0  0  0  0  0  0  0  0  0  0
   -1.5905   -8.0823    2.7040 H   0  0  0  0  0  0  0  0  0  0  0  0
   -5.4399   -9.2878    0.9099 H   0  0  0  0  0  0  0  0  0  0  0  0
   -5.5477   -7.4896    0.9007 H   0  0  0  0  0  0  0  0  0  0  0  0
   -4.8103   -8.3503    2.3118 H   0  0  0  0  0  0  0  0  0  0  0  0
   -3.7843   -5.3937    0.1676 H   0  0  0  0  0  0  0  0  0  0  0  0
   -2.9462   -3.4704    1.4725 H   0  0  0  0  0  0  0  0  0  0  0  0
    3.4251   -2.2417    1.4715 H   0  0  0  0  0  0  0  0  0  0  0  0
    5.7958   -2.6641    1.8406 H   0  0  0  0  0  0  0  0  0  0  0  0
    9.3260   -0.3598    2.9343 H   0  0  0  0  0  0  0  0  0  0  0  0
    7.7204   -1.0605    3.3569 H   0  0  0  0  0  0  0  0  0  0  0  0
    7.8314    0.5712    2.5588 H   0  0  0  0  0  0  0  0  0  0  0  0
    6.8021    0.8377   -0.4439 H   0  0  0  0  0  0  0  0  0  0  0  0
    4.4294    1.2508   -0.8777 H   0  0  0  0  0  0  0  0  0  0  0  0
    2.4068    2.0012    1.5366 H   0  0  0  0  0  0  0  0  0  0  0  0
    1.6863    4.2758    0.8948 H   0  0  0  0  0  0  0  0  0  0  0  0
    2.9880    5.7062   -1.3952 H   0  0  0  0  0  0  0  0  0  0  0  0
    2.2105    6.8308   -2.5855 H   0  0  0  0  0  0  0  0  0  0  0  0
    2.4987    5.1014   -3.0445 H   0  0  0  0  0  0  0  0  0  0  0  0
    0.5259    2.8138   -2.9825 H   0  0  0  0  0  0  0  0  0  0  0  0
    1.2245    0.5386   -2.3315 H   0  0  0  0  0  0  0  0  0  0  0  0
    3.5817   -3.0202   -1.2580 H   0  0  0  0  0  0  0  0  0  0  0  0
    4.5572   -2.3074   -3.3731 H   0  0  0  0  0  0  0  0  0  0  0  0
    1.2245   -1.1897   -6.8551 H   0  0  0  0  0  0  0  0  0  0  0  0
   -2.2047   -2.5002   -6.6910 H   0  0  0  0  0  0  0  0  0  0  0  0
   -3.8881   -1.6385   -8.4947 H   0  0  0  0  0  0  0  0  0  0  0  0
   -0.0468    0.9222   -8.2687 H   0  0  0  0  0  0  0  0  0  0  0  0
   -2.6981   -1.8786   -2.1869 H   0  0  0  0  0  0  0  0  0  0  0  0
   -1.4964   -2.1565   -0.9204 H   0  0  0  0  0  0  0  0  0  0  0  0
   -0.9496   -4.4087   -1.9672 H   0  0  0  0  0  0  0  0  0  0  0  0
   -2.7117   -4.2642   -1.6089 H   0  0  0  0  0  0  0  0  0  0  0  0
   -2.1260   -4.0555   -3.2960 H   0  0  0  0  0  0  0  0  0  0  0  0
    2.8950   -0.0312   -5.4861 H   0  0  0  0  0  0  0  0  0  0  0  0
    9.5611   -3.6291   -9.6742 H   0  0  0  0  0  0  0  0  0  0  0  0
    9.3785   -6.0008   -8.5408 H   0  0  0  0  0  0  0  0  0  0  0  0
  1  2  2  3
  2  3  1  0
  3  4  2  0
  3  5  1  0
  5  6  2  0
  6  7  1  0
  7  8  2  0
  8  9  1  0
  9 10  2  0
 10 11  1  0
 11 12  2  3
 12 13  1  0
 13 14  3  0
 12 15  1  0
 15 16  3  0
  8 17  1  0
 17 18  1  0
 18 19  1  0
 19 20  2  0
 20 21  1  0
 21 22  1  0
 21 23  1  0
  1 24  1  0
 24 25  2  0
 25 26  1  0
 26 27  1  0
 27 28  1  0
 28 29  1  0
 26 30  2  0
 30 31  1  0
 30 32  1  0
 32 33  2  0
 33 34  1  0
 34 35  1  0
 35 36  2  0
 36 37  1  0
 37 38  2  0
 38 39  1  0
 39 40  1  0
 38 41  1  0
 41 42  2  0
 34 43  1  0
 43 44  2  0
 44 45  1  0
 45 46  2  0
 46 47  1  0
 47 48  1  0
 46 49  1  0
 49 50  2  0
 33 51  1  0
 51 52  1  0
 52 53  1  0
 53 54  2  0
 54 55  1  0
 55 56  1  0
 56 57  2  0
 57 58  1  0
 58 59  2  0
 59 60  1  0
 60 61  1  0
 59 62  1  0
 62 63  2  0
 55 64  1  0
 64 65  2  0
 65 66  1  0
 66 67  2  0
 67 68  1  0
 68 69  1  0
 67 70  1  0
 70 71  2  0
 54 72  1  0
 72 73  1  0
 53 74  1  0
 74 75  2  0
 75 76  1  0
 76 77  2  0
 77 78  1  0
 78 79  1  0
 79 80  2  3
 80 81  1  0
 81 82  1  0
 82 83  2  0
 83 84  1  0
 84 85  1  0
 79 86  1  0
 86 87  2  0
 86 88  1  0
 88 89  1  0
 89 90  1  0
 88 91  1  0
 77 92  1  0
 92 93  2  3
 93 94  1  0
 94 95  2  0
 94 96  1  0
 96 97  2  0
 97 98  1  0
 98 99  1  0
 99100  1  0
100101  2  0
101102  1  0
102103  1  0
 97104  1  0
104105  2  3
105106  1  0
106107  3  0
105108  1  0
108109  3  0
 11  2  1  0
 23 17  1  0
 31 24  1  0
 73 32  1  0
 91 74  1  0
104 93  1  0
 10  5  1  0
 22 18  1  0
 42 35  1  0
 50 43  1  0
 72 51  2  0
 91 78  2  0
103 96  1  0
 23  7  1  0
 63 56  1  0
 71 64  1  0
 85 81  2  0
103 99  2  0
  1110  1  0
  6111  1  0
  9112  1  0
 17113  1  0
 18114  1  0
 19115  1  0
 20116  1  0
 21117  1  0
 22118  1  0
 22119  1  0
 23120  1  0
 25121  1  0
 28122  1  0
 28123  1  0
 29124  1  0
 29125  1  0
 29126  1  0
 36127  1  0
 37128  1  0
 40129  1  0
 40130  1  0
 40131  1  0
 41132  1  0
 42133  1  0
 44134  1  0
 45135  1  0
 48136  1  0
 48137  1  0
 48138  1  0
 49139  1  0
 50140  1  0
 57141  1  0
 58142  1  0
 61143  1  0
 61144  1  0
 61145  1  0
 62146  1  0
 63147  1  0
 65148  1  0
 66149  1  0
 69150  1  0
 69151  1  0
 69152  1  0
 70153  1  0
 71154  1  0
 75155  1  0
 76156  1  0
 80157  1  0
 82158  1  0
 83159  1  0
 85160  1  0
 89161  1  0
 89162  1  0
 90163  1  0
 90164  1  0
 90165  1  0
 92166  1  0
100167  1  0
101168  1  0
M  END

