
     RDKit          3D

162179  0  0  0  0  0  0  0  0999 V2000
    3.0300   -5.4374    6.7145 C   0  0  0  0  0  0  0  0  0  0  0  0
    1.7163   -5.6619    6.5204 C   0  0  0  0  0  0  0  0  0  0  0  0
    1.1017   -6.9356    6.9010 C   0  0  0  0  0  0  0  0  0  0  0  0
    1.3930   -7.6134    7.9213 O   0  0  0  0  0  0  0  0  0  0  0  0
    0.2089   -7.3580    5.8314 C   0  0  0  0  0  0  0  0  0  0  0  0
   -0.4418   -8.6064    5.6891 C   0  0  0  0  0  0  0  0  0  0  0  0
   -1.1128   -8.7494    4.4861 C   0  0  0  0  0  0  0  0  0  0  0  0
   -1.1427   -7.7325    3.4763 C   0  0  0  0  0  0  0  0  0  0  0  0
   -0.5113   -6.5105    3.6071 C   0  0  0  0  0  0  0  0  0  0  0  0
    0.1710   -6.3402    4.8405 C   0  0  0  0  0  0  0  0  0  0  0  0
    0.9689   -5.1941    5.3199 C   0  0  0  0  0  0  0  0  0  0  0  0
    0.7819   -3.9013    4.9898 C   0  0  0  0  0  0  0  0  0  0  0  0
    1.0457   -2.8525    5.9396 C   0  0  0  0  0  0  0  0  0  0  0  0
    1.2420   -2.0124    6.7128 N   0  0  0  0  0  0  0  0  0  0  0  0
    0.3295   -3.4974    3.6856 C   0  0  0  0  0  0  0  0  0  0  0  0
   -0.0033   -3.1597    2.6292 N   0  0  0  0  0  0  0  0  0  0  0  0
   -1.9325   -8.6269    2.5708 C   0  0  0  0  0  0  0  0  0  0  0  0
   -1.1568   -9.2684    1.3860 C   0  0  0  0  0  0  0  0  0  0  0  0
   -2.0297  -10.3905    0.8798 C   0  0  0  0  0  0  0  0  0  0  0  0
   -2.0076  -11.3411    1.8220 C   0  0  0  0  0  0  0  0  0  0  0  0
   -1.1205  -10.8278    2.9322 C   0  0  0  0  0  0  0  0  0  0  0  0
   -0.0899  -10.0984    2.0816 C   0  0  0  0  0  0  0  0  0  0  0  0
   -1.9072   -9.6667    3.6062 C   0  0  0  0  0  0  0  0  0  0  0  0
    3.8560   -4.9097    5.6078 C   0  0  0  0  0  0  0  0  0  0  0  0
    3.9289   -5.5646    4.3857 C   0  0  0  0  0  0  0  0  0  0  0  0
    4.1292   -4.7200    3.2906 C   0  0  0  0  0  0  0  0  0  0  0  0
    3.9124   -5.3505    1.6183 S   0  0  0  0  0  0  0  0  0  0  0  0
    5.6510   -5.8858    1.4180 C   0  0  0  0  0  0  0  0  0  0  0  0
    5.8461   -7.3105    1.9181 C   0  0  0  0  0  0  0  0  0  0  0  0
    4.2481   -3.3631    3.6326 C   0  0  0  0  0  0  0  0  0  0  0  0
    4.1124   -3.2767    5.3170 S   0  0  0  0  0  0  0  0  0  0  0  0
    3.9340   -2.2213    2.7334 C   0  0  0  0  0  0  0  0  0  0  0  0
    2.9821   -1.2714    3.1339 C   0  0  0  0  0  0  0  0  0  0  0  0
    2.4797   -0.3368    2.2325 C   0  0  0  0  0  0  0  0  0  0  0  0
    2.8754   -0.3493    0.8812 C   0  0  0  0  0  0  0  0  0  0  0  0
    3.9207   -1.2315    0.5080 C   0  0  0  0  0  0  0  0  0  0  0  0
    4.4210   -1.2541   -0.7481 F   0  0  0  0  0  0  0  0  0  0  0  0
    4.4614   -2.1303    1.4359 C   0  0  0  0  0  0  0  0  0  0  0  0
    5.5066   -2.9065    1.0605 F   0  0  0  0  0  0  0  0  0  0  0  0
    2.2333    0.5655   -0.1212 C   0  0  0  0  0  0  0  0  0  0  0  0
    1.0735    1.3719    0.0329 C   0  0  0  0  0  0  0  0  0  0  0  0
    0.1539    1.3595    1.1407 N   0  0  0  0  0  0  0  0  0  0  0  0
   -0.7854    0.2676    1.2981 C   0  0  0  0  0  0  0  0  0  0  0  0
   -1.2075   -0.4907    0.1879 C   0  0  0  0  0  0  0  0  0  0  0  0
   -2.1990   -1.4673    0.3304 C   0  0  0  0  0  0  0  0  0  0  0  0
   -2.7804   -1.7029    1.5808 C   0  0  0  0  0  0  0  0  0  0  0  0
   -4.1313   -2.8799    1.7339 S   0  0  0  0  0  0  0  0  0  0  0  0
   -3.0526   -4.2835    2.1506 C   0  0  0  0  0  0  0  0  0  0  0  0
   -2.3482   -0.9783    2.6957 C   0  0  0  0  0  0  0  0  0  0  0  0
   -1.3528   -0.0056    2.5582 C   0  0  0  0  0  0  0  0  0  0  0  0
   -0.0713    2.6153    1.8166 C   0  0  0  0  0  0  0  0  0  0  0  0
   -1.3697    3.1486    1.9264 C   0  0  0  0  0  0  0  0  0  0  0  0
   -1.5709    4.4072    2.5004 C   0  0  0  0  0  0  0  0  0  0  0  0
   -0.4797    5.1469    2.9705 C   0  0  0  0  0  0  0  0  0  0  0  0
   -0.7416    6.7690    3.6880 S   0  0  0  0  0  0  0  0  0  0  0  0
   -0.8410    6.1329    5.3906 C   0  0  0  0  0  0  0  0  0  0  0  0
    0.8138    4.6266    2.8622 C   0  0  0  0  0  0  0  0  0  0  0  0
    1.0184    3.3678    2.2890 C   0  0  0  0  0  0  0  0  0  0  0  0
    0.8176    2.1261   -1.1084 C   0  0  0  0  0  0  0  0  0  0  0  0
   -0.4047    3.1764   -1.5461 S   0  0  0  0  0  0  0  0  0  0  0  0
    0.1947    3.4289   -3.1254 C   0  0  0  0  0  0  0  0  0  0  0  0
    1.3321    2.6284   -3.3090 C   0  0  0  0  0  0  0  0  0  0  0  0
    2.0207    2.4696   -4.5561 N   0  0  0  0  0  0  0  0  0  0  0  0
    1.7443    1.3225   -5.3965 C   0  0  0  0  0  0  0  0  0  0  0  0
    2.7427    0.7885   -6.2348 C   0  0  0  0  0  0  0  0  0  0  0  0
    2.4832   -0.3324   -7.0300 C   0  0  0  0  0  0  0  0  0  0  0  0
    1.2226   -0.9348   -7.0040 C   0  0  0  0  0  0  0  0  0  0  0  0
    0.8952   -2.3797   -8.0144 S   0  0  0  0  0  0  0  0  0  0  0  0
    0.3780   -1.4050   -9.4608 C   0  0  0  0  0  0  0  0  0  0  0  0
    0.2239   -0.4198   -6.1718 C   0  0  0  0  0  0  0  0  0  0  0  0
    0.4800    0.6983   -5.3730 C   0  0  0  0  0  0  0  0  0  0  0  0
    3.0311    3.4338   -4.9067 C   0  0  0  0  0  0  0  0  0  0  0  0
    4.0369    3.7815   -3.9867 C   0  0  0  0  0  0  0  0  0  0  0  0
    5.0265    4.7001   -4.3370 C   0  0  0  0  0  0  0  0  0  0  0  0
    5.0229    5.2849   -5.6083 C   0  0  0  0  0  0  0  0  0  0  0  0
    6.3117    6.4456   -6.0676 S   0  0  0  0  0  0  0  0  0  0  0  0
    7.3887    5.1537   -6.7595 C   0  0  0  0  0  0  0  0  0  0  0  0
    4.0185    4.9548   -6.5249 C   0  0  0  0  0  0  0  0  0  0  0  0
    3.0303    4.0289   -6.1774 C   0  0  0  0  0  0  0  0  0  0  0  0
    1.6546    1.9333   -2.1489 C   0  0  0  0  0  0  0  0  0  0  0  0
    2.8251    0.8255   -1.7120 S   0  0  0  0  0  0  0  0  0  0  0  0
   -0.5505    4.1389   -4.1810 C   0  0  0  0  0  0  0  0  0  0  0  0
   -1.3886    5.1496   -3.9016 C   0  0  0  0  0  0  0  0  0  0  0  0
   -2.7362    5.2112   -4.4697 C   0  0  0  0  0  0  0  0  0  0  0  0
   -3.1018    4.6950   -5.5599 O   0  0  0  0  0  0  0  0  0  0  0  0
   -3.6181    5.8092   -3.4814 C   0  0  0  0  0  0  0  0  0  0  0  0
   -5.0323    5.7987   -3.4788 C   0  0  0  0  0  0  0  0  0  0  0  0
   -5.5942    6.2492   -2.2967 C   0  0  0  0  0  0  0  0  0  0  0  0
   -4.8148    6.6825   -1.1750 C   0  0  0  0  0  0  0  0  0  0  0  0
   -3.4327    6.6758   -1.1602 C   0  0  0  0  0  0  0  0  0  0  0  0
   -2.8403    6.2346   -2.3713 C   0  0  0  0  0  0  0  0  0  0  0  0
   -1.4152    5.9608   -2.6542 C   0  0  0  0  0  0  0  0  0  0  0  0
   -0.3383    6.5563   -2.0845 C   0  0  0  0  0  0  0  0  0  0  0  0
   -0.4615    7.4889   -0.9916 C   0  0  0  0  0  0  0  0  0  0  0  0
   -0.5522    8.2400   -0.1170 N   0  0  0  0  0  0  0  0  0  0  0  0
    0.9869    6.3998   -2.6291 C   0  0  0  0  0  0  0  0  0  0  0  0
    2.0526    6.2798   -3.0657 N   0  0  0  0  0  0  0  0  0  0  0  0
   -6.0612    6.9236   -0.3775 C   0  0  0  0  0  0  0  0  0  0  0  0
   -6.4110    5.9061    0.7479 C   0  0  0  0  0  0  0  0  0  0  0  0
   -5.8892    4.5334    0.3856 C   0  0  0  0  0  0  0  0  0  0  0  0
   -6.6158    4.1120   -0.6498 C   0  0  0  0  0  0  0  0  0  0  0  0
   -7.6034    5.2164   -0.9623 C   0  0  0  0  0  0  0  0  0  0  0  0
   -7.8819    5.6895    0.4536 C   0  0  0  0  0  0  0  0  0  0  0  0
   -6.8589    6.4683   -1.5204 C   0  0  0  0  0  0  0  0  0  0  0  0
    3.5484   -5.9787    7.4946 H   0  0  0  0  0  0  0  0  0  0  0  0
   -0.3875   -9.3917    6.4310 H   0  0  0  0  0  0  0  0  0  0  0  0
   -0.5120   -5.7883    2.8059 H   0  0  0  0  0  0  0  0  0  0  0  0
   -2.9469   -8.2358    2.3301 H   0  0  0  0  0  0  0  0  0  0  0  0
   -0.7923   -8.5626    0.6097 H   0  0  0  0  0  0  0  0  0  0  0  0
   -2.5101  -10.4677   -0.0895 H   0  0  0  0  0  0  0  0  0  0  0  0
   -2.4677  -12.3202    1.7465 H   0  0  0  0  0  0  0  0  0  0  0  0
   -0.7217  -11.6065    3.6177 H   0  0  0  0  0  0  0  0  0  0  0  0
    0.4722  -10.7710    1.3920 H   0  0  0  0  0  0  0  0  0  0  0  0
    0.6408   -9.5003    2.6694 H   0  0  0  0  0  0  0  0  0  0  0  0
   -2.9044   -9.9340    4.0223 H   0  0  0  0  0  0  0  0  0  0  0  0
    3.6624   -6.6079    4.2673 H   0  0  0  0  0  0  0  0  0  0  0  0
    6.3435   -5.2014    1.9482 H   0  0  0  0  0  0  0  0  0  0  0  0
    5.8999   -5.8468    0.3367 H   0  0  0  0  0  0  0  0  0  0  0  0
    5.1838   -8.0069    1.3606 H   0  0  0  0  0  0  0  0  0  0  0  0
    6.9022   -7.6147    1.7656 H   0  0  0  0  0  0  0  0  0  0  0  0
    5.6114   -7.3746    3.0006 H   0  0  0  0  0  0  0  0  0  0  0  0
    2.5853   -1.2703    4.1396 H   0  0  0  0  0  0  0  0  0  0  0  0
    1.7697    0.3756    2.6092 H   0  0  0  0  0  0  0  0  0  0  0  0
   -0.8051   -0.3024   -0.7994 H   0  0  0  0  0  0  0  0  0  0  0  0
   -2.5322   -2.0217   -0.5379 H   0  0  0  0  0  0  0  0  0  0  0  0
   -2.5622   -4.1035    3.1315 H   0  0  0  0  0  0  0  0  0  0  0  0
   -3.6652   -5.2052    2.2249 H   0  0  0  0  0  0  0  0  0  0  0  0
   -2.2814   -4.4265    1.3640 H   0  0  0  0  0  0  0  0  0  0  0  0
   -2.7903   -1.1605    3.6671 H   0  0  0  0  0  0  0  0  0  0  0  0
   -1.0370    0.5502    3.4314 H   0  0  0  0  0  0  0  0  0  0  0  0
   -2.2214    2.6079    1.5368 H   0  0  0  0  0  0  0  0  0  0  0  0
   -2.5727    4.8123    2.5687 H   0  0  0  0  0  0  0  0  0  0  0  0
    0.1324    5.6879    5.6865 H   0  0  0  0  0  0  0  0  0  0  0  0
   -1.0761    6.9720    6.0775 H   0  0  0  0  0  0  0  0  0  0  0  0
   -1.6414    5.3664    5.4689 H   0  0  0  0  0  0  0  0  0  0  0  0
    1.6610    5.1971    3.2191 H   0  0  0  0  0  0  0  0  0  0  0  0
    2.0262    2.9810    2.2027 H   0  0  0  0  0  0  0  0  0  0  0  0
    3.7326    1.2244   -6.2661 H   0  0  0  0  0  0  0  0  0  0  0  0
    3.2633   -0.7335   -7.6647 H   0  0  0  0  0  0  0  0  0  0  0  0
    0.0971   -2.0962  -10.2800 H   0  0  0  0  0  0  0  0  0  0  0  0
   -0.5017   -0.7778   -9.2044 H   0  0  0  0  0  0  0  0  0  0  0  0
    1.2130   -0.7560   -9.8029 H   0  0  0  0  0  0  0  0  0  0  0  0
   -0.7525   -0.8859   -6.1397 H   0  0  0  0  0  0  0  0  0  0  0  0
   -0.3121    1.0733   -4.7394 H   0  0  0  0  0  0  0  0  0  0  0  0
    4.0609    3.3277   -3.0047 H   0  0  0  0  0  0  0  0  0  0  0  0
    5.8028    4.9495   -3.6243 H   0  0  0  0  0  0  0  0  0  0  0  0
    6.8731    4.6335   -7.5912 H   0  0  0  0  0  0  0  0  0  0  0  0
    7.6606    4.4221   -5.9704 H   0  0  0  0  0  0  0  0  0  0  0  0
    8.3135    5.6253   -7.1474 H   0  0  0  0  0  0  0  0  0  0  0  0
    4.0069    5.4084   -7.5085 H   0  0  0  0  0  0  0  0  0  0  0  0
    2.2590    3.7779   -6.8944 H   0  0  0  0  0  0  0  0  0  0  0  0
   -0.6264    3.6423   -5.1424 H   0  0  0  0  0  0  0  0  0  0  0  0
   -5.6246    5.4198   -4.3033 H   0  0  0  0  0  0  0  0  0  0  0  0
   -2.8817    6.9109   -0.2636 H   0  0  0  0  0  0  0  0  0  0  0  0
   -6.2271    7.9934   -0.1157 H   0  0  0  0  0  0  0  0  0  0  0  0
   -6.1707    6.2407    1.7806 H   0  0  0  0  0  0  0  0  0  0  0  0
   -5.1345    3.9558    0.9112 H   0  0  0  0  0  0  0  0  0  0  0  0
   -6.5627    3.1297   -1.1065 H   0  0  0  0  0  0  0  0  0  0  0  0
   -8.4950    4.8986   -1.5453 H   0  0  0  0  0  0  0  0  0  0  0  0
   -8.3533    4.9070    1.0977 H   0  0  0  0  0  0  0  0  0  0  0  0
   -8.4868    6.6262    0.4993 H   0  0  0  0  0  0  0  0  0  0  0  0
   -7.5168    7.2554   -1.9471 H   0  0  0  0  0  0  0  0  0  0  0  0
  1  2  2  3
  2  3  1  0
  3  4  2  0
  3  5  1  0
  5  6  2  0
  6  7  1  0
  7  8  2  0
  8  9  1  0
  9 10  2  0
 10 11  1  0
 11 12  2  3
 12 13  1  0
 13 14  3  0
 12 15  1  0
 15 16  3  0
  8 17  1  0
 17 18  1  0
 18 19  1  0
 19 20  2  0
 20 21  1  0
 21 22  1  0
 21 23  1  0
  1 24  1  0
 24 25  2  0
 25 26  1  0
 26 27  1  0
 27 28  1  0
 28 29  1  0
 26 30  2  0
 30 31  1  0
 30 32  1  0
 32 33  2  0
 33 34  1  0
 34 35  2  0
 35 36  1  0
 36 37  1  0
 36 38  2  0
 38 39  1  0
 35 40  1  0
 40 41  2  0
 41 42  1  0
 42 43  1  0
 43 44  2  0
 44 45  1  0
 45 46  2  0
 46 47  1  0
 47 48  1  0
 46 49  1  0
 49 50  2  0
 42 51  1  0
 51 52  2  0
 52 53  1  0
 53 54  2  0
 54 55  1  0
 55 56  1  0
 54 57  1  0
 57 58  2  0
 41 59  1  0
 59 60  1  0
 60 61  1  0
 61 62  2  0
 62 63  1  0
 63 64  1  0
 64 65  2  0
 65 66  1  0
 66 67  2  0
 67 68  1  0
 68 69  1  0
 67 70  1  0
 70 71  2  0
 63 72  1  0
 72 73  2  0
 73 74  1  0
 74 75  2  0
 75 76  1  0
 76 77  1  0
 75 78  1  0
 78 79  2  0
 62 80  1  0
 80 81  1  0
 61 82  1  0
 82 83  2  3
 83 84  1  0
 84 85  2  0
 84 86  1  0
 86 87  2  0
 87 88  1  0
 88 89  2  0
 89 90  1  0
 90 91  2  0
 91 92  1  0
 92 93  2  3
 93 94  1  0
 94 95  3  0
 93 96  1  0
 96 97  3  0
 89 98  1  0
 98 99  1  0
 99100  1  0
100101  2  0
101102  1  0
102103  1  0
102104  1  0
 11  2  1  0
 23 17  1  0
 31 24  1  0
 38 32  1  0
 81 40  1  0
 92 83  1  0
104 98  1  0
 10  5  1  0
 22 18  1  0
 50 43  1  0
 58 51  1  0
 80 59  2  0
 91 86  1  0
103 99  1  0
 23  7  1  0
 71 64  1  0
 79 72  1  0
104 88  1  0
  1105  1  0
  6106  1  0
  9107  1  0
 17108  1  0
 18109  1  0
 19110  1  0
 20111  1  0
 21112  1  0
 22113  1  0
 22114  1  0
 23115  1  0
 25116  1  0
 28117  1  0
 28118  1  0
 29119  1  0
 29120  1  0
 29121  1  0
 33122  1  0
 34123  1  0
 44124  1  0
 45125  1  0
 48126  1  0
 48127  1  0
 48128  1  0
 49129  1  0
 50130  1  0
 52131  1  0
 53132  1  0
 56133  1  0
 56134  1  0
 56135  1  0
 57136  1  0
 58137  1  0
 65138  1  0
 66139  1  0
 69140  1  0
 69141  1  0
 69142  1  0
 70143  1  0
 71144  1  0
 73145  1  0
 74146  1  0
 77147  1  0
 77148  1  0
 77149  1  0
 78150  1  0
 79151  1  0
 82152  1  0
 87153  1  0
 90154  1  0
 98155  1  0
 99156  1  0
100157  1  0
101158  1  0
102159  1  0
103160  1  0
103161  1  0
104162  1  0
M  END

