
     RDKit          3D

151167  0  0  0  0  0  0  0  0999 V2000
   -5.3135    0.4425   -5.5475 C   0  0  0  0  0  0  0  0  0  0  0  0
   -4.4067    1.0441   -6.3472 C   0  0  0  0  0  0  0  0  0  0  0  0
   -3.4898    2.0913   -5.8854 C   0  0  0  0  0  0  0  0  0  0  0  0
   -3.8205    3.1392   -5.2729 O   0  0  0  0  0  0  0  0  0  0  0  0
   -2.1427    1.7631   -6.2899 C   0  0  0  0  0  0  0  0  0  0  0  0
   -0.9490    2.2713   -5.7317 C   0  0  0  0  0  0  0  0  0  0  0  0
    0.1668    1.5095   -6.0263 C   0  0  0  0  0  0  0  0  0  0  0  0
    0.1303    0.3494   -6.8639 C   0  0  0  0  0  0  0  0  0  0  0  0
   -1.0359   -0.1325   -7.4525 C   0  0  0  0  0  0  0  0  0  0  0  0
   -2.1988    0.6234   -7.1310 C   0  0  0  0  0  0  0  0  0  0  0  0
   -3.6288    0.2723   -7.3485 C   0  0  0  0  0  0  0  0  0  0  0  0
   -4.1398   -0.4667   -8.3565 C   0  0  0  0  0  0  0  0  0  0  0  0
   -3.2962   -1.0759   -9.3544 C   0  0  0  0  0  0  0  0  0  0  0  0
   -2.6320   -1.5630  -10.1674 N   0  0  0  0  0  0  0  0  0  0  0  0
   -5.5588   -0.5955   -8.5525 C   0  0  0  0  0  0  0  0  0  0  0  0
   -6.7025   -0.7005   -8.7190 N   0  0  0  0  0  0  0  0  0  0  0  0
    1.5828    0.0878   -6.5890 C   0  0  0  0  0  0  0  0  0  0  0  0
    2.6018    0.4442   -7.7146 C   0  0  0  0  0  0  0  0  0  0  0  0
    3.9579    0.4547   -7.0524 C   0  0  0  0  0  0  0  0  0  0  0  0
    3.9860    1.5280   -6.2548 C   0  0  0  0  0  0  0  0  0  0  0  0
    2.6469    2.2094   -6.4099 C   0  0  0  0  0  0  0  0  0  0  0  0
    2.4150    1.9410   -7.8849 C   0  0  0  0  0  0  0  0  0  0  0  0
    1.6125    1.2699   -5.7226 C   0  0  0  0  0  0  0  0  0  0  0  0
   -5.1382    0.4580   -4.0822 C   0  0  0  0  0  0  0  0  0  0  0  0
   -5.2208    1.5644   -3.2417 C   0  0  0  0  0  0  0  0  0  0  0  0
   -4.4933    1.4101   -2.0458 C   0  0  0  0  0  0  0  0  0  0  0  0
   -4.2451    2.7961   -0.9240 S   0  0  0  0  0  0  0  0  0  0  0  0
   -2.9780    3.6574   -1.9249 C   0  0  0  0  0  0  0  0  0  0  0  0
   -1.7234    2.8161   -2.1666 C   0  0  0  0  0  0  0  0  0  0  0  0
   -3.8769    0.1583   -1.9121 C   0  0  0  0  0  0  0  0  0  0  0  0
   -4.2092   -0.7031   -3.3130 S   0  0  0  0  0  0  0  0  0  0  0  0
   -2.7741   -0.2237   -0.9996 C   0  0  0  0  0  0  0  0  0  0  0  0
   -2.5362    0.1853    0.3352 C   0  0  0  0  0  0  0  0  0  0  0  0
   -3.5378    0.7116    1.2354 N   0  0  0  0  0  0  0  0  0  0  0  0
   -3.1427    1.6378    2.2778 C   0  0  0  0  0  0  0  0  0  0  0  0
   -2.2304    2.6767    2.0011 C   0  0  0  0  0  0  0  0  0  0  0  0
   -1.8270    3.5532    3.0113 C   0  0  0  0  0  0  0  0  0  0  0  0
   -2.3464    3.4262    4.3007 C   0  0  0  0  0  0  0  0  0  0  0  0
   -1.8610    4.5916    5.5753 S   0  0  0  0  0  0  0  0  0  0  0  0
   -3.1396    5.7974    5.1032 C   0  0  0  0  0  0  0  0  0  0  0  0
   -3.2455    2.3938    4.5937 C   0  0  0  0  0  0  0  0  0  0  0  0
   -3.6373    1.5019    3.5888 C   0  0  0  0  0  0  0  0  0  0  0  0
   -4.8620    0.1364    1.2444 C   0  0  0  0  0  0  0  0  0  0  0  0
   -5.9903    0.9369    1.4975 C   0  0  0  0  0  0  0  0  0  0  0  0
   -7.2665    0.3659    1.5824 C   0  0  0  0  0  0  0  0  0  0  0  0
   -7.4270   -1.0140    1.4028 C   0  0  0  0  0  0  0  0  0  0  0  0
   -9.0680   -1.7441    1.4784 S   0  0  0  0  0  0  0  0  0  0  0  0
   -8.8998   -2.2688    3.2159 C   0  0  0  0  0  0  0  0  0  0  0  0
   -6.3114   -1.8185    1.1345 C   0  0  0  0  0  0  0  0  0  0  0  0
   -5.0339   -1.2537    1.0732 C   0  0  0  0  0  0  0  0  0  0  0  0
   -1.2797   -0.2619    0.7651 C   0  0  0  0  0  0  0  0  0  0  0  0
   -0.4690   -0.2539    2.2250 S   0  0  0  0  0  0  0  0  0  0  0  0
    0.8021   -1.2742    1.7119 C   0  0  0  0  0  0  0  0  0  0  0  0
    0.5674   -1.6390    0.3687 C   0  0  0  0  0  0  0  0  0  0  0  0
    1.1331   -2.7911   -0.2835 N   0  0  0  0  0  0  0  0  0  0  0  0
    0.4111   -4.0323   -0.1529 C   0  0  0  0  0  0  0  0  0  0  0  0
   -0.0930   -4.6881   -1.2921 C   0  0  0  0  0  0  0  0  0  0  0  0
   -0.8676   -5.8445   -1.1571 C   0  0  0  0  0  0  0  0  0  0  0  0
   -1.1451   -6.3594    0.1175 C   0  0  0  0  0  0  0  0  0  0  0  0
   -2.1979   -7.7973    0.2995 S   0  0  0  0  0  0  0  0  0  0  0  0
   -0.8037   -8.9589    0.1763 C   0  0  0  0  0  0  0  0  0  0  0  0
   -0.6356   -5.7179    1.2534 C   0  0  0  0  0  0  0  0  0  0  0  0
    0.1306   -4.5575    1.1199 C   0  0  0  0  0  0  0  0  0  0  0  0
    2.1488   -2.6439   -1.3035 C   0  0  0  0  0  0  0  0  0  0  0  0
    2.2821   -1.4479   -2.0426 C   0  0  0  0  0  0  0  0  0  0  0  0
    3.2943   -1.3197   -3.0021 C   0  0  0  0  0  0  0  0  0  0  0  0
    4.1831   -2.3708   -3.2240 C   0  0  0  0  0  0  0  0  0  0  0  0
    5.5100   -2.1845   -4.4200 S   0  0  0  0  0  0  0  0  0  0  0  0
    4.5466   -2.9099   -5.7825 C   0  0  0  0  0  0  0  0  0  0  0  0
    4.0754   -3.5532   -2.4871 C   0  0  0  0  0  0  0  0  0  0  0  0
    3.0595   -3.6933   -1.5367 C   0  0  0  0  0  0  0  0  0  0  0  0
   -0.5963   -1.0319   -0.1128 C   0  0  0  0  0  0  0  0  0  0  0  0
   -1.4672   -1.1872   -1.5298 S   0  0  0  0  0  0  0  0  0  0  0  0
    1.9275   -1.6773    2.5977 C   0  0  0  0  0  0  0  0  0  0  0  0
    1.6975   -1.9086    3.9710 C   0  0  0  0  0  0  0  0  0  0  0  0
    2.7694   -2.0370    4.8911 C   0  0  0  0  0  0  0  0  0  0  0  0
    2.3734   -2.1719    6.2618 N   0  0  0  0  0  0  0  0  0  0  0  0
    0.7881   -2.1383    6.1055 S   0  0  0  0  0  4  0  0  0  0  0  0
    0.3972   -1.9677    4.5686 N   0  0  0  0  0  0  0  0  0  0  0  0
    4.1031   -1.9525    4.4704 C   0  0  0  0  0  0  0  0  0  0  0  0
    4.3511   -1.8455    3.0897 C   0  0  0  0  0  0  0  0  0  0  0  0
    5.6095   -1.8112    2.5769 N   0  0  0  0  0  0  0  0  0  0  0  0
    5.2734   -1.5420    0.9826 S   0  0  0  0  0  0  0  0  0  0  0  0
    3.6275   -1.4583    0.8706 N   0  0  0  0  0  0  0  0  0  0  0  0
    3.2712   -1.6759    2.1612 C   0  0  0  0  0  0  0  0  0  0  0  0
    5.1854   -1.8491    5.4626 C   0  0  0  0  0  0  0  0  0  0  0  0
    5.8995   -0.7191    5.6447 C   0  0  0  0  0  0  0  0  0  0  0  0
    5.7126    0.5482    4.9123 C   0  0  0  0  0  0  0  0  0  0  0  0
    4.8371    0.7863    4.0431 O   0  0  0  0  0  0  0  0  0  0  0  0
    6.6783    1.5146    5.4005 C   0  0  0  0  0  0  0  0  0  0  0  0
    6.9505    2.8036    4.9153 C   0  0  0  0  0  0  0  0  0  0  0  0
    5.9437    3.5242    3.6554 Cl  0  0  0  0  0  0  0  0  0  0  0  0
    8.0335    3.5104    5.4724 C   0  0  0  0  0  0  0  0  0  0  0  0
    8.3957    5.1418    4.9090 Cl  0  0  0  0  0  0  0  0  0  0  0  0
    8.8689    2.8921    6.4353 C   0  0  0  0  0  0  0  0  0  0  0  0
   10.2820    3.7503    7.0633 Cl  0  0  0  0  0  0  0  0  0  0  0  0
    8.5919    1.5788    6.8763 C   0  0  0  0  0  0  0  0  0  0  0  0
    9.8067    0.7110    7.8240 Cl  0  0  0  0  0  0  0  0  0  0  0  0
    7.4291    0.9365    6.4135 C   0  0  0  0  0  0  0  0  0  0  0  0
    6.9159   -0.4350    6.7016 C   0  0  0  0  0  0  0  0  0  0  0  0
    6.9764   -1.0394    7.9161 C   0  0  0  0  0  0  0  0  0  0  0  0
    7.2189   -0.2882    9.1209 C   0  0  0  0  0  0  0  0  0  0  0  0
    7.4055    0.3106   10.0933 N   0  0  0  0  0  0  0  0  0  0  0  0
    6.8221   -2.4645    8.0818 C   0  0  0  0  0  0  0  0  0  0  0  0
    6.7265   -3.6126    8.2304 N   0  0  0  0  0  0  0  0  0  0  0  0
   -5.7883   -0.4604   -5.9101 H   0  0  0  0  0  0  0  0  0  0  0  0
   -0.9186    3.1060   -5.0408 H   0  0  0  0  0  0  0  0  0  0  0  0
   -1.0550   -1.0727   -7.9824 H   0  0  0  0  0  0  0  0  0  0  0  0
    1.7575   -0.8729   -6.0619 H   0  0  0  0  0  0  0  0  0  0  0  0
    2.5314   -0.1639   -8.6386 H   0  0  0  0  0  0  0  0  0  0  0  0
    4.7919   -0.2088   -7.2537 H   0  0  0  0  0  0  0  0  0  0  0  0
    4.8447    1.8828   -5.6944 H   0  0  0  0  0  0  0  0  0  0  0  0
    2.6201    3.2744   -6.0946 H   0  0  0  0  0  0  0  0  0  0  0  0
    3.1782    2.4103   -8.5469 H   0  0  0  0  0  0  0  0  0  0  0  0
    1.4059    2.2342   -8.2465 H   0  0  0  0  0  0  0  0  0  0  0  0
    1.8068    1.0565   -4.6506 H   0  0  0  0  0  0  0  0  0  0  0  0
   -5.6619    2.5056   -3.5357 H   0  0  0  0  0  0  0  0  0  0  0  0
   -3.4186    3.9720   -2.8904 H   0  0  0  0  0  0  0  0  0  0  0  0
   -2.6814    4.5795   -1.3802 H   0  0  0  0  0  0  0  0  0  0  0  0
   -0.9261    3.4610   -2.5868 H   0  0  0  0  0  0  0  0  0  0  0  0
   -1.3548    2.3713   -1.2233 H   0  0  0  0  0  0  0  0  0  0  0  0
   -1.9339    1.9985   -2.8876 H   0  0  0  0  0  0  0  0  0  0  0  0
   -1.8192    2.7950    1.0099 H   0  0  0  0  0  0  0  0  0  0  0  0
   -1.1256    4.3476    2.7828 H   0  0  0  0  0  0  0  0  0  0  0  0
   -3.0835    6.6696    5.7873 H   0  0  0  0  0  0  0  0  0  0  0  0
   -4.1499    5.3456    5.1770 H   0  0  0  0  0  0  0  0  0  0  0  0
   -2.9625    6.1488    4.0679 H   0  0  0  0  0  0  0  0  0  0  0  0
   -3.6528    2.2893    5.5899 H   0  0  0  0  0  0  0  0  0  0  0  0
   -4.3243    0.7022    3.8408 H   0  0  0  0  0  0  0  0  0  0  0  0
   -5.8786    2.0022    1.6424 H   0  0  0  0  0  0  0  0  0  0  0  0
   -8.1217    0.9923    1.7864 H   0  0  0  0  0  0  0  0  0  0  0  0
   -8.8283   -1.3844    3.8823 H   0  0  0  0  0  0  0  0  0  0  0  0
   -9.7906   -2.8624    3.5037 H   0  0  0  0  0  0  0  0  0  0  0  0
   -7.9959   -2.9031    3.3392 H   0  0  0  0  0  0  0  0  0  0  0  0
   -6.4290   -2.8862    0.9909 H   0  0  0  0  0  0  0  0  0  0  0  0
   -4.1795   -1.9004    0.9145 H   0  0  0  0  0  0  0  0  0  0  0  0
    0.0973   -4.2930   -2.2827 H   0  0  0  0  0  0  0  0  0  0  0  0
   -1.2662   -6.3297   -2.0366 H   0  0  0  0  0  0  0  0  0  0  0  0
   -0.0682   -8.7682    0.9842 H   0  0  0  0  0  0  0  0  0  0  0  0
   -1.1812   -9.9979    0.2724 H   0  0  0  0  0  0  0  0  0  0  0  0
   -0.3059   -8.8539   -0.8094 H   0  0  0  0  0  0  0  0  0  0  0  0
   -0.8516   -6.0983    2.2436 H   0  0  0  0  0  0  0  0  0  0  0  0
    0.4945   -4.0546    2.0106 H   0  0  0  0  0  0  0  0  0  0  0  0
    1.6067   -0.6194   -1.8872 H   0  0  0  0  0  0  0  0  0  0  0  0
    3.3909   -0.3939   -3.5584 H   0  0  0  0  0  0  0  0  0  0  0  0
    5.1148   -2.7844   -6.7284 H   0  0  0  0  0  0  0  0  0  0  0  0
    3.5672   -2.4033   -5.8821 H   0  0  0  0  0  0  0  0  0  0  0  0
    4.3930   -3.9978   -5.6023 H   0  0  0  0  0  0  0  0  0  0  0  0
    4.7741   -4.3648   -2.6505 H   0  0  0  0  0  0  0  0  0  0  0  0
    2.9887   -4.6115   -0.9730 H   0  0  0  0  0  0  0  0  0  0  0  0
    5.3009   -2.6955    6.1182 H   0  0  0  0  0  0  0  0  0  0  0  0
  1  2  2  3
  2  3  1  0
  3  4  2  0
  3  5  1  0
  5  6  2  0
  6  7  1  0
  7  8  2  0
  8  9  1  0
  9 10  2  0
 10 11  1  0
 11 12  2  3
 12 13  1  0
 13 14  3  0
 12 15  1  0
 15 16  3  0
  8 17  1  0
 17 18  1  0
 18 19  1  0
 19 20  2  0
 20 21  1  0
 21 22  1  0
 21 23  1  0
  1 24  1  0
 24 25  2  0
 25 26  1  0
 26 27  1  0
 27 28  1  0
 28 29  1  0
 26 30  2  0
 30 31  1  0
 30 32  1  0
 32 33  2  0
 33 34  1  0
 34 35  1  0
 35 36  2  0
 36 37  1  0
 37 38  2  0
 38 39  1  0
 39 40  1  0
 38 41  1  0
 41 42  2  0
 34 43  1  0
 43 44  2  0
 44 45  1  0
 45 46  2  0
 46 47  1  0
 47 48  1  0
 46 49  1  0
 49 50  2  0
 33 51  1  0
 51 52  1  0
 52 53  1  0
 53 54  2  0
 54 55  1  0
 55 56  1  0
 56 57  2  0
 57 58  1  0
 58 59  2  0
 59 60  1  0
 60 61  1  0
 59 62  1  0
 62 63  2  0
 55 64  1  0
 64 65  2  0
 65 66  1  0
 66 67  2  0
 67 68  1  0
 68 69  1  0
 67 70  1  0
 70 71  2  0
 54 72  1  0
 72 73  1  0
 53 74  1  0
 74 75  2  0
 75 76  1  0
 76 77  1  0
 77 78  2  0
 78 79  2  0
 76 80  2  0
 80 81  1  0
 81 82  2  0
 82 83  1  0
 83 84  1  0
 84 85  2  0
 80 86  1  0
 86 87  2  3
 87 88  1  0
 88 89  2  0
 88 90  1  0
 90 91  2  0
 91 92  1  0
 91 93  1  0
 93 94  1  0
 93 95  2  0
 95 96  1  0
 95 97  1  0
 97 98  1  0
 97 99  2  0
 99100  1  0
100101  2  3
101102  1  0
102103  3  0
101104  1  0
104105  3  0
 11  2  1  0
 23 17  1  0
 31 24  1  0
 73 32  1  0
 85 74  1  0
100 87  1  0
 10  5  1  0
 22 18  1  0
 42 35  1  0
 50 43  1  0
 72 51  2  0
 79 75  1  0
 85 81  1  0
 99 90  1  0
 23  7  1  0
 63 56  1  0
 71 64  1  0
  1106  1  0
  6107  1  0
  9108  1  0
 17109  1  0
 18110  1  0
 19111  1  0
 20112  1  0
 21113  1  0
 22114  1  0
 22115  1  0
 23116  1  0
 25117  1  0
 28118  1  0
 28119  1  0
 29120  1  0
 29121  1  0
 29122  1  0
 36123  1  0
 37124  1  0
 40125  1  0
 40126  1  0
 40127  1  0
 41128  1  0
 42129  1  0
 44130  1  0
 45131  1  0
 48132  1  0
 48133  1  0
 48134  1  0
 49135  1  0
 50136  1  0
 57137  1  0
 58138  1  0
 61139  1  0
 61140  1  0
 61141  1  0
 62142  1  0
 63143  1  0
 65144  1  0
 66145  1  0
 69146  1  0
 69147  1  0
 69148  1  0
 70149  1  0
 71150  1  0
 86151  1  0
M  END

