
     RDKit          3D

194215  0  0  0  0  0  0  0  0999 V2000
   -2.2832   -2.5465   -6.7515 C   0  0  0  0  0  0  0  0  0  0  0  0
   -2.2908   -3.5605   -5.8588 C   0  0  0  0  0  0  0  0  0  0  0  0
   -1.6481   -3.5002   -4.5307 C   0  0  0  0  0  0  0  0  0  0  0  0
   -1.1509   -2.5081   -3.9329 O   0  0  0  0  0  0  0  0  0  0  0  0
   -1.6717   -4.8465   -3.9944 C   0  0  0  0  0  0  0  0  0  0  0  0
   -1.1675   -5.3245   -2.7851 C   0  0  0  0  0  0  0  0  0  0  0  0
   -1.2623   -6.6511   -2.4447 C   0  0  0  0  0  0  0  0  0  0  0  0
   -1.8605   -7.5284   -3.3136 C   0  0  0  0  0  0  0  0  0  0  0  0
   -2.3625   -7.0387   -4.5363 C   0  0  0  0  0  0  0  0  0  0  0  0
   -2.2768   -5.7172   -4.8768 C   0  0  0  0  0  0  0  0  0  0  0  0
   -2.6798   -4.9730   -6.0550 C   0  0  0  0  0  0  0  0  0  0  0  0
   -3.4565   -5.3756   -7.1255 C   0  0  0  0  0  0  0  0  0  0  0  0
   -3.7318   -6.7463   -7.1800 C   0  0  0  0  0  0  0  0  0  0  0  0
   -3.9926   -8.0050   -7.2307 N   0  0  0  0  0  0  0  0  0  0  0  0
   -4.0194   -4.5217   -7.8915 C   0  0  0  0  0  0  0  0  0  0  0  0
   -4.6390   -3.5685   -8.7468 N   0  0  0  0  0  0  0  0  0  0  0  0
   -1.6798   -8.6874   -2.4118 C   0  0  0  0  0  0  0  0  0  0  0  0
   -2.9430   -9.0136   -1.6330 C   0  0  0  0  0  0  0  0  0  0  0  0
   -2.5489   -9.8026   -0.4405 C   0  0  0  0  0  0  0  0  0  0  0  0
   -1.8444   -8.9828    0.3925 C   0  0  0  0  0  0  0  0  0  0  0  0
   -1.8398   -7.6626   -0.2417 C   0  0  0  0  0  0  0  0  0  0  0  0
   -3.2141   -7.6452   -0.9408 C   0  0  0  0  0  0  0  0  0  0  0  0
   -0.9730   -7.7165   -1.4692 C   0  0  0  0  0  0  0  0  0  0  0  0
   -1.5195   -1.3500   -6.2904 C   0  0  0  0  0  0  0  0  0  0  0  0
   -1.7942   -0.0619   -6.0871 C   0  0  0  0  0  0  0  0  0  0  0  0
   -0.7725    0.7591   -5.6096 C   0  0  0  0  0  0  0  0  0  0  0  0
   -1.0308    2.4650   -5.1552 S   0  0  0  0  0  0  0  0  0  0  0  0
   -2.7720    2.7749   -4.7818 C   0  0  0  0  0  0  0  0  0  0  0  0
   -3.1630    1.9492   -3.5809 C   0  0  0  0  0  0  0  0  0  0  0  0
    0.4284    0.1422   -5.4103 C   0  0  0  0  0  0  0  0  0  0  0  0
    0.1747   -1.4270   -5.8341 S   0  0  0  0  0  0  0  0  0  0  0  0
    1.5902    0.7348   -4.6702 C   0  0  0  0  0  0  0  0  0  0  0  0
    2.3901    0.0098   -3.8160 C   0  0  0  0  0  0  0  0  0  0  0  0
    2.7072   -1.3760   -3.9567 N   0  0  0  0  0  0  0  0  0  0  0  0
    3.2468   -1.9291   -5.1554 C   0  0  0  0  0  0  0  0  0  0  0  0
    2.8170   -3.1034   -5.6740 C   0  0  0  0  0  0  0  0  0  0  0  0
    3.3318   -3.6063   -6.8758 C   0  0  0  0  0  0  0  0  0  0  0  0
    4.2880   -2.8866   -7.5442 C   0  0  0  0  0  0  0  0  0  0  0  0
    4.9676   -3.4270   -9.1306 S   0  0  0  0  0  0  0  0  0  0  0  0
    3.9034   -2.6743  -10.4025 C   0  0  0  0  0  0  0  0  0  0  0  0
    4.7030   -1.7122   -6.9774 C   0  0  0  0  0  0  0  0  0  0  0  0
    4.2180   -1.1944   -5.7927 C   0  0  0  0  0  0  0  0  0  0  0  0
    2.4891   -2.1467   -2.7994 C   0  0  0  0  0  0  0  0  0  0  0  0
    1.3861   -2.0478   -1.9814 C   0  0  0  0  0  0  0  0  0  0  0  0
    1.2526   -2.8277   -0.8722 C   0  0  0  0  0  0  0  0  0  0  0  0
    2.1843   -3.7545   -0.4775 C   0  0  0  0  0  0  0  0  0  0  0  0
    2.0363   -4.7402    0.9914 S   0  0  0  0  0  0  0  0  0  0  0  0
    0.5277   -4.2416    1.9000 C   0  0  0  0  0  0  0  0  0  0  0  0
    3.2887   -3.8878   -1.2436 C   0  0  0  0  0  0  0  0  0  0  0  0
    3.4593   -3.1020   -2.4027 C   0  0  0  0  0  0  0  0  0  0  0  0
    2.9592    0.8075   -2.8384 C   0  0  0  0  0  0  0  0  0  0  0  0
    3.4916    0.4621   -1.1928 S   0  0  0  0  0  0  0  0  0  0  0  0
    3.3933    2.0432   -0.5709 C   0  0  0  0  0  0  0  0  0  0  0  0
    3.0068    2.8071   -1.6151 C   0  0  0  0  0  0  0  0  0  0  0  0
    2.9492    4.2185   -1.5527 N   0  0  0  0  0  0  0  0  0  0  0  0
    4.1678    4.9566   -1.4274 C   0  0  0  0  0  0  0  0  0  0  0  0
    4.2908    6.0033   -0.5510 C   0  0  0  0  0  0  0  0  0  0  0  0
    5.4913    6.7161   -0.4555 C   0  0  0  0  0  0  0  0  0  0  0  0
    6.5478    6.4119   -1.2052 C   0  0  0  0  0  0  0  0  0  0  0  0
    8.1211    7.3222   -1.1597 S   0  0  0  0  0  0  0  0  0  0  0  0
    7.9987    8.6845   -0.0080 C   0  0  0  0  0  0  0  0  0  0  0  0
    6.4573    5.3416   -2.1065 C   0  0  0  0  0  0  0  0  0  0  0  0
    5.2834    4.6490   -2.1924 C   0  0  0  0  0  0  0  0  0  0  0  0
    1.7813    4.9925   -1.7363 C   0  0  0  0  0  0  0  0  0  0  0  0
    1.8574    6.1483   -2.5260 C   0  0  0  0  0  0  0  0  0  0  0  0
    0.7385    6.8898   -2.7653 C   0  0  0  0  0  0  0  0  0  0  0  0
   -0.4996    6.5066   -2.2287 C   0  0  0  0  0  0  0  0  0  0  0  0
   -1.9371    7.5214   -2.5466 S   0  0  0  0  0  0  0  0  0  0  0  0
   -1.4526    8.9368   -3.5680 C   0  0  0  0  0  0  0  0  0  0  0  0
   -0.5857    5.3905   -1.4623 C   0  0  0  0  0  0  0  0  0  0  0  0
    0.5616    4.6419   -1.2227 C   0  0  0  0  0  0  0  0  0  0  0  0
    2.7881    2.0550   -2.7630 C   0  0  0  0  0  0  0  0  0  0  0  0
    1.7223    2.3363   -4.1429 S   0  0  0  0  0  0  0  0  0  0  0  0
    3.0700    2.3387    0.9089 C   0  0  0  0  0  0  0  0  0  0  0  0
    2.4270    3.3419    1.4925 C   0  0  0  0  0  0  0  0  0  0  0  0
    1.8138    3.1095    2.6763 C   0  0  0  0  0  0  0  0  0  0  0  0
    0.8924    3.8911    3.3450 C   0  0  0  0  0  0  0  0  0  0  0  0
    0.6989    5.2923    3.0202 C   0  0  0  0  0  0  0  0  0  0  0  0
    0.6474    6.4719    2.7662 C   0  0  0  0  0  0  0  0  0  0  0  0
    1.3221    7.6078    2.7805 C   0  0  0  0  0  0  0  0  0  0  0  0
    2.5854    7.6152    3.2174 C   0  0  0  0  0  0  0  0  0  0  0  0
    3.6025    8.7395    3.3609 C   0  0  0  0  0  0  0  0  0  0  0  0
    3.3840    9.3015    4.7400 C   0  0  0  0  0  0  0  0  0  0  0  0
    2.8774    5.8938    3.6547 Se  0  0  0  0  0  2  0  0  0  0  0  0
    0.1325    3.4206    4.4137 C   0  0  0  0  0  0  0  0  0  0  0  0
    0.2368    2.1219    4.9147 C   0  0  0  0  0  0  0  0  0  0  0  0
    1.1736    1.3627    4.2622 C   0  0  0  0  0  0  0  0  0  0  0  0
    1.4500   -0.0446    4.5791 C   0  0  0  0  0  0  0  0  0  0  0  0
    0.8412   -1.0599    5.2045 C   0  0  0  0  0  0  0  0  0  0  0  0
    1.4411   -2.2093    5.4639 C   0  0  0  0  0  0  0  0  0  0  0  0
    2.6839   -2.5107    5.1496 C   0  0  0  0  0  0  0  0  0  0  0  0
    3.6819   -3.5652    5.2676 C   0  0  0  0  0  0  0  0  0  0  0  0
    3.5503   -4.5772    4.1243 C   0  0  0  0  0  0  0  0  0  0  0  0
    3.1662   -0.7925    4.2763 Se  0  0  0  0  0  2  0  0  0  0  0  0
    1.9263    1.8286    3.1944 C   0  0  0  0  0  0  0  0  0  0  0  0
    2.8911    1.0275    2.0222 S   0  0  0  0  0  0  0  0  0  0  0  0
   -0.5859    1.8072    5.8803 C   0  0  0  0  0  0  0  0  0  0  0  0
   -1.5476    2.8072    6.3441 C   0  0  0  0  0  0  0  0  0  0  0  0
   -1.1573    4.0501    5.3868 S   0  0  0  0  0  0  0  0  0  0  0  0
   -2.4295    2.2317    7.4231 C   0  0  0  0  0  0  0  0  0  0  0  0
   -3.4238    1.3939    7.2175 C   0  0  0  0  0  0  0  0  0  0  0  0
   -4.3814    0.6254    7.7356 C   0  0  0  0  0  0  0  0  0  0  0  0
   -4.4184    0.5188    9.0933 O   0  0  0  0  0  0  0  0  0  0  0  0
   -5.3099   -0.0500    6.9584 C   0  0  0  0  0  0  0  0  0  0  0  0
   -6.4307   -0.8586    7.2655 C   0  0  0  0  0  0  0  0  0  0  0  0
   -7.2449   -1.3335    6.2675 C   0  0  0  0  0  0  0  0  0  0  0  0
   -6.9231   -0.9809    5.0140 C   0  0  0  0  0  0  0  0  0  0  0  0
   -5.7992   -0.1699    4.7061 C   0  0  0  0  0  0  0  0  0  0  0  0
   -5.0004    0.2663    5.6928 C   0  0  0  0  0  0  0  0  0  0  0  0
   -3.6989    1.2776    5.6556 C   0  0  0  0  0  0  0  0  0  0  0  0
   -3.7641    1.8845    4.5861 C   0  0  0  0  0  0  0  0  0  0  0  0
   -4.0379    1.0249    3.3626 C   0  0  0  0  0  0  0  0  0  0  0  0
   -4.2524    0.3397    2.3885 N   0  0  0  0  0  0  0  0  0  0  0  0
   -3.8767    3.3005    4.1379 C   0  0  0  0  0  0  0  0  0  0  0  0
   -3.9479    4.3069    3.8350 N   0  0  0  0  0  0  0  0  0  0  0  0
   -8.0946   -1.5959    4.3868 C   0  0  0  0  0  0  0  0  0  0  0  0
   -7.9723   -2.7934    3.5388 C   0  0  0  0  0  0  0  0  0  0  0  0
   -9.3007   -3.5232    3.5941 C   0  0  0  0  0  0  0  0  0  0  0  0
   -9.4465   -4.0639    4.7975 C   0  0  0  0  0  0  0  0  0  0  0  0
   -8.2661   -3.6044    5.6261 C   0  0  0  0  0  0  0  0  0  0  0  0
   -7.2044   -3.7355    4.5090 C   0  0  0  0  0  0  0  0  0  0  0  0
   -8.4186   -2.1487    5.7892 C   0  0  0  0  0  0  0  0  0  0  0  0
   -2.7090   -2.5392   -7.6675 H   0  0  0  0  0  0  0  0  0  0  0  0
   -0.7268   -4.6570   -2.0513 H   0  0  0  0  0  0  0  0  0  0  0  0
   -2.7454   -7.7759   -5.1905 H   0  0  0  0  0  0  0  0  0  0  0  0
   -1.1054   -9.5266   -2.7918 H   0  0  0  0  0  0  0  0  0  0  0  0
   -3.7455   -9.3942   -2.2247 H   0  0  0  0  0  0  0  0  0  0  0  0
   -2.7639  -10.8282   -0.1879 H   0  0  0  0  0  0  0  0  0  0  0  0
   -1.3750   -9.2945    1.3049 H   0  0  0  0  0  0  0  0  0  0  0  0
   -1.6970   -6.8280    0.4603 H   0  0  0  0  0  0  0  0  0  0  0  0
   -3.2902   -6.8392   -1.6690 H   0  0  0  0  0  0  0  0  0  0  0  0
   -4.0425   -7.7629   -0.2278 H   0  0  0  0  0  0  0  0  0  0  0  0
    0.1161   -7.9276   -1.2822 H   0  0  0  0  0  0  0  0  0  0  0  0
   -2.8204    0.3222   -6.2682 H   0  0  0  0  0  0  0  0  0  0  0  0
   -3.3762    2.4066   -5.6621 H   0  0  0  0  0  0  0  0  0  0  0  0
   -3.0000    3.8242   -4.6464 H   0  0  0  0  0  0  0  0  0  0  0  0
   -2.7464    2.3755   -2.6795 H   0  0  0  0  0  0  0  0  0  0  0  0
   -4.2608    1.9289   -3.4605 H   0  0  0  0  0  0  0  0  0  0  0  0
   -2.7994    0.9517   -3.7670 H   0  0  0  0  0  0  0  0  0  0  0  0
    2.0526   -3.7080   -5.1970 H   0  0  0  0  0  0  0  0  0  0  0  0
    2.9667   -4.5490   -7.3049 H   0  0  0  0  0  0  0  0  0  0  0  0
    4.4874   -2.5339  -11.3486 H   0  0  0  0  0  0  0  0  0  0  0  0
    3.0038   -3.2354  -10.6222 H   0  0  0  0  0  0  0  0  0  0  0  0
    3.6094   -1.6805  -10.0328 H   0  0  0  0  0  0  0  0  0  0  0  0
    5.4728   -1.1119   -7.5072 H   0  0  0  0  0  0  0  0  0  0  0  0
    4.5541   -0.2606   -5.3922 H   0  0  0  0  0  0  0  0  0  0  0  0
    0.5693   -1.3583   -2.1851 H   0  0  0  0  0  0  0  0  0  0  0  0
    0.3537   -2.7155   -0.2377 H   0  0  0  0  0  0  0  0  0  0  0  0
    0.4151   -4.9067    2.7728 H   0  0  0  0  0  0  0  0  0  0  0  0
   -0.3440   -4.3920    1.2292 H   0  0  0  0  0  0  0  0  0  0  0  0
    0.5443   -3.1593    2.1678 H   0  0  0  0  0  0  0  0  0  0  0  0
    4.0606   -4.6015   -0.9894 H   0  0  0  0  0  0  0  0  0  0  0  0
    4.3588   -3.2560   -2.9918 H   0  0  0  0  0  0  0  0  0  0  0  0
    3.4944    6.3170    0.1090 H   0  0  0  0  0  0  0  0  0  0  0  0
    5.5174    7.5199    0.2552 H   0  0  0  0  0  0  0  0  0  0  0  0
    7.2843    9.4812   -0.3568 H   0  0  0  0  0  0  0  0  0  0  0  0
    8.9823    9.2402    0.0205 H   0  0  0  0  0  0  0  0  0  0  0  0
    7.7226    8.4405    1.0159 H   0  0  0  0  0  0  0  0  0  0  0  0
    7.3402    5.0723   -2.7262 H   0  0  0  0  0  0  0  0  0  0  0  0
    5.1996    3.8092   -2.8910 H   0  0  0  0  0  0  0  0  0  0  0  0
    2.7891    6.4263   -2.9327 H   0  0  0  0  0  0  0  0  0  0  0  0
    0.7829    7.8184   -3.3838 H   0  0  0  0  0  0  0  0  0  0  0  0
   -1.2675    8.5714   -4.6323 H   0  0  0  0  0  0  0  0  0  0  0  0
   -2.1924    9.7502   -3.5607 H   0  0  0  0  0  0  0  0  0  0  0  0
   -0.4942    9.3689   -3.2532 H   0  0  0  0  0  0  0  0  0  0  0  0
   -1.5568    5.0907   -1.0247 H   0  0  0  0  0  0  0  0  0  0  0  0
    0.4414    3.7716   -0.6150 H   0  0  0  0  0  0  0  0  0  0  0  0
    2.4024    4.3413    1.0072 H   0  0  0  0  0  0  0  0  0  0  0  0
   -0.4937    6.6516    2.2911 H   0  0  0  0  0  0  0  0  0  0  0  0
    0.8818    8.6068    2.4407 H   0  0  0  0  0  0  0  0  0  0  0  0
    4.6163    8.2946    3.2745 H   0  0  0  0  0  0  0  0  0  0  0  0
    3.3632    9.5008    2.6241 H   0  0  0  0  0  0  0  0  0  0  0  0
    2.3912    9.8090    4.8670 H   0  0  0  0  0  0  0  0  0  0  0  0
    4.1452   10.0872    4.9348 H   0  0  0  0  0  0  0  0  0  0  0  0
    3.4599    8.5017    5.5163 H   0  0  0  0  0  0  0  0  0  0  0  0
   -0.2693   -0.9195    5.4868 H   0  0  0  0  0  0  0  0  0  0  0  0
    0.8489   -3.0405    6.0022 H   0  0  0  0  0  0  0  0  0  0  0  0
    4.7186   -3.2017    5.3695 H   0  0  0  0  0  0  0  0  0  0  0  0
    3.4584   -4.1428    6.2137 H   0  0  0  0  0  0  0  0  0  0  0  0
    2.4759   -4.6447    3.8885 H   0  0  0  0  0  0  0  0  0  0  0  0
    4.0827   -4.2126    3.2685 H   0  0  0  0  0  0  0  0  0  0  0  0
    3.8939   -5.5440    4.5194 H   0  0  0  0  0  0  0  0  0  0  0  0
   -0.6168    0.8421    6.4345 H   0  0  0  0  0  0  0  0  0  0  0  0
   -2.1698    2.5291    8.4700 H   0  0  0  0  0  0  0  0  0  0  0  0
   -6.6171   -1.0693    8.3047 H   0  0  0  0  0  0  0  0  0  0  0  0
   -5.7269    0.0794    3.6928 H   0  0  0  0  0  0  0  0  0  0  0  0
   -8.8563   -0.8300    4.0642 H   0  0  0  0  0  0  0  0  0  0  0  0
   -7.5641   -2.7514    2.5528 H   0  0  0  0  0  0  0  0  0  0  0  0
   -9.9736   -3.5630    2.7780 H   0  0  0  0  0  0  0  0  0  0  0  0
  -10.2120   -4.6869    5.1922 H   0  0  0  0  0  0  0  0  0  0  0  0
   -8.0677   -4.2268    6.4734 H   0  0  0  0  0  0  0  0  0  0  0  0
   -6.2649   -3.2736    4.7855 H   0  0  0  0  0  0  0  0  0  0  0  0
   -7.1544   -4.7519    4.1324 H   0  0  0  0  0  0  0  0  0  0  0  0
   -9.3546   -1.7245    6.2269 H   0  0  0  0  0  0  0  0  0  0  0  0
  1  2  2  3
  2  3  1  0
  3  4  2  0
  3  5  1  0
  5  6  2  0
  6  7  1  0
  7  8  2  0
  8  9  1  0
  9 10  2  0
 10 11  1  0
 11 12  2  3
 12 13  1  0
 13 14  3  0
 12 15  1  0
 15 16  3  0
  8 17  1  0
 17 18  1  0
 18 19  1  0
 19 20  2  0
 20 21  1  0
 21 22  1  0
 21 23  1  0
  1 24  1  0
 24 25  2  0
 25 26  1  0
 26 27  1  0
 27 28  1  0
 28 29  1  0
 26 30  2  0
 30 31  1  0
 30 32  1  0
 32 33  2  0
 33 34  1  0
 34 35  1  0
 35 36  2  0
 36 37  1  0
 37 38  2  0
 38 39  1  0
 39 40  1  0
 38 41  1  0
 41 42  2  0
 34 43  1  0
 43 44  2  0
 44 45  1  0
 45 46  2  0
 46 47  1  0
 47 48  1  0
 46 49  1  0
 49 50  2  0
 33 51  1  0
 51 52  1  0
 52 53  1  0
 53 54  2  0
 54 55  1  0
 55 56  1  0
 56 57  2  0
 57 58  1  0
 58 59  2  0
 59 60  1  0
 60 61  1  0
 59 62  1  0
 62 63  2  0
 55 64  1  0
 64 65  2  0
 65 66  1  0
 66 67  2  0
 67 68  1  0
 68 69  1  0
 67 70  1  0
 70 71  2  0
 54 72  1  0
 72 73  1  0
 53 74  1  0
 74 75  2  0
 75 76  1  0
 76 77  2  0
 77 78  1  0
 78 79  2  0
 79 80  1  0
 80 81  2  0
 81 82  1  0
 82 83  1  0
 81 84  1  0
 77 85  1  0
 85 86  2  0
 86 87  1  0
 87 88  1  0
 88 89  2  0
 89 90  1  0
 90 91  2  0
 91 92  1  0
 92 93  1  0
 91 94  1  0
 87 95  2  0
 95 96  1  0
 86 97  1  0
 97 98  2  0
 98 99  1  0
 98100  1  0
100101  2  3
101102  1  0
102103  2  0
102104  1  0
104105  2  0
105106  1  0
106107  2  0
107108  1  0
108109  2  0
109110  1  0
110111  2  3
111112  1  0
112113  3  0
111114  1  0
114115  3  0
107116  1  0
116117  1  0
117118  1  0
118119  2  0
119120  1  0
120121  1  0
120122  1  0
 11  2  1  0
 23 17  1  0
 31 24  1  0
 73 32  1  0
 96 74  1  0
110101  1  0
122116  1  0
 10  5  1  0
 22 18  1  0
 42 35  1  0
 50 43  1  0
 72 51  2  0
 95 76  1  0
109104  1  0
121117  1  0
 23  7  1  0
 63 56  1  0
 71 64  1  0
 84 78  1  0
 99 85  1  0
122106  1  0
 94 88  1  0
  1123  1  0
  6124  1  0
  9125  1  0
 17126  1  0
 18127  1  0
 19128  1  0
 20129  1  0
 21130  1  0
 22131  1  0
 22132  1  0
 23133  1  0
 25134  1  0
 28135  1  0
 28136  1  0
 29137  1  0
 29138  1  0
 29139  1  0
 36140  1  0
 37141  1  0
 40142  1  0
 40143  1  0
 40144  1  0
 41145  1  0
 42146  1  0
 44147  1  0
 45148  1  0
 48149  1  0
 48150  1  0
 48151  1  0
 49152  1  0
 50153  1  0
 57154  1  0
 58155  1  0
 61156  1  0
 61157  1  0
 61158  1  0
 62159  1  0
 63160  1  0
 65161  1  0
 66162  1  0
 69163  1  0
 69164  1  0
 69165  1  0
 70166  1  0
 71167  1  0
 75168  1  0
 79169  1  0
 80170  1  0
 82171  1  0
 82172  1  0
 83173  1  0
 83174  1  0
 83175  1  0
 89176  1  0
 90177  1  0
 92178  1  0
 92179  1  0
 93180  1  0
 93181  1  0
 93182  1  0
 97183  1  0
100184  1  0
105185  1  0
108186  1  0
116187  1  0
117188  1  0
118189  1  0
119190  1  0
120191  1  0
121192  1  0
121193  1  0
122194  1  0
M  END

