
     RDKit          3D

222247  0  0  0  0  0  0  0  0999 V2000
    9.7396   -1.8024   -5.1384 C   0  0  0  0  0  0  0  0  0  0  0  0
    8.6661   -2.1351   -5.9040 C   0  0  0  0  0  0  0  0  0  0  0  0
    7.2543   -1.9921   -5.4847 C   0  0  0  0  0  0  0  0  0  0  0  0
    6.8301   -1.5932   -4.3698 O   0  0  0  0  0  0  0  0  0  0  0  0
    6.3934   -2.3688   -6.5693 C   0  0  0  0  0  0  0  0  0  0  0  0
    4.9772   -2.3132   -6.5744 C   0  0  0  0  0  0  0  0  0  0  0  0
    4.4060   -2.7169   -7.7587 C   0  0  0  0  0  0  0  0  0  0  0  0
    5.1683   -3.1817   -8.8737 C   0  0  0  0  0  0  0  0  0  0  0  0
    6.5527   -3.2381   -8.8751 C   0  0  0  0  0  0  0  0  0  0  0  0
    7.1789   -2.7770   -7.6762 C   0  0  0  0  0  0  0  0  0  0  0  0
    8.6329   -2.6388   -7.3273 C   0  0  0  0  0  0  0  0  0  0  0  0
    9.6902   -2.8908   -8.1520 C   0  0  0  0  0  0  0  0  0  0  0  0
   11.0626   -2.8027   -7.7345 C   0  0  0  0  0  0  0  0  0  0  0  0
   12.1731   -2.7406   -7.4162 N   0  0  0  0  0  0  0  0  0  0  0  0
    9.5408   -3.2389   -9.5449 C   0  0  0  0  0  0  0  0  0  0  0  0
    9.4489   -3.5198  -10.6635 N   0  0  0  0  0  0  0  0  0  0  0  0
    3.9107   -3.4275   -9.6539 C   0  0  0  0  0  0  0  0  0  0  0  0
    3.4100   -4.8958   -9.8076 C   0  0  0  0  0  0  0  0  0  0  0  0
    3.8027   -5.7061   -8.5921 C   0  0  0  0  0  0  0  0  0  0  0  0
    3.0792   -5.2423   -7.5741 C   0  0  0  0  0  0  0  0  0  0  0  0
    2.2257   -4.1258   -8.1258 C   0  0  0  0  0  0  0  0  0  0  0  0
    1.9370   -4.7003   -9.5009 C   0  0  0  0  0  0  0  0  0  0  0  0
    3.1295   -2.9193   -8.5216 C   0  0  0  0  0  0  0  0  0  0  0  0
    9.6046   -1.2879   -3.7671 C   0  0  0  0  0  0  0  0  0  0  0  0
    9.1610   -2.0868   -2.7171 C   0  0  0  0  0  0  0  0  0  0  0  0
    8.3621   -1.3924   -1.7929 C   0  0  0  0  0  0  0  0  0  0  0  0
    7.4801   -1.9849   -0.8600 C   0  0  0  0  0  0  0  0  0  0  0  0
    7.6709   -3.3355   -0.2781 C   0  0  0  0  0  0  0  0  0  0  0  0
    7.9708   -4.7694   -1.1163 S   0  0  0  0  0  0  0  0  0  0  0  0
    8.1732   -5.7483    0.2340 C   0  0  0  0  0  0  0  0  0  0  0  0
    8.6429   -7.1704    0.1930 C   0  0  0  0  0  0  0  0  0  0  0  0
   10.1555   -7.2434    0.3675 C   0  0  0  0  0  0  0  0  0  0  0  0
    8.0136   -4.9635    1.3719 C   0  0  0  0  0  0  0  0  0  0  0  0
    8.1940   -5.5857    3.0084 Cl  0  0  0  0  0  0  0  0  0  0  0  0
    7.7287   -3.6203    1.0898 C   0  0  0  0  0  0  0  0  0  0  0  0
    7.5657   -2.4050    2.3477 Cl  0  0  0  0  0  0  0  0  0  0  0  0
    6.3785   -1.2037   -0.4770 C   0  0  0  0  0  0  0  0  0  0  0  0
    6.2739    0.1562   -0.7839 C   0  0  0  0  0  0  0  0  0  0  0  0
    7.2939    0.8132   -1.5000 C   0  0  0  0  0  0  0  0  0  0  0  0
    7.2332    2.2704   -1.7452 C   0  0  0  0  0  0  0  0  0  0  0  0
    7.2290    2.9155   -2.9767 C   0  0  0  0  0  0  0  0  0  0  0  0
    7.0451    4.3008   -2.8827 C   0  0  0  0  0  0  0  0  0  0  0  0
    6.8761    4.7471   -1.5759 C   0  0  0  0  0  0  0  0  0  0  0  0
    6.6338    6.1666   -1.1561 C   0  0  0  0  0  0  0  0  0  0  0  0
    5.4362    6.2783   -0.2185 C   0  0  0  0  0  0  0  0  0  0  0  0
    7.0004    3.4286   -0.5404 S   0  0  0  0  0  0  0  0  0  0  0  0
    8.2719   -0.0171   -2.0770 C   0  0  0  0  0  0  0  0  0  0  0  0
    9.1508    0.3088   -3.4712 S   0  0  0  0  0  0  0  0  0  0  0  0
    4.9972    0.6761   -0.5455 C   0  0  0  0  0  0  0  0  0  0  0  0
    4.0666   -0.2948   -0.1745 C   0  0  0  0  0  0  0  0  0  0  0  0
    4.8736   -1.7683    0.0174 S   0  0  0  0  0  0  0  0  0  0  0  0
    2.5973   -0.1483   -0.1832 C   0  0  0  0  0  0  0  0  0  0  0  0
    1.8474    0.9761   -0.5772 C   0  0  0  0  0  0  0  0  0  0  0  0
    2.3536    2.1527   -1.2429 N   0  0  0  0  0  0  0  0  0  0  0  0
    2.0755    3.4441   -0.6554 C   0  0  0  0  0  0  0  0  0  0  0  0
    1.5786    4.4999   -1.4398 C   0  0  0  0  0  0  0  0  0  0  0  0
    1.2974    5.7406   -0.8682 C   0  0  0  0  0  0  0  0  0  0  0  0
    1.4606    5.9333    0.5066 C   0  0  0  0  0  0  0  0  0  0  0  0
    1.0739    7.5229    1.2443 S   0  0  0  0  0  0  0  0  0  0  0  0
   -0.7265    7.2571    1.1915 C   0  0  0  0  0  0  0  0  0  0  0  0
    1.9368    4.8841    1.3046 C   0  0  0  0  0  0  0  0  0  0  0  0
    2.2551    3.6497    0.7260 C   0  0  0  0  0  0  0  0  0  0  0  0
    2.8367    2.0625   -2.6067 C   0  0  0  0  0  0  0  0  0  0  0  0
    2.3305    1.0914   -3.4963 C   0  0  0  0  0  0  0  0  0  0  0  0
    2.7139    1.0910   -4.8391 C   0  0  0  0  0  0  0  0  0  0  0  0
    3.6145    2.0549   -5.3138 C   0  0  0  0  0  0  0  0  0  0  0  0
    4.0294    2.1287   -7.0593 S   0  0  0  0  0  0  0  0  0  0  0  0
    5.4664    1.0235   -6.9669 C   0  0  0  0  0  0  0  0  0  0  0  0
    4.1520    2.9941   -4.4330 C   0  0  0  0  0  0  0  0  0  0  0  0
    3.7726    2.9955   -3.0893 C   0  0  0  0  0  0  0  0  0  0  0  0
    0.4864    0.7511   -0.4121 C   0  0  0  0  0  0  0  0  0  0  0  0
   -0.8678    1.7070   -0.5860 S   0  0  0  0  0  0  0  0  0  0  0  0
   -1.9623    0.4885   -0.1071 C   0  0  0  0  0  0  0  0  0  0  0  0
   -1.2456   -0.6999    0.1428 C   0  0  0  0  0  0  0  0  0  0  0  0
   -1.8359   -2.0010    0.3552 N   0  0  0  0  0  0  0  0  0  0  0  0
   -2.7919   -2.4978   -0.6092 C   0  0  0  0  0  0  0  0  0  0  0  0
   -3.8641   -3.3074   -0.1976 C   0  0  0  0  0  0  0  0  0  0  0  0
   -4.7926   -3.7818   -1.1296 C   0  0  0  0  0  0  0  0  0  0  0  0
   -4.6542   -3.4587   -2.4843 C   0  0  0  0  0  0  0  0  0  0  0  0
   -5.8456   -4.0611   -3.6797 S   0  0  0  0  0  0  0  0  0  0  0  0
   -6.9076   -2.5927   -3.5227 C   0  0  0  0  0  0  0  0  0  0  0  0
   -3.5826   -2.6625   -2.9063 C   0  0  0  0  0  0  0  0  0  0  0  0
   -2.6636   -2.1784   -1.9765 C   0  0  0  0  0  0  0  0  0  0  0  0
   -1.2822   -2.8824    1.3575 C   0  0  0  0  0  0  0  0  0  0  0  0
   -0.8974   -2.3775    2.6136 C   0  0  0  0  0  0  0  0  0  0  0  0
   -0.3100   -3.2212    3.5641 C   0  0  0  0  0  0  0  0  0  0  0  0
   -0.1117   -4.5755    3.2742 C   0  0  0  0  0  0  0  0  0  0  0  0
    0.6315   -5.6575    4.4928 S   0  0  0  0  0  0  0  0  0  0  0  0
    2.3134   -5.4563    3.8270 C   0  0  0  0  0  0  0  0  0  0  0  0
   -0.4957   -5.0865    2.0305 C   0  0  0  0  0  0  0  0  0  0  0  0
   -1.0608   -4.2435    1.0723 C   0  0  0  0  0  0  0  0  0  0  0  0
    0.1315   -0.4877    0.0021 C   0  0  0  0  0  0  0  0  0  0  0  0
    1.5173   -1.4035    0.2464 S   0  0  0  0  0  0  0  0  0  0  0  0
   -3.2878    0.8289    0.4301 C   0  0  0  0  0  0  0  0  0  0  0  0
   -3.5177    1.9778    1.1800 C   0  0  0  0  0  0  0  0  0  0  0  0
   -4.7937    2.0255    1.7415 C   0  0  0  0  0  0  0  0  0  0  0  0
   -5.2553    3.0103    2.6237 C   0  0  0  0  0  0  0  0  0  0  0  0
   -4.4119    4.1353    3.0578 C   0  0  0  0  0  0  0  0  0  0  0  0
   -3.2451    4.0391    4.2638 S   0  0  0  0  0  0  0  0  0  0  0  0
   -2.9810    5.6977    4.3973 C   0  0  0  0  0  0  0  0  0  0  0  0
   -2.0665    6.3312    5.4056 C   0  0  0  0  0  0  0  0  0  0  0  0
   -0.6048    6.2022    4.9859 C   0  0  0  0  0  0  0  0  0  0  0  0
   -3.8207    6.3488    3.4972 C   0  0  0  0  0  0  0  0  0  0  0  0
   -3.9091    8.1005    3.3366 Cl  0  0  0  0  0  0  0  0  0  0  0  0
   -4.6254    5.4743    2.7535 C   0  0  0  0  0  0  0  0  0  0  0  0
   -5.8237    6.0134    1.5865 Cl  0  0  0  0  0  0  0  0  0  0  0  0
   -6.5221    2.8201    3.1738 C   0  0  0  0  0  0  0  0  0  0  0  0
   -7.3388    1.7244    2.8588 C   0  0  0  0  0  0  0  0  0  0  0  0
   -6.9013    0.7630    1.9126 C   0  0  0  0  0  0  0  0  0  0  0  0
   -7.7625   -0.3426    1.4365 C   0  0  0  0  0  0  0  0  0  0  0  0
   -8.5034   -1.2277    2.2185 C   0  0  0  0  0  0  0  0  0  0  0  0
   -9.2862   -2.1155    1.4652 C   0  0  0  0  0  0  0  0  0  0  0  0
   -9.1635   -1.9343    0.0913 C   0  0  0  0  0  0  0  0  0  0  0  0
   -9.8501   -2.7508   -0.9665 C   0  0  0  0  0  0  0  0  0  0  0  0
  -10.4355   -1.8711   -2.0686 C   0  0  0  0  0  0  0  0  0  0  0  0
   -8.0598   -0.6949   -0.1805 S   0  0  0  0  0  0  0  0  0  0  0  0
   -5.5977    0.9386    1.3927 C   0  0  0  0  0  0  0  0  0  0  0  0
   -4.6921   -0.1101    0.4310 S   0  0  0  0  0  0  0  0  0  0  0  0
   -8.5245    1.7043    3.6252 C   0  0  0  0  0  0  0  0  0  0  0  0
   -8.5916    2.7623    4.5338 C   0  0  0  0  0  0  0  0  0  0  0  0
   -7.2374    3.7403    4.3716 S   0  0  0  0  0  0  0  0  0  0  0  0
   -9.4735    2.8877    5.6952 C   0  0  0  0  0  0  0  0  0  0  0  0
   -9.1150    2.2495    6.8199 C   0  0  0  0  0  0  0  0  0  0  0  0
   -8.7041    0.8385    6.8501 C   0  0  0  0  0  0  0  0  0  0  0  0
   -9.0907   -0.0509    6.0428 O   0  0  0  0  0  0  0  0  0  0  0  0
   -7.7866    0.6204    7.9477 C   0  0  0  0  0  0  0  0  0  0  0  0
   -7.0525   -0.5549    8.2315 C   0  0  0  0  0  0  0  0  0  0  0  0
   -6.0639   -0.3805    9.1796 C   0  0  0  0  0  0  0  0  0  0  0  0
   -5.7704    0.8802    9.7833 C   0  0  0  0  0  0  0  0  0  0  0  0
   -6.5047    2.0286    9.5319 C   0  0  0  0  0  0  0  0  0  0  0  0
   -7.5814    1.8511    8.6142 C   0  0  0  0  0  0  0  0  0  0  0  0
   -8.4788    2.8860    8.0272 C   0  0  0  0  0  0  0  0  0  0  0  0
   -8.7279    4.1075    8.5604 C   0  0  0  0  0  0  0  0  0  0  0  0
   -8.3263    4.4552    9.9014 C   0  0  0  0  0  0  0  0  0  0  0  0
   -8.0167    4.7372   10.9766 N   0  0  0  0  0  0  0  0  0  0  0  0
   -9.3854    5.1577    7.8218 C   0  0  0  0  0  0  0  0  0  0  0  0
   -9.8523    6.0087    7.1990 N   0  0  0  0  0  0  0  0  0  0  0  0
   -4.5986    0.2836   10.5087 C   0  0  0  0  0  0  0  0  0  0  0  0
   -4.7288    0.0535   12.0443 C   0  0  0  0  0  0  0  0  0  0  0  0
   -6.1749   -0.1648   12.4000 C   0  0  0  0  0  0  0  0  0  0  0  0
   -6.5197   -1.3401   11.8708 C   0  0  0  0  0  0  0  0  0  0  0  0
   -5.2848   -1.8873   11.1825 C   0  0  0  0  0  0  0  0  0  0  0  0
   -4.2309   -1.3789   12.1446 C   0  0  0  0  0  0  0  0  0  0  0  0
   -4.9379   -1.0228    9.9310 C   0  0  0  0  0  0  0  0  0  0  0  0
   10.7451   -1.8660   -5.4990 H   0  0  0  0  0  0  0  0  0  0  0  0
    4.3930   -1.9765   -5.7264 H   0  0  0  0  0  0  0  0  0  0  0  0
    7.0692   -3.6062   -9.7438 H   0  0  0  0  0  0  0  0  0  0  0  0
    3.8261   -2.8065  -10.5761 H   0  0  0  0  0  0  0  0  0  0  0  0
    3.6356   -5.3750  -10.7830 H   0  0  0  0  0  0  0  0  0  0  0  0
    4.4711   -6.5593   -8.5563 H   0  0  0  0  0  0  0  0  0  0  0  0
    3.0643   -5.6467   -6.5662 H   0  0  0  0  0  0  0  0  0  0  0  0
    1.3345   -3.8687   -7.5151 H   0  0  0  0  0  0  0  0  0  0  0  0
    1.3555   -5.6537   -9.4720 H   0  0  0  0  0  0  0  0  0  0  0  0
    1.4289   -3.9789  -10.1838 H   0  0  0  0  0  0  0  0  0  0  0  0
    2.5818   -1.9749   -8.7440 H   0  0  0  0  0  0  0  0  0  0  0  0
    9.2235   -3.1610   -2.7857 H   0  0  0  0  0  0  0  0  0  0  0  0
    8.1440   -7.7538    0.9975 H   0  0  0  0  0  0  0  0  0  0  0  0
    8.3718   -7.6305   -0.7839 H   0  0  0  0  0  0  0  0  0  0  0  0
   10.6706   -6.6617   -0.4295 H   0  0  0  0  0  0  0  0  0  0  0  0
   10.4502   -6.8307    1.3563 H   0  0  0  0  0  0  0  0  0  0  0  0
   10.4883   -8.2993    0.3077 H   0  0  0  0  0  0  0  0  0  0  0  0
    7.2977    2.4008   -3.9243 H   0  0  0  0  0  0  0  0  0  0  0  0
    7.0004    4.9530   -3.7434 H   0  0  0  0  0  0  0  0  0  0  0  0
    6.4416    6.7977   -2.0554 H   0  0  0  0  0  0  0  0  0  0  0  0
    7.5401    6.5561   -0.6478 H   0  0  0  0  0  0  0  0  0  0  0  0
    5.6362    5.7394    0.7318 H   0  0  0  0  0  0  0  0  0  0  0  0
    5.2515    7.3442    0.0259 H   0  0  0  0  0  0  0  0  0  0  0  0
    4.5181    5.8592   -0.6943 H   0  0  0  0  0  0  0  0  0  0  0  0
    4.7336    1.6989   -0.7564 H   0  0  0  0  0  0  0  0  0  0  0  0
    1.3988    4.3654   -2.4990 H   0  0  0  0  0  0  0  0  0  0  0  0
    0.9363    6.5458   -1.4942 H   0  0  0  0  0  0  0  0  0  0  0  0
   -1.2245    8.0769    1.7452 H   0  0  0  0  0  0  0  0  0  0  0  0
   -1.0028    6.2878    1.6599 H   0  0  0  0  0  0  0  0  0  0  0  0
   -1.0826    7.2756    0.1397 H   0  0  0  0  0  0  0  0  0  0  0  0
    2.0759    5.0248    2.3679 H   0  0  0  0  0  0  0  0  0  0  0  0
    2.6395    2.8504    1.3472 H   0  0  0  0  0  0  0  0  0  0  0  0
    1.6079    0.3569   -3.1612 H   0  0  0  0  0  0  0  0  0  0  0  0
    2.2847    0.3667   -5.5157 H   0  0  0  0  0  0  0  0  0  0  0  0
    6.3928    1.6161   -7.1327 H   0  0  0  0  0  0  0  0  0  0  0  0
    5.5457    0.4997   -5.9921 H   0  0  0  0  0  0  0  0  0  0  0  0
    5.3686    0.2848   -7.7830 H   0  0  0  0  0  0  0  0  0  0  0  0
    4.8403    3.7473   -4.7913 H   0  0  0  0  0  0  0  0  0  0  0  0
    4.1799    3.7491   -2.4282 H   0  0  0  0  0  0  0  0  0  0  0  0
   -3.9911   -3.5574    0.8483 H   0  0  0  0  0  0  0  0  0  0  0  0
   -5.6180   -4.4000   -0.7995 H   0  0  0  0  0  0  0  0  0  0  0  0
   -7.2660   -2.5075   -2.4777 H   0  0  0  0  0  0  0  0  0  0  0  0
   -6.3388   -1.6763   -3.7947 H   0  0  0  0  0  0  0  0  0  0  0  0
   -7.7781   -2.6972   -4.2021 H   0  0  0  0  0  0  0  0  0  0  0  0
   -3.4708   -2.4140   -3.9515 H   0  0  0  0  0  0  0  0  0  0  0  0
   -1.8450   -1.5671   -2.3255 H   0  0  0  0  0  0  0  0  0  0  0  0
   -1.0482   -1.3356    2.8497 H   0  0  0  0  0  0  0  0  0  0  0  0
   -0.0053   -2.8174    4.5192 H   0  0  0  0  0  0  0  0  0  0  0  0
    2.3498   -5.8118    2.7738 H   0  0  0  0  0  0  0  0  0  0  0  0
    3.0213   -6.0599    4.4321 H   0  0  0  0  0  0  0  0  0  0  0  0
    2.6162   -4.3882    3.8718 H   0  0  0  0  0  0  0  0  0  0  0  0
   -0.3320   -6.1288    1.7938 H   0  0  0  0  0  0  0  0  0  0  0  0
   -1.3150   -4.6523    0.1047 H   0  0  0  0  0  0  0  0  0  0  0  0
   -2.7505    2.7170    1.3753 H   0  0  0  0  0  0  0  0  0  0  0  0
   -2.3147    7.4065    5.5289 H   0  0  0  0  0  0  0  0  0  0  0  0
   -2.2052    5.8341    6.3908 H   0  0  0  0  0  0  0  0  0  0  0  0
    0.0364    6.6944    5.7455 H   0  0  0  0  0  0  0  0  0  0  0  0
   -0.3173    5.1340    4.9194 H   0  0  0  0  0  0  0  0  0  0  0  0
   -0.4397    6.6954    4.0071 H   0  0  0  0  0  0  0  0  0  0  0  0
   -8.4834   -1.2383    3.2992 H   0  0  0  0  0  0  0  0  0  0  0  0
   -9.9294   -2.8612    1.9147 H   0  0  0  0  0  0  0  0  0  0  0  0
   -9.1299   -3.4718   -1.4046 H   0  0  0  0  0  0  0  0  0  0  0  0
  -10.6813   -3.3330   -0.5061 H   0  0  0  0  0  0  0  0  0  0  0  0
  -11.0452   -2.4927   -2.7601 H   0  0  0  0  0  0  0  0  0  0  0  0
   -9.6260   -1.3836   -2.6505 H   0  0  0  0  0  0  0  0  0  0  0  0
  -11.0920   -1.0848   -1.6338 H   0  0  0  0  0  0  0  0  0  0  0  0
   -9.2857    0.9374    3.5684 H   0  0  0  0  0  0  0  0  0  0  0  0
   -9.8918    3.8725    5.7681 H   0  0  0  0  0  0  0  0  0  0  0  0
   -7.2085   -1.4939    7.7123 H   0  0  0  0  0  0  0  0  0  0  0  0
   -6.2145    2.9779    9.9530 H   0  0  0  0  0  0  0  0  0  0  0  0
   -3.6170    0.6782   10.1629 H   0  0  0  0  0  0  0  0  0  0  0  0
   -4.1944    0.7976   12.6726 H   0  0  0  0  0  0  0  0  0  0  0  0
   -6.8062    0.4723   13.0119 H   0  0  0  0  0  0  0  0  0  0  0  0
   -7.4803   -1.8219   11.9854 H   0  0  0  0  0  0  0  0  0  0  0  0
   -5.2900   -2.9827   11.0152 H   0  0  0  0  0  0  0  0  0  0  0  0
   -3.1906   -1.5223   11.7703 H   0  0  0  0  0  0  0  0  0  0  0  0
   -4.3186   -1.8032   13.1677 H   0  0  0  0  0  0  0  0  0  0  0  0
   -4.1419   -1.4426    9.2746 H   0  0  0  0  0  0  0  0  0  0  0  0
  1  2  2  3
  2  3  1  0
  3  4  2  0
  3  5  1  0
  5  6  2  0
  6  7  1  0
  7  8  2  0
  8  9  1  0
  9 10  2  0
 10 11  1  0
 11 12  2  3
 12 13  1  0
 13 14  3  0
 12 15  1  0
 15 16  3  0
  8 17  1  0
 17 18  1  0
 18 19  1  0
 19 20  2  0
 20 21  1  0
 21 22  1  0
 21 23  1  0
  1 24  1  0
 24 25  2  0
 25 26  1  0
 26 27  2  0
 27 28  1  0
 28 29  1  0
 29 30  1  0
 30 31  1  0
 31 32  1  0
 30 33  2  0
 33 34  1  0
 33 35  1  0
 35 36  1  0
 27 37  1  0
 37 38  2  0
 38 39  1  0
 39 40  1  0
 40 41  2  0
 41 42  1  0
 42 43  2  0
 43 44  1  0
 44 45  1  0
 43 46  1  0
 39 47  2  0
 47 48  1  0
 38 49  1  0
 49 50  2  0
 50 51  1  0
 50 52  1  0
 52 53  2  0
 53 54  1  0
 54 55  1  0
 55 56  2  0
 56 57  1  0
 57 58  2  0
 58 59  1  0
 59 60  1  0
 58 61  1  0
 61 62  2  0
 54 63  1  0
 63 64  2  0
 64 65  1  0
 65 66  2  0
 66 67  1  0
 67 68  1  0
 66 69  1  0
 69 70  2  0
 53 71  1  0
 71 72  1  0
 72 73  1  0
 73 74  2  0
 74 75  1  0
 75 76  1  0
 76 77  2  0
 77 78  1  0
 78 79  2  0
 79 80  1  0
 80 81  1  0
 79 82  1  0
 82 83  2  0
 75 84  1  0
 84 85  2  0
 85 86  1  0
 86 87  2  0
 87 88  1  0
 88 89  1  0
 87 90  1  0
 90 91  2  0
 74 92  1  0
 92 93  1  0
 73 94  1  0
 94 95  2  0
 95 96  1  0
 96 97  2  0
 97 98  1  0
 98 99  1  0
 99100  1  0
100101  1  0
101102  1  0
100103  2  0
103104  1  0
103105  1  0
105106  1  0
 97107  1  0
107108  2  0
108109  1  0
109110  1  0
110111  2  0
111112  1  0
112113  2  0
113114  1  0
114115  1  0
113116  1  0
109117  2  0
117118  1  0
108119  1  0
119120  2  0
120121  1  0
120122  1  0
122123  2  3
123124  1  0
124125  2  0
124126  1  0
126127  2  0
127128  1  0
128129  2  0
129130  1  0
130131  2  0
131132  1  0
132133  2  3
133134  1  0
134135  3  0
133136  1  0
136137  3  0
129138  1  0
138139  1  0
139140  1  0
140141  2  0
141142  1  0
142143  1  0
142144  1  0
 11  2  1  0
 23 17  1  0
 48 24  1  0
 93 52  1  0
118 94  1  0
132123  1  0
144138  1  0
 10  5  1  0
 22 18  1  0
 47 26  1  0
 62 55  1  0
 70 63  1  0
 92 71  2  0
117 96  1  0
131126  1  0
143139  1  0
 23  7  1  0
 35 28  2  0
 51 37  1  0
 83 76  1  0
 91 84  1  0
105 98  2  0
121107  1  0
144128  1  0
 46 40  1  0
116110  1  0
  1145  1  0
  6146  1  0
  9147  1  0
 17148  1  0
 18149  1  0
 19150  1  0
 20151  1  0
 21152  1  0
 22153  1  0
 22154  1  0
 23155  1  0
 25156  1  0
 31157  1  0
 31158  1  0
 32159  1  0
 32160  1  0
 32161  1  0
 41162  1  0
 42163  1  0
 44164  1  0
 44165  1  0
 45166  1  0
 45167  1  0
 45168  1  0
 49169  1  0
 56170  1  0
 57171  1  0
 60172  1  0
 60173  1  0
 60174  1  0
 61175  1  0
 62176  1  0
 64177  1  0
 65178  1  0
 68179  1  0
 68180  1  0
 68181  1  0
 69182  1  0
 70183  1  0
 77184  1  0
 78185  1  0
 81186  1  0
 81187  1  0
 81188  1  0
 82189  1  0
 83190  1  0
 85191  1  0
 86192  1  0
 89193  1  0
 89194  1  0
 89195  1  0
 90196  1  0
 91197  1  0
 95198  1  0
101199  1  0
101200  1  0
102201  1  0
102202  1  0
102203  1  0
111204  1  0
112205  1  0
114206  1  0
114207  1  0
115208  1  0
115209  1  0
115210  1  0
119211  1  0
122212  1  0
127213  1  0
130214  1  0
138215  1  0
139216  1  0
140217  1  0
141218  1  0
142219  1  0
143220  1  0
143221  1  0
144222  1  0
M  END

