
     RDKit          3D

159176  0  0  0  0  0  0  0  0999 V2000
   -3.2599    2.9782    5.7430 C   0  0  0  0  0  0  0  0  0  0  0  0
   -4.0221    1.8858    5.5234 C   0  0  0  0  0  0  0  0  0  0  0  0
   -4.2901    1.2994    4.2006 C   0  0  0  0  0  0  0  0  0  0  0  0
   -3.8661    1.7238    3.0948 O   0  0  0  0  0  0  0  0  0  0  0  0
   -5.3208    0.3011    4.3346 C   0  0  0  0  0  0  0  0  0  0  0  0
   -5.8888   -0.4643    3.2930 C   0  0  0  0  0  0  0  0  0  0  0  0
   -6.9173   -1.2893    3.7027 C   0  0  0  0  0  0  0  0  0  0  0  0
   -7.3709   -1.3591    5.0592 C   0  0  0  0  0  0  0  0  0  0  0  0
   -6.8261   -0.6018    6.0839 C   0  0  0  0  0  0  0  0  0  0  0  0
   -5.7518    0.2472    5.6867 C   0  0  0  0  0  0  0  0  0  0  0  0
   -4.9212    1.1877    6.4980 C   0  0  0  0  0  0  0  0  0  0  0  0
   -4.8430    1.2388    7.8543 C   0  0  0  0  0  0  0  0  0  0  0  0
   -5.7156    0.4928    8.7248 C   0  0  0  0  0  0  0  0  0  0  0  0
   -6.4094   -0.0907    9.4458 N   0  0  0  0  0  0  0  0  0  0  0  0
   -3.8272    1.9941    8.5425 C   0  0  0  0  0  0  0  0  0  0  0  0
   -3.0258    2.6010    9.1120 N   0  0  0  0  0  0  0  0  0  0  0  0
   -8.3882   -2.3944    4.6811 C   0  0  0  0  0  0  0  0  0  0  0  0
   -8.0719   -3.8629    5.0869 C   0  0  0  0  0  0  0  0  0  0  0  0
   -9.0034   -4.7270    4.2717 C   0  0  0  0  0  0  0  0  0  0  0  0
   -8.5836   -4.6536    3.0049 C   0  0  0  0  0  0  0  0  0  0  0  0
   -7.3780   -3.7449    3.0064 C   0  0  0  0  0  0  0  0  0  0  0  0
   -6.7802   -4.1541    4.3414 C   0  0  0  0  0  0  0  0  0  0  0  0
   -7.9264   -2.3158    3.2917 C   0  0  0  0  0  0  0  0  0  0  0  0
   -2.1818    3.3938    4.8275 C   0  0  0  0  0  0  0  0  0  0  0  0
   -1.7398    4.6880    4.5837 C   0  0  0  0  0  0  0  0  0  0  0  0
   -0.6588    4.7551    3.6833 C   0  0  0  0  0  0  0  0  0  0  0  0
    0.0772    6.3285    3.2080 S   0  0  0  0  0  0  0  0  0  0  0  0
   -1.3256    6.8941    2.1751 C   0  0  0  0  0  0  0  0  0  0  0  0
   -1.3564    6.2054    0.8190 C   0  0  0  0  0  0  0  0  0  0  0  0
   -0.1948    3.4960    3.2702 C   0  0  0  0  0  0  0  0  0  0  0  0
   -1.1609    2.3519    4.0190 S   0  0  0  0  0  0  0  0  0  0  0  0
    0.8752    3.1566    2.3015 C   0  0  0  0  0  0  0  0  0  0  0  0
    1.4796    1.8923    2.1484 C   0  0  0  0  0  0  0  0  0  0  0  0
    1.3015    0.7658    3.0223 N   0  0  0  0  0  0  0  0  0  0  0  0
    0.2441   -0.2054    2.8131 C   0  0  0  0  0  0  0  0  0  0  0  0
   -0.6375   -0.0945    1.7156 C   0  0  0  0  0  0  0  0  0  0  0  0
   -1.7422   -0.9454    1.6009 C   0  0  0  0  0  0  0  0  0  0  0  0
   -1.9787   -1.9269    2.5697 C   0  0  0  0  0  0  0  0  0  0  0  0
   -3.4143   -2.9938    2.4470 S   0  0  0  0  0  0  0  0  0  0  0  0
   -2.5672   -4.2351    1.4225 C   0  0  0  0  0  0  0  0  0  0  0  0
   -1.0958   -2.0708    3.6414 C   0  0  0  0  0  0  0  0  0  0  0  0
    0.0042   -1.2181    3.7654 C   0  0  0  0  0  0  0  0  0  0  0  0
    2.2985    0.5930    4.0380 C   0  0  0  0  0  0  0  0  0  0  0  0
    2.2518    1.3714    5.2068 C   0  0  0  0  0  0  0  0  0  0  0  0
    3.2516    1.2400    6.1743 C   0  0  0  0  0  0  0  0  0  0  0  0
    4.3025    0.3368    5.9825 C   0  0  0  0  0  0  0  0  0  0  0  0
    5.6346    0.2466    7.1795 S   0  0  0  0  0  0  0  0  0  0  0  0
    6.5689    1.6046    6.4071 C   0  0  0  0  0  0  0  0  0  0  0  0
    4.3449   -0.4505    4.8224 C   0  0  0  0  0  0  0  0  0  0  0  0
    3.3345   -0.3330    3.8607 C   0  0  0  0  0  0  0  0  0  0  0  0
    2.2683    1.8330    1.0091 C   0  0  0  0  0  0  0  0  0  0  0  0
    2.9987    0.5782    0.1823 S   0  0  0  0  0  0  0  0  0  0  0  0
    3.3889    1.5219   -1.1831 C   0  0  0  0  0  0  0  0  0  0  0  0
    2.9161    2.8248   -0.9781 C   0  0  0  0  0  0  0  0  0  0  0  0
    3.0819    3.9010   -1.9090 N   0  0  0  0  0  0  0  0  0  0  0  0
    4.3580    4.5581   -1.8770 C   0  0  0  0  0  0  0  0  0  0  0  0
    4.6384    5.4915   -0.8682 C   0  0  0  0  0  0  0  0  0  0  0  0
    5.9103    6.0671   -0.7745 C   0  0  0  0  0  0  0  0  0  0  0  0
    6.9130    5.6964   -1.6792 C   0  0  0  0  0  0  0  0  0  0  0  0
    8.5522    6.4166   -1.5376 S   0  0  0  0  0  0  0  0  0  0  0  0
    9.1713    5.0898   -0.4589 C   0  0  0  0  0  0  0  0  0  0  0  0
    6.6345    4.7693   -2.6909 C   0  0  0  0  0  0  0  0  0  0  0  0
    5.3642    4.1883   -2.7843 C   0  0  0  0  0  0  0  0  0  0  0  0
    1.9550    4.4620   -2.6263 C   0  0  0  0  0  0  0  0  0  0  0  0
    2.0718    5.6910   -3.3116 C   0  0  0  0  0  0  0  0  0  0  0  0
    0.9788    6.2340   -3.9958 C   0  0  0  0  0  0  0  0  0  0  0  0
   -0.2390    5.5484   -4.0339 C   0  0  0  0  0  0  0  0  0  0  0  0
   -1.6406    6.2479   -4.9041 S   0  0  0  0  0  0  0  0  0  0  0  0
   -1.2326    5.4298   -6.4777 C   0  0  0  0  0  0  0  0  0  0  0  0
   -0.3663    4.3217   -3.3731 C   0  0  0  0  0  0  0  0  0  0  0  0
    0.7152    3.7850   -2.6706 C   0  0  0  0  0  0  0  0  0  0  0  0
    2.3036    2.9607    0.2635 C   0  0  0  0  0  0  0  0  0  0  0  0
    1.3641    4.1435    0.9904 S   0  0  0  0  0  0  0  0  0  0  0  0
    3.5903    0.8945   -2.4880 C   0  0  0  0  0  0  0  0  0  0  0  0
    2.5105    0.4440   -3.2334 C   0  0  0  0  0  0  0  0  0  0  0  0
    2.7845   -0.6718   -4.0287 C   0  0  0  0  0  0  0  0  0  0  0  0
    1.7567   -1.3599   -4.5666 F   0  0  0  0  0  0  0  0  0  0  0  0
    4.1184   -1.1044   -3.9721 C   0  0  0  0  0  0  0  0  0  0  0  0
    4.8899   -0.1027   -2.8515 S   0  0  0  0  0  0  0  0  0  0  0  0
    4.7515   -2.3808   -4.3988 C   0  0  0  0  0  0  0  0  0  0  0  0
    4.2212   -3.3937   -5.1193 C   0  0  0  0  0  0  0  0  0  0  0  0
    2.9300   -3.4271   -5.8039 C   0  0  0  0  0  0  0  0  0  0  0  0
    2.5134   -2.5629   -6.6181 O   0  0  0  0  0  0  0  0  0  0  0  0
    2.3379   -4.7375   -5.5998 C   0  0  0  0  0  0  0  0  0  0  0  0
    0.9889   -5.1154   -5.8079 C   0  0  0  0  0  0  0  0  0  0  0  0
    0.6829   -6.3794   -5.3308 C   0  0  0  0  0  0  0  0  0  0  0  0
    1.6474   -7.2290   -4.6936 C   0  0  0  0  0  0  0  0  0  0  0  0
    2.9694   -6.8685   -4.4940 C   0  0  0  0  0  0  0  0  0  0  0  0
    3.3000   -5.5743   -4.9824 C   0  0  0  0  0  0  0  0  0  0  0  0
    4.5675   -4.8153   -4.8466 C   0  0  0  0  0  0  0  0  0  0  0  0
    5.8167   -5.3224   -4.7321 C   0  0  0  0  0  0  0  0  0  0  0  0
    6.0689   -6.7230   -4.4970 C   0  0  0  0  0  0  0  0  0  0  0  0
    6.2812   -7.8394   -4.2967 N   0  0  0  0  0  0  0  0  0  0  0  0
    6.9775   -4.5159   -5.0319 C   0  0  0  0  0  0  0  0  0  0  0  0
    7.8999   -3.8900   -5.3241 N   0  0  0  0  0  0  0  0  0  0  0  0
    0.5965   -8.2743   -4.4610 C   0  0  0  0  0  0  0  0  0  0  0  0
    0.6180   -9.5446   -5.3636 C   0  0  0  0  0  0  0  0  0  0  0  0
    1.1678   -9.1984   -6.7303 C   0  0  0  0  0  0  0  0  0  0  0  0
    0.2639   -8.4158   -7.3206 C   0  0  0  0  0  0  0  0  0  0  0  0
   -0.8662   -8.2474   -6.3338 C   0  0  0  0  0  0  0  0  0  0  0  0
   -0.8545   -9.6331   -5.7150 C   0  0  0  0  0  0  0  0  0  0  0  0
   -0.3880   -7.4073   -5.1097 C   0  0  0  0  0  0  0  0  0  0  0  0
   -3.3810    3.5641    6.6380 H   0  0  0  0  0  0  0  0  0  0  0  0
   -5.5555   -0.4069    2.2656 H   0  0  0  0  0  0  0  0  0  0  0  0
   -7.2302   -0.6674    7.0791 H   0  0  0  0  0  0  0  0  0  0  0  0
   -9.4352   -2.0640    4.8441 H   0  0  0  0  0  0  0  0  0  0  0  0
   -8.0612   -4.0689    6.1750 H   0  0  0  0  0  0  0  0  0  0  0  0
   -9.7946   -5.3688    4.6415 H   0  0  0  0  0  0  0  0  0  0  0  0
   -8.9766   -5.2217    2.1691 H   0  0  0  0  0  0  0  0  0  0  0  0
   -6.7097   -3.8406    2.1272 H   0  0  0  0  0  0  0  0  0  0  0  0
   -5.9177   -3.5341    4.6643 H   0  0  0  0  0  0  0  0  0  0  0  0
   -6.4784   -5.2273    4.3845 H   0  0  0  0  0  0  0  0  0  0  0  0
   -8.6862   -1.9347    2.5730 H   0  0  0  0  0  0  0  0  0  0  0  0
   -2.1981    5.5609    5.0322 H   0  0  0  0  0  0  0  0  0  0  0  0
   -1.2150    7.9874    2.0191 H   0  0  0  0  0  0  0  0  0  0  0  0
   -2.2854    6.7261    2.7018 H   0  0  0  0  0  0  0  0  0  0  0  0
   -1.5015    5.1131    0.9455 H   0  0  0  0  0  0  0  0  0  0  0  0
   -0.4138    6.4012    0.2669 H   0  0  0  0  0  0  0  0  0  0  0  0
   -2.2059    6.6029    0.2237 H   0  0  0  0  0  0  0  0  0  0  0  0
   -0.4959    0.6681    0.9643 H   0  0  0  0  0  0  0  0  0  0  0  0
   -2.4179   -0.8365    0.7582 H   0  0  0  0  0  0  0  0  0  0  0  0
   -3.2155   -5.1281    1.3271 H   0  0  0  0  0  0  0  0  0  0  0  0
   -2.3814   -3.8138    0.4119 H   0  0  0  0  0  0  0  0  0  0  0  0
   -1.6061   -4.5349    1.8898 H   0  0  0  0  0  0  0  0  0  0  0  0
   -1.2648   -2.8375    4.3856 H   0  0  0  0  0  0  0  0  0  0  0  0
    0.6483   -1.3391    4.6252 H   0  0  0  0  0  0  0  0  0  0  0  0
    1.4640    2.0928    5.3527 H   0  0  0  0  0  0  0  0  0  0  0  0
    3.2167    1.8554    7.0659 H   0  0  0  0  0  0  0  0  0  0  0  0
    7.5327    1.7391    6.9417 H   0  0  0  0  0  0  0  0  0  0  0  0
    6.7830    1.3680    5.3434 H   0  0  0  0  0  0  0  0  0  0  0  0
    5.9880    2.5518    6.4736 H   0  0  0  0  0  0  0  0  0  0  0  0
    5.1532   -1.1530    4.6715 H   0  0  0  0  0  0  0  0  0  0  0  0
    3.3815   -0.9312    2.9603 H   0  0  0  0  0  0  0  0  0  0  0  0
    3.8763    5.7561   -0.1481 H   0  0  0  0  0  0  0  0  0  0  0  0
    6.1243    6.7733    0.0156 H   0  0  0  0  0  0  0  0  0  0  0  0
    8.5333    4.9872    0.4420 H   0  0  0  0  0  0  0  0  0  0  0  0
    9.1891    4.1323   -1.0178 H   0  0  0  0  0  0  0  0  0  0  0  0
   10.2073    5.3378   -0.1363 H   0  0  0  0  0  0  0  0  0  0  0  0
    7.4052    4.4827   -3.3942 H   0  0  0  0  0  0  0  0  0  0  0  0
    5.1625    3.4528   -3.5513 H   0  0  0  0  0  0  0  0  0  0  0  0
    3.0059    6.2311   -3.3305 H   0  0  0  0  0  0  0  0  0  0  0  0
    1.0859    7.1849   -4.5028 H   0  0  0  0  0  0  0  0  0  0  0  0
   -0.2823    5.8277   -6.8815 H   0  0  0  0  0  0  0  0  0  0  0  0
   -2.0378    5.6341   -7.2119 H   0  0  0  0  0  0  0  0  0  0  0  0
   -1.1495    4.3314   -6.3361 H   0  0  0  0  0  0  0  0  0  0  0  0
   -1.3068    3.7885   -3.4015 H   0  0  0  0  0  0  0  0  0  0  0  0
    0.5760    2.8426   -2.1586 H   0  0  0  0  0  0  0  0  0  0  0  0
    1.4987    0.7949   -3.0641 H   0  0  0  0  0  0  0  0  0  0  0  0
    5.6824   -2.5794   -3.8877 H   0  0  0  0  0  0  0  0  0  0  0  0
    0.2483   -4.4576   -6.2421 H   0  0  0  0  0  0  0  0  0  0  0  0
    3.6466   -7.5095   -3.9537 H   0  0  0  0  0  0  0  0  0  0  0  0
    0.3835   -8.4684   -3.3856 H   0  0  0  0  0  0  0  0  0  0  0  0
    1.0545  -10.4524   -4.8991 H   0  0  0  0  0  0  0  0  0  0  0  0
    2.0777   -9.5728   -7.1859 H   0  0  0  0  0  0  0  0  0  0  0  0
    0.3119   -8.0406   -8.3363 H   0  0  0  0  0  0  0  0  0  0  0  0
   -1.8334   -7.9287   -6.7774 H   0  0  0  0  0  0  0  0  0  0  0  0
   -1.5186   -9.7325   -4.8240 H   0  0  0  0  0  0  0  0  0  0  0  0
   -1.0899  -10.4440   -6.4471 H   0  0  0  0  0  0  0  0  0  0  0  0
   -1.2015   -7.0697   -4.4277 H   0  0  0  0  0  0  0  0  0  0  0  0
  1  2  2  3
  2  3  1  0
  3  4  2  0
  3  5  1  0
  5  6  2  0
  6  7  1  0
  7  8  2  0
  8  9  1  0
  9 10  2  0
 10 11  1  0
 11 12  2  3
 12 13  1  0
 13 14  3  0
 12 15  1  0
 15 16  3  0
  8 17  1  0
 17 18  1  0
 18 19  1  0
 19 20  2  0
 20 21  1  0
 21 22  1  0
 21 23  1  0
  1 24  1  0
 24 25  2  0
 25 26  1  0
 26 27  1  0
 27 28  1  0
 28 29  1  0
 26 30  2  0
 30 31  1  0
 30 32  1  0
 32 33  2  0
 33 34  1  0
 34 35  1  0
 35 36  2  0
 36 37  1  0
 37 38  2  0
 38 39  1  0
 39 40  1  0
 38 41  1  0
 41 42  2  0
 34 43  1  0
 43 44  2  0
 44 45  1  0
 45 46  2  0
 46 47  1  0
 47 48  1  0
 46 49  1  0
 49 50  2  0
 33 51  1  0
 51 52  1  0
 52 53  1  0
 53 54  2  0
 54 55  1  0
 55 56  1  0
 56 57  2  0
 57 58  1  0
 58 59  2  0
 59 60  1  0
 60 61  1  0
 59 62  1  0
 62 63  2  0
 55 64  1  0
 64 65  2  0
 65 66  1  0
 66 67  2  0
 67 68  1  0
 68 69  1  0
 67 70  1  0
 70 71  2  0
 54 72  1  0
 72 73  1  0
 53 74  1  0
 74 75  2  0
 75 76  1  0
 76 77  1  0
 76 78  2  0
 78 79  1  0
 78 80  1  0
 80 81  2  3
 81 82  1  0
 82 83  2  0
 82 84  1  0
 84 85  2  0
 85 86  1  0
 86 87  2  0
 87 88  1  0
 88 89  2  0
 89 90  1  0
 90 91  2  3
 91 92  1  0
 92 93  3  0
 91 94  1  0
 94 95  3  0
 87 96  1  0
 96 97  1  0
 97 98  1  0
 98 99  2  0
 99100  1  0
100101  1  0
100102  1  0
 11  2  1  0
 23 17  1  0
 31 24  1  0
 73 32  1  0
 79 74  1  0
 90 81  1  0
102 96  1  0
 10  5  1  0
 22 18  1  0
 42 35  1  0
 50 43  1  0
 72 51  2  0
 89 84  1  0
101 97  1  0
 23  7  1  0
 63 56  1  0
 71 64  1  0
102 86  1  0
  1103  1  0
  6104  1  0
  9105  1  0
 17106  1  0
 18107  1  0
 19108  1  0
 20109  1  0
 21110  1  0
 22111  1  0
 22112  1  0
 23113  1  0
 25114  1  0
 28115  1  0
 28116  1  0
 29117  1  0
 29118  1  0
 29119  1  0
 36120  1  0
 37121  1  0
 40122  1  0
 40123  1  0
 40124  1  0
 41125  1  0
 42126  1  0
 44127  1  0
 45128  1  0
 48129  1  0
 48130  1  0
 48131  1  0
 49132  1  0
 50133  1  0
 57134  1  0
 58135  1  0
 61136  1  0
 61137  1  0
 61138  1  0
 62139  1  0
 63140  1  0
 65141  1  0
 66142  1  0
 69143  1  0
 69144  1  0
 69145  1  0
 70146  1  0
 71147  1  0
 75148  1  0
 80149  1  0
 85150  1  0
 88151  1  0
 96152  1  0
 97153  1  0
 98154  1  0
 99155  1  0
100156  1  0
101157  1  0
101158  1  0
102159  1  0
M  END

