
     RDKit          3D

194215  0  0  0  0  0  0  0  0999 V2000
    6.1941    2.1335   -6.5648 C   0  0  0  0  0  0  0  0  0  0  0  0
    5.3625    2.9390   -7.2512 C   0  0  0  0  0  0  0  0  0  0  0  0
    3.8977    2.8193   -7.2923 C   0  0  0  0  0  0  0  0  0  0  0  0
    3.2312    1.7670   -7.1120 O   0  0  0  0  0  0  0  0  0  0  0  0
    3.3331    4.1249   -7.5629 C   0  0  0  0  0  0  0  0  0  0  0  0
    1.9674    4.4908   -7.5056 C   0  0  0  0  0  0  0  0  0  0  0  0
    1.7498    5.8498   -7.6340 C   0  0  0  0  0  0  0  0  0  0  0  0
    2.8066    6.8002   -7.8137 C   0  0  0  0  0  0  0  0  0  0  0  0
    4.1431    6.4467   -7.8861 C   0  0  0  0  0  0  0  0  0  0  0  0
    4.3906    5.0498   -7.7653 C   0  0  0  0  0  0  0  0  0  0  0  0
    5.6856    4.3165   -7.7199 C   0  0  0  0  0  0  0  0  0  0  0  0
    6.8866    4.7425   -8.1883 C   0  0  0  0  0  0  0  0  0  0  0  0
    7.9794    3.8283   -8.4131 C   0  0  0  0  0  0  0  0  0  0  0  0
    8.8444    3.0943   -8.6231 N   0  0  0  0  0  0  0  0  0  0  0  0
    7.1022    6.0822   -8.6761 C   0  0  0  0  0  0  0  0  0  0  0  0
    7.2968    7.1537   -9.0730 N   0  0  0  0  0  0  0  0  0  0  0  0
    1.8231    7.9331   -7.7602 C   0  0  0  0  0  0  0  0  0  0  0  0
    1.7639    8.7797   -6.4511 C   0  0  0  0  0  0  0  0  0  0  0  0
    2.1341    7.9201   -5.2625 C   0  0  0  0  0  0  0  0  0  0  0  0
    1.1471    7.0387   -5.1071 C   0  0  0  0  0  0  0  0  0  0  0  0
    0.1375    7.3280   -6.1953 C   0  0  0  0  0  0  0  0  0  0  0  0
    0.2630    8.8391   -6.2452 C   0  0  0  0  0  0  0  0  0  0  0  0
    0.7391    6.9566   -7.5869 C   0  0  0  0  0  0  0  0  0  0  0  0
    5.7218    0.9875   -5.7817 C   0  0  0  0  0  0  0  0  0  0  0  0
    5.3227   -0.2450   -6.2750 C   0  0  0  0  0  0  0  0  0  0  0  0
    4.8109   -1.0936   -5.2829 C   0  0  0  0  0  0  0  0  0  0  0  0
    4.3131   -2.7742   -5.6569 S   0  0  0  0  0  0  0  0  0  0  0  0
    5.9295   -3.4872   -5.2151 C   0  0  0  0  0  0  0  0  0  0  0  0
    5.9548   -4.9657   -5.5704 C   0  0  0  0  0  0  0  0  0  0  0  0
    4.7965   -0.5187   -4.0045 C   0  0  0  0  0  0  0  0  0  0  0  0
    5.4517    1.0274   -4.1269 S   0  0  0  0  0  0  0  0  0  0  0  0
    4.1372   -1.0127   -2.7794 C   0  0  0  0  0  0  0  0  0  0  0  0
    2.8028   -1.4530   -2.6765 C   0  0  0  0  0  0  0  0  0  0  0  0
    1.8849   -1.6450   -3.7667 N   0  0  0  0  0  0  0  0  0  0  0  0
    1.0078   -0.5335   -4.0590 C   0  0  0  0  0  0  0  0  0  0  0  0
   -0.3718   -0.6263   -3.7945 C   0  0  0  0  0  0  0  0  0  0  0  0
   -1.2045    0.4846   -3.9651 C   0  0  0  0  0  0  0  0  0  0  0  0
   -0.6672    1.7058   -4.3897 C   0  0  0  0  0  0  0  0  0  0  0  0
   -1.7297    3.1393   -4.5677 S   0  0  0  0  0  0  0  0  0  0  0  0
   -1.4952    3.6799   -2.8444 C   0  0  0  0  0  0  0  0  0  0  0  0
    0.6995    1.8019   -4.6681 C   0  0  0  0  0  0  0  0  0  0  0  0
    1.5317    0.6919   -4.4989 C   0  0  0  0  0  0  0  0  0  0  0  0
    1.5011   -2.9996   -4.1322 C   0  0  0  0  0  0  0  0  0  0  0  0
    1.9390   -4.1175   -3.3846 C   0  0  0  0  0  0  0  0  0  0  0  0
    1.5172   -5.4071   -3.7146 C   0  0  0  0  0  0  0  0  0  0  0  0
    0.6610   -5.6107   -4.7993 C   0  0  0  0  0  0  0  0  0  0  0  0
    0.0720   -7.2645   -5.1736 S   0  0  0  0  0  0  0  0  0  0  0  0
   -1.3627   -7.1307   -4.0571 C   0  0  0  0  0  0  0  0  0  0  0  0
    0.2570   -4.5228   -5.5800 C   0  0  0  0  0  0  0  0  0  0  0  0
    0.6836   -3.2308   -5.2587 C   0  0  0  0  0  0  0  0  0  0  0  0
    2.3798   -1.4748   -1.3548 C   0  0  0  0  0  0  0  0  0  0  0  0
    0.8697   -1.6018   -0.6612 S   0  0  0  0  0  0  0  0  0  0  0  0
    1.3776   -1.1327    0.8967 C   0  0  0  0  0  0  0  0  0  0  0  0
    2.7678   -0.8911    0.8625 C   0  0  0  0  0  0  0  0  0  0  0  0
    3.5581   -0.4245    1.9707 N   0  0  0  0  0  0  0  0  0  0  0  0
    3.9130   -1.3333    3.0440 C   0  0  0  0  0  0  0  0  0  0  0  0
    4.2722   -0.8414    4.3191 C   0  0  0  0  0  0  0  0  0  0  0  0
    4.5566   -1.7227    5.3681 C   0  0  0  0  0  0  0  0  0  0  0  0
    4.4658   -3.1021    5.1732 C   0  0  0  0  0  0  0  0  0  0  0  0
    4.8432   -4.2283    6.5171 S   0  0  0  0  0  0  0  0  0  0  0  0
    3.1689   -4.1608    7.2308 C   0  0  0  0  0  0  0  0  0  0  0  0
    4.1071   -3.6031    3.9195 C   0  0  0  0  0  0  0  0  0  0  0  0
    3.8373   -2.7306    2.8634 C   0  0  0  0  0  0  0  0  0  0  0  0
    4.0987    0.9118    1.8891 C   0  0  0  0  0  0  0  0  0  0  0  0
    5.4646    1.1462    2.1261 C   0  0  0  0  0  0  0  0  0  0  0  0
    5.9929    2.4322    1.9905 C   0  0  0  0  0  0  0  0  0  0  0  0
    5.1714    3.4936    1.5969 C   0  0  0  0  0  0  0  0  0  0  0  0
    5.8454    5.1469    1.4256 S   0  0  0  0  0  0  0  0  0  0  0  0
    6.2033    4.9483   -0.3481 C   0  0  0  0  0  0  0  0  0  0  0  0
    3.8132    3.2662    1.3559 C   0  0  0  0  0  0  0  0  0  0  0  0
    3.2763    1.9839    1.5003 C   0  0  0  0  0  0  0  0  0  0  0  0
    3.2808   -1.0745   -0.4267 C   0  0  0  0  0  0  0  0  0  0  0  0
    4.7059   -0.6491   -1.2036 S   0  0  0  0  0  0  0  0  0  0  0  0
    0.4024   -0.7273    1.9276 C   0  0  0  0  0  0  0  0  0  0  0  0
    0.5975   -0.5521    3.3005 C   0  0  0  0  0  0  0  0  0  0  0  0
   -0.5834   -0.1862    3.9779 C   0  0  0  0  0  0  0  0  0  0  0  0
   -0.7401   -0.0218    5.3697 C   0  0  0  0  0  0  0  0  0  0  0  0
    0.3996   -0.0945    6.3026 C   0  0  0  0  0  0  0  0  0  0  0  0
    0.4707   -0.8874    7.4442 C   0  0  0  0  0  0  0  0  0  0  0  0
    1.6301   -0.6738    8.1963 C   0  0  0  0  0  0  0  0  0  0  0  0
    2.4830    0.2709    7.6329 C   0  0  0  0  0  0  0  0  0  0  0  0
    3.7723    0.7514    8.2255 C   0  0  0  0  0  0  0  0  0  0  0  0
    3.6107    2.1514    8.8055 C   0  0  0  0  0  0  0  0  0  0  0  0
    1.7850    0.8598    6.2191 S   0  0  0  0  0  0  0  0  0  0  0  0
   -2.0540    0.1969    5.8362 C   0  0  0  0  0  0  0  0  0  0  0  0
   -3.1539    0.2817    4.9735 C   0  0  0  0  0  0  0  0  0  0  0  0
   -2.9818    0.2068    3.5794 C   0  0  0  0  0  0  0  0  0  0  0  0
   -4.0669    0.4854    2.6174 C   0  0  0  0  0  0  0  0  0  0  0  0
   -5.2838   -0.1773    2.5085 C   0  0  0  0  0  0  0  0  0  0  0  0
   -6.0789    0.2971    1.4579 C   0  0  0  0  0  0  0  0  0  0  0  0
   -5.4912    1.3447    0.7526 C   0  0  0  0  0  0  0  0  0  0  0  0
   -6.0441    2.0114   -0.4688 C   0  0  0  0  0  0  0  0  0  0  0  0
   -5.4123    1.4318   -1.7294 C   0  0  0  0  0  0  0  0  0  0  0  0
   -3.9799    1.6567    1.4110 S   0  0  0  0  0  0  0  0  0  0  0  0
   -1.6850   -0.0639    3.1261 C   0  0  0  0  0  0  0  0  0  0  0  0
   -1.2134   -0.4148    1.5613 S   0  0  0  0  0  0  0  0  0  0  0  0
   -4.3743    0.4140    5.6473 C   0  0  0  0  0  0  0  0  0  0  0  0
   -4.2333    0.4200    7.0331 C   0  0  0  0  0  0  0  0  0  0  0  0
   -2.5953    0.3356    7.4317 S   0  0  0  0  0  0  0  0  0  0  0  0
   -5.3573    0.2462    7.9688 C   0  0  0  0  0  0  0  0  0  0  0  0
   -6.1553   -0.8305    7.8779 C   0  0  0  0  0  0  0  0  0  0  0  0
   -7.6100   -0.7565    8.0210 C   0  0  0  0  0  0  0  0  0  0  0  0
   -8.2432    0.0932    8.6990 O   0  0  0  0  0  0  0  0  0  0  0  0
   -8.1997   -1.7506    7.1324 C   0  0  0  0  0  0  0  0  0  0  0  0
   -9.5646   -1.9113    6.7945 C   0  0  0  0  0  0  0  0  0  0  0  0
   -9.7871   -2.8328    5.7849 C   0  0  0  0  0  0  0  0  0  0  0  0
   -8.7314   -3.5410    5.1236 C   0  0  0  0  0  0  0  0  0  0  0  0
   -7.3970   -3.3989    5.4527 C   0  0  0  0  0  0  0  0  0  0  0  0
   -7.1548   -2.4838    6.5107 C   0  0  0  0  0  0  0  0  0  0  0  0
   -5.8661   -2.0667    7.0988 C   0  0  0  0  0  0  0  0  0  0  0  0
   -4.7802   -2.8590    7.2663 C   0  0  0  0  0  0  0  0  0  0  0  0
   -4.6470   -4.1333    6.6113 C   0  0  0  0  0  0  0  0  0  0  0  0
   -4.5166   -5.1579    6.0875 N   0  0  0  0  0  0  0  0  0  0  0  0
   -3.7960   -2.5735    8.2791 C   0  0  0  0  0  0  0  0  0  0  0  0
   -3.0124   -2.3556    9.1030 N   0  0  0  0  0  0  0  0  0  0  0  0
   -9.7215   -4.2175    4.2278 C   0  0  0  0  0  0  0  0  0  0  0  0
  -10.0167   -5.7144    4.5337 C   0  0  0  0  0  0  0  0  0  0  0  0
  -11.2873   -6.0448    3.7880 C   0  0  0  0  0  0  0  0  0  0  0  0
  -12.2763   -5.3943    4.4130 C   0  0  0  0  0  0  0  0  0  0  0  0
  -11.6377   -4.6500    5.5596 C   0  0  0  0  0  0  0  0  0  0  0  0
  -10.5813   -5.6703    5.9445 C   0  0  0  0  0  0  0  0  0  0  0  0
  -10.8056   -3.5043    4.9117 C   0  0  0  0  0  0  0  0  0  0  0  0
    7.2153    2.4398   -6.3837 H   0  0  0  0  0  0  0  0  0  0  0  0
    1.1694    3.7873   -7.3129 H   0  0  0  0  0  0  0  0  0  0  0  0
    4.9079    7.2023   -7.9480 H   0  0  0  0  0  0  0  0  0  0  0  0
    1.7485    8.5170   -8.7039 H   0  0  0  0  0  0  0  0  0  0  0  0
    2.2807    9.7618   -6.4963 H   0  0  0  0  0  0  0  0  0  0  0  0
    2.9922    8.0320   -4.6097 H   0  0  0  0  0  0  0  0  0  0  0  0
    1.0673    6.3061   -4.3115 H   0  0  0  0  0  0  0  0  0  0  0  0
   -0.8840    6.9358   -6.0053 H   0  0  0  0  0  0  0  0  0  0  0  0
   -0.2862    9.3048   -7.0989 H   0  0  0  0  0  0  0  0  0  0  0  0
   -0.0370    9.3430   -5.2950 H   0  0  0  0  0  0  0  0  0  0  0  0
    0.0116    6.9383   -8.4263 H   0  0  0  0  0  0  0  0  0  0  0  0
    5.3854   -0.5210   -7.3209 H   0  0  0  0  0  0  0  0  0  0  0  0
    6.0964   -3.3656   -4.1234 H   0  0  0  0  0  0  0  0  0  0  0  0
    6.7351   -2.9606   -5.7707 H   0  0  0  0  0  0  0  0  0  0  0  0
    6.9390   -5.3990   -5.2979 H   0  0  0  0  0  0  0  0  0  0  0  0
    5.7913   -5.0999   -6.6619 H   0  0  0  0  0  0  0  0  0  0  0  0
    5.1569   -5.5037   -5.0146 H   0  0  0  0  0  0  0  0  0  0  0  0
   -0.7981   -1.5519   -3.4282 H   0  0  0  0  0  0  0  0  0  0  0  0
   -2.2627    0.4013   -3.7418 H   0  0  0  0  0  0  0  0  0  0  0  0
   -1.7951    2.8742   -2.1407 H   0  0  0  0  0  0  0  0  0  0  0  0
   -0.4318    3.9523   -2.6755 H   0  0  0  0  0  0  0  0  0  0  0  0
   -2.1303    4.5701   -2.6577 H   0  0  0  0  0  0  0  0  0  0  0  0
    1.1250    2.7408   -4.9955 H   0  0  0  0  0  0  0  0  0  0  0  0
    2.5836    0.7956   -4.7045 H   0  0  0  0  0  0  0  0  0  0  0  0
    2.5955   -4.0032   -2.5350 H   0  0  0  0  0  0  0  0  0  0  0  0
    1.8407   -6.2434   -3.1095 H   0  0  0  0  0  0  0  0  0  0  0  0
   -2.0335   -6.3166   -4.4003 H   0  0  0  0  0  0  0  0  0  0  0  0
   -1.0244   -6.9244   -3.0199 H   0  0  0  0  0  0  0  0  0  0  0  0
   -1.9238   -8.0881   -4.0645 H   0  0  0  0  0  0  0  0  0  0  0  0
   -0.3978   -4.6757   -6.4297 H   0  0  0  0  0  0  0  0  0  0  0  0
    0.3629   -2.4095   -5.8845 H   0  0  0  0  0  0  0  0  0  0  0  0
    4.3073    0.2237    4.5097 H   0  0  0  0  0  0  0  0  0  0  0  0
    4.8371   -1.3334    6.3372 H   0  0  0  0  0  0  0  0  0  0  0  0
    3.0696   -4.9577    7.9968 H   0  0  0  0  0  0  0  0  0  0  0  0
    3.0146   -3.1761    7.7203 H   0  0  0  0  0  0  0  0  0  0  0  0
    2.4017   -4.3197    6.4450 H   0  0  0  0  0  0  0  0  0  0  0  0
    4.0436   -4.6704    3.7589 H   0  0  0  0  0  0  0  0  0  0  0  0
    3.5687   -3.1496    1.9022 H   0  0  0  0  0  0  0  0  0  0  0  0
    6.1196    0.3351    2.4099 H   0  0  0  0  0  0  0  0  0  0  0  0
    7.0402    2.6060    2.1957 H   0  0  0  0  0  0  0  0  0  0  0  0
    6.9988    4.1868   -0.4876 H   0  0  0  0  0  0  0  0  0  0  0  0
    5.2890    4.6374   -0.8947 H   0  0  0  0  0  0  0  0  0  0  0  0
    6.5563    5.9173   -0.7588 H   0  0  0  0  0  0  0  0  0  0  0  0
    3.1662    4.0839    1.0601 H   0  0  0  0  0  0  0  0  0  0  0  0
    2.2217    1.8271    1.3138 H   0  0  0  0  0  0  0  0  0  0  0  0
    1.5267   -0.7358    3.8050 H   0  0  0  0  0  0  0  0  0  0  0  0
   -0.3031   -1.5848    7.7434 H   0  0  0  0  0  0  0  0  0  0  0  0
    1.8372   -1.1949    9.1237 H   0  0  0  0  0  0  0  0  0  0  0  0
    4.1055    0.0551    9.0254 H   0  0  0  0  0  0  0  0  0  0  0  0
    4.5549    0.7752    7.4398 H   0  0  0  0  0  0  0  0  0  0  0  0
    3.3743    2.8759    7.9973 H   0  0  0  0  0  0  0  0  0  0  0  0
    4.5559    2.4636    9.2982 H   0  0  0  0  0  0  0  0  0  0  0  0
    2.7952    2.1677    9.5611 H   0  0  0  0  0  0  0  0  0  0  0  0
   -5.5769   -0.9933    3.1561 H   0  0  0  0  0  0  0  0  0  0  0  0
   -7.0444   -0.1220    1.2092 H   0  0  0  0  0  0  0  0  0  0  0  0
   -7.1476    1.8846   -0.5088 H   0  0  0  0  0  0  0  0  0  0  0  0
   -5.8263    3.1019   -0.4195 H   0  0  0  0  0  0  0  0  0  0  0  0
   -4.3154    1.6102   -1.7290 H   0  0  0  0  0  0  0  0  0  0  0  0
   -5.6111    0.3413   -1.7953 H   0  0  0  0  0  0  0  0  0  0  0  0
   -5.8522    1.9230   -2.6198 H   0  0  0  0  0  0  0  0  0  0  0  0
   -5.3388    0.4407    5.1600 H   0  0  0  0  0  0  0  0  0  0  0  0
   -5.7028    1.1276    8.4933 H   0  0  0  0  0  0  0  0  0  0  0  0
  -10.3638   -1.3428    7.2487 H   0  0  0  0  0  0  0  0  0  0  0  0
   -6.6207   -3.9151    4.9096 H   0  0  0  0  0  0  0  0  0  0  0  0
   -9.5883   -3.9591    3.1522 H   0  0  0  0  0  0  0  0  0  0  0  0
   -9.1742   -6.4196    4.3708 H   0  0  0  0  0  0  0  0  0  0  0  0
  -11.4042   -6.7437    2.9656 H   0  0  0  0  0  0  0  0  0  0  0  0
  -13.3346   -5.4834    4.1958 H   0  0  0  0  0  0  0  0  0  0  0  0
  -12.3288   -4.3427    6.3720 H   0  0  0  0  0  0  0  0  0  0  0  0
   -9.8609   -5.3147    6.7149 H   0  0  0  0  0  0  0  0  0  0  0  0
  -11.0089   -6.6432    6.2829 H   0  0  0  0  0  0  0  0  0  0  0  0
  -11.3711   -2.7982    4.2689 H   0  0  0  0  0  0  0  0  0  0  0  0
  1  2  2  3
  2  3  1  0
  3  4  2  0
  3  5  1  0
  5  6  2  0
  6  7  1  0
  7  8  2  0
  8  9  1  0
  9 10  2  0
 10 11  1  0
 11 12  2  3
 12 13  1  0
 13 14  3  0
 12 15  1  0
 15 16  3  0
  8 17  1  0
 17 18  1  0
 18 19  1  0
 19 20  2  0
 20 21  1  0
 21 22  1  0
 21 23  1  0
  1 24  1  0
 24 25  2  0
 25 26  1  0
 26 27  1  0
 27 28  1  0
 28 29  1  0
 26 30  2  0
 30 31  1  0
 30 32  1  0
 32 33  2  0
 33 34  1  0
 34 35  1  0
 35 36  2  0
 36 37  1  0
 37 38  2  0
 38 39  1  0
 39 40  1  0
 38 41  1  0
 41 42  2  0
 34 43  1  0
 43 44  2  0
 44 45  1  0
 45 46  2  0
 46 47  1  0
 47 48  1  0
 46 49  1  0
 49 50  2  0
 33 51  1  0
 51 52  1  0
 52 53  1  0
 53 54  2  0
 54 55  1  0
 55 56  1  0
 56 57  2  0
 57 58  1  0
 58 59  2  0
 59 60  1  0
 60 61  1  0
 59 62  1  0
 62 63  2  0
 55 64  1  0
 64 65  2  0
 65 66  1  0
 66 67  2  0
 67 68  1  0
 68 69  1  0
 67 70  1  0
 70 71  2  0
 54 72  1  0
 72 73  1  0
 53 74  1  0
 74 75  2  0
 75 76  1  0
 76 77  2  0
 77 78  1  0
 78 79  2  0
 79 80  1  0
 80 81  2  0
 81 82  1  0
 82 83  1  0
 81 84  1  0
 77 85  1  0
 85 86  2  0
 86 87  1  0
 87 88  1  0
 88 89  2  0
 89 90  1  0
 90 91  2  0
 91 92  1  0
 92 93  1  0
 91 94  1  0
 87 95  2  0
 95 96  1  0
 86 97  1  0
 97 98  2  0
 98 99  1  0
 98100  1  0
100101  2  3
101102  1  0
102103  2  0
102104  1  0
104105  2  0
105106  1  0
106107  2  0
107108  1  0
108109  2  0
109110  1  0
110111  2  3
111112  1  0
112113  3  0
111114  1  0
114115  3  0
107116  1  0
116117  1  0
117118  1  0
118119  2  0
119120  1  0
120121  1  0
120122  1  0
 11  2  1  0
 23 17  1  0
 31 24  1  0
 73 32  1  0
 96 74  1  0
110101  1  0
122116  1  0
 10  5  1  0
 22 18  1  0
 42 35  1  0
 50 43  1  0
 72 51  2  0
 95 76  1  0
109104  1  0
121117  1  0
 23  7  1  0
 63 56  1  0
 71 64  1  0
 84 78  1  0
 99 85  1  0
122106  1  0
 94 88  1  0
  1123  1  0
  6124  1  0
  9125  1  0
 17126  1  0
 18127  1  0
 19128  1  0
 20129  1  0
 21130  1  0
 22131  1  0
 22132  1  0
 23133  1  0
 25134  1  0
 28135  1  0
 28136  1  0
 29137  1  0
 29138  1  0
 29139  1  0
 36140  1  0
 37141  1  0
 40142  1  0
 40143  1  0
 40144  1  0
 41145  1  0
 42146  1  0
 44147  1  0
 45148  1  0
 48149  1  0
 48150  1  0
 48151  1  0
 49152  1  0
 50153  1  0
 57154  1  0
 58155  1  0
 61156  1  0
 61157  1  0
 61158  1  0
 62159  1  0
 63160  1  0
 65161  1  0
 66162  1  0
 69163  1  0
 69164  1  0
 69165  1  0
 70166  1  0
 71167  1  0
 75168  1  0
 79169  1  0
 80170  1  0
 82171  1  0
 82172  1  0
 83173  1  0
 83174  1  0
 83175  1  0
 89176  1  0
 90177  1  0
 92178  1  0
 92179  1  0
 93180  1  0
 93181  1  0
 93182  1  0
 97183  1  0
100184  1  0
105185  1  0
108186  1  0
116187  1  0
117188  1  0
118189  1  0
119190  1  0
120191  1  0
121192  1  0
121193  1  0
122194  1  0
M  END

