
     RDKit          3D

173190  0  0  0  0  0  0  0  0999 V2000
    4.9046    1.1435   -6.6488 C   0  0  0  0  0  0  0  0  0  0  0  0
    5.8660    1.7395   -5.9152 C   0  0  0  0  0  0  0  0  0  0  0  0
    7.2491    1.2300   -5.8583 C   0  0  0  0  0  0  0  0  0  0  0  0
    7.8493    0.6154   -6.7810 O   0  0  0  0  0  0  0  0  0  0  0  0
    7.7613    1.4210   -4.5012 C   0  0  0  0  0  0  0  0  0  0  0  0
    8.9754    0.9484   -3.9273 C   0  0  0  0  0  0  0  0  0  0  0  0
    9.0382    1.1334   -2.5472 C   0  0  0  0  0  0  0  0  0  0  0  0
    7.9734    1.7302   -1.7841 C   0  0  0  0  0  0  0  0  0  0  0  0
    6.8147    2.2224   -2.3460 C   0  0  0  0  0  0  0  0  0  0  0  0
    6.7582    2.0903   -3.7509 C   0  0  0  0  0  0  0  0  0  0  0  0
    5.6746    2.4977   -4.6509 C   0  0  0  0  0  0  0  0  0  0  0  0
    4.9886    3.6575   -4.5799 C   0  0  0  0  0  0  0  0  0  0  0  0
    4.8330    4.3858   -3.3450 C   0  0  0  0  0  0  0  0  0  0  0  0
    4.6386    4.9641   -2.3569 N   0  0  0  0  0  0  0  0  0  0  0  0
    4.3592    4.2254   -5.7474 C   0  0  0  0  0  0  0  0  0  0  0  0
    3.8869    4.6934   -6.7017 N   0  0  0  0  0  0  0  0  0  0  0  0
    8.7284    1.4763   -0.5182 C   0  0  0  0  0  0  0  0  0  0  0  0
    8.2339    0.2751    0.3573 C   0  0  0  0  0  0  0  0  0  0  0  0
    9.3382    0.0348    1.3462 C   0  0  0  0  0  0  0  0  0  0  0  0
   10.3554   -0.4821    0.6525 C   0  0  0  0  0  0  0  0  0  0  0  0
    9.9046   -0.5727   -0.7809 C   0  0  0  0  0  0  0  0  0  0  0  0
    8.4481   -0.9366   -0.5417 C   0  0  0  0  0  0  0  0  0  0  0  0
    9.8276    0.8935   -1.2922 C   0  0  0  0  0  0  0  0  0  0  0  0
    3.4960    0.9191   -6.2186 C   0  0  0  0  0  0  0  0  0  0  0  0
    2.7223   -0.1291   -6.7090 C   0  0  0  0  0  0  0  0  0  0  0  0
    1.6559   -0.4845   -5.8574 C   0  0  0  0  0  0  0  0  0  0  0  0
    1.1745   -2.2177   -5.7146 S   0  0  0  0  0  0  0  0  0  0  0  0
    2.8345   -2.7337   -5.0821 C   0  0  0  0  0  0  0  0  0  0  0  0
    2.7507   -3.8460   -4.0510 C   0  0  0  0  0  0  0  0  0  0  0  0
    1.4571    0.4059   -4.8083 C   0  0  0  0  0  0  0  0  0  0  0  0
    2.7296    1.4883   -4.8279 S   0  0  0  0  0  0  0  0  0  0  0  0
    0.2568    0.5180   -3.9717 C   0  0  0  0  0  0  0  0  0  0  0  0
    0.0616   -0.0741   -2.7148 C   0  0  0  0  0  0  0  0  0  0  0  0
    1.0542   -0.7820   -1.9556 N   0  0  0  0  0  0  0  0  0  0  0  0
    0.7848   -2.1462   -1.5441 C   0  0  0  0  0  0  0  0  0  0  0  0
   -0.0153   -2.9895   -2.3467 C   0  0  0  0  0  0  0  0  0  0  0  0
   -0.2124   -4.3352   -2.0082 C   0  0  0  0  0  0  0  0  0  0  0  0
    0.3570   -4.8559   -0.8414 C   0  0  0  0  0  0  0  0  0  0  0  0
    0.1245   -6.5800   -0.4227 S   0  0  0  0  0  0  0  0  0  0  0  0
    1.6999   -7.1033   -1.1768 C   0  0  0  0  0  0  0  0  0  0  0  0
    1.0953   -4.0129    0.0035 C   0  0  0  0  0  0  0  0  0  0  0  0
    1.3179   -2.6741   -0.3437 C   0  0  0  0  0  0  0  0  0  0  0  0
    2.0232    0.0174   -1.2517 C   0  0  0  0  0  0  0  0  0  0  0  0
    1.5987    0.9628   -0.2952 C   0  0  0  0  0  0  0  0  0  0  0  0
    2.5213    1.5973    0.5366 C   0  0  0  0  0  0  0  0  0  0  0  0
    3.8859    1.3481    0.3976 C   0  0  0  0  0  0  0  0  0  0  0  0
    5.0335    2.0073    1.6183 S   0  0  0  0  0  0  0  0  0  0  0  0
    4.9873    3.7281    1.0436 C   0  0  0  0  0  0  0  0  0  0  0  0
    4.3313    0.4561   -0.5928 C   0  0  0  0  0  0  0  0  0  0  0  0
    3.4018   -0.2207   -1.4066 C   0  0  0  0  0  0  0  0  0  0  0  0
   -1.1826    0.2668   -2.1858 C   0  0  0  0  0  0  0  0  0  0  0  0
   -1.9108   -0.0318   -0.7124 S   0  0  0  0  0  0  0  0  0  0  0  0
   -3.2264    1.0179   -0.9767 C   0  0  0  0  0  0  0  0  0  0  0  0
   -3.1069    1.5706   -2.2699 C   0  0  0  0  0  0  0  0  0  0  0  0
   -4.1330    2.3336   -2.9312 N   0  0  0  0  0  0  0  0  0  0  0  0
   -4.0205    3.7636   -2.9709 C   0  0  0  0  0  0  0  0  0  0  0  0
   -3.5313    4.4002   -4.1278 C   0  0  0  0  0  0  0  0  0  0  0  0
   -3.4863    5.7980   -4.2045 C   0  0  0  0  0  0  0  0  0  0  0  0
   -3.9323    6.5707   -3.1208 C   0  0  0  0  0  0  0  0  0  0  0  0
   -3.9203    8.3601   -3.2275 S   0  0  0  0  0  0  0  0  0  0  0  0
   -2.2193    8.5087   -2.5877 C   0  0  0  0  0  0  0  0  0  0  0  0
   -4.4013    5.9439   -1.9601 C   0  0  0  0  0  0  0  0  0  0  0  0
   -4.4457    4.5448   -1.8900 C   0  0  0  0  0  0  0  0  0  0  0  0
   -5.2080    1.6626   -3.6306 C   0  0  0  0  0  0  0  0  0  0  0  0
   -6.4662    2.2853   -3.7873 C   0  0  0  0  0  0  0  0  0  0  0  0
   -7.5063    1.6334   -4.4533 C   0  0  0  0  0  0  0  0  0  0  0  0
   -7.3158    0.3452   -4.9759 C   0  0  0  0  0  0  0  0  0  0  0  0
   -8.6464   -0.4883   -5.8505 S   0  0  0  0  0  0  0  0  0  0  0  0
   -9.2040   -1.4230   -4.3867 C   0  0  0  0  0  0  0  0  0  0  0  0
   -6.0697   -0.2801   -4.8303 C   0  0  0  0  0  0  0  0  0  0  0  0
   -5.0339    0.3636   -4.1550 C   0  0  0  0  0  0  0  0  0  0  0  0
   -1.9372    1.1292   -2.9091 C   0  0  0  0  0  0  0  0  0  0  0  0
   -1.1193    1.4781   -4.3450 S   0  0  0  0  0  0  0  0  0  0  0  0
   -4.0474    1.5146    0.1570 C   0  0  0  0  0  0  0  0  0  0  0  0
   -3.3880    1.6800    1.4062 C   0  0  0  0  0  0  0  0  0  0  0  0
   -4.0989    1.9227    2.5718 C   0  0  0  0  0  0  0  0  0  0  0  0
   -5.4820    1.9637    2.4973 C   0  0  0  0  0  0  0  0  0  0  0  0
   -6.4345    2.0026    3.6025 C   0  0  0  0  0  0  0  0  0  0  0  0
   -7.6997    2.2733    2.9055 C   0  0  0  0  0  0  0  0  0  0  0  0
   -8.8077    2.4866    3.4760 O   0  0  0  0  0  0  0  0  0  0  0  0
   -7.5368    2.2115    1.4741 N   0  0  0  0  0  0  0  0  0  0  0  0
   -8.4250    2.8657    0.5131 C   0  0  0  0  0  0  0  0  0  0  0  0
   -6.1332    2.0015    1.2858 C   0  0  0  0  0  0  0  0  0  0  0  0
   -5.4470    1.7401    0.0848 C   0  0  0  0  0  0  0  0  0  0  0  0
   -6.3181    1.2957    4.7383 C   0  0  0  0  0  0  0  0  0  0  0  0
   -6.9575    1.5680    6.0307 C   0  0  0  0  0  0  0  0  0  0  0  0
   -7.8522    2.4434    6.2327 O   0  0  0  0  0  0  0  0  0  0  0  0
   -6.3700    0.7857    7.0690 N   0  0  0  0  0  0  0  0  0  0  0  0
   -6.8267    0.6879    8.4481 C   0  0  0  0  0  0  0  0  0  0  0  0
   -5.4219   -0.0593    6.4102 C   0  0  0  0  0  0  0  0  0  0  0  0
   -4.7380   -1.1501    6.9673 C   0  0  0  0  0  0  0  0  0  0  0  0
   -3.9485   -1.9511    6.1222 C   0  0  0  0  0  0  0  0  0  0  0  0
   -3.9176   -1.6930    4.7371 C   0  0  0  0  0  0  0  0  0  0  0  0
   -4.6579   -0.6392    4.1913 C   0  0  0  0  0  0  0  0  0  0  0  0
   -5.3596    0.2164    5.0501 C   0  0  0  0  0  0  0  0  0  0  0  0
   -3.2876   -3.1659    6.6191 C   0  0  0  0  0  0  0  0  0  0  0  0
   -2.0122   -3.4779    6.3324 C   0  0  0  0  0  0  0  0  0  0  0  0
   -0.9457   -2.5386    5.9565 C   0  0  0  0  0  0  0  0  0  0  0  0
   -1.0798   -1.3151    5.6819 O   0  0  0  0  0  0  0  0  0  0  0  0
    0.3210   -3.2403    6.0531 C   0  0  0  0  0  0  0  0  0  0  0  0
    1.6066   -2.7466    5.8313 C   0  0  0  0  0  0  0  0  0  0  0  0
    2.6915   -3.6153    6.0018 C   0  0  0  0  0  0  0  0  0  0  0  0
    2.4830   -4.9546    6.3826 C   0  0  0  0  0  0  0  0  0  0  0  0
    3.9774   -6.1365    6.5758 Br  0  0  0  0  0  0  0  0  0  0  0  0
    1.1833   -5.4341    6.6214 C   0  0  0  0  0  0  0  0  0  0  0  0
    0.0941   -4.5601    6.4330 C   0  0  0  0  0  0  0  0  0  0  0  0
   -1.3750   -4.8092    6.5195 C   0  0  0  0  0  0  0  0  0  0  0  0
   -1.9896   -5.9898    6.2621 C   0  0  0  0  0  0  0  0  0  0  0  0
   -3.2177   -6.0041    5.4953 C   0  0  0  0  0  0  0  0  0  0  0  0
   -4.1245   -5.9674    4.7821 N   0  0  0  0  0  0  0  0  0  0  0  0
   -1.2893   -7.2402    6.2870 C   0  0  0  0  0  0  0  0  0  0  0  0
   -0.7402   -8.2669    6.2791 N   0  0  0  0  0  0  0  0  0  0  0  0
    5.2229    0.5891   -7.5142 H   0  0  0  0  0  0  0  0  0  0  0  0
    9.7510    0.4363   -4.4908 H   0  0  0  0  0  0  0  0  0  0  0  0
    6.0130    2.6207   -1.7463 H   0  0  0  0  0  0  0  0  0  0  0  0
    8.9848    2.4061    0.0395 H   0  0  0  0  0  0  0  0  0  0  0  0
    7.2182    0.3710    0.8016 H   0  0  0  0  0  0  0  0  0  0  0  0
    9.3160    0.1946    2.4203 H   0  0  0  0  0  0  0  0  0  0  0  0
   11.2976   -0.8088    1.0859 H   0  0  0  0  0  0  0  0  0  0  0  0
   10.4747   -1.2777   -1.4135 H   0  0  0  0  0  0  0  0  0  0  0  0
    8.3111   -1.9083   -0.0142 H   0  0  0  0  0  0  0  0  0  0  0  0
    7.8296   -0.9390   -1.4652 H   0  0  0  0  0  0  0  0  0  0  0  0
   10.7766    1.4718   -1.2677 H   0  0  0  0  0  0  0  0  0  0  0  0
    3.0129   -0.7238   -7.5556 H   0  0  0  0  0  0  0  0  0  0  0  0
    3.4379   -3.0837   -5.9386 H   0  0  0  0  0  0  0  0  0  0  0  0
    3.3822   -1.8801   -4.6285 H   0  0  0  0  0  0  0  0  0  0  0  0
    2.5009   -3.3964   -3.0813 H   0  0  0  0  0  0  0  0  0  0  0  0
    2.0058   -4.6081   -4.3435 H   0  0  0  0  0  0  0  0  0  0  0  0
    3.7419   -4.3271   -3.9475 H   0  0  0  0  0  0  0  0  0  0  0  0
   -0.4433   -2.6412   -3.2760 H   0  0  0  0  0  0  0  0  0  0  0  0
   -0.7919   -4.9767   -2.6653 H   0  0  0  0  0  0  0  0  0  0  0  0
    1.8074   -8.2023   -1.0844 H   0  0  0  0  0  0  0  0  0  0  0  0
    2.5443   -6.6157   -0.6379 H   0  0  0  0  0  0  0  0  0  0  0  0
    1.7209   -6.8230   -2.2525 H   0  0  0  0  0  0  0  0  0  0  0  0
    1.5217   -4.3986    0.9139 H   0  0  0  0  0  0  0  0  0  0  0  0
    1.9102   -2.0692    0.3278 H   0  0  0  0  0  0  0  0  0  0  0  0
    0.5416    1.1487   -0.1361 H   0  0  0  0  0  0  0  0  0  0  0  0
    2.1646    2.2780    1.3024 H   0  0  0  0  0  0  0  0  0  0  0  0
    3.9521    4.1311    1.1121 H   0  0  0  0  0  0  0  0  0  0  0  0
    5.6393    4.3428    1.6969 H   0  0  0  0  0  0  0  0  0  0  0  0
    5.3393    3.8174   -0.0000 H   0  0  0  0  0  0  0  0  0  0  0  0
    5.3894    0.2322   -0.7067 H   0  0  0  0  0  0  0  0  0  0  0  0
    3.7488   -0.9504   -2.1215 H   0  0  0  0  0  0  0  0  0  0  0  0
   -3.2050    3.8095   -4.9767 H   0  0  0  0  0  0  0  0  0  0  0  0
   -3.1194    6.2740   -5.0952 H   0  0  0  0  0  0  0  0  0  0  0  0
   -1.5106    8.1515   -3.3609 H   0  0  0  0  0  0  0  0  0  0  0  0
   -2.0949    7.9268   -1.6602 H   0  0  0  0  0  0  0  0  0  0  0  0
   -2.0140    9.5797   -2.3727 H   0  0  0  0  0  0  0  0  0  0  0  0
   -4.7544    6.5393   -1.1194 H   0  0  0  0  0  0  0  0  0  0  0  0
   -4.8395    4.0854   -0.9982 H   0  0  0  0  0  0  0  0  0  0  0  0
   -6.6435    3.2758   -3.3833 H   0  0  0  0  0  0  0  0  0  0  0  0
   -8.4636    2.1220   -4.5516 H   0  0  0  0  0  0  0  0  0  0  0  0
  -10.1328   -1.9753   -4.6393 H   0  0  0  0  0  0  0  0  0  0  0  0
   -9.4189   -0.7293   -3.5485 H   0  0  0  0  0  0  0  0  0  0  0  0
   -8.4192   -2.1468   -4.0756 H   0  0  0  0  0  0  0  0  0  0  0  0
   -5.9122   -1.2753   -5.2258 H   0  0  0  0  0  0  0  0  0  0  0  0
   -4.0844   -0.1557   -4.0596 H   0  0  0  0  0  0  0  0  0  0  0  0
   -2.3110    1.5467    1.5059 H   0  0  0  0  0  0  0  0  0  0  0  0
   -3.5768    2.0173    3.5256 H   0  0  0  0  0  0  0  0  0  0  0  0
   -8.0531    3.8914    0.2944 H   0  0  0  0  0  0  0  0  0  0  0  0
   -8.4613    2.2778   -0.4332 H   0  0  0  0  0  0  0  0  0  0  0  0
   -9.4462    2.9422    0.9284 H   0  0  0  0  0  0  0  0  0  0  0  0
   -5.9933    1.6711   -0.8442 H   0  0  0  0  0  0  0  0  0  0  0  0
   -7.2669    1.6590    8.7768 H   0  0  0  0  0  0  0  0  0  0  0  0
   -5.9794    0.4503    9.1302 H   0  0  0  0  0  0  0  0  0  0  0  0
   -7.5894   -0.1122    8.5269 H   0  0  0  0  0  0  0  0  0  0  0  0
   -4.8289   -1.3832    8.0224 H   0  0  0  0  0  0  0  0  0  0  0  0
   -3.3740   -2.3450    4.0586 H   0  0  0  0  0  0  0  0  0  0  0  0
   -4.6991   -0.5400    3.1184 H   0  0  0  0  0  0  0  0  0  0  0  0
   -3.9053   -3.8861    7.1509 H   0  0  0  0  0  0  0  0  0  0  0  0
    1.7625   -1.7111    5.5589 H   0  0  0  0  0  0  0  0  0  0  0  0
    3.6972   -3.2507    5.8584 H   0  0  0  0  0  0  0  0  0  0  0  0
    1.0593   -6.4509    6.9628 H   0  0  0  0  0  0  0  0  0  0  0  0
  1  2  2  3
  2  3  1  0
  3  4  2  0
  3  5  1  0
  5  6  2  0
  6  7  1  0
  7  8  2  0
  8  9  1  0
  9 10  2  0
 10 11  1  0
 11 12  2  3
 12 13  1  0
 13 14  3  0
 12 15  1  0
 15 16  3  0
  8 17  1  0
 17 18  1  0
 18 19  1  0
 19 20  2  0
 20 21  1  0
 21 22  1  0
 21 23  1  0
  1 24  1  0
 24 25  2  0
 25 26  1  0
 26 27  1  0
 27 28  1  0
 28 29  1  0
 26 30  2  0
 30 31  1  0
 30 32  1  0
 32 33  2  0
 33 34  1  0
 34 35  1  0
 35 36  2  0
 36 37  1  0
 37 38  2  0
 38 39  1  0
 39 40  1  0
 38 41  1  0
 41 42  2  0
 34 43  1  0
 43 44  2  0
 44 45  1  0
 45 46  2  0
 46 47  1  0
 47 48  1  0
 46 49  1  0
 49 50  2  0
 33 51  1  0
 51 52  1  0
 52 53  1  0
 53 54  2  0
 54 55  1  0
 55 56  1  0
 56 57  2  0
 57 58  1  0
 58 59  2  0
 59 60  1  0
 60 61  1  0
 59 62  1  0
 62 63  2  0
 55 64  1  0
 64 65  2  0
 65 66  1  0
 66 67  2  0
 67 68  1  0
 68 69  1  0
 67 70  1  0
 70 71  2  0
 54 72  1  0
 72 73  1  0
 53 74  1  0
 74 75  2  0
 75 76  1  0
 76 77  2  0
 77 78  1  0
 78 79  1  0
 79 80  2  0
 79 81  1  0
 81 82  1  0
 81 83  1  0
 83 84  2  0
 78 85  2  3
 85 86  1  0
 86 87  2  0
 86 88  1  0
 88 89  1  0
 88 90  1  0
 90 91  2  0
 91 92  1  0
 92 93  2  0
 93 94  1  0
 94 95  2  0
 92 96  1  0
 96 97  2  3
 97 98  1  0
 98 99  2  0
 98100  1  0
100101  2  0
101102  1  0
102103  2  0
103104  1  0
103105  1  0
105106  2  0
106107  1  0
107108  2  3
108109  1  0
109110  3  0
108111  1  0
111112  3  0
 11  2  1  0
 23 17  1  0
 31 24  1  0
 73 32  1  0
 84 74  1  0
 95 85  1  0
107 97  1  0
 10  5  1  0
 22 18  1  0
 42 35  1  0
 50 43  1  0
 72 51  2  0
 83 77  1  0
 95 90  1  0
106100  1  0
 23  7  1  0
 63 56  1  0
 71 64  1  0
  1113  1  0
  6114  1  0
  9115  1  0
 17116  1  0
 18117  1  0
 19118  1  0
 20119  1  0
 21120  1  0
 22121  1  0
 22122  1  0
 23123  1  0
 25124  1  0
 28125  1  0
 28126  1  0
 29127  1  0
 29128  1  0
 29129  1  0
 36130  1  0
 37131  1  0
 40132  1  0
 40133  1  0
 40134  1  0
 41135  1  0
 42136  1  0
 44137  1  0
 45138  1  0
 48139  1  0
 48140  1  0
 48141  1  0
 49142  1  0
 50143  1  0
 57144  1  0
 58145  1  0
 61146  1  0
 61147  1  0
 61148  1  0
 62149  1  0
 63150  1  0
 65151  1  0
 66152  1  0
 69153  1  0
 69154  1  0
 69155  1  0
 70156  1  0
 71157  1  0
 75158  1  0
 76159  1  0
 82160  1  0
 82161  1  0
 82162  1  0
 84163  1  0
 89164  1  0
 89165  1  0
 89166  1  0
 91167  1  0
 93168  1  0
 94169  1  0
 96170  1  0
101171  1  0
102172  1  0
105173  1  0
M  END

