
     RDKit          3D

208229  0  0  0  0  0  0  0  0999 V2000
    8.9174   -0.8095   -4.2583 C   0  0  0  0  0  0  0  0  0  0  0  0
    8.9108   -1.9687   -4.9428 C   0  0  0  0  0  0  0  0  0  0  0  0
    8.0443   -3.1237   -4.6861 C   0  0  0  0  0  0  0  0  0  0  0  0
    7.5658   -3.4650   -3.5716 O   0  0  0  0  0  0  0  0  0  0  0  0
    7.8952   -3.8690   -5.9173 C   0  0  0  0  0  0  0  0  0  0  0  0
    6.9705   -4.9045   -6.1795 C   0  0  0  0  0  0  0  0  0  0  0  0
    6.8941   -5.2535   -7.5161 C   0  0  0  0  0  0  0  0  0  0  0  0
    7.6716   -4.6167   -8.5409 C   0  0  0  0  0  0  0  0  0  0  0  0
    8.5999   -3.6224   -8.2815 C   0  0  0  0  0  0  0  0  0  0  0  0
    8.7142   -3.2722   -6.9103 C   0  0  0  0  0  0  0  0  0  0  0  0
    9.5116   -2.1808   -6.2907 C   0  0  0  0  0  0  0  0  0  0  0  0
   10.6813   -1.6718   -6.7542 C   0  0  0  0  0  0  0  0  0  0  0  0
   11.5001   -0.7887   -5.9672 C   0  0  0  0  0  0  0  0  0  0  0  0
   12.1625   -0.0811   -5.3335 N   0  0  0  0  0  0  0  0  0  0  0  0
   11.2525   -2.0822   -8.0137 C   0  0  0  0  0  0  0  0  0  0  0  0
   11.7228   -2.4062   -9.0230 N   0  0  0  0  0  0  0  0  0  0  0  0
    6.9566   -5.4047   -9.5962 C   0  0  0  0  0  0  0  0  0  0  0  0
    5.8839   -4.6299  -10.4205 C   0  0  0  0  0  0  0  0  0  0  0  0
    5.0647   -5.6814  -11.1259 C   0  0  0  0  0  0  0  0  0  0  0  0
    4.3501   -6.3034  -10.1764 C   0  0  0  0  0  0  0  0  0  0  0  0
    4.7097   -5.6408   -8.8682 C   0  0  0  0  0  0  0  0  0  0  0  0
    4.8693   -4.2128   -9.3649 C   0  0  0  0  0  0  0  0  0  0  0  0
    6.1745   -6.0680   -8.5478 C   0  0  0  0  0  0  0  0  0  0  0  0
    7.9955   -0.4897   -3.1547 C   0  0  0  0  0  0  0  0  0  0  0  0
    8.3117    0.3596   -2.0996 C   0  0  0  0  0  0  0  0  0  0  0  0
    7.2082    0.6812   -1.3042 C   0  0  0  0  0  0  0  0  0  0  0  0
    7.3365    1.7738    0.1207 S   0  0  0  0  0  0  0  0  0  0  0  0
    7.5030    0.4059    1.3117 C   0  0  0  0  0  0  0  0  0  0  0  0
    7.7743    0.9485    2.7049 C   0  0  0  0  0  0  0  0  0  0  0  0
    6.0204    0.1013   -1.7374 C   0  0  0  0  0  0  0  0  0  0  0  0
    6.3333   -0.7895   -3.1245 S   0  0  0  0  0  0  0  0  0  0  0  0
    4.7121    0.2701   -1.1002 C   0  0  0  0  0  0  0  0  0  0  0  0
    4.1843   -0.6182   -0.1452 C   0  0  0  0  0  0  0  0  0  0  0  0
    4.3206   -2.0549   -0.2260 N   0  0  0  0  0  0  0  0  0  0  0  0
    4.0805   -2.7342   -1.4813 C   0  0  0  0  0  0  0  0  0  0  0  0
    4.7191   -3.9571   -1.7564 C   0  0  0  0  0  0  0  0  0  0  0  0
    4.4499   -4.6475   -2.9429 C   0  0  0  0  0  0  0  0  0  0  0  0
    3.5440   -4.1225   -3.8707 C   0  0  0  0  0  0  0  0  0  0  0  0
    3.2028   -5.0086   -5.3920 S   0  0  0  0  0  0  0  0  0  0  0  0
    1.7594   -5.8853   -4.7125 C   0  0  0  0  0  0  0  0  0  0  0  0
    2.9134   -2.9021   -3.6172 C   0  0  0  0  0  0  0  0  0  0  0  0
    3.1716   -2.2134   -2.4254 C   0  0  0  0  0  0  0  0  0  0  0  0
    4.3353   -2.8352    0.9774 C   0  0  0  0  0  0  0  0  0  0  0  0
    5.5194   -2.9774    1.7144 C   0  0  0  0  0  0  0  0  0  0  0  0
    5.5305   -3.7496    2.8799 C   0  0  0  0  0  0  0  0  0  0  0  0
    4.3591   -4.3809    3.3148 C   0  0  0  0  0  0  0  0  0  0  0  0
    4.3480   -5.3217    4.8414 S   0  0  0  0  0  0  0  0  0  0  0  0
    3.9003   -3.8825    5.8638 C   0  0  0  0  0  0  0  0  0  0  0  0
    3.1851   -4.2722    2.5575 C   0  0  0  0  0  0  0  0  0  0  0  0
    3.1779   -3.5108    1.3875 C   0  0  0  0  0  0  0  0  0  0  0  0
    3.2590    0.0419    0.6687 C   0  0  0  0  0  0  0  0  0  0  0  0
    2.3093   -0.3679    1.9868 S   0  0  0  0  0  0  0  0  0  0  0  0
    1.4968    1.1339    2.0645 C   0  0  0  0  0  0  0  0  0  0  0  0
    1.9540    1.9472    1.0087 C   0  0  0  0  0  0  0  0  0  0  0  0
    1.1998    3.0206    0.4263 N   0  0  0  0  0  0  0  0  0  0  0  0
    1.5426    4.3979    0.6995 C   0  0  0  0  0  0  0  0  0  0  0  0
    0.5765    5.4084    0.5355 C   0  0  0  0  0  0  0  0  0  0  0  0
    0.9248    6.7519    0.6814 C   0  0  0  0  0  0  0  0  0  0  0  0
    2.2406    7.1058    0.9959 C   0  0  0  0  0  0  0  0  0  0  0  0
    2.7088    8.8361    1.0851 S   0  0  0  0  0  0  0  0  0  0  0  0
    3.1268    8.9326   -0.6859 C   0  0  0  0  0  0  0  0  0  0  0  0
    3.1959    6.1095    1.2160 C   0  0  0  0  0  0  0  0  0  0  0  0
    2.8491    4.7614    1.0768 C   0  0  0  0  0  0  0  0  0  0  0  0
    0.3356    2.6786   -0.6836 C   0  0  0  0  0  0  0  0  0  0  0  0
    0.4773    3.3257   -1.9260 C   0  0  0  0  0  0  0  0  0  0  0  0
   -0.2810    2.9197   -3.0259 C   0  0  0  0  0  0  0  0  0  0  0  0
   -1.1882    1.8598   -2.9053 C   0  0  0  0  0  0  0  0  0  0  0  0
   -2.0981    1.2935   -4.3431 S   0  0  0  0  0  0  0  0  0  0  0  0
   -3.5812    2.2768   -3.9633 C   0  0  0  0  0  0  0  0  0  0  0  0
   -1.3375    1.2126   -1.6757 C   0  0  0  0  0  0  0  0  0  0  0  0
   -0.5811    1.6157   -0.5733 C   0  0  0  0  0  0  0  0  0  0  0  0
    2.9770    1.3184    0.3066 C   0  0  0  0  0  0  0  0  0  0  0  0
    3.9353    1.7779   -0.9849 S   0  0  0  0  0  0  0  0  0  0  0  0
    0.4177    1.4188    3.0270 C   0  0  0  0  0  0  0  0  0  0  0  0
   -0.5899    2.3762    2.9052 C   0  0  0  0  0  0  0  0  0  0  0  0
   -1.6141    2.2239    3.8515 C   0  0  0  0  0  0  0  0  0  0  0  0
   -2.8361    2.9189    3.8591 C   0  0  0  0  0  0  0  0  0  0  0  0
   -3.0783    4.0981    2.9942 C   0  0  0  0  0  0  0  0  0  0  0  0
   -4.1186    4.0968    2.0595 C   0  0  0  0  0  0  0  0  0  0  0  0
   -4.5141    5.2911    1.4475 C   0  0  0  0  0  0  0  0  0  0  0  0
   -3.8374    6.4956    1.7235 C   0  0  0  0  0  0  0  0  0  0  0  0
   -4.2738    7.7103    1.1729 O   0  0  0  0  0  0  0  0  0  0  0  0
   -5.6458    8.0939    1.0657 C   0  0  0  0  0  0  0  0  0  0  0  0
   -6.2506    8.3031    2.4495 C   0  0  0  0  0  0  0  0  0  0  0  0
   -2.7142    6.4807    2.5833 C   0  0  0  0  0  0  0  0  0  0  0  0
   -2.0675    7.7712    3.0447 C   0  0  0  0  0  0  0  0  0  0  0  0
   -2.0884    8.7362    2.0546 F   0  0  0  0  0  0  0  0  0  0  0  0
   -2.7583    8.2272    4.1450 F   0  0  0  0  0  0  0  0  0  0  0  0
   -0.7487    7.5600    3.4050 F   0  0  0  0  0  0  0  0  0  0  0  0
   -2.3589    5.2780    3.2223 C   0  0  0  0  0  0  0  0  0  0  0  0
   -3.8338    2.4312    4.7264 C   0  0  0  0  0  0  0  0  0  0  0  0
   -3.6064    1.3864    5.6290 C   0  0  0  0  0  0  0  0  0  0  0  0
   -2.3336    0.7836    5.7161 C   0  0  0  0  0  0  0  0  0  0  0  0
   -2.0190   -0.2128    6.7614 C   0  0  0  0  0  0  0  0  0  0  0  0
   -2.1121    0.1593    8.1082 C   0  0  0  0  0  0  0  0  0  0  0  0
   -1.7109   -0.7184    9.1112 C   0  0  0  0  0  0  0  0  0  0  0  0
   -1.2104   -1.9927    8.7855 C   0  0  0  0  0  0  0  0  0  0  0  0
   -0.7150   -2.8608    9.7714 O   0  0  0  0  0  0  0  0  0  0  0  0
   -0.5078   -2.4982   11.1342 C   0  0  0  0  0  0  0  0  0  0  0  0
    0.3065   -3.5762   11.8291 C   0  0  0  0  0  0  0  0  0  0  0  0
   -1.1886   -2.4067    7.4353 C   0  0  0  0  0  0  0  0  0  0  0  0
   -1.5914   -1.5057    6.4289 C   0  0  0  0  0  0  0  0  0  0  0  0
   -0.6915   -3.7904    7.0814 C   0  0  0  0  0  0  0  0  0  0  0  0
    0.6385   -3.9075    7.4398 F   0  0  0  0  0  0  0  0  0  0  0  0
   -0.8076   -4.0515    5.7277 F   0  0  0  0  0  0  0  0  0  0  0  0
   -1.4299   -4.7333    7.7693 F   0  0  0  0  0  0  0  0  0  0  0  0
   -1.3817    1.1857    4.7599 C   0  0  0  0  0  0  0  0  0  0  0  0
    0.0780    0.4501    4.3661 S   0  0  0  0  0  0  0  0  0  0  0  0
   -4.7896    0.8899    6.2096 C   0  0  0  0  0  0  0  0  0  0  0  0
   -5.9375    1.4843    5.6882 C   0  0  0  0  0  0  0  0  0  0  0  0
   -5.4852    2.7207    4.6402 S   0  0  0  0  0  0  0  0  0  0  0  0
   -7.2307    0.8053    5.5037 C   0  0  0  0  0  0  0  0  0  0  0  0
   -7.3708   -0.2558    4.6730 C   0  0  0  0  0  0  0  0  0  0  0  0
   -6.2769   -0.9399    3.9613 C   0  0  0  0  0  0  0  0  0  0  0  0
   -5.0842   -1.0717    4.3530 O   0  0  0  0  0  0  0  0  0  0  0  0
   -6.7924   -1.5206    2.7516 C   0  0  0  0  0  0  0  0  0  0  0  0
   -6.0398   -2.1099    1.7121 C   0  0  0  0  0  0  0  0  0  0  0  0
   -6.7937   -2.4557    0.6102 C   0  0  0  0  0  0  0  0  0  0  0  0
   -8.2061   -2.2288    0.5175 C   0  0  0  0  0  0  0  0  0  0  0  0
   -8.9512   -1.6598    1.5412 C   0  0  0  0  0  0  0  0  0  0  0  0
   -8.1968   -1.3217    2.7022 C   0  0  0  0  0  0  0  0  0  0  0  0
   -8.6281   -0.6536    3.9653 C   0  0  0  0  0  0  0  0  0  0  0  0
   -9.8844   -0.6014    4.4680 C   0  0  0  0  0  0  0  0  0  0  0  0
  -11.0225   -1.1397    3.7658 C   0  0  0  0  0  0  0  0  0  0  0  0
  -11.9431   -1.5692    3.2108 N   0  0  0  0  0  0  0  0  0  0  0  0
  -10.1543   -0.1187    5.7976 C   0  0  0  0  0  0  0  0  0  0  0  0
  -10.3782    0.2661    6.8657 N   0  0  0  0  0  0  0  0  0  0  0  0
   -8.2137   -2.7595   -0.8880 C   0  0  0  0  0  0  0  0  0  0  0  0
   -8.3289   -1.7061   -2.0323 C   0  0  0  0  0  0  0  0  0  0  0  0
   -7.9191   -2.4228   -3.2982 C   0  0  0  0  0  0  0  0  0  0  0  0
   -6.5999   -2.6337   -3.2048 C   0  0  0  0  0  0  0  0  0  0  0  0
   -6.1664   -2.0575   -1.8770 C   0  0  0  0  0  0  0  0  0  0  0  0
   -7.0881   -0.8477   -1.8400 C   0  0  0  0  0  0  0  0  0  0  0  0
   -6.7683   -2.9950   -0.7870 C   0  0  0  0  0  0  0  0  0  0  0  0
    9.5537    0.0041   -4.5756 H   0  0  0  0  0  0  0  0  0  0  0  0
    6.3187   -5.3257   -5.4251 H   0  0  0  0  0  0  0  0  0  0  0  0
    9.1133   -3.1139   -9.0821 H   0  0  0  0  0  0  0  0  0  0  0  0
    7.6271   -6.0779  -10.1777 H   0  0  0  0  0  0  0  0  0  0  0  0
    6.2700   -3.8172  -11.0739 H   0  0  0  0  0  0  0  0  0  0  0  0
    4.9935   -5.8641  -12.1908 H   0  0  0  0  0  0  0  0  0  0  0  0
    3.5978   -7.0682  -10.3414 H   0  0  0  0  0  0  0  0  0  0  0  0
    3.9742   -5.7921   -8.0529 H   0  0  0  0  0  0  0  0  0  0  0  0
    5.2667   -3.5023   -8.6069 H   0  0  0  0  0  0  0  0  0  0  0  0
    3.9327   -3.7844   -9.7924 H   0  0  0  0  0  0  0  0  0  0  0  0
    6.3481   -7.1617   -8.4574 H   0  0  0  0  0  0  0  0  0  0  0  0
    9.3082    0.7548   -1.9290 H   0  0  0  0  0  0  0  0  0  0  0  0
    6.5604   -0.1748    1.3311 H   0  0  0  0  0  0  0  0  0  0  0  0
    8.3381   -0.2649    1.0090 H   0  0  0  0  0  0  0  0  0  0  0  0
    8.7187    1.5344    2.7083 H   0  0  0  0  0  0  0  0  0  0  0  0
    7.8750    0.1047    3.4201 H   0  0  0  0  0  0  0  0  0  0  0  0
    6.9344    1.5963    3.0335 H   0  0  0  0  0  0  0  0  0  0  0  0
    5.4212   -4.3785   -1.0490 H   0  0  0  0  0  0  0  0  0  0  0  0
    4.9449   -5.5901   -3.1371 H   0  0  0  0  0  0  0  0  0  0  0  0
    1.4033   -6.6261   -5.4583 H   0  0  0  0  0  0  0  0  0  0  0  0
    2.0299   -6.4190   -3.7787 H   0  0  0  0  0  0  0  0  0  0  0  0
    0.9418   -5.1626   -4.5080 H   0  0  0  0  0  0  0  0  0  0  0  0
    2.2134   -2.4921   -4.3316 H   0  0  0  0  0  0  0  0  0  0  0  0
    2.6405   -1.2912   -2.2374 H   0  0  0  0  0  0  0  0  0  0  0  0
    6.4322   -2.5135    1.3690 H   0  0  0  0  0  0  0  0  0  0  0  0
    6.4483   -3.8500    3.4460 H   0  0  0  0  0  0  0  0  0  0  0  0
    3.0785   -3.3043    5.3925 H   0  0  0  0  0  0  0  0  0  0  0  0
    4.7885   -3.2303    5.9996 H   0  0  0  0  0  0  0  0  0  0  0  0
    3.5588   -4.2349    6.8574 H   0  0  0  0  0  0  0  0  0  0  0  0
    2.2786   -4.7634    2.8807 H   0  0  0  0  0  0  0  0  0  0  0  0
    2.2655   -3.4261    0.8119 H   0  0  0  0  0  0  0  0  0  0  0  0
   -0.4413    5.1550    0.2682 H   0  0  0  0  0  0  0  0  0  0  0  0
    0.1774    7.5187    0.5212 H   0  0  0  0  0  0  0  0  0  0  0  0
    2.2448    8.6616   -1.3042 H   0  0  0  0  0  0  0  0  0  0  0  0
    3.4322    9.9704   -0.9325 H   0  0  0  0  0  0  0  0  0  0  0  0
    3.9693    8.2467   -0.9162 H   0  0  0  0  0  0  0  0  0  0  0  0
    4.2158    6.3772    1.4707 H   0  0  0  0  0  0  0  0  0  0  0  0
    3.6171    4.0113    1.2209 H   0  0  0  0  0  0  0  0  0  0  0  0
    1.2050    4.1188   -2.0488 H   0  0  0  0  0  0  0  0  0  0  0  0
   -0.1455    3.4120   -3.9800 H   0  0  0  0  0  0  0  0  0  0  0  0
   -4.1194    1.8200   -3.1083 H   0  0  0  0  0  0  0  0  0  0  0  0
   -3.3127    3.3257   -3.7252 H   0  0  0  0  0  0  0  0  0  0  0  0
   -4.2503    2.2724   -4.8469 H   0  0  0  0  0  0  0  0  0  0  0  0
   -2.0292    0.3840   -1.5765 H   0  0  0  0  0  0  0  0  0  0  0  0
   -0.7049    1.0868    0.3625 H   0  0  0  0  0  0  0  0  0  0  0  0
   -0.6518    3.0935    2.1027 H   0  0  0  0  0  0  0  0  0  0  0  0
   -4.6670    3.1829    1.8647 H   0  0  0  0  0  0  0  0  0  0  0  0
   -5.3586    5.2760    0.7741 H   0  0  0  0  0  0  0  0  0  0  0  0
   -6.2277    7.3418    0.4932 H   0  0  0  0  0  0  0  0  0  0  0  0
   -5.6936    9.0525    0.5094 H   0  0  0  0  0  0  0  0  0  0  0  0
   -6.3052    7.3390    2.9966 H   0  0  0  0  0  0  0  0  0  0  0  0
   -5.6196    9.0071    3.0305 H   0  0  0  0  0  0  0  0  0  0  0  0
   -7.2751    8.7203    2.3557 H   0  0  0  0  0  0  0  0  0  0  0  0
   -1.5670    5.2718    3.9647 H   0  0  0  0  0  0  0  0  0  0  0  0
   -2.4532    1.1494    8.3788 H   0  0  0  0  0  0  0  0  0  0  0  0
   -1.7769   -0.3900   10.1351 H   0  0  0  0  0  0  0  0  0  0  0  0
   -1.4896   -2.3863   11.6482 H   0  0  0  0  0  0  0  0  0  0  0  0
    0.0620   -1.5444   11.1907 H   0  0  0  0  0  0  0  0  0  0  0  0
    1.2595   -3.7401   11.2884 H   0  0  0  0  0  0  0  0  0  0  0  0
   -0.2599   -4.5312   11.8587 H   0  0  0  0  0  0  0  0  0  0  0  0
    0.5297   -3.2534   12.8719 H   0  0  0  0  0  0  0  0  0  0  0  0
   -1.5568   -1.7929    5.3850 H   0  0  0  0  0  0  0  0  0  0  0  0
   -4.8155   -0.0082    6.8105 H   0  0  0  0  0  0  0  0  0  0  0  0
   -8.0989    1.3925    5.7675 H   0  0  0  0  0  0  0  0  0  0  0  0
   -4.9628   -2.2229    1.7433 H   0  0  0  0  0  0  0  0  0  0  0  0
   -9.9985   -1.4453    1.4104 H   0  0  0  0  0  0  0  0  0  0  0  0
   -8.8253   -3.6832   -1.0212 H   0  0  0  0  0  0  0  0  0  0  0  0
   -9.2941   -1.1627   -2.0889 H   0  0  0  0  0  0  0  0  0  0  0  0
   -8.5375   -2.6545   -4.1593 H   0  0  0  0  0  0  0  0  0  0  0  0
   -5.9657   -3.0601   -3.9742 H   0  0  0  0  0  0  0  0  0  0  0  0
   -5.0800   -1.8430   -1.7839 H   0  0  0  0  0  0  0  0  0  0  0  0
   -7.0655   -0.2877   -0.8773 H   0  0  0  0  0  0  0  0  0  0  0  0
   -6.9118   -0.1291   -2.6775 H   0  0  0  0  0  0  0  0  0  0  0  0
   -6.4580   -4.0645   -0.8480 H   0  0  0  0  0  0  0  0  0  0  0  0
  1  2  2  3
  2  3  1  0
  3  4  2  0
  3  5  1  0
  5  6  2  0
  6  7  1  0
  7  8  2  0
  8  9  1  0
  9 10  2  0
 10 11  1  0
 11 12  2  3
 12 13  1  0
 13 14  3  0
 12 15  1  0
 15 16  3  0
  8 17  1  0
 17 18  1  0
 18 19  1  0
 19 20  2  0
 20 21  1  0
 21 22  1  0
 21 23  1  0
  1 24  1  0
 24 25  2  0
 25 26  1  0
 26 27  1  0
 27 28  1  0
 28 29  1  0
 26 30  2  0
 30 31  1  0
 30 32  1  0
 32 33  2  0
 33 34  1  0
 34 35  1  0
 35 36  2  0
 36 37  1  0
 37 38  2  0
 38 39  1  0
 39 40  1  0
 38 41  1  0
 41 42  2  0
 34 43  1  0
 43 44  2  0
 44 45  1  0
 45 46  2  0
 46 47  1  0
 47 48  1  0
 46 49  1  0
 49 50  2  0
 33 51  1  0
 51 52  1  0
 52 53  1  0
 53 54  2  0
 54 55  1  0
 55 56  1  0
 56 57  2  0
 57 58  1  0
 58 59  2  0
 59 60  1  0
 60 61  1  0
 59 62  1  0
 62 63  2  0
 55 64  1  0
 64 65  2  0
 65 66  1  0
 66 67  2  0
 67 68  1  0
 68 69  1  0
 67 70  1  0
 70 71  2  0
 54 72  1  0
 72 73  1  0
 53 74  1  0
 74 75  2  0
 75 76  1  0
 76 77  2  0
 77 78  1  0
 78 79  2  0
 79 80  1  0
 80 81  2  0
 81 82  1  0
 82 83  1  0
 83 84  1  0
 81 85  1  0
 85 86  1  0
 86 87  1  0
 86 88  1  0
 86 89  1  0
 85 90  2  0
 77 91  1  0
 91 92  2  0
 92 93  1  0
 93 94  1  0
 94 95  2  0
 95 96  1  0
 96 97  2  0
 97 98  1  0
 98 99  1  0
 99100  1  0
 97101  1  0
101102  2  0
101103  1  0
103104  1  0
103105  1  0
103106  1  0
 93107  2  0
107108  1  0
 92109  1  0
109110  2  0
110111  1  0
110112  1  0
112113  2  3
113114  1  0
114115  2  0
114116  1  0
116117  2  0
117118  1  0
118119  2  0
119120  1  0
120121  2  0
121122  1  0
122123  2  3
123124  1  0
124125  3  0
123126  1  0
126127  3  0
119128  1  0
128129  1  0
129130  1  0
130131  2  0
131132  1  0
132133  1  0
132134  1  0
 11  2  1  0
 23 17  1  0
 31 24  1  0
 73 32  1  0
108 74  1  0
122113  1  0
134128  1  0
 10  5  1  0
 22 18  1  0
 42 35  1  0
 50 43  1  0
 72 51  2  0
107 76  1  0
121116  1  0
133129  1  0
 23  7  1  0
 63 56  1  0
 71 64  1  0
 90 78  1  0
111 91  1  0
134118  1  0
102 94  1  0
  1135  1  0
  6136  1  0
  9137  1  0
 17138  1  0
 18139  1  0
 19140  1  0
 20141  1  0
 21142  1  0
 22143  1  0
 22144  1  0
 23145  1  0
 25146  1  0
 28147  1  0
 28148  1  0
 29149  1  0
 29150  1  0
 29151  1  0
 36152  1  0
 37153  1  0
 40154  1  0
 40155  1  0
 40156  1  0
 41157  1  0
 42158  1  0
 44159  1  0
 45160  1  0
 48161  1  0
 48162  1  0
 48163  1  0
 49164  1  0
 50165  1  0
 57166  1  0
 58167  1  0
 61168  1  0
 61169  1  0
 61170  1  0
 62171  1  0
 63172  1  0
 65173  1  0
 66174  1  0
 69175  1  0
 69176  1  0
 69177  1  0
 70178  1  0
 71179  1  0
 75180  1  0
 79181  1  0
 80182  1  0
 83183  1  0
 83184  1  0
 84185  1  0
 84186  1  0
 84187  1  0
 90188  1  0
 95189  1  0
 96190  1  0
 99191  1  0
 99192  1  0
100193  1  0
100194  1  0
100195  1  0
102196  1  0
109197  1  0
112198  1  0
117199  1  0
120200  1  0
128201  1  0
129202  1  0
130203  1  0
131204  1  0
132205  1  0
133206  1  0
133207  1  0
134208  1  0
M  END

