
     RDKit          3D

178197  0  0  0  0  0  0  0  0999 V2000
   -0.0944   -4.5695    4.2006 C   0  0  0  0  0  0  0  0  0  0  0  0
   -0.2547   -3.8724    5.3662 C   0  0  0  0  0  0  0  0  0  0  0  0
   -1.1524   -2.7366    5.3761 C   0  0  0  0  0  0  0  0  0  0  0  0
   -2.3067   -2.7170    4.8059 O   0  0  0  0  0  0  0  0  0  0  0  0
   -0.4864   -1.5758    5.9632 C   0  0  0  0  0  0  0  0  0  0  0  0
   -0.9876   -0.2249    5.9565 C   0  0  0  0  0  0  0  0  0  0  0  0
   -0.1954    0.6450    6.7391 C   0  0  0  0  0  0  0  0  0  0  0  0
    1.0413    0.1706    7.2764 C   0  0  0  0  0  0  0  0  0  0  0  0
    1.5946   -1.0599    7.2611 C   0  0  0  0  0  0  0  0  0  0  0  0
    0.7797   -1.9962    6.4924 C   0  0  0  0  0  0  0  0  0  0  0  0
    0.9253   -3.4696    6.3178 C   0  0  0  0  0  0  0  0  0  0  0  0
    2.0418   -4.1581    6.7843 C   0  0  0  0  0  0  0  0  0  0  0  0
    3.3104   -3.5294    7.2892 C   0  0  0  0  0  0  0  0  0  0  0  0
    4.3762   -3.2557    7.7221 N   0  0  0  0  0  0  0  0  0  0  0  0
    1.9722   -5.5183    7.1999 C   0  0  0  0  0  0  0  0  0  0  0  0
    1.7985   -6.6302    7.5513 N   0  0  0  0  0  0  0  0  0  0  0  0
    1.2687    1.4637    7.9928 C   0  0  0  0  0  0  0  0  0  0  0  0
    1.1840    1.4005    9.5515 C   0  0  0  0  0  0  0  0  0  0  0  0
    0.2234    0.3605   10.0431 C   0  0  0  0  0  0  0  0  0  0  0  0
   -0.9647    0.7022    9.5755 C   0  0  0  0  0  0  0  0  0  0  0  0
   -0.8089    2.0520    8.8952 C   0  0  0  0  0  0  0  0  0  0  0  0
    0.3089    2.6313    9.7529 C   0  0  0  0  0  0  0  0  0  0  0  0
   -0.0644    1.8821    7.5324 C   0  0  0  0  0  0  0  0  0  0  0  0
   -0.4552   -4.1272    2.7843 C   0  0  0  0  0  0  0  0  0  0  0  0
   -1.5122   -4.4569    1.9406 C   0  0  0  0  0  0  0  0  0  0  0  0
   -1.9027   -3.3944    1.0295 C   0  0  0  0  0  0  0  0  0  0  0  0
   -3.0340   -3.6291   -0.4393 S   0  0  0  0  0  0  0  0  0  0  0  0
   -3.3331   -5.4254   -0.5679 C   0  0  0  0  0  0  0  0  0  0  0  0
   -4.3085   -5.9418    0.4887 C   0  0  0  0  0  0  0  0  0  0  0  0
   -1.1265   -2.2277    1.1397 C   0  0  0  0  0  0  0  0  0  0  0  0
    0.1824   -2.7038    2.1649 S   0  0  0  0  0  0  0  0  0  0  0  0
   -1.2631   -0.8036    0.6469 C   0  0  0  0  0  0  0  0  0  0  0  0
   -2.4354   -0.0995    0.1043 C   0  0  0  0  0  0  0  0  0  0  0  0
   -3.7983   -0.3688    0.3530 N   0  0  0  0  0  0  0  0  0  0  0  0
   -4.4945    0.2066    1.5031 C   0  0  0  0  0  0  0  0  0  0  0  0
   -5.6286    0.9379    1.3563 C   0  0  0  0  0  0  0  0  0  0  0  0
   -6.3678    1.4418    2.4580 C   0  0  0  0  0  0  0  0  0  0  0  0
   -5.8883    1.2172    3.7853 C   0  0  0  0  0  0  0  0  0  0  0  0
   -6.7341    1.9234    5.2732 S   0  0  0  0  0  0  0  0  0  0  0  0
   -8.4017    2.2692    4.6248 C   0  0  0  0  0  0  0  0  0  0  0  0
   -4.7593    0.4247    3.9603 C   0  0  0  0  0  0  0  0  0  0  0  0
   -4.0312   -0.0488    2.8451 C   0  0  0  0  0  0  0  0  0  0  0  0
   -4.6558   -0.8215   -0.7648 C   0  0  0  0  0  0  0  0  0  0  0  0
   -5.5459   -1.8450   -0.6277 C   0  0  0  0  0  0  0  0  0  0  0  0
   -6.3079   -2.2809   -1.7439 C   0  0  0  0  0  0  0  0  0  0  0  0
   -6.1355   -1.6168   -2.9721 C   0  0  0  0  0  0  0  0  0  0  0  0
   -6.8849   -2.3134   -4.4482 S   0  0  0  0  0  0  0  0  0  0  0  0
   -8.5946   -2.6032   -3.8725 C   0  0  0  0  0  0  0  0  0  0  0  0
   -5.3039   -0.5234   -3.0811 C   0  0  0  0  0  0  0  0  0  0  0  0
   -4.6093   -0.0867   -1.9714 C   0  0  0  0  0  0  0  0  0  0  0  0
   -2.0246    1.2133   -0.2923 C   0  0  0  0  0  0  0  0  0  0  0  0
   -1.8695    1.8272   -1.8421 S   0  0  0  0  0  0  0  0  0  0  0  0
   -0.6798    2.9749   -1.6491 C   0  0  0  0  0  0  0  0  0  0  0  0
   -0.3440    2.8829   -0.2288 C   0  0  0  0  0  0  0  0  0  0  0  0
    0.1575    4.0142    0.5055 N   0  0  0  0  0  0  0  0  0  0  0  0
    0.9444    5.0243   -0.1786 C   0  0  0  0  0  0  0  0  0  0  0  0
    2.1042    4.6762   -0.8406 C   0  0  0  0  0  0  0  0  0  0  0  0
    2.9144    5.6346   -1.4741 C   0  0  0  0  0  0  0  0  0  0  0  0
    2.5238    7.0036   -1.4695 C   0  0  0  0  0  0  0  0  0  0  0  0
    3.5514    8.3132   -2.1289 S   0  0  0  0  0  0  0  0  0  0  0  0
    4.4400    7.3670   -3.3893 C   0  0  0  0  0  0  0  0  0  0  0  0
    1.3454    7.3774   -0.7557 C   0  0  0  0  0  0  0  0  0  0  0  0
    0.5494    6.3825   -0.1847 C   0  0  0  0  0  0  0  0  0  0  0  0
    0.1823    4.0475    1.9380 C   0  0  0  0  0  0  0  0  0  0  0  0
   -0.3410    5.0932    2.7126 C   0  0  0  0  0  0  0  0  0  0  0  0
    0.0965    5.3292    4.0377 C   0  0  0  0  0  0  0  0  0  0  0  0
    0.9213    4.3953    4.6209 C   0  0  0  0  0  0  0  0  0  0  0  0
    1.3511    4.7188    6.3711 S   0  0  0  0  0  0  0  0  0  0  0  0
    2.9630    5.4866    6.1502 C   0  0  0  0  0  0  0  0  0  0  0  0
    1.3103    3.2305    3.9733 C   0  0  0  0  0  0  0  0  0  0  0  0
    0.9517    3.0609    2.6236 C   0  0  0  0  0  0  0  0  0  0  0  0
   -0.9516    1.7025    0.3241 C   0  0  0  0  0  0  0  0  0  0  0  0
   -0.1348    0.3921    0.9217 S   0  0  0  0  0  0  0  0  0  0  0  0
    0.2358    3.3131   -2.7820 C   0  0  0  0  0  0  0  0  0  0  0  0
    1.0951    2.2523   -2.9957 C   0  0  0  0  0  0  0  0  0  0  0  0
    1.9256    2.2962   -4.0891 C   0  0  0  0  0  0  0  0  0  0  0  0
    2.7997    1.3331   -4.4892 N   0  0  0  0  0  0  0  0  0  0  0  0
    3.0247    0.0362   -3.8198 C   0  0  0  0  0  0  0  0  0  0  0  0
    1.9338   -0.9774   -4.1624 C   0  0  0  0  0  0  0  0  0  0  0  0
    3.3340    1.7519   -5.6755 C   0  0  0  0  0  0  0  0  0  0  0  0
    2.7487    2.9533   -6.0577 C   0  0  0  0  0  0  0  0  0  0  0  0
    1.9029    3.3409   -5.0576 C   0  0  0  0  0  0  0  0  0  0  0  0
    1.0410    4.4559   -4.8285 C   0  0  0  0  0  0  0  0  0  0  0  0
    0.1999    4.4075   -3.6935 C   0  0  0  0  0  0  0  0  0  0  0  0
    3.1326    3.5241   -7.3457 C   0  0  0  0  0  0  0  0  0  0  0  0
    4.0249    2.7914   -8.1156 C   0  0  0  0  0  0  0  0  0  0  0  0
    4.5081    1.5155   -7.7519 C   0  0  0  0  0  0  0  0  0  0  0  0
    4.2057    1.0642   -6.4560 C   0  0  0  0  0  0  0  0  0  0  0  0
    5.2114    0.5106   -8.5428 C   0  0  0  0  0  0  0  0  0  0  0  0
    4.7735   -0.7456   -8.6911 C   0  0  0  0  0  0  0  0  0  0  0  0
    3.3815   -1.1652   -8.3973 C   0  0  0  0  0  0  0  0  0  0  0  0
    2.3714   -0.3578   -8.5216 O   0  0  0  0  0  0  0  0  0  0  0  0
    3.2536   -2.4654   -7.8214 C   0  0  0  0  0  0  0  0  0  0  0  0
    2.0746   -3.1503   -7.3705 C   0  0  0  0  0  0  0  0  0  0  0  0
    2.3490   -4.3749   -6.9108 C   0  0  0  0  0  0  0  0  0  0  0  0
    3.6840   -4.9619   -6.8087 C   0  0  0  0  0  0  0  0  0  0  0  0
    4.8520   -4.2918   -7.2212 C   0  0  0  0  0  0  0  0  0  0  0  0
    4.6426   -2.9724   -7.7651 C   0  0  0  0  0  0  0  0  0  0  0  0
    5.5483   -1.9735   -8.3968 C   0  0  0  0  0  0  0  0  0  0  0  0
    6.9318   -2.2029   -8.6112 C   0  0  0  0  0  0  0  0  0  0  0  0
    7.5932   -3.4523   -8.1827 C   0  0  0  0  0  0  0  0  0  0  0  0
    8.2355   -4.3848   -7.9218 N   0  0  0  0  0  0  0  0  0  0  0  0
    7.7206   -1.3110   -9.4068 C   0  0  0  0  0  0  0  0  0  0  0  0
    8.3179   -0.5739  -10.0639 N   0  0  0  0  0  0  0  0  0  0  0  0
    3.1210   -6.1440   -6.1992 C   0  0  0  0  0  0  0  0  0  0  0  0
    3.2727   -6.2540   -4.6539 C   0  0  0  0  0  0  0  0  0  0  0  0
    3.0718   -4.9005   -3.9923 C   0  0  0  0  0  0  0  0  0  0  0  0
    1.7734   -4.5971   -4.1427 C   0  0  0  0  0  0  0  0  0  0  0  0
    1.1595   -5.6778   -4.9686 C   0  0  0  0  0  0  0  0  0  0  0  0
    1.9104   -6.8639   -4.3480 C   0  0  0  0  0  0  0  0  0  0  0  0
    1.7530   -5.6773   -6.3927 C   0  0  0  0  0  0  0  0  0  0  0  0
    0.6116   -5.3323    4.1606 H   0  0  0  0  0  0  0  0  0  0  0  0
   -1.9675    0.0871    5.5734 H   0  0  0  0  0  0  0  0  0  0  0  0
    2.2421   -1.3321    8.0873 H   0  0  0  0  0  0  0  0  0  0  0  0
    2.1469    1.9999    7.5728 H   0  0  0  0  0  0  0  0  0  0  0  0
    2.1576    1.4484   10.0894 H   0  0  0  0  0  0  0  0  0  0  0  0
    0.4574   -0.6002   10.5202 H   0  0  0  0  0  0  0  0  0  0  0  0
   -1.8127    0.0352    9.5634 H   0  0  0  0  0  0  0  0  0  0  0  0
   -1.7279    2.6636    8.8042 H   0  0  0  0  0  0  0  0  0  0  0  0
    0.7567    3.5742    9.3369 H   0  0  0  0  0  0  0  0  0  0  0  0
    0.0195    2.8204   10.8076 H   0  0  0  0  0  0  0  0  0  0  0  0
   -0.1008    2.6808    6.8307 H   0  0  0  0  0  0  0  0  0  0  0  0
   -2.0309   -5.4324    2.0122 H   0  0  0  0  0  0  0  0  0  0  0  0
   -3.7905   -5.5814   -1.5654 H   0  0  0  0  0  0  0  0  0  0  0  0
   -2.4061   -5.9813   -0.5645 H   0  0  0  0  0  0  0  0  0  0  0  0
   -3.9915   -6.9241    0.8788 H   0  0  0  0  0  0  0  0  0  0  0  0
   -4.4074   -5.2549    1.3646 H   0  0  0  0  0  0  0  0  0  0  0  0
   -5.3095   -6.0893    0.0388 H   0  0  0  0  0  0  0  0  0  0  0  0
   -6.0668    1.1859    0.3431 H   0  0  0  0  0  0  0  0  0  0  0  0
   -7.2409    2.0281    2.2680 H   0  0  0  0  0  0  0  0  0  0  0  0
   -9.0391    2.5762    5.4639 H   0  0  0  0  0  0  0  0  0  0  0  0
   -8.3521    3.1428    3.9721 H   0  0  0  0  0  0  0  0  0  0  0  0
   -8.8612    1.3934    4.1339 H   0  0  0  0  0  0  0  0  0  0  0  0
   -4.3329    0.2147    4.9636 H   0  0  0  0  0  0  0  0  0  0  0  0
   -3.1897   -0.6105    3.0698 H   0  0  0  0  0  0  0  0  0  0  0  0
   -5.5740   -2.3215    0.3775 H   0  0  0  0  0  0  0  0  0  0  0  0
   -6.8983   -3.1551   -1.6245 H   0  0  0  0  0  0  0  0  0  0  0  0
   -9.3272   -2.3497   -4.6727 H   0  0  0  0  0  0  0  0  0  0  0  0
   -8.7149   -3.6806   -3.6786 H   0  0  0  0  0  0  0  0  0  0  0  0
   -8.8658   -2.0314   -2.9877 H   0  0  0  0  0  0  0  0  0  0  0  0
   -5.1174   -0.0208   -3.9987 H   0  0  0  0  0  0  0  0  0  0  0  0
   -4.0943    0.8084   -2.1355 H   0  0  0  0  0  0  0  0  0  0  0  0
    2.3789    3.6211   -0.8514 H   0  0  0  0  0  0  0  0  0  0  0  0
    3.7921    5.2429   -2.0158 H   0  0  0  0  0  0  0  0  0  0  0  0
    3.8695    6.5167   -3.8091 H   0  0  0  0  0  0  0  0  0  0  0  0
    4.6098    8.0588   -4.2178 H   0  0  0  0  0  0  0  0  0  0  0  0
    5.4232    7.0778   -2.9602 H   0  0  0  0  0  0  0  0  0  0  0  0
    1.0589    8.4358   -0.6676 H   0  0  0  0  0  0  0  0  0  0  0  0
   -0.3593    6.7828    0.2463 H   0  0  0  0  0  0  0  0  0  0  0  0
   -1.0168    5.8254    2.2735 H   0  0  0  0  0  0  0  0  0  0  0  0
   -0.2816    6.1942    4.5725 H   0  0  0  0  0  0  0  0  0  0  0  0
    3.7463    4.7056    6.1327 H   0  0  0  0  0  0  0  0  0  0  0  0
    3.1136    6.1618    7.0228 H   0  0  0  0  0  0  0  0  0  0  0  0
    2.9709    6.0711    5.2222 H   0  0  0  0  0  0  0  0  0  0  0  0
    1.8407    2.4084    4.4615 H   0  0  0  0  0  0  0  0  0  0  0  0
    1.3864    2.2437    2.0931 H   0  0  0  0  0  0  0  0  0  0  0  0
    1.2347    1.3593   -2.3059 H   0  0  0  0  0  0  0  0  0  0  0  0
    4.0098   -0.3788   -4.0461 H   0  0  0  0  0  0  0  0  0  0  0  0
    3.1060    0.1979   -2.7395 H   0  0  0  0  0  0  0  0  0  0  0  0
    1.2077   -1.0032   -3.3412 H   0  0  0  0  0  0  0  0  0  0  0  0
    1.3802   -0.7484   -5.1052 H   0  0  0  0  0  0  0  0  0  0  0  0
    2.4001   -1.9722   -4.2769 H   0  0  0  0  0  0  0  0  0  0  0  0
    1.0099    5.3125   -5.5460 H   0  0  0  0  0  0  0  0  0  0  0  0
   -0.4410    5.2248   -3.5321 H   0  0  0  0  0  0  0  0  0  0  0  0
    2.7273    4.4964   -7.6717 H   0  0  0  0  0  0  0  0  0  0  0  0
    4.2470    3.1245   -9.1008 H   0  0  0  0  0  0  0  0  0  0  0  0
    4.4852    0.0738   -6.0720 H   0  0  0  0  0  0  0  0  0  0  0  0
    6.1984    0.8030   -8.7032 H   0  0  0  0  0  0  0  0  0  0  0  0
    1.0281   -2.6232   -7.3740 H   0  0  0  0  0  0  0  0  0  0  0  0
    5.8063   -4.8712   -7.1056 H   0  0  0  0  0  0  0  0  0  0  0  0
    3.3725   -7.0528   -6.7349 H   0  0  0  0  0  0  0  0  0  0  0  0
    4.1253   -6.8075   -4.2243 H   0  0  0  0  0  0  0  0  0  0  0  0
    3.8024   -4.2838   -3.4615 H   0  0  0  0  0  0  0  0  0  0  0  0
    1.2295   -3.7560   -3.7251 H   0  0  0  0  0  0  0  0  0  0  0  0
    0.0620   -5.7691   -4.9243 H   0  0  0  0  0  0  0  0  0  0  0  0
    1.7246   -7.8617   -4.8371 H   0  0  0  0  0  0  0  0  0  0  0  0
    1.7010   -7.0364   -3.2448 H   0  0  0  0  0  0  0  0  0  0  0  0
    1.2541   -6.2601   -7.2038 H   0  0  0  0  0  0  0  0  0  0  0  0
  1  2  2  3
  2  3  1  0
  3  4  2  0
  3  5  1  0
  5  6  2  0
  6  7  1  0
  7  8  2  0
  8  9  1  0
  9 10  2  0
 10 11  1  0
 11 12  2  3
 12 13  1  0
 13 14  3  0
 12 15  1  0
 15 16  3  0
  8 17  1  0
 17 18  1  0
 18 19  1  0
 19 20  2  0
 20 21  1  0
 21 22  1  0
 21 23  1  0
  1 24  1  0
 24 25  2  0
 25 26  1  0
 26 27  1  0
 27 28  1  0
 28 29  1  0
 26 30  2  0
 30 31  1  0
 30 32  1  0
 32 33  2  0
 33 34  1  0
 34 35  1  0
 35 36  2  0
 36 37  1  0
 37 38  2  0
 38 39  1  0
 39 40  1  0
 38 41  1  0
 41 42  2  0
 34 43  1  0
 43 44  2  0
 44 45  1  0
 45 46  2  0
 46 47  1  0
 47 48  1  0
 46 49  1  0
 49 50  2  0
 33 51  1  0
 51 52  1  0
 52 53  1  0
 53 54  2  0
 54 55  1  0
 55 56  1  0
 56 57  2  0
 57 58  1  0
 58 59  2  0
 59 60  1  0
 60 61  1  0
 59 62  1  0
 62 63  2  0
 55 64  1  0
 64 65  2  0
 65 66  1  0
 66 67  2  0
 67 68  1  0
 68 69  1  0
 67 70  1  0
 70 71  2  0
 54 72  1  0
 72 73  1  0
 53 74  1  0
 74 75  2  0
 75 76  1  0
 76 77  1  0
 77 78  1  0
 78 79  1  0
 77 80  1  0
 80 81  2  0
 81 82  1  0
 82 83  1  0
 83 84  2  0
 81 85  1  0
 85 86  2  0
 86 87  1  0
 87 88  2  0
 87 89  1  0
 89 90  2  3
 90 91  1  0
 91 92  2  0
 91 93  1  0
 93 94  2  0
 94 95  1  0
 95 96  2  0
 96 97  1  0
 97 98  2  0
 98 99  1  0
 99100  2  3
100101  1  0
101102  3  0
100103  1  0
103104  3  0
 96105  1  0
105106  1  0
106107  1  0
107108  2  0
108109  1  0
109110  1  0
109111  1  0
 11  2  1  0
 23 17  1  0
 31 24  1  0
 73 32  1  0
 84 74  1  0
 99 90  1  0
111105  1  0
 10  5  1  0
 22 18  1  0
 42 35  1  0
 50 43  1  0
 72 51  2  0
 82 76  2  0
 98 93  1  0
110106  1  0
 23  7  1  0
 63 56  1  0
 71 64  1  0
 88 80  1  0
111 95  1  0
  1112  1  0
  6113  1  0
  9114  1  0
 17115  1  0
 18116  1  0
 19117  1  0
 20118  1  0
 21119  1  0
 22120  1  0
 22121  1  0
 23122  1  0
 25123  1  0
 28124  1  0
 28125  1  0
 29126  1  0
 29127  1  0
 29128  1  0
 36129  1  0
 37130  1  0
 40131  1  0
 40132  1  0
 40133  1  0
 41134  1  0
 42135  1  0
 44136  1  0
 45137  1  0
 48138  1  0
 48139  1  0
 48140  1  0
 49141  1  0
 50142  1  0
 57143  1  0
 58144  1  0
 61145  1  0
 61146  1  0
 61147  1  0
 62148  1  0
 63149  1  0
 65150  1  0
 66151  1  0
 69152  1  0
 69153  1  0
 69154  1  0
 70155  1  0
 71156  1  0
 75157  1  0
 78158  1  0
 78159  1  0
 79160  1  0
 79161  1  0
 79162  1  0
 83163  1  0
 84164  1  0
 85165  1  0
 86166  1  0
 88167  1  0
 89168  1  0
 94169  1  0
 97170  1  0
105171  1  0
106172  1  0
107173  1  0
108174  1  0
109175  1  0
110176  1  0
110177  1  0
111178  1  0
M  END

