
     RDKit          3D

182200  0  0  0  0  0  0  0  0999 V2000
    7.0257    2.0455    3.7800 C   0  0  0  0  0  0  0  0  0  0  0  0
    7.4529    1.1336    2.8628 C   0  0  0  0  0  0  0  0  0  0  0  0
    7.1014    0.9860    1.5011 C   0  0  0  0  0  0  0  0  0  0  0  0
    6.5675    1.8397    0.7377 O   0  0  0  0  0  0  0  0  0  0  0  0
    7.4616   -0.3596    1.0417 C   0  0  0  0  0  0  0  0  0  0  0  0
    7.1439   -0.9934   -0.1469 C   0  0  0  0  0  0  0  0  0  0  0  0
    7.3751   -2.3131   -0.3119 C   0  0  0  0  0  0  0  0  0  0  0  0
    7.9411   -3.0363    0.7158 C   0  0  0  0  0  0  0  0  0  0  0  0
    8.2592   -2.3590    1.8998 C   0  0  0  0  0  0  0  0  0  0  0  0
    8.0271   -1.0314    2.0753 C   0  0  0  0  0  0  0  0  0  0  0  0
    8.0809   -0.1388    3.3335 C   0  0  0  0  0  0  0  0  0  0  0  0
    8.1906   -0.6335    4.4090 C   0  0  0  0  0  0  0  0  0  0  0  0
    8.0820   -0.8592    5.7551 C   0  0  0  0  0  0  0  0  0  0  0  0
    7.9956   -1.0899    7.0820 N   0  0  0  0  0  0  0  0  0  0  0  0
    9.4973   -1.5087    4.1915 C   0  0  0  0  0  0  0  0  0  0  0  0
   10.7020   -2.2962    4.0032 N   0  0  0  0  0  0  0  0  0  0  0  0
    7.8649   -4.3156    0.0016 C   0  0  0  0  0  0  0  0  0  0  0  0
    6.6622   -5.1515    0.4345 C   0  0  0  0  0  0  0  0  0  0  0  0
    6.4398   -6.1685   -0.5883 C   0  0  0  0  0  0  0  0  0  0  0  0
    6.0408   -5.5178   -1.7073 C   0  0  0  0  0  0  0  0  0  0  0  0
    5.9335   -4.0966   -1.3923 C   0  0  0  0  0  0  0  0  0  0  0  0
    5.5083   -4.2025    0.1064 C   0  0  0  0  0  0  0  0  0  0  0  0
    7.3016   -3.5147   -1.1869 C   0  0  0  0  0  0  0  0  0  0  0  0
    6.0086    3.0233    3.2972 C   0  0  0  0  0  0  0  0  0  0  0  0
    5.6330    4.2779    3.4038 C   0  0  0  0  0  0  0  0  0  0  0  0
    4.4694    4.6661    2.7629 C   0  0  0  0  0  0  0  0  0  0  0  0
    3.8386    6.3783    2.8763 S   0  0  0  0  0  0  0  0  0  0  0  0
    4.3549    7.3777    1.4805 C   0  0  0  0  0  0  0  0  0  0  0  0
    3.7977    8.7800    1.7291 C   0  0  0  0  0  0  0  0  0  0  0  0
    3.7937    3.7788    2.0697 C   0  0  0  0  0  0  0  0  0  0  0  0
    4.7777    2.3377    2.2942 S   0  0  0  0  0  0  0  0  0  0  0  0
    2.5503    3.5656    1.3145 C   0  0  0  0  0  0  0  0  0  0  0  0
    1.4348    2.9685    1.8578 C   0  0  0  0  0  0  0  0  0  0  0  0
    1.3788    2.6552    3.2472 N   0  0  0  0  0  0  0  0  0  0  0  0
    1.1415    1.2403    3.5777 C   0  0  0  0  0  0  0  0  0  0  0  0
    0.2880    0.8704    4.5977 C   0  0  0  0  0  0  0  0  0  0  0  0
    0.1646   -0.5072    4.8506 C   0  0  0  0  0  0  0  0  0  0  0  0
    0.8502   -1.4529    4.1331 C   0  0  0  0  0  0  0  0  0  0  0  0
    0.7301   -3.2234    4.5715 S   0  0  0  0  0  0  0  0  0  0  0  0
    2.1469   -3.5320    5.6923 C   0  0  0  0  0  0  0  0  0  0  0  0
    1.6813   -1.0293    3.1429 C   0  0  0  0  0  0  0  0  0  0  0  0
    1.8165    0.3066    2.8713 C   0  0  0  0  0  0  0  0  0  0  0  0
    1.6028    3.4864    4.3438 C   0  0  0  0  0  0  0  0  0  0  0  0
    2.4262    2.9869    5.3751 C   0  0  0  0  0  0  0  0  0  0  0  0
    2.6936    3.6952    6.4988 C   0  0  0  0  0  0  0  0  0  0  0  0
    2.1740    4.9379    6.6790 C   0  0  0  0  0  0  0  0  0  0  0  0
    2.5749    5.8328    8.1597 S   0  0  0  0  0  0  0  0  0  0  0  0
    3.7094    4.9281    9.2297 C   0  0  0  0  0  0  0  0  0  0  0  0
    1.3653    5.4762    5.7145 C   0  0  0  0  0  0  0  0  0  0  0  0
    1.0961    4.7324    4.5635 C   0  0  0  0  0  0  0  0  0  0  0  0
    0.5075    2.5166    0.9540 C   0  0  0  0  0  0  0  0  0  0  0  0
   -0.9106    1.5506    0.9709 S   0  0  0  0  0  0  0  0  0  0  0  0
   -1.1417    1.3808   -0.7625 C   0  0  0  0  0  0  0  0  0  0  0  0
   -0.1282    2.0696   -1.2556 C   0  0  0  0  0  0  0  0  0  0  0  0
    0.1634    2.0493   -2.6808 N   0  0  0  0  0  0  0  0  0  0  0  0
   -0.0953    0.8632   -3.3539 C   0  0  0  0  0  0  0  0  0  0  0  0
   -0.6950    0.7403   -4.5609 C   0  0  0  0  0  0  0  0  0  0  0  0
   -0.9433   -0.5297   -5.1323 C   0  0  0  0  0  0  0  0  0  0  0  0
   -0.5714   -1.6769   -4.4437 C   0  0  0  0  0  0  0  0  0  0  0  0
   -0.8587   -3.2801   -5.1179 S   0  0  0  0  0  0  0  0  0  0  0  0
    0.6885   -3.8149   -5.9341 C   0  0  0  0  0  0  0  0  0  0  0  0
    0.0358   -1.5566   -3.2118 C   0  0  0  0  0  0  0  0  0  0  0  0
    0.2670   -0.3168   -2.6856 C   0  0  0  0  0  0  0  0  0  0  0  0
    0.8053    3.1184   -3.3532 C   0  0  0  0  0  0  0  0  0  0  0  0
    0.5505    4.4673   -3.2121 C   0  0  0  0  0  0  0  0  0  0  0  0
    1.2718    5.4605   -3.8716 C   0  0  0  0  0  0  0  0  0  0  0  0
    2.2842    5.0951   -4.7062 C   0  0  0  0  0  0  0  0  0  0  0  0
    3.2873    6.3577   -5.5330 S   0  0  0  0  0  0  0  0  0  0  0  0
    4.7518    6.7258   -4.5757 C   0  0  0  0  0  0  0  0  0  0  0  0
    2.5689    3.7480   -4.8803 C   0  0  0  0  0  0  0  0  0  0  0  0
    1.8709    2.7945   -4.2374 C   0  0  0  0  0  0  0  0  0  0  0  0
    0.7208    2.6610   -0.3500 C   0  0  0  0  0  0  0  0  0  0  0  0
    2.2773    3.4898   -0.3451 S   0  0  0  0  0  0  0  0  0  0  0  0
   -2.2589    0.5850   -1.2938 C   0  0  0  0  0  0  0  0  0  0  0  0
   -2.4467   -0.7462   -0.7696 C   0  0  0  0  0  0  0  0  0  0  0  0
   -3.3768   -1.4880   -1.3269 C   0  0  0  0  0  0  0  0  0  0  0  0
   -3.7658   -2.7860   -0.9200 C   0  0  0  0  0  0  0  0  0  0  0  0
   -3.0341   -3.5946    0.0177 C   0  0  0  0  0  0  0  0  0  0  0  0
   -1.8591   -3.6264    0.5909 C   0  0  0  0  0  0  0  0  0  0  0  0
   -1.5110   -4.4965    1.5278 C   0  0  0  0  0  0  0  0  0  0  0  0
   -2.3131   -5.4427    1.9884 C   0  0  0  0  0  0  0  0  0  0  0  0
   -2.2286   -6.4932    3.0244 C   0  0  0  0  0  0  0  0  0  0  0  0
   -1.6000   -7.7226    2.4197 C   0  0  0  0  0  0  0  0  0  0  0  0
   -3.8965   -5.0862    0.9332 Se  0  0  0  0  0  2  0  0  0  0  0  0
   -4.8452   -3.3280   -1.6088 C   0  0  0  0  0  0  0  0  0  0  0  0
   -5.5742   -2.8230   -2.6375 C   0  0  0  0  0  0  0  0  0  0  0  0
   -5.1693   -1.5471   -3.0223 C   0  0  0  0  0  0  0  0  0  0  0  0
   -5.8361   -0.6772   -3.9804 C   0  0  0  0  0  0  0  0  0  0  0  0
   -6.0509    0.6811   -3.8051 C   0  0  0  0  0  0  0  0  0  0  0  0
   -6.5599    1.4454   -4.7241 C   0  0  0  0  0  0  0  0  0  0  0  0
   -6.9334    0.9955   -5.9300 C   0  0  0  0  0  0  0  0  0  0  0  0
   -7.5659    1.6848   -7.0546 C   0  0  0  0  0  0  0  0  0  0  0  0
   -6.4819    2.4438   -7.7852 C   0  0  0  0  0  0  0  0  0  0  0  0
   -6.4764   -0.8828   -5.7496 Se  0  0  0  0  0  2  0  0  0  0  0  0
   -4.0916   -0.9355   -2.3521 C   0  0  0  0  0  0  0  0  0  0  0  0
   -3.4036    0.6369   -2.4951 S   0  0  0  0  0  0  0  0  0  0  0  0
   -6.7337   -3.4694   -2.9541 C   0  0  0  0  0  0  0  0  0  0  0  0
   -7.1302   -4.5143   -2.2707 C   0  0  0  0  0  0  0  0  0  0  0  0
   -5.7662   -4.6598   -1.0967 S   0  0  0  0  0  0  0  0  0  0  0  0
   -8.2517   -5.4842   -1.9857 C   0  0  0  0  0  0  0  0  0  0  0  0
   -8.6137   -5.4096   -0.7275 C   0  0  0  0  0  0  0  0  0  0  0  0
   -9.5657   -6.1219    0.1308 C   0  0  0  0  0  0  0  0  0  0  0  0
  -10.1764   -7.1436   -0.2866 O   0  0  0  0  0  0  0  0  0  0  0  0
   -9.6980   -5.5517    1.4437 C   0  0  0  0  0  0  0  0  0  0  0  0
  -10.4117   -5.9168    2.5588 C   0  0  0  0  0  0  0  0  0  0  0  0
  -11.2618   -7.0120    2.5675 O   0  0  0  0  0  0  0  0  0  0  0  0
  -10.3312   -5.2127    3.7621 C   0  0  0  0  0  0  0  0  0  0  0  0
   -9.4968   -4.1055    3.8150 C   0  0  0  0  0  0  0  0  0  0  0  0
   -8.7728   -3.7411    2.6709 C   0  0  0  0  0  0  0  0  0  0  0  0
   -8.8588   -4.4331    1.5180 C   0  0  0  0  0  0  0  0  0  0  0  0
   -8.1902   -4.2958    0.2039 C   0  0  0  0  0  0  0  0  0  0  0  0
   -8.0555   -2.9989   -0.2667 C   0  0  0  0  0  0  0  0  0  0  0  0
   -7.5963   -1.9104    0.5240 C   0  0  0  0  0  0  0  0  0  0  0  0
   -7.1544   -0.9093    1.2535 N   0  0  0  0  0  0  0  0  0  0  0  0
   -8.5912   -2.6234   -1.2966 C   0  0  0  0  0  0  0  0  0  0  0  0
   -9.2881   -2.1330   -2.5913 N   0  0  0  0  0  0  0  0  0  0  0  0
    7.4096    2.0434    4.7458 H   0  0  0  0  0  0  0  0  0  0  0  0
    6.7117   -0.3983   -0.9325 H   0  0  0  0  0  0  0  0  0  0  0  0
    8.6363   -2.9760    2.6972 H   0  0  0  0  0  0  0  0  0  0  0  0
    8.7898   -4.8611   -0.1809 H   0  0  0  0  0  0  0  0  0  0  0  0
    6.6874   -5.4687    1.4720 H   0  0  0  0  0  0  0  0  0  0  0  0
    6.5810   -7.2363   -0.4422 H   0  0  0  0  0  0  0  0  0  0  0  0
    5.8202   -6.0184   -2.6652 H   0  0  0  0  0  0  0  0  0  0  0  0
    5.2204   -3.5097   -1.9562 H   0  0  0  0  0  0  0  0  0  0  0  0
    4.5353   -4.7121    0.1525 H   0  0  0  0  0  0  0  0  0  0  0  0
    5.5666   -3.2692    0.6355 H   0  0  0  0  0  0  0  0  0  0  0  0
    7.9385   -3.4901   -2.0746 H   0  0  0  0  0  0  0  0  0  0  0  0
    6.2514    5.0077    3.9941 H   0  0  0  0  0  0  0  0  0  0  0  0
    3.8725    6.9458    0.5974 H   0  0  0  0  0  0  0  0  0  0  0  0
    5.4549    7.3920    1.4032 H   0  0  0  0  0  0  0  0  0  0  0  0
    3.2496    9.1413    0.8091 H   0  0  0  0  0  0  0  0  0  0  0  0
    3.0340    8.8102    2.5274 H   0  0  0  0  0  0  0  0  0  0  0  0
    4.6073    9.4647    1.9704 H   0  0  0  0  0  0  0  0  0  0  0  0
   -0.2412    1.6030    5.1552 H   0  0  0  0  0  0  0  0  0  0  0  0
   -0.5158   -0.8320    5.6585 H   0  0  0  0  0  0  0  0  0  0  0  0
    1.8290   -3.2605    6.7213 H   0  0  0  0  0  0  0  0  0  0  0  0
    2.3547   -4.6043    5.6362 H   0  0  0  0  0  0  0  0  0  0  0  0
    3.0038   -2.9002    5.4015 H   0  0  0  0  0  0  0  0  0  0  0  0
    2.2367   -1.7828    2.5464 H   0  0  0  0  0  0  0  0  0  0  0  0
    2.4947    0.5685    2.0494 H   0  0  0  0  0  0  0  0  0  0  0  0
    2.8482    1.9811    5.2365 H   0  0  0  0  0  0  0  0  0  0  0  0
    3.3612    3.2169    7.2460 H   0  0  0  0  0  0  0  0  0  0  0  0
    3.1267    4.3316    9.9742 H   0  0  0  0  0  0  0  0  0  0  0  0
    4.3368    4.3032    8.5896 H   0  0  0  0  0  0  0  0  0  0  0  0
    4.3531    5.5789    9.8571 H   0  0  0  0  0  0  0  0  0  0  0  0
    0.9043    6.4628    5.7832 H   0  0  0  0  0  0  0  0  0  0  0  0
    0.4377    5.1909    3.8293 H   0  0  0  0  0  0  0  0  0  0  0  0
   -1.0037    1.5742   -5.1390 H   0  0  0  0  0  0  0  0  0  0  0  0
   -1.4095   -0.6084   -6.0517 H   0  0  0  0  0  0  0  0  0  0  0  0
    1.5209   -3.8048   -5.1725 H   0  0  0  0  0  0  0  0  0  0  0  0
    0.9471   -3.0938   -6.7137 H   0  0  0  0  0  0  0  0  0  0  0  0
    0.6276   -4.8649   -6.3335 H   0  0  0  0  0  0  0  0  0  0  0  0
    0.3107   -2.5149   -2.6867 H   0  0  0  0  0  0  0  0  0  0  0  0
    0.7428   -0.2398   -1.7317 H   0  0  0  0  0  0  0  0  0  0  0  0
   -0.2693    4.7279   -2.5416 H   0  0  0  0  0  0  0  0  0  0  0  0
    0.9847    6.4828   -3.6788 H   0  0  0  0  0  0  0  0  0  0  0  0
    5.0646    7.7779   -4.5846 H   0  0  0  0  0  0  0  0  0  0  0  0
    5.6617    6.1865   -5.0017 H   0  0  0  0  0  0  0  0  0  0  0  0
    4.6565    6.4120   -3.4910 H   0  0  0  0  0  0  0  0  0  0  0  0
    3.3756    3.4565   -5.5528 H   0  0  0  0  0  0  0  0  0  0  0  0
    2.0670    1.7341   -4.3664 H   0  0  0  0  0  0  0  0  0  0  0  0
   -1.7986   -1.0186    0.0875 H   0  0  0  0  0  0  0  0  0  0  0  0
   -1.0543   -2.8965    0.2314 H   0  0  0  0  0  0  0  0  0  0  0  0
   -0.4327   -4.4782    2.0058 H   0  0  0  0  0  0  0  0  0  0  0  0
   -3.2506   -6.7418    3.4630 H   0  0  0  0  0  0  0  0  0  0  0  0
   -1.6339   -6.1756    3.9069 H   0  0  0  0  0  0  0  0  0  0  0  0
   -0.4959   -7.5444    2.3969 H   0  0  0  0  0  0  0  0  0  0  0  0
   -1.9136   -7.8817    1.3694 H   0  0  0  0  0  0  0  0  0  0  0  0
   -1.7349   -8.5883    3.0484 H   0  0  0  0  0  0  0  0  0  0  0  0
   -5.7652    1.0729   -2.7564 H   0  0  0  0  0  0  0  0  0  0  0  0
   -6.7087    2.5597   -4.5285 H   0  0  0  0  0  0  0  0  0  0  0  0
   -8.0290    1.0070   -7.7931 H   0  0  0  0  0  0  0  0  0  0  0  0
   -8.3730    2.3464   -6.6604 H   0  0  0  0  0  0  0  0  0  0  0  0
   -6.8211    2.9954   -8.6721 H   0  0  0  0  0  0  0  0  0  0  0  0
   -6.0019    3.1994   -7.0674 H   0  0  0  0  0  0  0  0  0  0  0  0
   -5.6543    1.7974   -8.0685 H   0  0  0  0  0  0  0  0  0  0  0  0
   -7.3572   -3.1508   -3.8572 H   0  0  0  0  0  0  0  0  0  0  0  0
   -8.6390   -6.0789   -2.6927 H   0  0  0  0  0  0  0  0  0  0  0  0
  -11.3713   -7.5902    1.7032 H   0  0  0  0  0  0  0  0  0  0  0  0
  -10.8815   -5.4934    4.6389 H   0  0  0  0  0  0  0  0  0  0  0  0
   -9.4358   -3.5860    4.7388 H   0  0  0  0  0  0  0  0  0  0  0  0
   -8.1478   -2.8893    2.7949 H   0  0  0  0  0  0  0  0  0  0  0  0
  1  2  2  3
  2  3  1  0
  3  4  2  0
  3  5  1  0
  5  6  2  0
  6  7  1  0
  7  8  2  0
  8  9  1  0
  9 10  2  0
 10 11  1  0
 11 12  2  3
 12 13  1  0
 13 14  3  0
 12 15  1  0
 15 16  3  0
  8 17  1  0
 17 18  1  0
 18 19  1  0
 19 20  2  0
 20 21  1  0
 21 22  1  0
 21 23  1  0
  1 24  1  0
 24 25  2  0
 25 26  1  0
 26 27  1  0
 27 28  1  0
 28 29  1  0
 26 30  2  0
 30 31  1  0
 30 32  1  0
 32 33  2  0
 33 34  1  0
 34 35  1  0
 35 36  2  0
 36 37  1  0
 37 38  2  0
 38 39  1  0
 39 40  1  0
 38 41  1  0
 41 42  2  0
 34 43  1  0
 43 44  2  0
 44 45  1  0
 45 46  2  0
 46 47  1  0
 47 48  1  0
 46 49  1  0
 49 50  2  0
 33 51  1  0
 51 52  1  0
 52 53  1  0
 53 54  2  0
 54 55  1  0
 55 56  1  0
 56 57  2  0
 57 58  1  0
 58 59  2  0
 59 60  1  0
 60 61  1  0
 59 62  1  0
 62 63  2  0
 55 64  1  0
 64 65  2  0
 65 66  1  0
 66 67  2  0
 67 68  1  0
 68 69  1  0
 67 70  1  0
 70 71  2  0
 54 72  1  0
 72 73  1  0
 53 74  1  0
 74 75  2  0
 75 76  1  0
 76 77  2  0
 77 78  1  0
 78 79  2  0
 79 80  1  0
 80 81  2  0
 81 82  1  0
 82 83  1  0
 81 84  1  0
 77 85  1  0
 85 86  2  0
 86 87  1  0
 87 88  1  0
 88 89  2  0
 89 90  1  0
 90 91  2  0
 91 92  1  0
 92 93  1  0
 91 94  1  0
 87 95  2  0
 95 96  1  0
 86 97  1  0
 97 98  2  0
 98 99  1  0
 98100  1  0
100101  2  3
101102  1  0
102103  2  0
102104  1  0
104105  2  0
105106  1  0
105107  1  0
107108  2  0
108109  1  0
109110  2  0
110111  1  0
111112  2  3
112113  1  0
113114  3  0
112115  1  0
115116  3  0
 11  2  1  0
 23 17  1  0
 31 24  1  0
 73 32  1  0
 96 74  1  0
111101  1  0
 10  5  1  0
 22 18  1  0
 42 35  1  0
 50 43  1  0
 72 51  2  0
 95 76  1  0
110104  1  0
 23  7  1  0
 63 56  1  0
 71 64  1  0
 84 78  1  0
 99 85  1  0
 94 88  1  0
  1117  1  0
  6118  1  0
  9119  1  0
 17120  1  0
 18121  1  0
 19122  1  0
 20123  1  0
 21124  1  0
 22125  1  0
 22126  1  0
 23127  1  0
 25128  1  0
 28129  1  0
 28130  1  0
 29131  1  0
 29132  1  0
 29133  1  0
 36134  1  0
 37135  1  0
 40136  1  0
 40137  1  0
 40138  1  0
 41139  1  0
 42140  1  0
 44141  1  0
 45142  1  0
 48143  1  0
 48144  1  0
 48145  1  0
 49146  1  0
 50147  1  0
 57148  1  0
 58149  1  0
 61150  1  0
 61151  1  0
 61152  1  0
 62153  1  0
 63154  1  0
 65155  1  0
 66156  1  0
 69157  1  0
 69158  1  0
 69159  1  0
 70160  1  0
 71161  1  0
 75162  1  0
 79163  1  0
 80164  1  0
 82165  1  0
 82166  1  0
 83167  1  0
 83168  1  0
 83169  1  0
 89170  1  0
 90171  1  0
 92172  1  0
 92173  1  0
 93174  1  0
 93175  1  0
 93176  1  0
 97177  1  0
100178  1  0
106179  1  0
107180  1  0
108181  1  0
109182  1  0
M  END

