
     RDKit          3D

149164  0  0  0  0  0  0  0  0999 V2000
   -2.4052   -4.4137   -4.3049 C   0  0  0  0  0  0  0  0  0  0  0  0
   -3.6506   -3.8877   -4.2462 C   0  0  0  0  0  0  0  0  0  0  0  0
   -4.8121   -4.5224   -3.6216 C   0  0  0  0  0  0  0  0  0  0  0  0
   -4.9429   -5.7632   -3.4081 O   0  0  0  0  0  0  0  0  0  0  0  0
   -5.8557   -3.4986   -3.4898 C   0  0  0  0  0  0  0  0  0  0  0  0
   -7.1090   -3.6742   -2.8215 C   0  0  0  0  0  0  0  0  0  0  0  0
   -7.7833   -2.4668   -2.6808 C   0  0  0  0  0  0  0  0  0  0  0  0
   -7.2762   -1.2098   -3.1394 C   0  0  0  0  0  0  0  0  0  0  0  0
   -6.0504   -1.0531   -3.7647 C   0  0  0  0  0  0  0  0  0  0  0  0
   -5.3871   -2.2794   -4.0257 C   0  0  0  0  0  0  0  0  0  0  0  0
   -4.0920   -2.5175   -4.7228 C   0  0  0  0  0  0  0  0  0  0  0  0
   -3.4968   -1.6684   -5.6043 C   0  0  0  0  0  0  0  0  0  0  0  0
   -4.1020   -0.4345   -5.9898 C   0  0  0  0  0  0  0  0  0  0  0  0
   -4.5866    0.5809   -6.2993 N   0  0  0  0  0  0  0  0  0  0  0  0
   -2.3127   -2.0066   -6.3318 C   0  0  0  0  0  0  0  0  0  0  0  0
   -1.3729   -2.3015   -6.9521 N   0  0  0  0  0  0  0  0  0  0  0  0
   -8.2310   -0.4741   -2.2270 C   0  0  0  0  0  0  0  0  0  0  0  0
   -7.6483    0.0906   -0.8462 C   0  0  0  0  0  0  0  0  0  0  0  0
   -8.8649    0.4773   -0.0381 C   0  0  0  0  0  0  0  0  0  0  0  0
   -9.4905   -0.6747    0.2710 C   0  0  0  0  0  0  0  0  0  0  0  0
   -8.6403   -1.8042   -0.2931 C   0  0  0  0  0  0  0  0  0  0  0  0
   -7.2415   -1.1828   -0.0642 C   0  0  0  0  0  0  0  0  0  0  0  0
   -8.8280   -1.7656   -1.8455 C   0  0  0  0  0  0  0  0  0  0  0  0
   -1.4583   -4.1897   -3.1731 C   0  0  0  0  0  0  0  0  0  0  0  0
   -0.2363   -3.5185   -3.3853 C   0  0  0  0  0  0  0  0  0  0  0  0
    0.2846   -2.9881   -4.5344 N   0  0  0  0  0  0  0  0  0  0  0  0
    1.3765   -2.3420   -4.1473 N   0  0  0  0  0  0  0  0  0  0  0  0
    2.2704   -1.6364   -5.0828 C   0  0  0  0  0  0  0  0  0  0  0  0
    1.6317   -0.3318   -5.5180 C   0  0  0  0  0  0  0  0  0  0  0  0
    1.6129   -2.3767   -2.8483 N   0  0  0  0  0  0  0  0  0  0  0  0
    0.5958   -3.1404   -2.3363 C   0  0  0  0  0  0  0  0  0  0  0  0
    0.2916   -3.3889   -0.9814 C   0  0  0  0  0  0  0  0  0  0  0  0
   -0.7970   -4.2523   -0.7451 C   0  0  0  0  0  0  0  0  0  0  0  0
   -1.6743   -4.6405   -1.8309 C   0  0  0  0  0  0  0  0  0  0  0  0
   -2.9639   -5.8100   -1.4575 Cl  0  0  0  0  0  0  0  0  0  0  0  0
   -1.0753   -4.8114    0.8945 Cl  0  0  0  0  0  0  0  0  0  0  0  0
    1.0018   -2.6510    0.0480 C   0  0  0  0  0  0  0  0  0  0  0  0
    0.4549   -1.4754    0.5424 C   0  0  0  0  0  0  0  0  0  0  0  0
   -0.9451   -1.1587    0.6223 N   0  0  0  0  0  0  0  0  0  0  0  0
   -1.7663   -1.7723    1.6574 C   0  0  0  0  0  0  0  0  0  0  0  0
   -3.1173   -2.0799    1.3879 C   0  0  0  0  0  0  0  0  0  0  0  0
   -3.9157   -2.6730    2.3712 C   0  0  0  0  0  0  0  0  0  0  0  0
   -3.4164   -2.9467    3.6490 C   0  0  0  0  0  0  0  0  0  0  0  0
   -4.4123   -3.8620    4.8481 S   0  0  0  0  0  0  0  0  0  0  0  0
   -5.3248   -2.3968    5.4597 C   0  0  0  0  0  0  0  0  0  0  0  0
   -2.0853   -2.6126    3.9409 C   0  0  0  0  0  0  0  0  0  0  0  0
   -1.2592   -2.0456    2.9575 C   0  0  0  0  0  0  0  0  0  0  0  0
   -1.5117   -0.0932   -0.1515 C   0  0  0  0  0  0  0  0  0  0  0  0
   -1.8430   -0.3237   -1.4804 C   0  0  0  0  0  0  0  0  0  0  0  0
   -2.5752    0.6379   -2.1689 C   0  0  0  0  0  0  0  0  0  0  0  0
   -2.9921    1.8463   -1.5400 C   0  0  0  0  0  0  0  0  0  0  0  0
   -3.9954    3.0567   -2.3905 S   0  0  0  0  0  0  0  0  0  0  0  0
   -2.5790    3.7902   -3.2937 C   0  0  0  0  0  0  0  0  0  0  0  0
   -2.6426    2.0429   -0.1847 C   0  0  0  0  0  0  0  0  0  0  0  0
   -1.9387    1.0670    0.5226 C   0  0  0  0  0  0  0  0  0  0  0  0
    1.4203   -0.5926    0.9115 C   0  0  0  0  0  0  0  0  0  0  0  0
    1.3213    1.0145    1.2101 S   0  0  0  0  0  0  0  0  0  0  0  0
    3.0267    1.3547    1.2366 C   0  0  0  0  0  0  0  0  0  0  0  0
    3.6795    0.1011    0.9202 C   0  0  0  0  0  0  0  0  0  0  0  0
    5.0849   -0.1833    0.9177 N   0  0  0  0  0  0  0  0  0  0  0  0
    5.8412   -0.3205   -0.3193 C   0  0  0  0  0  0  0  0  0  0  0  0
    7.2275   -0.0479   -0.3806 C   0  0  0  0  0  0  0  0  0  0  0  0
    7.9177   -0.1273   -1.5905 C   0  0  0  0  0  0  0  0  0  0  0  0
    7.2638   -0.5711   -2.7619 C   0  0  0  0  0  0  0  0  0  0  0  0
    8.1069   -0.5077   -4.3515 S   0  0  0  0  0  0  0  0  0  0  0  0
    9.0671   -2.0665   -4.1599 C   0  0  0  0  0  0  0  0  0  0  0  0
    5.8997   -0.8999   -2.7118 C   0  0  0  0  0  0  0  0  0  0  0  0
    5.2032   -0.7078   -1.5155 C   0  0  0  0  0  0  0  0  0  0  0  0
    5.7025   -0.5801    2.1747 C   0  0  0  0  0  0  0  0  0  0  0  0
    6.5362   -1.7397    2.2268 C   0  0  0  0  0  0  0  0  0  0  0  0
    7.1681   -2.1015    3.4286 C   0  0  0  0  0  0  0  0  0  0  0  0
    7.0218   -1.3114    4.6011 C   0  0  0  0  0  0  0  0  0  0  0  0
    7.9929   -1.6740    6.0584 S   0  0  0  0  0  0  0  0  0  0  0  0
    6.6428   -2.4847    6.9713 C   0  0  0  0  0  0  0  0  0  0  0  0
    6.2089   -0.1781    4.5444 C   0  0  0  0  0  0  0  0  0  0  0  0
    5.5326    0.1683    3.3650 C   0  0  0  0  0  0  0  0  0  0  0  0
    2.7360   -0.9537    0.7495 C   0  0  0  0  0  0  0  0  0  0  0  0
    2.7095   -2.5349    0.1277 S   0  0  0  0  0  0  0  0  0  0  0  0
    3.4918    2.7682    1.6325 C   0  0  0  0  0  0  0  0  0  0  0  0
    2.5200    3.8067    1.8833 C   0  0  0  0  0  0  0  0  0  0  0  0
    1.1954    3.8030    1.6324 N   0  0  0  0  0  0  0  0  0  0  0  0
    0.7372    4.9653    2.0270 N   0  0  0  0  0  0  0  0  0  0  0  0
   -0.7000    5.2481    1.9121 C   0  0  0  0  0  0  0  0  0  0  0  0
   -1.0926    5.4376    0.4715 C   0  0  0  0  0  0  0  0  0  0  0  0
    1.6726    5.7672    2.5125 N   0  0  0  0  0  0  0  0  0  0  0  0
    2.8395    5.0526    2.4013 C   0  0  0  0  0  0  0  0  0  0  0  0
    4.1454    5.4124    2.7181 C   0  0  0  0  0  0  0  0  0  0  0  0
    5.1637    4.4745    2.3574 C   0  0  0  0  0  0  0  0  0  0  0  0
    4.8423    3.2007    1.7800 C   0  0  0  0  0  0  0  0  0  0  0  0
    6.1683    2.4424    0.9552 Cl  0  0  0  0  0  0  0  0  0  0  0  0
    6.9228    4.9191    2.5172 Cl  0  0  0  0  0  0  0  0  0  0  0  0
    4.4426    6.7674    3.1980 C   0  0  0  0  0  0  0  0  0  0  0  0
    5.3397    7.0457    4.2141 C   0  0  0  0  0  0  0  0  0  0  0  0
    6.0495    8.2773    4.0356 C   0  0  0  0  0  0  0  0  0  0  0  0
    5.6548    8.9364    2.8802 C   0  0  0  0  0  0  0  0  0  0  0  0
    6.6319    9.6465    2.0726 C   0  0  0  0  0  0  0  0  0  0  0  0
    7.4856    9.9855    1.3396 N   0  0  0  0  0  0  0  0  0  0  0  0
    4.4606    8.0763    2.1324 S   0  0  0  0  0  0  0  0  0  0  0  0
   -1.8532   -4.1708   -5.2405 H   0  0  0  0  0  0  0  0  0  0  0  0
   -7.3697   -4.5611   -2.2309 H   0  0  0  0  0  0  0  0  0  0  0  0
   -5.6649   -0.0604   -3.9781 H   0  0  0  0  0  0  0  0  0  0  0  0
   -8.9087    0.2519   -2.7527 H   0  0  0  0  0  0  0  0  0  0  0  0
   -6.8579    0.8638   -0.9169 H   0  0  0  0  0  0  0  0  0  0  0  0
   -9.1088    1.4785    0.3576 H   0  0  0  0  0  0  0  0  0  0  0  0
  -10.3729   -0.7224    0.9301 H   0  0  0  0  0  0  0  0  0  0  0  0
   -8.8085   -2.7814    0.1983 H   0  0  0  0  0  0  0  0  0  0  0  0
   -7.0024   -0.9859    1.0359 H   0  0  0  0  0  0  0  0  0  0  0  0
   -6.3177   -1.7238   -0.3942 H   0  0  0  0  0  0  0  0  0  0  0  0
   -9.8594   -1.9268   -2.2021 H   0  0  0  0  0  0  0  0  0  0  0  0
    3.2163   -1.4005   -4.5648 H   0  0  0  0  0  0  0  0  0  0  0  0
    2.5141   -2.2833   -5.9532 H   0  0  0  0  0  0  0  0  0  0  0  0
    0.7701   -0.5389   -6.1807 H   0  0  0  0  0  0  0  0  0  0  0  0
    2.3815    0.2498   -6.0927 H   0  0  0  0  0  0  0  0  0  0  0  0
    1.3072    0.2804   -4.6504 H   0  0  0  0  0  0  0  0  0  0  0  0
   -3.5178   -1.8474    0.3681 H   0  0  0  0  0  0  0  0  0  0  0  0
   -4.9200   -2.9242    2.1048 H   0  0  0  0  0  0  0  0  0  0  0  0
   -5.7952   -2.6655    6.4228 H   0  0  0  0  0  0  0  0  0  0  0  0
   -6.1703   -2.1318    4.7444 H   0  0  0  0  0  0  0  0  0  0  0  0
   -4.6851   -1.4971    5.6090 H   0  0  0  0  0  0  0  0  0  0  0  0
   -1.6615   -2.8517    4.9259 H   0  0  0  0  0  0  0  0  0  0  0  0
   -0.2279   -1.7916    3.2277 H   0  0  0  0  0  0  0  0  0  0  0  0
   -1.5806   -1.2543   -1.9530 H   0  0  0  0  0  0  0  0  0  0  0  0
   -2.8243    0.4486   -3.2307 H   0  0  0  0  0  0  0  0  0  0  0  0
   -2.0121    2.9908   -3.8487 H   0  0  0  0  0  0  0  0  0  0  0  0
   -1.8896    4.3028   -2.5659 H   0  0  0  0  0  0  0  0  0  0  0  0
   -2.9830    4.4930   -4.0707 H   0  0  0  0  0  0  0  0  0  0  0  0
   -2.9495    2.9356    0.3287 H   0  0  0  0  0  0  0  0  0  0  0  0
   -1.8026    1.1510    1.6254 H   0  0  0  0  0  0  0  0  0  0  0  0
    7.7646    0.3093    0.5166 H   0  0  0  0  0  0  0  0  0  0  0  0
    8.9573    0.1595   -1.6101 H   0  0  0  0  0  0  0  0  0  0  0  0
    8.5079   -2.9034   -4.6210 H   0  0  0  0  0  0  0  0  0  0  0  0
    9.3083   -2.3047   -3.1022 H   0  0  0  0  0  0  0  0  0  0  0  0
   10.0375   -1.9530   -4.7023 H   0  0  0  0  0  0  0  0  0  0  0  0
    5.3598   -1.2490   -3.6218 H   0  0  0  0  0  0  0  0  0  0  0  0
    4.1510   -0.9286   -1.5549 H   0  0  0  0  0  0  0  0  0  0  0  0
    6.6653   -2.3420    1.3513 H   0  0  0  0  0  0  0  0  0  0  0  0
    7.8403   -2.9600    3.4262 H   0  0  0  0  0  0  0  0  0  0  0  0
    5.8970   -1.7411    7.3454 H   0  0  0  0  0  0  0  0  0  0  0  0
    6.1025   -3.2683    6.3579 H   0  0  0  0  0  0  0  0  0  0  0  0
    7.0705   -2.9983    7.8605 H   0  0  0  0  0  0  0  0  0  0  0  0
    6.0958    0.4561    5.3934 H   0  0  0  0  0  0  0  0  0  0  0  0
    4.8952    1.0555    3.3618 H   0  0  0  0  0  0  0  0  0  0  0  0
   -1.2757    4.3594    2.3347 H   0  0  0  0  0  0  0  0  0  0  0  0
   -0.9211    6.1602    2.4941 H   0  0  0  0  0  0  0  0  0  0  0  0
   -2.1697    5.6404    0.4015 H   0  0  0  0  0  0  0  0  0  0  0  0
   -0.5345    6.2752    0.0015 H   0  0  0  0  0  0  0  0  0  0  0  0
   -0.8901    4.5053   -0.1567 H   0  0  0  0  0  0  0  0  0  0  0  0
    5.5964    6.3873    5.0373 H   0  0  0  0  0  0  0  0  0  0  0  0
    6.9887    8.4449    4.5879 H   0  0  0  0  0  0  0  0  0  0  0  0
  1  2  2  3
  2  3  1  0
  3  4  2  0
  3  5  1  0
  5  6  2  0
  6  7  1  0
  7  8  2  0
  8  9  1  0
  9 10  2  0
 10 11  1  0
 11 12  2  3
 12 13  1  0
 13 14  3  0
 12 15  1  0
 15 16  3  0
  8 17  1  0
 17 18  1  0
 18 19  1  0
 19 20  2  0
 20 21  1  0
 21 22  1  0
 21 23  1  0
  1 24  1  0
 24 25  1  0
 25 26  2  0
 26 27  1  0
 27 28  1  0
 28 29  1  0
 27 30  1  0
 30 31  2  0
 31 32  1  0
 32 33  2  0
 33 34  1  0
 34 35  1  0
 33 36  1  0
 32 37  1  0
 37 38  2  0
 38 39  1  0
 39 40  1  0
 40 41  2  0
 41 42  1  0
 42 43  2  0
 43 44  1  0
 44 45  1  0
 43 46  1  0
 46 47  2  0
 39 48  1  0
 48 49  2  0
 49 50  1  0
 50 51  2  0
 51 52  1  0
 52 53  1  0
 51 54  1  0
 54 55  2  0
 38 56  1  0
 56 57  1  0
 57 58  1  0
 58 59  2  0
 59 60  1  0
 60 61  1  0
 61 62  2  0
 62 63  1  0
 63 64  2  0
 64 65  1  0
 65 66  1  0
 64 67  1  0
 67 68  2  0
 60 69  1  0
 69 70  2  0
 70 71  1  0
 71 72  2  0
 72 73  1  0
 73 74  1  0
 72 75  1  0
 75 76  2  0
 59 77  1  0
 77 78  1  0
 58 79  1  0
 79 80  1  0
 80 81  2  0
 81 82  1  0
 82 83  1  0
 83 84  1  0
 82 85  1  0
 85 86  2  0
 86 87  1  0
 87 88  2  0
 88 89  1  0
 89 90  1  0
 88 91  1  0
 87 92  1  0
 92 93  2  0
 93 94  1  0
 94 95  2  0
 95 96  1  0
 96 97  3  0
 95 98  1  0
 11  2  1  0
 23 17  1  0
 34 24  2  0
 78 37  1  0
 89 79  2  0
 98 92  1  0
 10  5  1  0
 22 18  1  0
 31 25  1  0
 47 40  1  0
 55 48  1  0
 77 56  2  0
 86 80  1  0
 23  7  1  0
 68 61  1  0
 76 69  1  0
  1 99  1  0
  6100  1  0
  9101  1  0
 17102  1  0
 18103  1  0
 19104  1  0
 20105  1  0
 21106  1  0
 22107  1  0
 22108  1  0
 23109  1  0
 28110  1  0
 28111  1  0
 29112  1  0
 29113  1  0
 29114  1  0
 41115  1  0
 42116  1  0
 45117  1  0
 45118  1  0
 45119  1  0
 46120  1  0
 47121  1  0
 49122  1  0
 50123  1  0
 53124  1  0
 53125  1  0
 53126  1  0
 54127  1  0
 55128  1  0
 62129  1  0
 63130  1  0
 66131  1  0
 66132  1  0
 66133  1  0
 67134  1  0
 68135  1  0
 70136  1  0
 71137  1  0
 74138  1  0
 74139  1  0
 74140  1  0
 75141  1  0
 76142  1  0
 83143  1  0
 83144  1  0
 84145  1  0
 84146  1  0
 84147  1  0
 93148  1  0
 94149  1  0
M  END

