
     RDKit          3D

137151  0  0  0  0  0  0  0  0999 V2000
   -0.9476   -3.5329   -5.0360 C   0  0  0  0  0  0  0  0  0  0  0  0
    0.3833   -3.6669   -5.2175 C   0  0  0  0  0  0  0  0  0  0  0  0
    1.4008   -2.7481   -4.6827 C   0  0  0  0  0  0  0  0  0  0  0  0
    1.3223   -1.4903   -4.6424 O   0  0  0  0  0  0  0  0  0  0  0  0
    2.5557   -3.5089   -4.2736 C   0  0  0  0  0  0  0  0  0  0  0  0
    3.6341   -3.0489   -3.4882 C   0  0  0  0  0  0  0  0  0  0  0  0
    4.4706   -4.0557   -3.0507 C   0  0  0  0  0  0  0  0  0  0  0  0
    4.2722   -5.4377   -3.3718 C   0  0  0  0  0  0  0  0  0  0  0  0
    3.2264   -5.8925   -4.1614 C   0  0  0  0  0  0  0  0  0  0  0  0
    2.3592   -4.8661   -4.6336 C   0  0  0  0  0  0  0  0  0  0  0  0
    1.0730   -4.9840   -5.3746 C   0  0  0  0  0  0  0  0  0  0  0  0
    0.6803   -6.0187   -6.1605 C   0  0  0  0  0  0  0  0  0  0  0  0
   -0.5145   -5.9496   -6.9635 C   0  0  0  0  0  0  0  0  0  0  0  0
   -1.4729   -5.9026   -7.6096 N   0  0  0  0  0  0  0  0  0  0  0  0
    1.5147   -7.1727   -6.3859 C   0  0  0  0  0  0  0  0  0  0  0  0
    2.1839   -8.0919   -6.5888 N   0  0  0  0  0  0  0  0  0  0  0  0
    5.4552   -5.8181   -2.5291 C   0  0  0  0  0  0  0  0  0  0  0  0
    6.7759   -6.2178   -3.2545 C   0  0  0  0  0  0  0  0  0  0  0  0
    6.8804   -5.4897   -4.5752 C   0  0  0  0  0  0  0  0  0  0  0  0
    7.0625   -4.2006   -4.2856 C   0  0  0  0  0  0  0  0  0  0  0  0
    7.0757   -4.0953   -2.7770 C   0  0  0  0  0  0  0  0  0  0  0  0
    7.7739   -5.4029   -2.4505 C   0  0  0  0  0  0  0  0  0  0  0  0
    5.6588   -4.4017   -2.2052 C   0  0  0  0  0  0  0  0  0  0  0  0
   -1.4940   -2.5939   -4.0426 C   0  0  0  0  0  0  0  0  0  0  0  0
   -1.7675   -2.9833   -2.7402 C   0  0  0  0  0  0  0  0  0  0  0  0
   -1.8763   -1.9120   -1.8541 C   0  0  0  0  0  0  0  0  0  0  0  0
   -2.0454   -2.1503   -0.0746 S   0  0  0  0  0  0  0  0  0  0  0  0
   -0.4071   -2.9308    0.1859 C   0  0  0  0  0  0  0  0  0  0  0  0
    0.7411   -1.9535   -0.0224 C   0  0  0  0  0  0  0  0  0  0  0  0
   -1.7704   -0.6690   -2.4769 C   0  0  0  0  0  0  0  0  0  0  0  0
   -1.4897   -0.9068   -4.1164 S   0  0  0  0  0  0  0  0  0  0  0  0
   -1.7571    0.6294   -1.7994 C   0  0  0  0  0  0  0  0  0  0  0  0
   -2.8678    1.4678   -1.6373 C   0  0  0  0  0  0  0  0  0  0  0  0
   -4.1712    1.1902   -2.1711 N   0  0  0  0  0  0  0  0  0  0  0  0
   -4.8836    0.0217   -1.7251 C   0  0  0  0  0  0  0  0  0  0  0  0
   -5.4578   -0.8558   -2.6589 C   0  0  0  0  0  0  0  0  0  0  0  0
   -6.0610   -2.0419   -2.2341 C   0  0  0  0  0  0  0  0  0  0  0  0
   -6.1049   -2.3538   -0.8705 C   0  0  0  0  0  0  0  0  0  0  0  0
   -6.8123   -3.9085   -0.3250 S   0  0  0  0  0  0  0  0  0  0  0  0
   -5.2410   -4.8114   -0.4875 C   0  0  0  0  0  0  0  0  0  0  0  0
   -5.5690   -1.4657    0.0684 C   0  0  0  0  0  0  0  0  0  0  0  0
   -4.9593   -0.2853   -0.3559 C   0  0  0  0  0  0  0  0  0  0  0  0
   -4.7396    2.0823   -3.1492 C   0  0  0  0  0  0  0  0  0  0  0  0
   -3.9343    2.6362   -4.1598 C   0  0  0  0  0  0  0  0  0  0  0  0
   -4.4742    3.5372   -5.0789 C   0  0  0  0  0  0  0  0  0  0  0  0
   -5.8183    3.9129   -4.9872 C   0  0  0  0  0  0  0  0  0  0  0  0
   -6.4877    5.1344   -6.1183 S   0  0  0  0  0  0  0  0  0  0  0  0
   -5.9463    6.5370   -5.0901 C   0  0  0  0  0  0  0  0  0  0  0  0
   -6.6315    3.3540   -3.9973 C   0  0  0  0  0  0  0  0  0  0  0  0
   -6.0993    2.4370   -3.0871 C   0  0  0  0  0  0  0  0  0  0  0  0
   -2.6325    2.4415   -0.6680 C   0  0  0  0  0  0  0  0  0  0  0  0
   -3.6761    3.3520    0.2827 S   0  0  0  0  0  0  0  0  0  0  0  0
   -2.5038    3.6825    1.4747 C   0  0  0  0  0  0  0  0  0  0  0  0
   -1.2949    3.0559    1.1344 C   0  0  0  0  0  0  0  0  0  0  0  0
   -0.2366    2.7970    2.0733 N   0  0  0  0  0  0  0  0  0  0  0  0
   -0.5378    2.0731    3.2818 C   0  0  0  0  0  0  0  0  0  0  0  0
   -0.1022    2.5607    4.5254 C   0  0  0  0  0  0  0  0  0  0  0  0
   -0.3741    1.8470    5.6947 C   0  0  0  0  0  0  0  0  0  0  0  0
   -1.0739    0.6367    5.6328 C   0  0  0  0  0  0  0  0  0  0  0  0
   -1.3890   -0.2996    7.1291 S   0  0  0  0  0  0  0  0  0  0  0  0
    0.2550   -1.0837    7.1300 C   0  0  0  0  0  0  0  0  0  0  0  0
   -1.5268    0.1551    4.3979 C   0  0  0  0  0  0  0  0  0  0  0  0
   -1.2632    0.8722    3.2295 C   0  0  0  0  0  0  0  0  0  0  0  0
    1.1169    3.2129    1.7848 C   0  0  0  0  0  0  0  0  0  0  0  0
    1.3659    4.4038    1.0822 C   0  0  0  0  0  0  0  0  0  0  0  0
    2.6758    4.8543    0.8898 C   0  0  0  0  0  0  0  0  0  0  0  0
    3.7552    4.1001    1.3626 C   0  0  0  0  0  0  0  0  0  0  0  0
    5.4352    4.6999    1.1557 S   0  0  0  0  0  0  0  0  0  0  0  0
    5.6020    4.0159   -0.5214 C   0  0  0  0  0  0  0  0  0  0  0  0
    3.5212    2.8909    2.0238 C   0  0  0  0  0  0  0  0  0  0  0  0
    2.2120    2.4498    2.2350 C   0  0  0  0  0  0  0  0  0  0  0  0
   -1.4062    2.3855   -0.0789 C   0  0  0  0  0  0  0  0  0  0  0  0
   -0.5300    1.1182   -0.7284 S   0  0  0  0  0  0  0  0  0  0  0  0
   -2.7917    4.3015    2.7775 C   0  0  0  0  0  0  0  0  0  0  0  0
   -2.1489    5.4829    3.1676 C   0  0  0  0  0  0  0  0  0  0  0  0
   -2.3808    6.0627    4.4368 C   0  0  0  0  0  0  0  0  0  0  0  0
   -1.6517    7.2711    4.6803 N   0  0  0  0  0  0  0  0  0  0  0  0
   -0.8659    7.4221    3.2989 S   0  0  0  0  0  4  0  0  0  0  0  0
   -1.2402    6.2099    2.3343 N   0  0  0  0  0  0  0  0  0  0  0  0
   -3.2412    5.4614    5.3690 C   0  0  0  0  0  0  0  0  0  0  0  0
   -3.8939    4.2698    4.9859 C   0  0  0  0  0  0  0  0  0  0  0  0
   -4.7745    3.6172    5.7891 N   0  0  0  0  0  0  0  0  0  0  0  0
   -5.1681    2.3322    4.8298 S   0  0  0  0  0  0  0  0  0  0  0  0
   -4.3211    2.5332    3.4278 N   0  0  0  0  0  0  0  0  0  0  0  0
   -3.6623    3.6904    3.6971 C   0  0  0  0  0  0  0  0  0  0  0  0
   -3.4990    6.1289    6.6657 C   0  0  0  0  0  0  0  0  0  0  0  0
   -3.3369    5.5440    7.8631 C   0  0  0  0  0  0  0  0  0  0  0  0
   -3.5868    6.3003    9.0621 C   0  0  0  0  0  0  0  0  0  0  0  0
   -3.7841    6.9126   10.0244 N   0  0  0  0  0  0  0  0  0  0  0  0
   -2.8354    4.2003    8.0073 C   0  0  0  0  0  0  0  0  0  0  0  0
   -2.4317    3.1215    8.1275 N   0  0  0  0  0  0  0  0  0  0  0  0
   -1.5896   -4.3761   -5.2448 H   0  0  0  0  0  0  0  0  0  0  0  0
    3.7579   -2.0151   -3.1916 H   0  0  0  0  0  0  0  0  0  0  0  0
    3.0666   -6.9477   -4.3216 H   0  0  0  0  0  0  0  0  0  0  0  0
    5.1963   -6.4429   -1.6452 H   0  0  0  0  0  0  0  0  0  0  0  0
    6.9757   -7.3087   -3.3023 H   0  0  0  0  0  0  0  0  0  0  0  0
    6.8963   -5.9251   -5.5706 H   0  0  0  0  0  0  0  0  0  0  0  0
    7.2460   -3.4057   -5.0011 H   0  0  0  0  0  0  0  0  0  0  0  0
    7.5635   -3.1829   -2.3772 H   0  0  0  0  0  0  0  0  0  0  0  0
    7.7748   -5.6492   -1.3612 H   0  0  0  0  0  0  0  0  0  0  0  0
    8.8152   -5.4602   -2.8467 H   0  0  0  0  0  0  0  0  0  0  0  0
    5.5233   -4.1686   -1.1249 H   0  0  0  0  0  0  0  0  0  0  0  0
   -1.7765   -4.0187   -2.4230 H   0  0  0  0  0  0  0  0  0  0  0  0
   -0.3726   -3.2981    1.2304 H   0  0  0  0  0  0  0  0  0  0  0  0
   -0.2885   -3.8080   -0.4863 H   0  0  0  0  0  0  0  0  0  0  0  0
    1.7051   -2.4467    0.2191 H   0  0  0  0  0  0  0  0  0  0  0  0
    0.6174   -1.0827    0.6517 H   0  0  0  0  0  0  0  0  0  0  0  0
    0.7816   -1.6117   -1.0757 H   0  0  0  0  0  0  0  0  0  0  0  0
   -5.3979   -0.6398   -3.7201 H   0  0  0  0  0  0  0  0  0  0  0  0
   -6.4737   -2.7259   -2.9641 H   0  0  0  0  0  0  0  0  0  0  0  0
   -5.3881   -5.8594   -0.1553 H   0  0  0  0  0  0  0  0  0  0  0  0
   -4.9112   -4.8103   -1.5460 H   0  0  0  0  0  0  0  0  0  0  0  0
   -4.4586   -4.3392    0.1427 H   0  0  0  0  0  0  0  0  0  0  0  0
   -5.6038   -1.7008    1.1245 H   0  0  0  0  0  0  0  0  0  0  0  0
   -4.5274    0.3785    0.3819 H   0  0  0  0  0  0  0  0  0  0  0  0
   -2.8900    2.3643   -4.2388 H   0  0  0  0  0  0  0  0  0  0  0  0
   -3.8415    3.9609   -5.8501 H   0  0  0  0  0  0  0  0  0  0  0  0
   -6.4308    6.4901   -4.0929 H   0  0  0  0  0  0  0  0  0  0  0  0
   -4.8419    6.5238   -4.9693 H   0  0  0  0  0  0  0  0  0  0  0  0
   -6.2399    7.4857   -5.5854 H   0  0  0  0  0  0  0  0  0  0  0  0
   -7.6719    3.6454   -3.9190 H   0  0  0  0  0  0  0  0  0  0  0  0
   -6.7344    2.0310   -2.3106 H   0  0  0  0  0  0  0  0  0  0  0  0
    0.4484    3.4932    4.5854 H   0  0  0  0  0  0  0  0  0  0  0  0
   -0.0290    2.2280    6.6487 H   0  0  0  0  0  0  0  0  0  0  0  0
    0.4540   -1.5880    6.1611 H   0  0  0  0  0  0  0  0  0  0  0  0
    1.0349   -0.3164    7.3197 H   0  0  0  0  0  0  0  0  0  0  0  0
    0.2997   -1.8404    7.9416 H   0  0  0  0  0  0  0  0  0  0  0  0
   -2.0811   -0.7744    4.3432 H   0  0  0  0  0  0  0  0  0  0  0  0
   -1.6124    0.4846    2.2812 H   0  0  0  0  0  0  0  0  0  0  0  0
    0.5467    5.0031    0.7095 H   0  0  0  0  0  0  0  0  0  0  0  0
    2.8473    5.7918    0.3776 H   0  0  0  0  0  0  0  0  0  0  0  0
    5.3715    2.9290   -0.5226 H   0  0  0  0  0  0  0  0  0  0  0  0
    6.6444    4.1639   -0.8749 H   0  0  0  0  0  0  0  0  0  0  0  0
    4.9176    4.5477   -1.2100 H   0  0  0  0  0  0  0  0  0  0  0  0
    4.3514    2.2986    2.3861 H   0  0  0  0  0  0  0  0  0  0  0  0
    2.0542    1.5122    2.7528 H   0  0  0  0  0  0  0  0  0  0  0  0
   -3.7670    7.1794    6.6320 H   0  0  0  0  0  0  0  0  0  0  0  0
  1  2  2  3
  2  3  1  0
  3  4  2  0
  3  5  1  0
  5  6  2  0
  6  7  1  0
  7  8  2  0
  8  9  1  0
  9 10  2  0
 10 11  1  0
 11 12  2  3
 12 13  1  0
 13 14  3  0
 12 15  1  0
 15 16  3  0
  8 17  1  0
 17 18  1  0
 18 19  1  0
 19 20  2  0
 20 21  1  0
 21 22  1  0
 21 23  1  0
  1 24  1  0
 24 25  2  0
 25 26  1  0
 26 27  1  0
 27 28  1  0
 28 29  1  0
 26 30  2  0
 30 31  1  0
 30 32  1  0
 32 33  2  0
 33 34  1  0
 34 35  1  0
 35 36  2  0
 36 37  1  0
 37 38  2  0
 38 39  1  0
 39 40  1  0
 38 41  1  0
 41 42  2  0
 34 43  1  0
 43 44  2  0
 44 45  1  0
 45 46  2  0
 46 47  1  0
 47 48  1  0
 46 49  1  0
 49 50  2  0
 33 51  1  0
 51 52  1  0
 52 53  1  0
 53 54  2  0
 54 55  1  0
 55 56  1  0
 56 57  2  0
 57 58  1  0
 58 59  2  0
 59 60  1  0
 60 61  1  0
 59 62  1  0
 62 63  2  0
 55 64  1  0
 64 65  2  0
 65 66  1  0
 66 67  2  0
 67 68  1  0
 68 69  1  0
 67 70  1  0
 70 71  2  0
 54 72  1  0
 72 73  1  0
 53 74  1  0
 74 75  2  0
 75 76  1  0
 76 77  1  0
 77 78  2  0
 78 79  2  0
 76 80  2  0
 80 81  1  0
 81 82  2  0
 82 83  1  0
 83 84  1  0
 84 85  2  0
 80 86  1  0
 86 87  2  3
 87 88  1  0
 88 89  3  0
 87 90  1  0
 90 91  3  0
 11  2  1  0
 23 17  1  0
 31 24  1  0
 73 32  1  0
 85 74  1  0
 10  5  1  0
 22 18  1  0
 42 35  1  0
 50 43  1  0
 72 51  2  0
 79 75  1  0
 85 81  1  0
 23  7  1  0
 63 56  1  0
 71 64  1  0
  1 92  1  0
  6 93  1  0
  9 94  1  0
 17 95  1  0
 18 96  1  0
 19 97  1  0
 20 98  1  0
 21 99  1  0
 22100  1  0
 22101  1  0
 23102  1  0
 25103  1  0
 28104  1  0
 28105  1  0
 29106  1  0
 29107  1  0
 29108  1  0
 36109  1  0
 37110  1  0
 40111  1  0
 40112  1  0
 40113  1  0
 41114  1  0
 42115  1  0
 44116  1  0
 45117  1  0
 48118  1  0
 48119  1  0
 48120  1  0
 49121  1  0
 50122  1  0
 57123  1  0
 58124  1  0
 61125  1  0
 61126  1  0
 61127  1  0
 62128  1  0
 63129  1  0
 65130  1  0
 66131  1  0
 69132  1  0
 69133  1  0
 69134  1  0
 70135  1  0
 71136  1  0
 86137  1  0
M  END

