
     RDKit          3D

114129  0  0  0  0  0  0  0  0999 V2000
   -2.5959   -4.5272   -2.4546 C   0  0  0  0  0  0  0  0  0  0  0  0
   -2.2477   -5.4601   -3.3575 C   0  0  0  0  0  0  0  0  0  0  0  0
   -1.1748   -6.4500   -3.1855 C   0  0  0  0  0  0  0  0  0  0  0  0
   -0.3017   -6.4608   -2.2777 O   0  0  0  0  0  0  0  0  0  0  0  0
   -1.3787   -7.5196   -4.1352 C   0  0  0  0  0  0  0  0  0  0  0  0
   -0.6267   -8.7128   -4.2440 C   0  0  0  0  0  0  0  0  0  0  0  0
   -1.1117   -9.5968   -5.1893 C   0  0  0  0  0  0  0  0  0  0  0  0
   -2.2719   -9.3308   -5.9835 C   0  0  0  0  0  0  0  0  0  0  0  0
   -3.0171   -8.1690   -5.8783 C   0  0  0  0  0  0  0  0  0  0  0  0
   -2.5292   -7.2377   -4.9179 C   0  0  0  0  0  0  0  0  0  0  0  0
   -3.0726   -5.9068   -4.5213 C   0  0  0  0  0  0  0  0  0  0  0  0
   -3.9596   -5.1456   -5.2146 C   0  0  0  0  0  0  0  0  0  0  0  0
   -4.6792   -5.6252   -6.3630 C   0  0  0  0  0  0  0  0  0  0  0  0
   -5.2689   -5.9957   -7.2894 N   0  0  0  0  0  0  0  0  0  0  0  0
   -4.1677   -3.7517   -4.9138 C   0  0  0  0  0  0  0  0  0  0  0  0
   -4.3351   -2.6309   -4.6786 N   0  0  0  0  0  0  0  0  0  0  0  0
   -2.1532  -10.6751   -6.6387 C   0  0  0  0  0  0  0  0  0  0  0  0
   -3.1561  -11.7860   -6.2022 C   0  0  0  0  0  0  0  0  0  0  0  0
   -3.5599  -11.5806   -4.7603 C   0  0  0  0  0  0  0  0  0  0  0  0
   -2.4782  -11.8293   -4.0212 C   0  0  0  0  0  0  0  0  0  0  0  0
   -1.3725  -12.1953   -4.9842 C   0  0  0  0  0  0  0  0  0  0  0  0
   -2.1949  -12.9466   -6.0171 C   0  0  0  0  0  0  0  0  0  0  0  0
   -0.9631  -10.9475   -5.8246 C   0  0  0  0  0  0  0  0  0  0  0  0
   -1.6992   -3.9943   -1.4158 C   0  0  0  0  0  0  0  0  0  0  0  0
   -2.1377   -3.4603   -0.2081 C   0  0  0  0  0  0  0  0  0  0  0  0
   -1.1392   -2.7631    0.4807 C   0  0  0  0  0  0  0  0  0  0  0  0
   -1.4655   -1.8330    1.9847 S   0  0  0  0  0  0  0  0  0  0  0  0
   -0.9528   -3.1619    3.1275 C   0  0  0  0  0  0  0  0  0  0  0  0
   -2.1318   -4.0623    3.4597 C   0  0  0  0  0  0  0  0  0  0  0  0
    0.0816   -2.7398   -0.1874 C   0  0  0  0  0  0  0  0  0  0  0  0
   -0.0898   -3.5436   -1.6519 S   0  0  0  0  0  0  0  0  0  0  0  0
    1.2288   -1.9122    0.1951 C   0  0  0  0  0  0  0  0  0  0  0  0
    2.1140   -2.3511    1.1952 C   0  0  0  0  0  0  0  0  0  0  0  0
    3.0231   -1.4567    1.7898 C   0  0  0  0  0  0  0  0  0  0  0  0
    3.0650   -0.1059    1.3917 C   0  0  0  0  0  0  0  0  0  0  0  0
    2.2267    0.2950    0.3368 C   0  0  0  0  0  0  0  0  0  0  0  0
    1.9313    1.6271   -0.2096 C   0  0  0  0  0  0  0  0  0  0  0  0
    2.5176    2.6996    0.0932 O   0  0  0  0  0  0  0  0  0  0  0  0
    0.8544    1.5554   -1.1405 N   0  0  0  0  0  0  0  0  0  0  0  0
    0.4847    2.5762   -2.1160 C   0  0  0  0  0  0  0  0  0  0  0  0
    1.3392    2.4459   -3.3696 C   0  0  0  0  0  0  0  0  0  0  0  0
    0.4979    0.1752   -1.1746 C   0  0  0  0  0  0  0  0  0  0  0  0
   -0.4114   -0.2980   -1.9066 O   0  0  0  0  0  0  0  0  0  0  0  0
    1.3365   -0.5887   -0.2481 C   0  0  0  0  0  0  0  0  0  0  0  0
    3.7555    0.8962    2.2252 C   0  0  0  0  0  0  0  0  0  0  0  0
    4.7398    1.7380    1.6860 C   0  0  0  0  0  0  0  0  0  0  0  0
    5.1057    2.9425    2.3339 C   0  0  0  0  0  0  0  0  0  0  0  0
    6.0102    3.7689    1.5933 N   0  0  0  0  0  0  0  0  0  0  0  0
    6.2136    2.8758    0.2852 S   0  0  0  0  0  4  0  0  0  0  0  0
    5.3432    1.5429    0.4012 N   0  0  0  0  0  0  0  0  0  0  0  0
    4.5043    3.3272    3.5397 C   0  0  0  0  0  0  0  0  0  0  0  0
    3.6516    2.4041    4.1725 C   0  0  0  0  0  0  0  0  0  0  0  0
    3.0636    2.6507    5.3732 N   0  0  0  0  0  0  0  0  0  0  0  0
    2.0940    1.3220    5.5149 S   0  0  0  0  0  0  0  0  0  0  0  0
    2.3396    0.4310    4.1450 N   0  0  0  0  0  0  0  0  0  0  0  0
    3.2644    1.1984    3.5088 C   0  0  0  0  0  0  0  0  0  0  0  0
    4.6239    4.7155    4.0260 C   0  0  0  0  0  0  0  0  0  0  0  0
    3.5652    5.5553    4.0771 C   0  0  0  0  0  0  0  0  0  0  0  0
    2.2446    5.2872    3.4817 C   0  0  0  0  0  0  0  0  0  0  0  0
    1.8601    4.2129    2.9488 O   0  0  0  0  0  0  0  0  0  0  0  0
    1.4721    6.5005    3.4842 C   0  0  0  0  0  0  0  0  0  0  0  0
    0.1762    6.6691    2.9456 C   0  0  0  0  0  0  0  0  0  0  0  0
   -0.2870    7.9666    2.9989 C   0  0  0  0  0  0  0  0  0  0  0  0
    0.4781    9.0480    3.5413 C   0  0  0  0  0  0  0  0  0  0  0  0
    1.7490    8.8869    4.0740 C   0  0  0  0  0  0  0  0  0  0  0  0
    2.2441    7.5487    4.0458 C   0  0  0  0  0  0  0  0  0  0  0  0
    3.5551    6.9928    4.5089 C   0  0  0  0  0  0  0  0  0  0  0  0
    4.4717    7.6159    5.3004 C   0  0  0  0  0  0  0  0  0  0  0  0
    4.3786    9.0064    5.6625 C   0  0  0  0  0  0  0  0  0  0  0  0
    4.3259   10.1271    5.9566 N   0  0  0  0  0  0  0  0  0  0  0  0
    5.5908    6.9249    5.8871 C   0  0  0  0  0  0  0  0  0  0  0  0
    6.5023    6.3814    6.3491 N   0  0  0  0  0  0  0  0  0  0  0  0
   -0.6108   10.0182    3.1847 C   0  0  0  0  0  0  0  0  0  0  0  0
   -0.3800   10.9456    1.9524 C   0  0  0  0  0  0  0  0  0  0  0  0
    0.5022   10.2540    0.9393 C   0  0  0  0  0  0  0  0  0  0  0  0
   -0.2125    9.2436    0.4398 C   0  0  0  0  0  0  0  0  0  0  0  0
   -1.5566    9.2826    1.1295 C   0  0  0  0  0  0  0  0  0  0  0  0
   -1.7164   10.7854    1.2535 C   0  0  0  0  0  0  0  0  0  0  0  0
   -1.3959    8.9058    2.6336 C   0  0  0  0  0  0  0  0  0  0  0  0
   -3.5908   -4.1131   -2.4760 H   0  0  0  0  0  0  0  0  0  0  0  0
    0.2341   -8.9335   -3.6283 H   0  0  0  0  0  0  0  0  0  0  0  0
   -3.9083   -8.0435   -6.4635 H   0  0  0  0  0  0  0  0  0  0  0  0
   -1.9501  -10.6291   -7.7330 H   0  0  0  0  0  0  0  0  0  0  0  0
   -3.9970  -11.9696   -6.9029 H   0  0  0  0  0  0  0  0  0  0  0  0
   -4.5446  -11.3318   -4.3815 H   0  0  0  0  0  0  0  0  0  0  0  0
   -2.4330  -11.8218   -2.9359 H   0  0  0  0  0  0  0  0  0  0  0  0
   -0.5298  -12.7645   -4.5385 H   0  0  0  0  0  0  0  0  0  0  0  0
   -2.6811  -13.8683   -5.6135 H   0  0  0  0  0  0  0  0  0  0  0  0
   -1.6235  -13.2049   -6.9399 H   0  0  0  0  0  0  0  0  0  0  0  0
   -0.0313  -11.0681   -6.4222 H   0  0  0  0  0  0  0  0  0  0  0  0
   -3.1661   -3.5172    0.1311 H   0  0  0  0  0  0  0  0  0  0  0  0
   -0.5833   -2.6910    4.0640 H   0  0  0  0  0  0  0  0  0  0  0  0
   -0.1249   -3.7647    2.7001 H   0  0  0  0  0  0  0  0  0  0  0  0
   -1.8193   -4.8358    4.1941 H   0  0  0  0  0  0  0  0  0  0  0  0
   -2.4954   -4.5701    2.5404 H   0  0  0  0  0  0  0  0  0  0  0  0
   -2.9597   -3.4632    3.9009 H   0  0  0  0  0  0  0  0  0  0  0  0
    2.0519   -3.3662    1.5693 H   0  0  0  0  0  0  0  0  0  0  0  0
    3.6385   -1.7996    2.6130 H   0  0  0  0  0  0  0  0  0  0  0  0
   -0.5887    2.4704   -2.3845 H   0  0  0  0  0  0  0  0  0  0  0  0
    0.6319    3.5860   -1.6744 H   0  0  0  0  0  0  0  0  0  0  0  0
    1.1056    3.2751   -4.0740 H   0  0  0  0  0  0  0  0  0  0  0  0
    2.4184    2.4988   -3.1061 H   0  0  0  0  0  0  0  0  0  0  0  0
    1.1326    1.4783   -3.8762 H   0  0  0  0  0  0  0  0  0  0  0  0
    5.6227    5.0679    4.2229 H   0  0  0  0  0  0  0  0  0  0  0  0
   -0.3921    5.8656    2.4969 H   0  0  0  0  0  0  0  0  0  0  0  0
    2.2964    9.7403    4.4283 H   0  0  0  0  0  0  0  0  0  0  0  0
   -1.0861   10.5090    4.0629 H   0  0  0  0  0  0  0  0  0  0  0  0
   -0.0861   11.9899    2.1932 H   0  0  0  0  0  0  0  0  0  0  0  0
    1.4966   10.5455    0.6236 H   0  0  0  0  0  0  0  0  0  0  0  0
    0.0981    8.5727   -0.3569 H   0  0  0  0  0  0  0  0  0  0  0  0
   -2.3747    8.7542    0.5955 H   0  0  0  0  0  0  0  0  0  0  0  0
   -1.7696   11.3089    0.2686 H   0  0  0  0  0  0  0  0  0  0  0  0
   -2.5884   11.0906    1.8787 H   0  0  0  0  0  0  0  0  0  0  0  0
   -2.3467    8.7177    3.1771 H   0  0  0  0  0  0  0  0  0  0  0  0
  1  2  2  3
  2  3  1  0
  3  4  2  0
  3  5  1  0
  5  6  2  0
  6  7  1  0
  7  8  2  0
  8  9  1  0
  9 10  2  0
 10 11  1  0
 11 12  2  3
 12 13  1  0
 13 14  3  0
 12 15  1  0
 15 16  3  0
  8 17  1  0
 17 18  1  0
 18 19  1  0
 19 20  2  0
 20 21  1  0
 21 22  1  0
 21 23  1  0
  1 24  1  0
 24 25  2  0
 25 26  1  0
 26 27  1  0
 27 28  1  0
 28 29  1  0
 26 30  2  0
 30 31  1  0
 30 32  1  0
 32 33  2  0
 33 34  1  0
 34 35  2  0
 35 36  1  0
 36 37  1  0
 37 38  2  0
 37 39  1  0
 39 40  1  0
 40 41  1  0
 39 42  1  0
 42 43  2  0
 42 44  1  0
 35 45  1  0
 45 46  2  0
 46 47  1  0
 47 48  1  0
 48 49  2  0
 49 50  2  0
 47 51  2  0
 51 52  1  0
 52 53  2  0
 53 54  1  0
 54 55  1  0
 55 56  2  0
 51 57  1  0
 57 58  2  3
 58 59  1  0
 59 60  2  0
 59 61  1  0
 61 62  2  0
 62 63  1  0
 63 64  2  0
 64 65  1  0
 65 66  2  0
 66 67  1  0
 67 68  2  3
 68 69  1  0
 69 70  3  0
 68 71  1  0
 71 72  3  0
 64 73  1  0
 73 74  1  0
 74 75  1  0
 75 76  2  0
 76 77  1  0
 77 78  1  0
 77 79  1  0
 11  2  1  0
 23 17  1  0
 31 24  1  0
 44 32  1  0
 56 45  1  0
 67 58  1  0
 79 73  1  0
 10  5  1  0
 22 18  1  0
 44 36  2  0
 50 46  1  0
 56 52  1  0
 66 61  1  0
 78 74  1  0
 23  7  1  0
 79 63  1  0
  1 80  1  0
  6 81  1  0
  9 82  1  0
 17 83  1  0
 18 84  1  0
 19 85  1  0
 20 86  1  0
 21 87  1  0
 22 88  1  0
 22 89  1  0
 23 90  1  0
 25 91  1  0
 28 92  1  0
 28 93  1  0
 29 94  1  0
 29 95  1  0
 29 96  1  0
 33 97  1  0
 34 98  1  0
 40 99  1  0
 40100  1  0
 41101  1  0
 41102  1  0
 41103  1  0
 57104  1  0
 62105  1  0
 65106  1  0
 73107  1  0
 74108  1  0
 75109  1  0
 76110  1  0
 77111  1  0
 78112  1  0
 78113  1  0
 79114  1  0
M  END

