
     RDKit          3D

160178  0  0  0  0  0  0  0  0999 V2000
   -4.0050   -1.6442   -2.1560 C   0  0  0  0  0  0  0  0  0  0  0  0
   -3.2783   -2.5937   -1.5220 C   0  0  0  0  0  0  0  0  0  0  0  0
   -2.7827   -2.4681   -0.1400 C   0  0  0  0  0  0  0  0  0  0  0  0
   -2.7916   -1.4342    0.5787 O   0  0  0  0  0  0  0  0  0  0  0  0
   -2.3012   -3.7502    0.2995 C   0  0  0  0  0  0  0  0  0  0  0  0
   -1.8066   -4.0585    1.5866 C   0  0  0  0  0  0  0  0  0  0  0  0
   -1.3944   -5.3651    1.7276 C   0  0  0  0  0  0  0  0  0  0  0  0
   -1.4175   -6.3079    0.6545 C   0  0  0  0  0  0  0  0  0  0  0  0
   -1.9057   -6.0116   -0.6106 C   0  0  0  0  0  0  0  0  0  0  0  0
   -2.3914   -4.6804   -0.7671 C   0  0  0  0  0  0  0  0  0  0  0  0
   -2.9958   -4.0018   -1.9557 C   0  0  0  0  0  0  0  0  0  0  0  0
   -3.1582   -4.5259   -3.2022 C   0  0  0  0  0  0  0  0  0  0  0  0
   -3.0046   -5.9294   -3.4796 C   0  0  0  0  0  0  0  0  0  0  0  0
   -2.8929   -7.0560   -3.7302 N   0  0  0  0  0  0  0  0  0  0  0  0
   -3.4681   -3.7177   -4.3588 C   0  0  0  0  0  0  0  0  0  0  0  0
   -3.7141   -3.0820   -5.2961 N   0  0  0  0  0  0  0  0  0  0  0  0
   -0.7960   -7.3501    1.5350 C   0  0  0  0  0  0  0  0  0  0  0  0
    0.7174   -7.6438    1.3230 C   0  0  0  0  0  0  0  0  0  0  0  0
    1.1617   -8.4112    2.5473 C   0  0  0  0  0  0  0  0  0  0  0  0
    1.1592   -7.5372    3.5620 C   0  0  0  0  0  0  0  0  0  0  0  0
    0.7088   -6.2155    2.9963 C   0  0  0  0  0  0  0  0  0  0  0  0
    1.3782   -6.3013    1.6356 C   0  0  0  0  0  0  0  0  0  0  0  0
   -0.8045   -6.3895    2.6450 C   0  0  0  0  0  0  0  0  0  0  0  0
   -4.0297   -0.2670   -1.6621 C   0  0  0  0  0  0  0  0  0  0  0  0
   -4.9412    0.2478   -0.7475 C   0  0  0  0  0  0  0  0  0  0  0  0
   -4.4896    1.4105   -0.1120 C   0  0  0  0  0  0  0  0  0  0  0  0
   -5.4543    2.2728    1.1314 S   0  0  0  0  0  0  0  0  0  0  0  0
   -5.1765    1.0631    2.4692 C   0  0  0  0  0  0  0  0  0  0  0  0
   -3.8706    1.3376    3.1915 C   0  0  0  0  0  0  0  0  0  0  0  0
   -3.2249    1.8076   -0.5453 C   0  0  0  0  0  0  0  0  0  0  0  0
   -2.6776    0.7215   -1.7003 S   0  0  0  0  0  0  0  0  0  0  0  0
   -2.4120    2.9327   -0.0728 C   0  0  0  0  0  0  0  0  0  0  0  0
   -1.9571    3.9125   -0.9710 C   0  0  0  0  0  0  0  0  0  0  0  0
   -2.7063    4.2847   -2.1508 N   0  0  0  0  0  0  0  0  0  0  0  0
   -4.1341    4.4764   -1.9804 C   0  0  0  0  0  0  0  0  0  0  0  0
   -4.6337    5.2563   -0.9162 C   0  0  0  0  0  0  0  0  0  0  0  0
   -6.0086    5.3590   -0.6904 C   0  0  0  0  0  0  0  0  0  0  0  0
   -6.9087    4.7016   -1.5423 C   0  0  0  0  0  0  0  0  0  0  0  0
   -8.6744    4.8396   -1.2706 S   0  0  0  0  0  0  0  0  0  0  0  0
   -8.7926    3.2762   -0.3480 C   0  0  0  0  0  0  0  0  0  0  0  0
   -6.4264    3.9295   -2.6018 C   0  0  0  0  0  0  0  0  0  0  0  0
   -5.0505    3.8092   -2.8115 C   0  0  0  0  0  0  0  0  0  0  0  0
   -2.1349    4.1725   -3.4801 C   0  0  0  0  0  0  0  0  0  0  0  0
   -1.0692    3.2886   -3.7366 C   0  0  0  0  0  0  0  0  0  0  0  0
   -0.6514    3.0348   -5.0484 C   0  0  0  0  0  0  0  0  0  0  0  0
   -1.3094    3.6400   -6.1203 C   0  0  0  0  0  0  0  0  0  0  0  0
   -0.8921    3.1939   -7.8094 S   0  0  0  0  0  0  0  0  0  0  0  0
    0.1127    4.6775   -8.1090 C   0  0  0  0  0  0  0  0  0  0  0  0
   -2.3341    4.5680   -5.8735 C   0  0  0  0  0  0  0  0  0  0  0  0
   -2.7162    4.8534   -4.5682 C   0  0  0  0  0  0  0  0  0  0  0  0
   -0.6802    4.3769   -0.6256 C   0  0  0  0  0  0  0  0  0  0  0  0
    0.5296    5.2124   -1.4260 S   0  0  0  0  0  0  0  0  0  0  0  0
    1.7665    4.8424   -0.2917 C   0  0  0  0  0  0  0  0  0  0  0  0
    1.1959    4.0610    0.7481 C   0  0  0  0  0  0  0  0  0  0  0  0
    1.8264    3.6616    1.9880 N   0  0  0  0  0  0  0  0  0  0  0  0
    1.2194    4.1447    3.2206 C   0  0  0  0  0  0  0  0  0  0  0  0
    0.6076    5.4206    3.2524 C   0  0  0  0  0  0  0  0  0  0  0  0
   -0.0818    5.8497    4.3917 C   0  0  0  0  0  0  0  0  0  0  0  0
   -0.1461    5.0292    5.5181 C   0  0  0  0  0  0  0  0  0  0  0  0
   -1.1525    5.5069    6.9243 S   0  0  0  0  0  0  0  0  0  0  0  0
   -2.6565    4.7489    6.2307 C   0  0  0  0  0  0  0  0  0  0  0  0
    0.5216    3.8069    5.5370 C   0  0  0  0  0  0  0  0  0  0  0  0
    1.2168    3.3705    4.3966 C   0  0  0  0  0  0  0  0  0  0  0  0
    2.6998    2.5111    2.0214 C   0  0  0  0  0  0  0  0  0  0  0  0
    2.4537    1.3809    1.2161 C   0  0  0  0  0  0  0  0  0  0  0  0
    3.2514    0.2405    1.3314 C   0  0  0  0  0  0  0  0  0  0  0  0
    4.2948    0.2099    2.2621 C   0  0  0  0  0  0  0  0  0  0  0  0
    5.2667   -1.2831    2.4818 S   0  0  0  0  0  0  0  0  0  0  0  0
    4.2667   -1.8749    3.8774 C   0  0  0  0  0  0  0  0  0  0  0  0
    4.5947    1.3515    3.0167 C   0  0  0  0  0  0  0  0  0  0  0  0
    3.8018    2.4945    2.9006 C   0  0  0  0  0  0  0  0  0  0  0  0
   -0.1563    3.8247    0.4979 C   0  0  0  0  0  0  0  0  0  0  0  0
   -1.2194    2.6966    1.1163 S   0  0  0  0  0  0  0  0  0  0  0  0
    3.2026    4.9576   -0.6464 C   0  0  0  0  0  0  0  0  0  0  0  0
    4.4831    4.3811    0.3057 S   0  0  0  0  0  0  0  0  0  0  0  0
    5.5382    4.3046   -0.9740 C   0  0  0  0  0  0  0  0  0  0  0  0
    6.4949    3.3620   -1.1626 N   0  0  0  0  0  0  0  0  0  0  0  0
    6.6682    3.1063   -2.4891 C   0  0  0  0  0  0  0  0  0  0  0  0
    5.5769    4.0196   -3.4346 S   0  0  0  0  0  0  0  0  0  0  0  0
    4.8998    4.7620   -2.0917 C   0  0  0  0  0  0  0  0  0  0  0  0
    3.5882    5.0879   -1.9415 N   0  0  0  0  0  0  0  0  0  0  0  0
    7.3619    1.8738   -2.9071 C   0  0  0  0  0  0  0  0  0  0  0  0
    6.6668    0.7819   -3.2891 C   0  0  0  0  0  0  0  0  0  0  0  0
    5.5333    0.7009   -4.2470 C   0  0  0  0  0  0  0  0  0  0  0  0
    5.0952    1.6374   -4.9499 O   0  0  0  0  0  0  0  0  0  0  0  0
    4.7598   -0.4942   -3.9313 C   0  0  0  0  0  0  0  0  0  0  0  0
    3.5505   -0.9275   -4.5371 C   0  0  0  0  0  0  0  0  0  0  0  0
    2.8599   -1.8708   -3.7899 C   0  0  0  0  0  0  0  0  0  0  0  0
    3.3018   -2.3076   -2.4956 C   0  0  0  0  0  0  0  0  0  0  0  0
    4.5539   -1.9912   -1.9720 C   0  0  0  0  0  0  0  0  0  0  0  0
    5.2956   -1.0830   -2.7670 C   0  0  0  0  0  0  0  0  0  0  0  0
    6.6064   -0.4794   -2.4880 C   0  0  0  0  0  0  0  0  0  0  0  0
    7.3307   -0.7548   -1.4071 C   0  0  0  0  0  0  0  0  0  0  0  0
    7.1641    0.0566   -0.2356 C   0  0  0  0  0  0  0  0  0  0  0  0
    7.0187    0.7243    0.6996 N   0  0  0  0  0  0  0  0  0  0  0  0
    8.6528   -1.2753   -1.6218 C   0  0  0  0  0  0  0  0  0  0  0  0
    9.7137   -1.7005   -1.7828 N   0  0  0  0  0  0  0  0  0  0  0  0
    1.9671   -2.9674   -2.2472 C   0  0  0  0  0  0  0  0  0  0  0  0
    1.8947   -4.5314   -2.1872 C   0  0  0  0  0  0  0  0  0  0  0  0
    3.0607   -5.0895   -2.9622 C   0  0  0  0  0  0  0  0  0  0  0  0
    2.8246   -4.8085   -4.2519 C   0  0  0  0  0  0  0  0  0  0  0  0
    1.4959   -4.0740   -4.2963 C   0  0  0  0  0  0  0  0  0  0  0  0
    0.7816   -4.8060   -3.1682 C   0  0  0  0  0  0  0  0  0  0  0  0
    1.5930   -2.6562   -3.6394 C   0  0  0  0  0  0  0  0  0  0  0  0
   -4.5286   -1.8502   -3.0772 H   0  0  0  0  0  0  0  0  0  0  0  0
   -1.7530   -3.3338    2.3873 H   0  0  0  0  0  0  0  0  0  0  0  0
   -1.8916   -6.7586   -1.3769 H   0  0  0  0  0  0  0  0  0  0  0  0
   -1.4475   -8.2412    1.6965 H   0  0  0  0  0  0  0  0  0  0  0  0
    0.9865   -8.1026    0.3489 H   0  0  0  0  0  0  0  0  0  0  0  0
    1.4697   -9.4454    2.5996 H   0  0  0  0  0  0  0  0  0  0  0  0
    1.4733   -7.7394    4.5804 H   0  0  0  0  0  0  0  0  0  0  0  0
    0.9610   -5.3207    3.6033 H   0  0  0  0  0  0  0  0  0  0  0  0
    2.4897   -6.3588    1.6864 H   0  0  0  0  0  0  0  0  0  0  0  0
    1.0925   -5.4831    0.9435 H   0  0  0  0  0  0  0  0  0  0  0  0
   -1.4676   -6.6569    3.4957 H   0  0  0  0  0  0  0  0  0  0  0  0
   -5.8678   -0.2497   -0.4866 H   0  0  0  0  0  0  0  0  0  0  0  0
   -5.1763    0.0163    2.0771 H   0  0  0  0  0  0  0  0  0  0  0  0
   -6.0175    1.1529    3.1982 H   0  0  0  0  0  0  0  0  0  0  0  0
   -3.8321    2.3946    3.5246 H   0  0  0  0  0  0  0  0  0  0  0  0
   -3.8084    0.7057    4.1070 H   0  0  0  0  0  0  0  0  0  0  0  0
   -3.0126    1.1060    2.5337 H   0  0  0  0  0  0  0  0  0  0  0  0
   -3.9437    5.7522   -0.2448 H   0  0  0  0  0  0  0  0  0  0  0  0
   -6.3766    5.9395    0.1498 H   0  0  0  0  0  0  0  0  0  0  0  0
   -8.2939    3.3809    0.6306 H   0  0  0  0  0  0  0  0  0  0  0  0
   -9.8608    3.0275   -0.1811 H   0  0  0  0  0  0  0  0  0  0  0  0
   -8.3260    2.4555   -0.9246 H   0  0  0  0  0  0  0  0  0  0  0  0
   -7.1136    3.3980   -3.2498 H   0  0  0  0  0  0  0  0  0  0  0  0
   -4.7075    3.1537   -3.5973 H   0  0  0  0  0  0  0  0  0  0  0  0
   -0.5943    2.7599   -2.9319 H   0  0  0  0  0  0  0  0  0  0  0  0
    0.1584    2.3486   -5.2273 H   0  0  0  0  0  0  0  0  0  0  0  0
    0.3355    4.7526   -9.1898 H   0  0  0  0  0  0  0  0  0  0  0  0
   -0.4418    5.5839   -7.7952 H   0  0  0  0  0  0  0  0  0  0  0  0
    1.0685    4.6246   -7.5551 H   0  0  0  0  0  0  0  0  0  0  0  0
   -2.8370    5.0635   -6.6940 H   0  0  0  0  0  0  0  0  0  0  0  0
   -3.5140    5.5653   -4.4070 H   0  0  0  0  0  0  0  0  0  0  0  0
    0.6332    6.0719    2.3881 H   0  0  0  0  0  0  0  0  0  0  0  0
   -0.6076    6.7953    4.3780 H   0  0  0  0  0  0  0  0  0  0  0  0
   -3.4962    4.8748    6.9493 H   0  0  0  0  0  0  0  0  0  0  0  0
   -2.4933    3.6707    6.0464 H   0  0  0  0  0  0  0  0  0  0  0  0
   -2.9193    5.2552    5.2786 H   0  0  0  0  0  0  0  0  0  0  0  0
    0.5079    3.1898    6.4210 H   0  0  0  0  0  0  0  0  0  0  0  0
    1.6879    2.4035    4.4446 H   0  0  0  0  0  0  0  0  0  0  0  0
    1.6315    1.3745    0.5070 H   0  0  0  0  0  0  0  0  0  0  0  0
    3.0427   -0.6232    0.7267 H   0  0  0  0  0  0  0  0  0  0  0  0
    4.6886   -2.8304    4.2541 H   0  0  0  0  0  0  0  0  0  0  0  0
    3.2244   -2.0441    3.5495 H   0  0  0  0  0  0  0  0  0  0  0  0
    4.2846   -1.1285    4.7004 H   0  0  0  0  0  0  0  0  0  0  0  0
    5.4185    1.3355    3.7212 H   0  0  0  0  0  0  0  0  0  0  0  0
    4.0198    3.3558    3.5153 H   0  0  0  0  0  0  0  0  0  0  0  0
    8.1820    1.6644   -2.2488 H   0  0  0  0  0  0  0  0  0  0  0  0
    3.1355   -0.4843   -5.4400 H   0  0  0  0  0  0  0  0  0  0  0  0
    4.9175   -2.3770   -1.0351 H   0  0  0  0  0  0  0  0  0  0  0  0
    1.3382   -2.4354   -1.4916 H   0  0  0  0  0  0  0  0  0  0  0  0
    1.7708   -4.9560   -1.1725 H   0  0  0  0  0  0  0  0  0  0  0  0
    3.9035   -5.6456   -2.5542 H   0  0  0  0  0  0  0  0  0  0  0  0
    3.4375   -5.1216   -5.0954 H   0  0  0  0  0  0  0  0  0  0  0  0
    0.9805   -4.1098   -5.2832 H   0  0  0  0  0  0  0  0  0  0  0  0
   -0.1932   -4.3484   -2.8900 H   0  0  0  0  0  0  0  0  0  0  0  0
    0.6274   -5.8962   -3.3678 H   0  0  0  0  0  0  0  0  0  0  0  0
    0.6684   -2.0327   -3.7415 H   0  0  0  0  0  0  0  0  0  0  0  0
  1  2  2  3
  2  3  1  0
  3  4  2  0
  3  5  1  0
  5  6  2  0
  6  7  1  0
  7  8  2  0
  8  9  1  0
  9 10  2  0
 10 11  1  0
 11 12  2  3
 12 13  1  0
 13 14  3  0
 12 15  1  0
 15 16  3  0
  8 17  1  0
 17 18  1  0
 18 19  1  0
 19 20  2  0
 20 21  1  0
 21 22  1  0
 21 23  1  0
  1 24  1  0
 24 25  2  0
 25 26  1  0
 26 27  1  0
 27 28  1  0
 28 29  1  0
 26 30  2  0
 30 31  1  0
 30 32  1  0
 32 33  2  0
 33 34  1  0
 34 35  1  0
 35 36  2  0
 36 37  1  0
 37 38  2  0
 38 39  1  0
 39 40  1  0
 38 41  1  0
 41 42  2  0
 34 43  1  0
 43 44  2  0
 44 45  1  0
 45 46  2  0
 46 47  1  0
 47 48  1  0
 46 49  1  0
 49 50  2  0
 33 51  1  0
 51 52  1  0
 52 53  1  0
 53 54  2  0
 54 55  1  0
 55 56  1  0
 56 57  2  0
 57 58  1  0
 58 59  2  0
 59 60  1  0
 60 61  1  0
 59 62  1  0
 62 63  2  0
 55 64  1  0
 64 65  2  0
 65 66  1  0
 66 67  2  0
 67 68  1  0
 68 69  1  0
 67 70  1  0
 70 71  2  0
 54 72  1  0
 72 73  1  0
 53 74  1  0
 74 75  1  0
 75 76  1  0
 76 77  1  0
 77 78  2  0
 78 79  1  0
 79 80  1  0
 80 81  1  0
 78 82  1  0
 82 83  2  3
 83 84  1  0
 84 85  2  0
 84 86  1  0
 86 87  2  0
 87 88  1  0
 88 89  2  0
 89 90  1  0
 90 91  2  0
 91 92  1  0
 92 93  2  3
 93 94  1  0
 94 95  3  0
 93 96  1  0
 96 97  3  0
 89 98  1  0
 98 99  1  0
 99100  1  0
100101  2  0
101102  1  0
102103  1  0
102104  1  0
 11  2  1  0
 23 17  1  0
 31 24  1  0
 73 32  1  0
 81 74  2  0
 92 83  1  0
104 98  1  0
 10  5  1  0
 22 18  1  0
 42 35  1  0
 50 43  1  0
 72 51  2  0
 80 76  2  0
 91 86  1  0
103 99  1  0
 23  7  1  0
 63 56  1  0
 71 64  1  0
104 88  1  0
  1105  1  0
  6106  1  0
  9107  1  0
 17108  1  0
 18109  1  0
 19110  1  0
 20111  1  0
 21112  1  0
 22113  1  0
 22114  1  0
 23115  1  0
 25116  1  0
 28117  1  0
 28118  1  0
 29119  1  0
 29120  1  0
 29121  1  0
 36122  1  0
 37123  1  0
 40124  1  0
 40125  1  0
 40126  1  0
 41127  1  0
 42128  1  0
 44129  1  0
 45130  1  0
 48131  1  0
 48132  1  0
 48133  1  0
 49134  1  0
 50135  1  0
 57136  1  0
 58137  1  0
 61138  1  0
 61139  1  0
 61140  1  0
 62141  1  0
 63142  1  0
 65143  1  0
 66144  1  0
 69145  1  0
 69146  1  0
 69147  1  0
 70148  1  0
 71149  1  0
 82150  1  0
 87151  1  0
 90152  1  0
 98153  1  0
 99154  1  0
100155  1  0
101156  1  0
102157  1  0
103158  1  0
103159  1  0
104160  1  0
M  END

