
     RDKit          3D

153167  0  0  0  0  0  0  0  0999 V2000
    2.4182   -0.1110    6.4479 C   0  0  0  0  0  0  0  0  0  0  0  0
    3.7198   -0.4763    6.4048 C   0  0  0  0  0  0  0  0  0  0  0  0
    4.2579   -1.4607    5.4687 C   0  0  0  0  0  0  0  0  0  0  0  0
    3.7037   -2.5463    5.1458 O   0  0  0  0  0  0  0  0  0  0  0  0
    5.4914   -0.9553    4.9091 C   0  0  0  0  0  0  0  0  0  0  0  0
    6.1580   -1.4251    3.7463 C   0  0  0  0  0  0  0  0  0  0  0  0
    7.1327   -0.5641    3.2710 C   0  0  0  0  0  0  0  0  0  0  0  0
    7.4092    0.7047    3.8739 C   0  0  0  0  0  0  0  0  0  0  0  0
    6.7771    1.1611    5.0280 C   0  0  0  0  0  0  0  0  0  0  0  0
    5.8097    0.2648    5.5536 C   0  0  0  0  0  0  0  0  0  0  0  0
    4.8212    0.4957    6.6313 C   0  0  0  0  0  0  0  0  0  0  0  0
    4.9746    1.2907    7.7160 C   0  0  0  0  0  0  0  0  0  0  0  0
    4.0366    1.2367    8.8126 C   0  0  0  0  0  0  0  0  0  0  0  0
    3.2963    1.2005    9.7019 N   0  0  0  0  0  0  0  0  0  0  0  0
    6.1472    2.1139    7.9062 C   0  0  0  0  0  0  0  0  0  0  0  0
    7.0813    2.7820    8.0701 N   0  0  0  0  0  0  0  0  0  0  0  0
    8.3623    1.0367    2.7665 C   0  0  0  0  0  0  0  0  0  0  0  0
    7.9002    2.0290    1.6623 C   0  0  0  0  0  0  0  0  0  0  0  0
    6.4034    1.8958    1.4337 C   0  0  0  0  0  0  0  0  0  0  0  0
    6.1982    0.7028    0.8777 C   0  0  0  0  0  0  0  0  0  0  0  0
    7.5582    0.0549    0.7581 C   0  0  0  0  0  0  0  0  0  0  0  0
    8.3877    1.2832    0.4246 C   0  0  0  0  0  0  0  0  0  0  0  0
    8.1178   -0.2806    2.1718 C   0  0  0  0  0  0  0  0  0  0  0  0
    1.4973   -0.3351    5.3099 C   0  0  0  0  0  0  0  0  0  0  0  0
    1.8843   -0.3311    3.9706 C   0  0  0  0  0  0  0  0  0  0  0  0
    0.8278   -0.3296    3.0773 C   0  0  0  0  0  0  0  0  0  0  0  0
    1.1051   -0.3155    1.3031 S   0  0  0  0  0  0  0  0  0  0  0  0
    1.1869   -2.1235    1.1302 C   0  0  0  0  0  0  0  0  0  0  0  0
    1.3222   -2.4750   -0.3430 C   0  0  0  0  0  0  0  0  0  0  0  0
   -0.4212   -0.2855    3.6921 C   0  0  0  0  0  0  0  0  0  0  0  0
   -0.1903   -0.2635    5.3654 S   0  0  0  0  0  0  0  0  0  0  0  0
   -1.6922   -0.2077    2.9664 C   0  0  0  0  0  0  0  0  0  0  0  0
   -1.8792    0.7701    1.9727 C   0  0  0  0  0  0  0  0  0  0  0  0
   -1.3348    2.1121    2.0775 N   0  0  0  0  0  0  0  0  0  0  0  0
   -0.8836    2.8466    0.9295 C   0  0  0  0  0  0  0  0  0  0  0  0
    0.4877    3.0443    0.7260 C   0  0  0  0  0  0  0  0  0  0  0  0
    0.9371    3.8733   -0.3025 C   0  0  0  0  0  0  0  0  0  0  0  0
    0.0094    4.4851   -1.1579 C   0  0  0  0  0  0  0  0  0  0  0  0
    0.5784    5.5301   -2.5030 S   0  0  0  0  0  0  0  0  0  0  0  0
    0.7741    4.1338   -3.6493 C   0  0  0  0  0  0  0  0  0  0  0  0
   -1.3670    4.2879   -0.9542 C   0  0  0  0  0  0  0  0  0  0  0  0
   -1.8124    3.5019    0.1026 C   0  0  0  0  0  0  0  0  0  0  0  0
   -1.6126    2.9291    3.2350 C   0  0  0  0  0  0  0  0  0  0  0  0
   -0.5666    3.6385    3.8573 C   0  0  0  0  0  0  0  0  0  0  0  0
   -0.8464    4.7026    4.7191 C   0  0  0  0  0  0  0  0  0  0  0  0
   -2.1610    5.1869    4.8056 C   0  0  0  0  0  0  0  0  0  0  0  0
   -2.5163    6.7635    5.5838 S   0  0  0  0  0  0  0  0  0  0  0  0
   -1.4510    7.7895    4.4688 C   0  0  0  0  0  0  0  0  0  0  0  0
   -3.2106    4.4552    4.2330 C   0  0  0  0  0  0  0  0  0  0  0  0
   -2.9367    3.2841    3.5133 C   0  0  0  0  0  0  0  0  0  0  0  0
   -2.4803    0.2079    0.8293 C   0  0  0  0  0  0  0  0  0  0  0  0
   -2.4995    0.6094   -0.7966 S   0  0  0  0  0  0  0  0  0  0  0  0
   -3.0794   -0.8865   -1.3666 C   0  0  0  0  0  0  0  0  0  0  0  0
   -3.2758   -1.7356   -0.2572 C   0  0  0  0  0  0  0  0  0  0  0  0
   -3.9780   -3.0041   -0.2686 N   0  0  0  0  0  0  0  0  0  0  0  0
   -4.5775   -3.4465    0.9650 C   0  0  0  0  0  0  0  0  0  0  0  0
   -5.6012   -2.6833    1.5583 C   0  0  0  0  0  0  0  0  0  0  0  0
   -6.1211   -3.0473    2.8031 C   0  0  0  0  0  0  0  0  0  0  0  0
   -5.5885   -4.1416    3.4890 C   0  0  0  0  0  0  0  0  0  0  0  0
   -6.1943   -4.5382    5.1291 S   0  0  0  0  0  0  0  0  0  0  0  0
   -5.0914   -3.3526    5.9563 C   0  0  0  0  0  0  0  0  0  0  0  0
   -4.5591   -4.8964    2.9127 C   0  0  0  0  0  0  0  0  0  0  0  0
   -4.0705   -4.5648    1.6465 C   0  0  0  0  0  0  0  0  0  0  0  0
   -4.5566   -3.5329   -1.4806 C   0  0  0  0  0  0  0  0  0  0  0  0
   -3.7616   -4.2354   -2.3994 C   0  0  0  0  0  0  0  0  0  0  0  0
   -4.3211   -4.7034   -3.6039 C   0  0  0  0  0  0  0  0  0  0  0  0
   -5.6920   -4.5760   -3.8359 C   0  0  0  0  0  0  0  0  0  0  0  0
   -6.4365   -5.3559   -5.2777 S   0  0  0  0  0  0  0  0  0  0  0  0
   -7.1740   -3.8328   -5.9612 C   0  0  0  0  0  0  0  0  0  0  0  0
   -6.5012   -3.9347   -2.8907 C   0  0  0  0  0  0  0  0  0  0  0  0
   -5.9329   -3.3892   -1.7422 C   0  0  0  0  0  0  0  0  0  0  0  0
   -2.8840   -1.0874    0.9373 C   0  0  0  0  0  0  0  0  0  0  0  0
   -2.4129   -1.6591    2.4430 S   0  0  0  0  0  0  0  0  0  0  0  0
   -2.8235   -1.2793   -2.7619 C   0  0  0  0  0  0  0  0  0  0  0  0
   -3.2777   -0.5765   -3.8727 C   0  0  0  0  0  0  0  0  0  0  0  0
   -2.5192   -0.7951   -5.0369 C   0  0  0  0  0  0  0  0  0  0  0  0
   -2.8296    0.1067   -6.5641 S   0  0  0  0  0  0  0  0  0  0  0  0
   -3.5768   -1.2060   -7.6267 C   0  0  0  0  0  0  0  0  0  0  0  0
   -3.9299   -2.5236   -6.9344 C   0  0  0  0  0  0  0  0  0  0  0  0
   -1.4151   -1.6170   -4.8357 C   0  0  0  0  0  0  0  0  0  0  0  0
   -1.4305   -2.1053   -3.2325 S   0  0  0  0  0  0  0  0  0  0  0  0
   -0.4704   -2.0179   -5.8931 C   0  0  0  0  0  0  0  0  0  0  0  0
    0.8747   -2.0417   -5.8026 C   0  0  0  0  0  0  0  0  0  0  0  0
    1.6848   -1.4895   -4.7083 C   0  0  0  0  0  0  0  0  0  0  0  0
    1.2998   -1.2040   -3.5423 O   0  0  0  0  0  0  0  0  0  0  0  0
    3.0258   -1.2677   -5.1970 C   0  0  0  0  0  0  0  0  0  0  0  0
    4.0790   -0.6146   -4.5520 C   0  0  0  0  0  0  0  0  0  0  0  0
    5.2491   -0.3324   -5.2838 C   0  0  0  0  0  0  0  0  0  0  0  0
    6.5724    0.4853   -4.4684 Cl  0  0  0  0  0  0  0  0  0  0  0  0
    5.3307   -0.6931   -6.6450 C   0  0  0  0  0  0  0  0  0  0  0  0
    6.8721   -0.2595   -7.6970 Br  0  0  0  0  0  0  0  0  0  0  0  0
    4.2546   -1.3422   -7.2719 C   0  0  0  0  0  0  0  0  0  0  0  0
    3.1126   -1.6647   -6.5176 C   0  0  0  0  0  0  0  0  0  0  0  0
    1.8263   -2.2790   -6.9364 C   0  0  0  0  0  0  0  0  0  0  0  0
    1.6193   -3.0738   -8.0237 C   0  0  0  0  0  0  0  0  0  0  0  0
    0.3896   -3.7882   -8.2471 C   0  0  0  0  0  0  0  0  0  0  0  0
   -0.5956   -4.3737   -8.4400 N   0  0  0  0  0  0  0  0  0  0  0  0
    2.6502   -3.3429   -8.9913 C   0  0  0  0  0  0  0  0  0  0  0  0
    3.4701   -3.5643   -9.7798 N   0  0  0  0  0  0  0  0  0  0  0  0
    2.0976    0.6479    7.1456 H   0  0  0  0  0  0  0  0  0  0  0  0
    5.8872   -2.3364    3.2321 H   0  0  0  0  0  0  0  0  0  0  0  0
    6.9568    2.1587    5.4067 H   0  0  0  0  0  0  0  0  0  0  0  0
    9.4138    1.1816    3.1076 H   0  0  0  0  0  0  0  0  0  0  0  0
    8.2587    3.0715    1.7669 H   0  0  0  0  0  0  0  0  0  0  0  0
    5.6454    2.6462    1.6141 H   0  0  0  0  0  0  0  0  0  0  0  0
    5.2488    0.3167    0.5268 H   0  0  0  0  0  0  0  0  0  0  0  0
    7.6281   -0.7710    0.0278 H   0  0  0  0  0  0  0  0  0  0  0  0
    9.4807    1.1089    0.4336 H   0  0  0  0  0  0  0  0  0  0  0  0
    8.0901    1.7566   -0.5330 H   0  0  0  0  0  0  0  0  0  0  0  0
    9.0044   -0.9607    2.1827 H   0  0  0  0  0  0  0  0  0  0  0  0
    2.9092   -0.2247    3.6317 H   0  0  0  0  0  0  0  0  0  0  0  0
    0.2690   -2.5843    1.5311 H   0  0  0  0  0  0  0  0  0  0  0  0
    2.0661   -2.5105    1.6941 H   0  0  0  0  0  0  0  0  0  0  0  0
    0.4690   -2.0608   -0.9042 H   0  0  0  0  0  0  0  0  0  0  0  0
    2.2678   -2.0392   -0.7448 H   0  0  0  0  0  0  0  0  0  0  0  0
    1.3508   -3.5751   -0.4717 H   0  0  0  0  0  0  0  0  0  0  0  0
    1.2038    2.5830    1.3874 H   0  0  0  0  0  0  0  0  0  0  0  0
    1.9975    4.0432   -0.4291 H   0  0  0  0  0  0  0  0  0  0  0  0
    1.5566    3.4402   -3.2741 H   0  0  0  0  0  0  0  0  0  0  0  0
    1.0932    4.5269   -4.6427 H   0  0  0  0  0  0  0  0  0  0  0  0
   -0.1841    3.5886   -3.7638 H   0  0  0  0  0  0  0  0  0  0  0  0
   -2.0818    4.7699   -1.6128 H   0  0  0  0  0  0  0  0  0  0  0  0
   -2.8794    3.3864    0.2792 H   0  0  0  0  0  0  0  0  0  0  0  0
    0.4672    3.4266    3.6213 H   0  0  0  0  0  0  0  0  0  0  0  0
   -0.0213    5.2583    5.1493 H   0  0  0  0  0  0  0  0  0  0  0  0
   -0.5501    8.1069    5.0348 H   0  0  0  0  0  0  0  0  0  0  0  0
   -1.0847    7.2288    3.5819 H   0  0  0  0  0  0  0  0  0  0  0  0
   -2.0324    8.6744    4.1211 H   0  0  0  0  0  0  0  0  0  0  0  0
   -4.2223    4.8434    4.2857 H   0  0  0  0  0  0  0  0  0  0  0  0
   -3.7588    2.7609    3.0540 H   0  0  0  0  0  0  0  0  0  0  0  0
   -5.9654   -1.7892    1.0669 H   0  0  0  0  0  0  0  0  0  0  0  0
   -6.9130   -2.4571    3.2491 H   0  0  0  0  0  0  0  0  0  0  0  0
   -5.3807   -2.3122    5.6935 H   0  0  0  0  0  0  0  0  0  0  0  0
   -4.0300   -3.5323    5.6728 H   0  0  0  0  0  0  0  0  0  0  0  0
   -5.1873   -3.4802    7.0571 H   0  0  0  0  0  0  0  0  0  0  0  0
   -4.1100   -5.7207    3.4550 H   0  0  0  0  0  0  0  0  0  0  0  0
   -3.2565   -5.1331    1.2141 H   0  0  0  0  0  0  0  0  0  0  0  0
   -2.7166   -4.4126   -2.1948 H   0  0  0  0  0  0  0  0  0  0  0  0
   -3.6837   -5.2223   -4.3124 H   0  0  0  0  0  0  0  0  0  0  0  0
   -8.1378   -3.6321   -5.4500 H   0  0  0  0  0  0  0  0  0  0  0  0
   -6.5166   -2.9580   -5.8444 H   0  0  0  0  0  0  0  0  0  0  0  0
   -7.3785   -3.9901   -7.0396 H   0  0  0  0  0  0  0  0  0  0  0  0
   -7.5668   -3.8537   -3.0519 H   0  0  0  0  0  0  0  0  0  0  0  0
   -6.5814   -2.8744   -1.0385 H   0  0  0  0  0  0  0  0  0  0  0  0
   -4.0800    0.1514   -3.8279 H   0  0  0  0  0  0  0  0  0  0  0  0
   -2.8742   -1.4290   -8.4628 H   0  0  0  0  0  0  0  0  0  0  0  0
   -4.4966   -0.7813   -8.0653 H   0  0  0  0  0  0  0  0  0  0  0  0
   -3.0355   -3.1751   -6.8426 H   0  0  0  0  0  0  0  0  0  0  0  0
   -4.3584   -2.3595   -5.9311 H   0  0  0  0  0  0  0  0  0  0  0  0
   -4.6811   -3.0659   -7.5448 H   0  0  0  0  0  0  0  0  0  0  0  0
   -0.9132   -2.1612   -6.8616 H   0  0  0  0  0  0  0  0  0  0  0  0
    3.9735   -0.2999   -3.5222 H   0  0  0  0  0  0  0  0  0  0  0  0
    4.3170   -1.5333   -8.3324 H   0  0  0  0  0  0  0  0  0  0  0  0
  1  2  2  3
  2  3  1  0
  3  4  2  0
  3  5  1  0
  5  6  2  0
  6  7  1  0
  7  8  2  0
  8  9  1  0
  9 10  2  0
 10 11  1  0
 11 12  2  3
 12 13  1  0
 13 14  3  0
 12 15  1  0
 15 16  3  0
  8 17  1  0
 17 18  1  0
 18 19  1  0
 19 20  2  0
 20 21  1  0
 21 22  1  0
 21 23  1  0
  1 24  1  0
 24 25  2  0
 25 26  1  0
 26 27  1  0
 27 28  1  0
 28 29  1  0
 26 30  2  0
 30 31  1  0
 30 32  1  0
 32 33  2  0
 33 34  1  0
 34 35  1  0
 35 36  2  0
 36 37  1  0
 37 38  2  0
 38 39  1  0
 39 40  1  0
 38 41  1  0
 41 42  2  0
 34 43  1  0
 43 44  2  0
 44 45  1  0
 45 46  2  0
 46 47  1  0
 47 48  1  0
 46 49  1  0
 49 50  2  0
 33 51  1  0
 51 52  1  0
 52 53  1  0
 53 54  2  0
 54 55  1  0
 55 56  1  0
 56 57  2  0
 57 58  1  0
 58 59  2  0
 59 60  1  0
 60 61  1  0
 59 62  1  0
 62 63  2  0
 55 64  1  0
 64 65  2  0
 65 66  1  0
 66 67  2  0
 67 68  1  0
 68 69  1  0
 67 70  1  0
 70 71  2  0
 54 72  1  0
 72 73  1  0
 53 74  1  0
 74 75  2  0
 75 76  1  0
 76 77  1  0
 77 78  1  0
 78 79  1  0
 76 80  2  0
 80 81  1  0
 80 82  1  0
 82 83  2  3
 83 84  1  0
 84 85  2  0
 84 86  1  0
 86 87  2  0
 87 88  1  0
 88 89  1  0
 88 90  2  0
 90 91  1  0
 90 92  1  0
 92 93  2  0
 93 94  1  0
 94 95  2  3
 95 96  1  0
 96 97  3  0
 95 98  1  0
 98 99  3  0
 11  2  1  0
 23 17  1  0
 31 24  1  0
 73 32  1  0
 81 74  1  0
 94 83  1  0
 10  5  1  0
 22 18  1  0
 42 35  1  0
 50 43  1  0
 72 51  2  0
 93 86  1  0
 23  7  1  0
 63 56  1  0
 71 64  1  0
  1100  1  0
  6101  1  0
  9102  1  0
 17103  1  0
 18104  1  0
 19105  1  0
 20106  1  0
 21107  1  0
 22108  1  0
 22109  1  0
 23110  1  0
 25111  1  0
 28112  1  0
 28113  1  0
 29114  1  0
 29115  1  0
 29116  1  0
 36117  1  0
 37118  1  0
 40119  1  0
 40120  1  0
 40121  1  0
 41122  1  0
 42123  1  0
 44124  1  0
 45125  1  0
 48126  1  0
 48127  1  0
 48128  1  0
 49129  1  0
 50130  1  0
 57131  1  0
 58132  1  0
 61133  1  0
 61134  1  0
 61135  1  0
 62136  1  0
 63137  1  0
 65138  1  0
 66139  1  0
 69140  1  0
 69141  1  0
 69142  1  0
 70143  1  0
 71144  1  0
 75145  1  0
 78146  1  0
 78147  1  0
 79148  1  0
 79149  1  0
 79150  1  0
 82151  1  0
 87152  1  0
 92153  1  0
M  END

