
     RDKit          3D

178196  0  0  0  0  0  0  0  0999 V2000
   -1.9216   -3.5180    3.4034 C   0  0  0  0  0  0  0  0  0  0  0  0
   -1.6839   -3.3658    4.7175 C   0  0  0  0  0  0  0  0  0  0  0  0
   -2.4473   -2.4840    5.6104 C   0  0  0  0  0  0  0  0  0  0  0  0
   -3.3104   -1.6330    5.2652 O   0  0  0  0  0  0  0  0  0  0  0  0
   -2.1639   -2.8514    6.9802 C   0  0  0  0  0  0  0  0  0  0  0  0
   -2.7503   -2.3057    8.1474 C   0  0  0  0  0  0  0  0  0  0  0  0
   -2.2884   -2.8652    9.3224 C   0  0  0  0  0  0  0  0  0  0  0  0
   -1.3166   -3.9163    9.3545 C   0  0  0  0  0  0  0  0  0  0  0  0
   -0.7663   -4.4819    8.2194 C   0  0  0  0  0  0  0  0  0  0  0  0
   -1.2191   -3.9122    6.9935 C   0  0  0  0  0  0  0  0  0  0  0  0
   -0.8433   -4.2445    5.5866 C   0  0  0  0  0  0  0  0  0  0  0  0
    0.2009   -5.0173    5.1801 C   0  0  0  0  0  0  0  0  0  0  0  0
    1.0079   -5.7936    6.0842 C   0  0  0  0  0  0  0  0  0  0  0  0
    1.6695   -6.4241    6.7942 N   0  0  0  0  0  0  0  0  0  0  0  0
    0.6636   -5.0315    3.8173 C   0  0  0  0  0  0  0  0  0  0  0  0
    1.0466   -5.0449    2.7242 N   0  0  0  0  0  0  0  0  0  0  0  0
   -1.3699   -3.9466   10.8524 C   0  0  0  0  0  0  0  0  0  0  0  0
   -2.1090   -5.1429   11.5268 C   0  0  0  0  0  0  0  0  0  0  0  0
   -3.2117   -5.6426   10.6229 C   0  0  0  0  0  0  0  0  0  0  0  0
   -4.1354   -4.6819   10.5848 C   0  0  0  0  0  0  0  0  0  0  0  0
   -3.6325   -3.5611   11.4677 C   0  0  0  0  0  0  0  0  0  0  0  0
   -2.9514   -4.3917   12.5411 C   0  0  0  0  0  0  0  0  0  0  0  0
   -2.3836   -2.8873   10.8192 C   0  0  0  0  0  0  0  0  0  0  0  0
   -2.5143   -2.4747    2.5533 C   0  0  0  0  0  0  0  0  0  0  0  0
   -3.1691   -2.7023    1.3571 C   0  0  0  0  0  0  0  0  0  0  0  0
   -3.3513   -1.5528    0.5672 C   0  0  0  0  0  0  0  0  0  0  0  0
   -4.2874   -1.6959   -0.9527 S   0  0  0  0  0  0  0  0  0  0  0  0
   -5.9331   -1.5620   -0.1637 C   0  0  0  0  0  0  0  0  0  0  0  0
   -6.3769   -2.8840    0.4503 C   0  0  0  0  0  0  0  0  0  0  0  0
   -2.7347   -0.3943    1.0898 C   0  0  0  0  0  0  0  0  0  0  0  0
   -2.0713   -0.8645    2.5717 S   0  0  0  0  0  0  0  0  0  0  0  0
   -2.2609    0.8642    0.4354 C   0  0  0  0  0  0  0  0  0  0  0  0
   -2.5890    1.5070   -0.7928 C   0  0  0  0  0  0  0  0  0  0  0  0
   -3.7003    1.2112   -1.6540 N   0  0  0  0  0  0  0  0  0  0  0  0
   -5.0168    1.7189   -1.2983 C   0  0  0  0  0  0  0  0  0  0  0  0
   -5.1628    2.7470   -0.3412 C   0  0  0  0  0  0  0  0  0  0  0  0
   -6.4259    3.2588   -0.0285 C   0  0  0  0  0  0  0  0  0  0  0  0
   -7.5637    2.7563   -0.6611 C   0  0  0  0  0  0  0  0  0  0  0  0
   -9.1779    3.4414   -0.2816 S   0  0  0  0  0  0  0  0  0  0  0  0
   -9.0378    4.7618   -1.5268 C   0  0  0  0  0  0  0  0  0  0  0  0
   -7.4414    1.7253   -1.5929 C   0  0  0  0  0  0  0  0  0  0  0  0
   -6.1811    1.2037   -1.9033 C   0  0  0  0  0  0  0  0  0  0  0  0
   -3.3939    0.7209   -2.9879 C   0  0  0  0  0  0  0  0  0  0  0  0
   -2.3620   -0.2215   -3.1759 C   0  0  0  0  0  0  0  0  0  0  0  0
   -2.0561   -0.7041   -4.4486 C   0  0  0  0  0  0  0  0  0  0  0  0
   -2.7741   -0.2566   -5.5618 C   0  0  0  0  0  0  0  0  0  0  0  0
   -2.3523   -0.8478   -7.1998 S   0  0  0  0  0  0  0  0  0  0  0  0
   -3.5560   -2.2088   -7.1589 C   0  0  0  0  0  0  0  0  0  0  0  0
   -3.7738    0.7072   -5.3977 C   0  0  0  0  0  0  0  0  0  0  0  0
   -4.0621    1.2149   -4.1261 C   0  0  0  0  0  0  0  0  0  0  0  0
   -1.6858    2.5359   -1.0973 C   0  0  0  0  0  0  0  0  0  0  0  0
   -1.3203    3.3689   -2.4992 S   0  0  0  0  0  0  0  0  0  0  0  0
    0.2034    3.9635   -1.9769 C   0  0  0  0  0  0  0  0  0  0  0  0
    0.3715    3.5401   -0.6241 C   0  0  0  0  0  0  0  0  0  0  0  0
    1.5949    3.6223    0.1465 N   0  0  0  0  0  0  0  0  0  0  0  0
    2.5869    2.5531    0.0389 C   0  0  0  0  0  0  0  0  0  0  0  0
    3.7412    2.5138    0.8590 C   0  0  0  0  0  0  0  0  0  0  0  0
    4.7063    1.5176    0.6950 C   0  0  0  0  0  0  0  0  0  0  0  0
    4.5166    0.4966   -0.2346 C   0  0  0  0  0  0  0  0  0  0  0  0
    5.7804   -0.7511   -0.4857 S   0  0  0  0  0  0  0  0  0  0  0  0
    5.2063   -1.7869    0.8967 C   0  0  0  0  0  0  0  0  0  0  0  0
    3.3428    0.4608   -0.9835 C   0  0  0  0  0  0  0  0  0  0  0  0
    2.4010    1.4874   -0.8734 C   0  0  0  0  0  0  0  0  0  0  0  0
    1.6601    4.6268    1.1958 C   0  0  0  0  0  0  0  0  0  0  0  0
    2.7909    5.4577    1.3384 C   0  0  0  0  0  0  0  0  0  0  0  0
    2.8530    6.4110    2.3571 C   0  0  0  0  0  0  0  0  0  0  0  0
    1.7861    6.5567    3.2466 C   0  0  0  0  0  0  0  0  0  0  0  0
    1.8771    7.7641    4.5673 S   0  0  0  0  0  0  0  0  0  0  0  0
    2.5879    6.5834    5.7573 C   0  0  0  0  0  0  0  0  0  0  0  0
    0.6444    5.7675    3.0993 C   0  0  0  0  0  0  0  0  0  0  0  0
    0.5779    4.8125    2.0829 C   0  0  0  0  0  0  0  0  0  0  0  0
   -0.6915    2.7328   -0.2106 C   0  0  0  0  0  0  0  0  0  0  0  0
   -0.8574    1.6383    1.0308 S   0  0  0  0  0  0  0  0  0  0  0  0
    1.3203    4.3166   -2.9193 C   0  0  0  0  0  0  0  0  0  0  0  0
    2.4829    4.9272   -2.4248 C   0  0  0  0  0  0  0  0  0  0  0  0
    2.4012    5.8048   -1.4010 F   0  0  0  0  0  0  0  0  0  0  0  0
    3.7332    4.5998   -2.9633 C   0  0  0  0  0  0  0  0  0  0  0  0
    4.8613    5.0006   -2.3252 F   0  0  0  0  0  0  0  0  0  0  0  0
    3.8092    3.7758   -4.0951 C   0  0  0  0  0  0  0  0  0  0  0  0
    2.6390    3.5430   -4.8296 C   0  0  0  0  0  0  0  0  0  0  0  0
    2.6912    2.9707   -6.0600 N   0  0  0  0  0  0  0  0  0  0  0  0
    1.5699    2.6475   -6.7553 C   0  0  0  0  0  0  0  0  0  0  0  0
    1.7380    1.9805   -8.0929 C   0  0  0  0  0  0  0  0  0  0  0  0
    1.8136    0.4640   -7.9406 C   0  0  0  0  0  0  0  0  0  0  0  0
    0.3115    2.8785   -6.1563 C   0  0  0  0  0  0  0  0  0  0  0  0
    0.2673    3.4354   -4.9180 N   0  0  0  0  0  0  0  0  0  0  0  0
    1.3849    3.7819   -4.2313 C   0  0  0  0  0  0  0  0  0  0  0  0
   -0.9925    2.5498   -6.8240 C   0  0  0  0  0  0  0  0  0  0  0  0
   -1.5043    3.7155   -7.6550 C   0  0  0  0  0  0  0  0  0  0  0  0
    5.0778    3.0790   -4.4103 C   0  0  0  0  0  0  0  0  0  0  0  0
    5.2180    1.7291   -4.3401 C   0  0  0  0  0  0  0  0  0  0  0  0
    4.1201    0.7558   -4.1957 C   0  0  0  0  0  0  0  0  0  0  0  0
    2.9135    1.0031   -3.9442 O   0  0  0  0  0  0  0  0  0  0  0  0
    4.6368   -0.5771   -4.3603 C   0  0  0  0  0  0  0  0  0  0  0  0
    3.8891   -1.7767   -4.3176 C   0  0  0  0  0  0  0  0  0  0  0  0
    4.6516   -2.9178   -4.4341 C   0  0  0  0  0  0  0  0  0  0  0  0
    6.0753   -2.8904   -4.5739 C   0  0  0  0  0  0  0  0  0  0  0  0
    6.8104   -1.7158   -4.6286 C   0  0  0  0  0  0  0  0  0  0  0  0
    6.0408   -0.5193   -4.5338 C   0  0  0  0  0  0  0  0  0  0  0  0
    6.4758    0.9145   -4.4965 C   0  0  0  0  0  0  0  0  0  0  0  0
    7.7589    1.3672   -4.4667 C   0  0  0  0  0  0  0  0  0  0  0  0
    8.1052    2.7196   -4.1061 C   0  0  0  0  0  0  0  0  0  0  0  0
    8.4030    3.7988   -3.8176 N   0  0  0  0  0  0  0  0  0  0  0  0
    8.8923    0.5292   -4.7478 C   0  0  0  0  0  0  0  0  0  0  0  0
    9.8191   -0.1301   -4.9695 N   0  0  0  0  0  0  0  0  0  0  0  0
    6.1158   -4.3919   -4.5695 C   0  0  0  0  0  0  0  0  0  0  0  0
    6.5970   -5.1022   -3.2672 C   0  0  0  0  0  0  0  0  0  0  0  0
    6.2277   -4.2775   -2.0559 C   0  0  0  0  0  0  0  0  0  0  0  0
    4.8985   -4.3230   -1.9545 C   0  0  0  0  0  0  0  0  0  0  0  0
    4.4054   -5.1637   -3.1088 C   0  0  0  0  0  0  0  0  0  0  0  0
    5.5328   -6.1811   -3.1571 C   0  0  0  0  0  0  0  0  0  0  0  0
    4.6553   -4.4184   -4.4538 C   0  0  0  0  0  0  0  0  0  0  0  0
   -1.6080   -4.4181    2.9004 H   0  0  0  0  0  0  0  0  0  0  0  0
   -3.4893   -1.5156    8.1262 H   0  0  0  0  0  0  0  0  0  0  0  0
   -0.0744   -5.2996    8.3064 H   0  0  0  0  0  0  0  0  0  0  0  0
   -0.4190   -3.6426   11.3440 H   0  0  0  0  0  0  0  0  0  0  0  0
   -1.4505   -5.9324   11.9447 H   0  0  0  0  0  0  0  0  0  0  0  0
   -3.2936   -6.6199   10.1636 H   0  0  0  0  0  0  0  0  0  0  0  0
   -5.0972   -4.7450   10.0850 H   0  0  0  0  0  0  0  0  0  0  0  0
   -4.4160   -2.8615   11.8324 H   0  0  0  0  0  0  0  0  0  0  0  0
   -2.3404   -3.7933   13.2577 H   0  0  0  0  0  0  0  0  0  0  0  0
   -3.6581   -5.0473   13.1053 H   0  0  0  0  0  0  0  0  0  0  0  0
   -2.0620   -1.9402   11.3069 H   0  0  0  0  0  0  0  0  0  0  0  0
   -3.4932   -3.6898    1.0480 H   0  0  0  0  0  0  0  0  0  0  0  0
   -5.9381   -0.7571    0.6017 H   0  0  0  0  0  0  0  0  0  0  0  0
   -6.6681   -1.2929   -0.9537 H   0  0  0  0  0  0  0  0  0  0  0  0
   -7.4509   -2.8206    0.7238 H   0  0  0  0  0  0  0  0  0  0  0  0
   -6.2420   -3.7132   -0.2750 H   0  0  0  0  0  0  0  0  0  0  0  0
   -5.8084   -3.0978    1.3718 H   0  0  0  0  0  0  0  0  0  0  0  0
   -4.3036    3.1815    0.1507 H   0  0  0  0  0  0  0  0  0  0  0  0
   -6.5141    4.0624    0.6931 H   0  0  0  0  0  0  0  0  0  0  0  0
   -8.1721    5.4154   -1.2902 H   0  0  0  0  0  0  0  0  0  0  0  0
   -8.9104    4.3193   -2.5368 H   0  0  0  0  0  0  0  0  0  0  0  0
   -9.9627    5.3729   -1.5148 H   0  0  0  0  0  0  0  0  0  0  0  0
   -8.3218    1.3230   -2.0788 H   0  0  0  0  0  0  0  0  0  0  0  0
   -6.1218    0.3908   -2.6144 H   0  0  0  0  0  0  0  0  0  0  0  0
   -1.7975   -0.5927   -2.3279 H   0  0  0  0  0  0  0  0  0  0  0  0
   -1.2592   -1.4291   -4.5701 H   0  0  0  0  0  0  0  0  0  0  0  0
   -3.2953   -2.9183   -6.3461 H   0  0  0  0  0  0  0  0  0  0  0  0
   -3.5267   -2.7432   -8.1304 H   0  0  0  0  0  0  0  0  0  0  0  0
   -4.5791   -1.8097   -6.9999 H   0  0  0  0  0  0  0  0  0  0  0  0
   -4.3040    1.0912   -6.2616 H   0  0  0  0  0  0  0  0  0  0  0  0
   -4.7997    2.0033   -4.0405 H   0  0  0  0  0  0  0  0  0  0  0  0
    3.9120    3.2340    1.6392 H   0  0  0  0  0  0  0  0  0  0  0  0
    5.6024    1.5359    1.3061 H   0  0  0  0  0  0  0  0  0  0  0  0
    5.3228   -1.2341    1.8536 H   0  0  0  0  0  0  0  0  0  0  0  0
    5.8210   -2.7108    0.9385 H   0  0  0  0  0  0  0  0  0  0  0  0
    4.1419   -2.0652    0.7489 H   0  0  0  0  0  0  0  0  0  0  0  0
    3.1676   -0.3559   -1.6740 H   0  0  0  0  0  0  0  0  0  0  0  0
    1.5231    1.4316   -1.5042 H   0  0  0  0  0  0  0  0  0  0  0  0
    3.6342    5.3595    0.6692 H   0  0  0  0  0  0  0  0  0  0  0  0
    3.7382    7.0257    2.4627 H   0  0  0  0  0  0  0  0  0  0  0  0
    2.7777    7.1015    6.7188 H   0  0  0  0  0  0  0  0  0  0  0  0
    1.8781    5.7475    5.9312 H   0  0  0  0  0  0  0  0  0  0  0  0
    3.5472    6.1836    5.3664 H   0  0  0  0  0  0  0  0  0  0  0  0
   -0.1888    5.8802    3.7833 H   0  0  0  0  0  0  0  0  0  0  0  0
   -0.3149    4.2140    2.0088 H   0  0  0  0  0  0  0  0  0  0  0  0
    0.9190    2.2567   -8.7927 H   0  0  0  0  0  0  0  0  0  0  0  0
    2.6875    2.3382   -8.5556 H   0  0  0  0  0  0  0  0  0  0  0  0
    0.8522    0.0566   -7.5669 H   0  0  0  0  0  0  0  0  0  0  0  0
    2.6288    0.1856   -7.2375 H   0  0  0  0  0  0  0  0  0  0  0  0
    2.0293    0.0063   -8.9285 H   0  0  0  0  0  0  0  0  0  0  0  0
   -0.9032    1.6471   -7.4595 H   0  0  0  0  0  0  0  0  0  0  0  0
   -1.7399    2.3296   -6.0391 H   0  0  0  0  0  0  0  0  0  0  0  0
   -0.8008    3.9472   -8.4815 H   0  0  0  0  0  0  0  0  0  0  0  0
   -1.6293    4.6199   -7.0168 H   0  0  0  0  0  0  0  0  0  0  0  0
   -2.4905    3.4494   -8.0904 H   0  0  0  0  0  0  0  0  0  0  0  0
    5.9191    3.7212   -4.6059 H   0  0  0  0  0  0  0  0  0  0  0  0
    2.8180   -1.8046   -4.1726 H   0  0  0  0  0  0  0  0  0  0  0  0
    7.8800   -1.7653   -4.7102 H   0  0  0  0  0  0  0  0  0  0  0  0
    6.4989   -4.8345   -5.5167 H   0  0  0  0  0  0  0  0  0  0  0  0
    7.6447   -5.4642   -3.2876 H   0  0  0  0  0  0  0  0  0  0  0  0
    6.9034   -3.8200   -1.3430 H   0  0  0  0  0  0  0  0  0  0  0  0
    4.3098   -3.9113   -1.1419 H   0  0  0  0  0  0  0  0  0  0  0  0
    3.3895   -5.5871   -2.9813 H   0  0  0  0  0  0  0  0  0  0  0  0
    5.4874   -6.8533   -4.0441 H   0  0  0  0  0  0  0  0  0  0  0  0
    5.6191   -6.7961   -2.2306 H   0  0  0  0  0  0  0  0  0  0  0  0
    4.1453   -4.8599   -5.3382 H   0  0  0  0  0  0  0  0  0  0  0  0
  1  2  2  3
  2  3  1  0
  3  4  2  0
  3  5  1  0
  5  6  2  0
  6  7  1  0
  7  8  2  0
  8  9  1  0
  9 10  2  0
 10 11  1  0
 11 12  2  3
 12 13  1  0
 13 14  3  0
 12 15  1  0
 15 16  3  0
  8 17  1  0
 17 18  1  0
 18 19  1  0
 19 20  2  0
 20 21  1  0
 21 22  1  0
 21 23  1  0
  1 24  1  0
 24 25  2  0
 25 26  1  0
 26 27  1  0
 27 28  1  0
 28 29  1  0
 26 30  2  0
 30 31  1  0
 30 32  1  0
 32 33  2  0
 33 34  1  0
 34 35  1  0
 35 36  2  0
 36 37  1  0
 37 38  2  0
 38 39  1  0
 39 40  1  0
 38 41  1  0
 41 42  2  0
 34 43  1  0
 43 44  2  0
 44 45  1  0
 45 46  2  0
 46 47  1  0
 47 48  1  0
 46 49  1  0
 49 50  2  0
 33 51  1  0
 51 52  1  0
 52 53  1  0
 53 54  2  0
 54 55  1  0
 55 56  1  0
 56 57  2  0
 57 58  1  0
 58 59  2  0
 59 60  1  0
 60 61  1  0
 59 62  1  0
 62 63  2  0
 55 64  1  0
 64 65  2  0
 65 66  1  0
 66 67  2  0
 67 68  1  0
 68 69  1  0
 67 70  1  0
 70 71  2  0
 54 72  1  0
 72 73  1  0
 53 74  1  0
 74 75  2  0
 75 76  1  0
 75 77  1  0
 77 78  1  0
 77 79  2  0
 79 80  1  0
 80 81  2  0
 81 82  1  0
 82 83  1  0
 83 84  1  0
 82 85  2  0
 85 86  1  0
 86 87  2  0
 85 88  1  0
 88 89  1  0
 79 90  1  0
 90 91  2  3
 91 92  1  0
 92 93  2  0
 92 94  1  0
 94 95  2  0
 95 96  1  0
 96 97  2  0
 97 98  1  0
 98 99  2  0
 99100  1  0
100101  2  3
101102  1  0
102103  3  0
101104  1  0
104105  3  0
 97106  1  0
106107  1  0
107108  1  0
108109  2  0
109110  1  0
110111  1  0
110112  1  0
 11  2  1  0
 23 17  1  0
 31 24  1  0
 73 32  1  0
 87 74  1  0
100 91  1  0
112106  1  0
 10  5  1  0
 22 18  1  0
 42 35  1  0
 50 43  1  0
 72 51  2  0
 87 80  1  0
 99 94  1  0
111107  1  0
 23  7  1  0
 63 56  1  0
 71 64  1  0
112 96  1  0
  1113  1  0
  6114  1  0
  9115  1  0
 17116  1  0
 18117  1  0
 19118  1  0
 20119  1  0
 21120  1  0
 22121  1  0
 22122  1  0
 23123  1  0
 25124  1  0
 28125  1  0
 28126  1  0
 29127  1  0
 29128  1  0
 29129  1  0
 36130  1  0
 37131  1  0
 40132  1  0
 40133  1  0
 40134  1  0
 41135  1  0
 42136  1  0
 44137  1  0
 45138  1  0
 48139  1  0
 48140  1  0
 48141  1  0
 49142  1  0
 50143  1  0
 57144  1  0
 58145  1  0
 61146  1  0
 61147  1  0
 61148  1  0
 62149  1  0
 63150  1  0
 65151  1  0
 66152  1  0
 69153  1  0
 69154  1  0
 69155  1  0
 70156  1  0
 71157  1  0
 83158  1  0
 83159  1  0
 84160  1  0
 84161  1  0
 84162  1  0
 88163  1  0
 88164  1  0
 89165  1  0
 89166  1  0
 89167  1  0
 90168  1  0
 95169  1  0
 98170  1  0
106171  1  0
107172  1  0
108173  1  0
109174  1  0
110175  1  0
111176  1  0
111177  1  0
112178  1  0
M  END

