
     RDKit          3D

168185  0  0  0  0  0  0  0  0999 V2000
   -5.3402    3.3711   -4.6796 C   0  0  0  0  0  0  0  0  0  0  0  0
   -5.2182    4.6063   -4.1599 C   0  0  0  0  0  0  0  0  0  0  0  0
   -6.3661    5.4671   -3.8611 C   0  0  0  0  0  0  0  0  0  0  0  0
   -7.5204    5.3597   -4.3531 O   0  0  0  0  0  0  0  0  0  0  0  0
   -5.9837    6.3905   -2.8062 C   0  0  0  0  0  0  0  0  0  0  0  0
   -6.8142    7.2961   -2.1085 C   0  0  0  0  0  0  0  0  0  0  0  0
   -6.1725    7.9580   -1.0798 C   0  0  0  0  0  0  0  0  0  0  0  0
   -4.7972    7.7345   -0.7382 C   0  0  0  0  0  0  0  0  0  0  0  0
   -3.9782    6.8519   -1.4156 C   0  0  0  0  0  0  0  0  0  0  0  0
   -4.6120    6.1884   -2.4995 C   0  0  0  0  0  0  0  0  0  0  0  0
   -4.0469    5.1932   -3.4380 C   0  0  0  0  0  0  0  0  0  0  0  0
   -2.7590    5.1604   -3.8684 C   0  0  0  0  0  0  0  0  0  0  0  0
   -2.3861    4.4880   -5.0891 C   0  0  0  0  0  0  0  0  0  0  0  0
   -2.0784    3.9552   -6.0655 N   0  0  0  0  0  0  0  0  0  0  0  0
   -1.7230    5.9587   -3.2669 C   0  0  0  0  0  0  0  0  0  0  0  0
   -0.8888    6.6044   -2.8029 N   0  0  0  0  0  0  0  0  0  0  0  0
   -4.8859    8.7330    0.3789 C   0  0  0  0  0  0  0  0  0  0  0  0
   -4.2200   10.1253    0.1625 C   0  0  0  0  0  0  0  0  0  0  0  0
   -4.2399   10.4845   -1.3058 C   0  0  0  0  0  0  0  0  0  0  0  0
   -5.5163   10.6971   -1.6270 C   0  0  0  0  0  0  0  0  0  0  0  0
   -6.3211   10.4790   -0.3684 C   0  0  0  0  0  0  0  0  0  0  0  0
   -5.3348   11.0316    0.6443 C   0  0  0  0  0  0  0  0  0  0  0  0
   -6.2946    8.9703    0.0235 C   0  0  0  0  0  0  0  0  0  0  0  0
   -4.3818    2.2910   -4.4044 C   0  0  0  0  0  0  0  0  0  0  0  0
   -3.8997    1.3614   -5.3120 C   0  0  0  0  0  0  0  0  0  0  0  0
   -2.8834    0.5386   -4.7883 C   0  0  0  0  0  0  0  0  0  0  0  0
   -2.0456   -0.6187   -5.8672 S   0  0  0  0  0  0  0  0  0  0  0  0
   -0.8194    0.5945   -6.4604 C   0  0  0  0  0  0  0  0  0  0  0  0
   -0.0335    0.0119   -7.6175 C   0  0  0  0  0  0  0  0  0  0  0  0
   -2.6107    0.7726   -3.4262 C   0  0  0  0  0  0  0  0  0  0  0  0
   -3.6306    2.0186   -2.9345 S   0  0  0  0  0  0  0  0  0  0  0  0
   -1.5390    0.2780   -2.5180 C   0  0  0  0  0  0  0  0  0  0  0  0
   -0.6559   -0.8299   -2.6002 C   0  0  0  0  0  0  0  0  0  0  0  0
   -0.7723   -1.9534   -3.4823 N   0  0  0  0  0  0  0  0  0  0  0  0
    0.2941   -2.2562   -4.4237 C   0  0  0  0  0  0  0  0  0  0  0  0
    1.4819   -1.4952   -4.4686 C   0  0  0  0  0  0  0  0  0  0  0  0
    2.5474   -1.8787   -5.2883 C   0  0  0  0  0  0  0  0  0  0  0  0
    2.4210   -2.9998   -6.1172 C   0  0  0  0  0  0  0  0  0  0  0  0
    3.8302   -3.5740   -7.0631 S   0  0  0  0  0  0  0  0  0  0  0  0
    4.2991   -4.8142   -5.8145 C   0  0  0  0  0  0  0  0  0  0  0  0
    1.2083   -3.6929   -6.1732 C   0  0  0  0  0  0  0  0  0  0  0  0
    0.1567   -3.3265   -5.3282 C   0  0  0  0  0  0  0  0  0  0  0  0
   -1.6114   -3.0158   -2.9933 C   0  0  0  0  0  0  0  0  0  0  0  0
   -3.0015   -2.8371   -2.8971 C   0  0  0  0  0  0  0  0  0  0  0  0
   -3.8038   -3.8324   -2.3282 C   0  0  0  0  0  0  0  0  0  0  0  0
   -3.2177   -5.0070   -1.8340 C   0  0  0  0  0  0  0  0  0  0  0  0
   -4.2242   -6.2479   -1.0268 S   0  0  0  0  0  0  0  0  0  0  0  0
   -4.1421   -5.4238    0.5913 C   0  0  0  0  0  0  0  0  0  0  0  0
   -1.8385   -5.2012   -1.9411 C   0  0  0  0  0  0  0  0  0  0  0  0
   -1.0382   -4.2074   -2.5104 C   0  0  0  0  0  0  0  0  0  0  0  0
    0.2321   -0.8486   -1.5205 C   0  0  0  0  0  0  0  0  0  0  0  0
    1.4836   -1.8529   -1.0502 S   0  0  0  0  0  0  0  0  0  0  0  0
    1.8648   -0.9651    0.3637 C   0  0  0  0  0  0  0  0  0  0  0  0
    0.9533    0.1027    0.4786 C   0  0  0  0  0  0  0  0  0  0  0  0
    0.7946    0.9613    1.6214 N   0  0  0  0  0  0  0  0  0  0  0  0
   -0.5071    1.0082    2.2544 C   0  0  0  0  0  0  0  0  0  0  0  0
   -1.2855   -0.1656    2.3513 C   0  0  0  0  0  0  0  0  0  0  0  0
   -2.5812   -0.1249    2.8725 C   0  0  0  0  0  0  0  0  0  0  0  0
   -3.1291    1.0947    3.2887 C   0  0  0  0  0  0  0  0  0  0  0  0
   -4.8129    1.1520    3.9041 S   0  0  0  0  0  0  0  0  0  0  0  0
   -5.5394    1.4528    2.2653 C   0  0  0  0  0  0  0  0  0  0  0  0
   -2.3663    2.2650    3.2136 C   0  0  0  0  0  0  0  0  0  0  0  0
   -1.0619    2.2245    2.7003 C   0  0  0  0  0  0  0  0  0  0  0  0
    1.8277    1.9107    1.9521 C   0  0  0  0  0  0  0  0  0  0  0  0
    2.1392    2.1866    3.2950 C   0  0  0  0  0  0  0  0  0  0  0  0
    3.0823    3.1697    3.6189 C   0  0  0  0  0  0  0  0  0  0  0  0
    3.7247    3.8864    2.5985 C   0  0  0  0  0  0  0  0  0  0  0  0
    4.8994    5.1783    3.0134 S   0  0  0  0  0  0  0  0  0  0  0  0
    6.3457    4.0807    2.9161 C   0  0  0  0  0  0  0  0  0  0  0  0
    3.4199    3.6199    1.2574 C   0  0  0  0  0  0  0  0  0  0  0  0
    2.4841    2.6275    0.9361 C   0  0  0  0  0  0  0  0  0  0  0  0
    0.0830    0.1345   -0.6063 C   0  0  0  0  0  0  0  0  0  0  0  0
   -1.1629    1.1340   -1.0776 S   0  0  0  0  0  0  0  0  0  0  0  0
    3.0220   -1.3078    1.2198 C   0  0  0  0  0  0  0  0  0  0  0  0
    4.2710   -1.5683    0.6206 C   0  0  0  0  0  0  0  0  0  0  0  0
    5.3307   -2.1761    1.3671 C   0  0  0  0  0  0  0  0  0  0  0  0
    6.4760   -2.4452    0.6878 N   0  0  0  0  0  0  0  0  0  0  0  0
    6.0794   -1.8766   -0.8151 S   0  0  0  0  0  0  0  0  0  0  0  0
    4.5341   -1.3100   -0.6880 N   0  0  0  0  0  0  0  0  0  0  0  0
    5.1558   -2.5179    2.7154 C   0  0  0  0  0  0  0  0  0  0  0  0
    3.9445   -2.1460    3.3366 C   0  0  0  0  0  0  0  0  0  0  0  0
    3.6211   -2.3514    4.6910 C   0  0  0  0  0  0  0  0  0  0  0  0
    2.3300   -1.9263    5.0051 C   0  0  0  0  0  0  0  0  0  0  0  0
    1.7264   -1.9198    6.3407 C   0  0  0  0  0  0  0  0  0  0  0  0
    2.3406   -2.4329    7.3163 O   0  0  0  0  0  0  0  0  0  0  0  0
    0.4818   -1.3089    6.5240 O   0  0  0  0  0  0  0  0  0  0  0  0
   -0.1853   -1.2612    7.7847 C   0  0  0  0  0  0  0  0  0  0  0  0
   -0.8366   -2.6029    8.0972 C   0  0  0  0  0  0  0  0  0  0  0  0
    1.5914   -1.3425    3.6117 S   0  0  0  0  0  0  0  0  0  0  0  0
    2.9105   -1.5667    2.5941 C   0  0  0  0  0  0  0  0  0  0  0  0
    6.1474   -3.3676    3.3963 C   0  0  0  0  0  0  0  0  0  0  0  0
    5.9732   -4.6997    3.5197 C   0  0  0  0  0  0  0  0  0  0  0  0
    4.8531   -5.4680    2.9589 C   0  0  0  0  0  0  0  0  0  0  0  0
    3.7425   -5.0109    2.5780 O   0  0  0  0  0  0  0  0  0  0  0  0
    5.2440   -6.8568    2.8831 C   0  0  0  0  0  0  0  0  0  0  0  0
    4.5408   -7.9114    2.3017 C   0  0  0  0  0  0  0  0  0  0  0  0
    5.1612   -9.1734    2.2288 C   0  0  0  0  0  0  0  0  0  0  0  0
    4.4864  -10.2635    1.6622 C   0  0  0  0  0  0  0  0  0  0  0  0
    5.1143  -11.5109    1.5782 C   0  0  0  0  0  0  0  0  0  0  0  0
    6.4234  -11.6745    2.0373 C   0  0  0  0  0  0  0  0  0  0  0  0
    7.0270  -12.8854    1.9380 F   0  0  0  0  0  0  0  0  0  0  0  0
    7.1147  -10.5959    2.5992 C   0  0  0  0  0  0  0  0  0  0  0  0
    6.4907   -9.3413    2.7139 C   0  0  0  0  0  0  0  0  0  0  0  0
    7.1720   -8.2491    3.2958 C   0  0  0  0  0  0  0  0  0  0  0  0
    6.5193   -7.0114    3.4025 C   0  0  0  0  0  0  0  0  0  0  0  0
    6.9927   -5.7079    3.9449 C   0  0  0  0  0  0  0  0  0  0  0  0
    7.9898   -5.5176    4.8428 C   0  0  0  0  0  0  0  0  0  0  0  0
    8.1960   -4.2522    5.5038 C   0  0  0  0  0  0  0  0  0  0  0  0
    8.3705   -3.2417    6.0413 N   0  0  0  0  0  0  0  0  0  0  0  0
    8.8225   -6.5969    5.3087 C   0  0  0  0  0  0  0  0  0  0  0  0
    9.4985   -7.4551    5.6983 N   0  0  0  0  0  0  0  0  0  0  0  0
   -6.2560    3.1031   -5.1840 H   0  0  0  0  0  0  0  0  0  0  0  0
   -7.8592    7.4436   -2.3414 H   0  0  0  0  0  0  0  0  0  0  0  0
   -2.9633    6.6871   -1.1018 H   0  0  0  0  0  0  0  0  0  0  0  0
   -4.7484    8.2943    1.3935 H   0  0  0  0  0  0  0  0  0  0  0  0
   -3.2456   10.2712    0.6666 H   0  0  0  0  0  0  0  0  0  0  0  0
   -3.3881   10.6198   -1.9611 H   0  0  0  0  0  0  0  0  0  0  0  0
   -5.8786   11.0370   -2.5931 H   0  0  0  0  0  0  0  0  0  0  0  0
   -7.3253   10.9510   -0.3617 H   0  0  0  0  0  0  0  0  0  0  0  0
   -5.1223   12.1172    0.5020 H   0  0  0  0  0  0  0  0  0  0  0  0
   -5.6304   10.8484    1.7028 H   0  0  0  0  0  0  0  0  0  0  0  0
   -7.0070    8.6841    0.8262 H   0  0  0  0  0  0  0  0  0  0  0  0
   -4.2158    1.3306   -6.3465 H   0  0  0  0  0  0  0  0  0  0  0  0
   -1.3385    1.5109   -6.8051 H   0  0  0  0  0  0  0  0  0  0  0  0
   -0.1330    0.8578   -5.6309 H   0  0  0  0  0  0  0  0  0  0  0  0
    0.6900    0.7705   -7.9986 H   0  0  0  0  0  0  0  0  0  0  0  0
    0.5392   -0.8816   -7.2786 H   0  0  0  0  0  0  0  0  0  0  0  0
   -0.7167   -0.2839   -8.4482 H   0  0  0  0  0  0  0  0  0  0  0  0
    1.6117   -0.6216   -3.8441 H   0  0  0  0  0  0  0  0  0  0  0  0
    3.4747   -1.3224   -5.2585 H   0  0  0  0  0  0  0  0  0  0  0  0
    5.2142   -5.3457   -6.1556 H   0  0  0  0  0  0  0  0  0  0  0  0
    4.5094   -4.3274   -4.8376 H   0  0  0  0  0  0  0  0  0  0  0  0
    3.4801   -5.5540   -5.6966 H   0  0  0  0  0  0  0  0  0  0  0  0
    1.0900   -4.5426   -6.8359 H   0  0  0  0  0  0  0  0  0  0  0  0
   -0.7674   -3.8953   -5.3731 H   0  0  0  0  0  0  0  0  0  0  0  0
   -3.4628   -1.9246   -3.2575 H   0  0  0  0  0  0  0  0  0  0  0  0
   -4.8734   -3.6811   -2.2519 H   0  0  0  0  0  0  0  0  0  0  0  0
   -3.0970   -5.1775    0.8560 H   0  0  0  0  0  0  0  0  0  0  0  0
   -4.5651   -6.0970    1.3645 H   0  0  0  0  0  0  0  0  0  0  0  0
   -4.7461   -4.4947    0.5599 H   0  0  0  0  0  0  0  0  0  0  0  0
   -1.3810   -6.1100   -1.5700 H   0  0  0  0  0  0  0  0  0  0  0  0
    0.0343   -4.3545   -2.5584 H   0  0  0  0  0  0  0  0  0  0  0  0
   -0.8963   -1.1142    2.0047 H   0  0  0  0  0  0  0  0  0  0  0  0
   -3.1659   -1.0383    2.9295 H   0  0  0  0  0  0  0  0  0  0  0  0
   -5.2629    0.6330    1.5675 H   0  0  0  0  0  0  0  0  0  0  0  0
   -6.6455    1.4905    2.3599 H   0  0  0  0  0  0  0  0  0  0  0  0
   -5.1831    2.4265    1.8698 H   0  0  0  0  0  0  0  0  0  0  0  0
   -2.7896    3.2163    3.5275 H   0  0  0  0  0  0  0  0  0  0  0  0
   -0.5044    3.1487    2.6164 H   0  0  0  0  0  0  0  0  0  0  0  0
    1.6341    1.6585    4.0963 H   0  0  0  0  0  0  0  0  0  0  0  0
    3.3052    3.3901    4.6590 H   0  0  0  0  0  0  0  0  0  0  0  0
    6.4760    3.7228    1.8737 H   0  0  0  0  0  0  0  0  0  0  0  0
    6.2248    3.2188    3.6050 H   0  0  0  0  0  0  0  0  0  0  0  0
    7.2465    4.6574    3.2132 H   0  0  0  0  0  0  0  0  0  0  0  0
    3.8950    4.1864    0.4643 H   0  0  0  0  0  0  0  0  0  0  0  0
    2.2353    2.4545   -0.1057 H   0  0  0  0  0  0  0  0  0  0  0  0
    4.3027   -2.7774    5.4213 H   0  0  0  0  0  0  0  0  0  0  0  0
   -0.9763   -0.4844    7.7383 H   0  0  0  0  0  0  0  0  0  0  0  0
    0.5236   -0.9808    8.5935 H   0  0  0  0  0  0  0  0  0  0  0  0
   -1.5367   -2.8861    7.2810 H   0  0  0  0  0  0  0  0  0  0  0  0
   -0.0668   -3.3936    8.1947 H   0  0  0  0  0  0  0  0  0  0  0  0
   -1.4035   -2.5330    9.0476 H   0  0  0  0  0  0  0  0  0  0  0  0
    7.0987   -2.9174    3.6248 H   0  0  0  0  0  0  0  0  0  0  0  0
    3.5480   -7.7537    1.9046 H   0  0  0  0  0  0  0  0  0  0  0  0
    3.4788  -10.1539    1.2906 H   0  0  0  0  0  0  0  0  0  0  0  0
    4.5867  -12.3479    1.1422 H   0  0  0  0  0  0  0  0  0  0  0  0
    8.1290  -10.7394    2.9525 H   0  0  0  0  0  0  0  0  0  0  0  0
    8.1965   -8.3742    3.6132 H   0  0  0  0  0  0  0  0  0  0  0  0
  1  2  2  3
  2  3  1  0
  3  4  2  0
  3  5  1  0
  5  6  2  0
  6  7  1  0
  7  8  2  0
  8  9  1  0
  9 10  2  0
 10 11  1  0
 11 12  2  3
 12 13  1  0
 13 14  3  0
 12 15  1  0
 15 16  3  0
  8 17  1  0
 17 18  1  0
 18 19  1  0
 19 20  2  0
 20 21  1  0
 21 22  1  0
 21 23  1  0
  1 24  1  0
 24 25  2  0
 25 26  1  0
 26 27  1  0
 27 28  1  0
 28 29  1  0
 26 30  2  0
 30 31  1  0
 30 32  1  0
 32 33  2  0
 33 34  1  0
 34 35  1  0
 35 36  2  0
 36 37  1  0
 37 38  2  0
 38 39  1  0
 39 40  1  0
 38 41  1  0
 41 42  2  0
 34 43  1  0
 43 44  2  0
 44 45  1  0
 45 46  2  0
 46 47  1  0
 47 48  1  0
 46 49  1  0
 49 50  2  0
 33 51  1  0
 51 52  1  0
 52 53  1  0
 53 54  2  0
 54 55  1  0
 55 56  1  0
 56 57  2  0
 57 58  1  0
 58 59  2  0
 59 60  1  0
 60 61  1  0
 59 62  1  0
 62 63  2  0
 55 64  1  0
 64 65  2  0
 65 66  1  0
 66 67  2  0
 67 68  1  0
 68 69  1  0
 67 70  1  0
 70 71  2  0
 54 72  1  0
 72 73  1  0
 53 74  1  0
 74 75  1  0
 75 76  1  0
 76 77  2  0
 77 78  1  0
 78 79  1  0
 76 80  1  0
 80 81  2  0
 81 82  1  0
 82 83  2  0
 83 84  1  0
 84 85  2  0
 84 86  1  0
 86 87  1  0
 87 88  1  0
 83 89  1  0
 89 90  1  0
 80 91  1  0
 91 92  2  3
 92 93  1  0
 93 94  2  0
 93 95  1  0
 95 96  2  0
 96 97  1  0
 97 98  2  0
 98 99  1  0
 99100  2  0
100101  1  0
100102  1  0
102103  2  0
103104  1  0
104105  2  0
105106  1  0
106107  2  3
107108  1  0
108109  3  0
107110  1  0
110111  3  0
 11  2  1  0
 23 17  1  0
 31 24  1  0
 73 32  1  0
 90 74  2  0
106 92  1  0
 10  5  1  0
 22 18  1  0
 42 35  1  0
 50 43  1  0
 72 51  2  0
 79 75  2  0
 90 81  1  0
105 95  1  0
 23  7  1  0
 63 56  1  0
 71 64  1  0
103 97  1  0
  1112  1  0
  6113  1  0
  9114  1  0
 17115  1  0
 18116  1  0
 19117  1  0
 20118  1  0
 21119  1  0
 22120  1  0
 22121  1  0
 23122  1  0
 25123  1  0
 28124  1  0
 28125  1  0
 29126  1  0
 29127  1  0
 29128  1  0
 36129  1  0
 37130  1  0
 40131  1  0
 40132  1  0
 40133  1  0
 41134  1  0
 42135  1  0
 44136  1  0
 45137  1  0
 48138  1  0
 48139  1  0
 48140  1  0
 49141  1  0
 50142  1  0
 57143  1  0
 58144  1  0
 61145  1  0
 61146  1  0
 61147  1  0
 62148  1  0
 63149  1  0
 65150  1  0
 66151  1  0
 69152  1  0
 69153  1  0
 69154  1  0
 70155  1  0
 71156  1  0
 82157  1  0
 87158  1  0
 87159  1  0
 88160  1  0
 88161  1  0
 88162  1  0
 91163  1  0
 96164  1  0
 98165  1  0
 99166  1  0
102167  1  0
104168  1  0
M  END

