
     RDKit          3D

222244  0  0  0  0  0  0  0  0999 V2000
    2.5709   -3.0537   -7.9188 C   0  0  0  0  0  0  0  0  0  0  0  0
    2.3962   -1.7302   -8.1355 C   0  0  0  0  0  0  0  0  0  0  0  0
    2.1215   -0.6708   -7.1490 C   0  0  0  0  0  0  0  0  0  0  0  0
    2.6157   -0.5748   -5.9958 O   0  0  0  0  0  0  0  0  0  0  0  0
    1.3673    0.3836   -7.8004 C   0  0  0  0  0  0  0  0  0  0  0  0
    0.7444    1.5000   -7.1929 C   0  0  0  0  0  0  0  0  0  0  0  0
    0.0022    2.2700   -8.0683 C   0  0  0  0  0  0  0  0  0  0  0  0
   -0.1176    1.9708   -9.4637 C   0  0  0  0  0  0  0  0  0  0  0  0
    0.5026    0.8880  -10.0658 C   0  0  0  0  0  0  0  0  0  0  0  0
    1.2831    0.0922   -9.1835 C   0  0  0  0  0  0  0  0  0  0  0  0
    2.0694   -1.1379   -9.4639 C   0  0  0  0  0  0  0  0  0  0  0  0
    2.6311   -1.4756  -10.6523 C   0  0  0  0  0  0  0  0  0  0  0  0
    3.6647   -2.4739  -10.7512 C   0  0  0  0  0  0  0  0  0  0  0  0
    4.5022   -3.2687  -10.8401 N   0  0  0  0  0  0  0  0  0  0  0  0
    2.3714   -0.7460  -11.8691 C   0  0  0  0  0  0  0  0  0  0  0  0
    2.1708   -0.1683  -12.8517 N   0  0  0  0  0  0  0  0  0  0  0  0
   -1.0294    3.1461   -9.6556 C   0  0  0  0  0  0  0  0  0  0  0  0
   -2.5417    2.8306   -9.8467 C   0  0  0  0  0  0  0  0  0  0  0  0
   -3.2662    4.1342   -9.6231 C   0  0  0  0  0  0  0  0  0  0  0  0
   -3.1641    4.4037   -8.3173 C   0  0  0  0  0  0  0  0  0  0  0  0
   -2.3730    3.2759   -7.7045 C   0  0  0  0  0  0  0  0  0  0  0  0
   -2.9069    2.1320   -8.5480 C   0  0  0  0  0  0  0  0  0  0  0  0
   -0.9152    3.4467   -8.2262 C   0  0  0  0  0  0  0  0  0  0  0  0
    2.5586   -3.7740   -6.6249 C   0  0  0  0  0  0  0  0  0  0  0  0
    2.7904   -5.1457   -6.4960 C   0  0  0  0  0  0  0  0  0  0  0  0
    2.6105   -5.6437   -5.1940 C   0  0  0  0  0  0  0  0  0  0  0  0
    2.8736   -7.3677   -4.7712 S   0  0  0  0  0  0  0  0  0  0  0  0
    4.6800   -7.3443   -5.0796 C   0  0  0  0  0  0  0  0  0  0  0  0
    5.4329   -6.7666   -3.8951 C   0  0  0  0  0  0  0  0  0  0  0  0
    2.1945   -4.6665   -4.2943 C   0  0  0  0  0  0  0  0  0  0  0  0
    2.0685   -3.2148   -5.1215 S   0  0  0  0  0  0  0  0  0  0  0  0
    1.7720   -4.8092   -2.8937 C   0  0  0  0  0  0  0  0  0  0  0  0
    2.4052   -4.0378   -1.9090 C   0  0  0  0  0  0  0  0  0  0  0  0
    3.7639   -4.2599   -1.5099 N   0  0  0  0  0  0  0  0  0  0  0  0
    4.1516   -5.5463   -0.9473 C   0  0  0  0  0  0  0  0  0  0  0  0
    3.1888   -6.5293   -0.6191 C   0  0  0  0  0  0  0  0  0  0  0  0
    3.5703   -7.7562   -0.0706 C   0  0  0  0  0  0  0  0  0  0  0  0
    4.9147   -8.0259    0.1842 C   0  0  0  0  0  0  0  0  0  0  0  0
    5.3983   -9.5922    0.9086 S   0  0  0  0  0  0  0  0  0  0  0  0
    5.1904   -9.0039    2.6182 C   0  0  0  0  0  0  0  0  0  0  0  0
    5.8828   -7.0674   -0.1262 C   0  0  0  0  0  0  0  0  0  0  0  0
    5.5098   -5.8432   -0.6920 C   0  0  0  0  0  0  0  0  0  0  0  0
    4.5955   -3.1079   -1.3136 C   0  0  0  0  0  0  0  0  0  0  0  0
    5.0469   -2.3634   -2.4092 C   0  0  0  0  0  0  0  0  0  0  0  0
    5.9237   -1.2923   -2.2125 C   0  0  0  0  0  0  0  0  0  0  0  0
    6.3448   -0.9578   -0.9172 C   0  0  0  0  0  0  0  0  0  0  0  0
    7.4862    0.4009   -0.6618 S   0  0  0  0  0  0  0  0  0  0  0  0
    6.1676    1.6510   -0.5469 C   0  0  0  0  0  0  0  0  0  0  0  0
    5.8864   -1.6923    0.1776 C   0  0  0  0  0  0  0  0  0  0  0  0
    5.0042   -2.7557   -0.0180 C   0  0  0  0  0  0  0  0  0  0  0  0
    1.4914   -3.4733   -1.0269 C   0  0  0  0  0  0  0  0  0  0  0  0
    1.6418   -2.3343    0.1708 S   0  0  0  0  0  0  0  0  0  0  0  0
   -0.0173   -2.3604    0.5469 C   0  0  0  0  0  0  0  0  0  0  0  0
   -0.6869   -3.3461   -0.2031 C   0  0  0  0  0  0  0  0  0  0  0  0
   -1.6927   -4.1577    0.4191 N   0  0  0  0  0  0  0  0  0  0  0  0
   -3.0137   -4.2844   -0.1107 C   0  0  0  0  0  0  0  0  0  0  0  0
   -4.0750   -3.5779    0.4720 C   0  0  0  0  0  0  0  0  0  0  0  0
   -5.3844   -3.7901    0.0317 C   0  0  0  0  0  0  0  0  0  0  0  0
   -5.6428   -4.7069   -0.9943 C   0  0  0  0  0  0  0  0  0  0  0  0
   -7.3275   -5.0236   -1.5170 S   0  0  0  0  0  0  0  0  0  0  0  0
   -7.3335   -3.6750   -2.7374 C   0  0  0  0  0  0  0  0  0  0  0  0
   -4.5814   -5.4030   -1.5870 C   0  0  0  0  0  0  0  0  0  0  0  0
   -3.2735   -5.1991   -1.1400 C   0  0  0  0  0  0  0  0  0  0  0  0
   -1.3044   -4.9181    1.5715 C   0  0  0  0  0  0  0  0  0  0  0  0
   -0.3698   -5.9520    1.4311 C   0  0  0  0  0  0  0  0  0  0  0  0
    0.2270   -6.5224    2.5565 C   0  0  0  0  0  0  0  0  0  0  0  0
   -0.1108   -6.0690    3.8370 C   0  0  0  0  0  0  0  0  0  0  0  0
    0.7501   -6.7176    5.2702 S   0  0  0  0  0  0  0  0  0  0  0  0
   -0.3549   -8.1480    5.4446 C   0  0  0  0  0  0  0  0  0  0  0  0
   -1.0775   -5.0655    3.9848 C   0  0  0  0  0  0  0  0  0  0  0  0
   -1.6659   -4.4842    2.8578 C   0  0  0  0  0  0  0  0  0  0  0  0
    0.2065   -3.8746   -1.1452 C   0  0  0  0  0  0  0  0  0  0  0  0
    0.1052   -4.8730   -2.4970 S   0  0  0  0  0  0  0  0  0  0  0  0
   -0.6006   -1.3971    1.4878 C   0  0  0  0  0  0  0  0  0  0  0  0
   -1.4229   -0.2759    1.1619 C   0  0  0  0  0  0  0  0  0  0  0  0
   -2.1177   -0.0369   -0.1041 N   0  0  0  0  0  0  0  0  0  0  0  0
   -2.8506    1.1803   -0.3070 C   0  0  0  0  0  0  0  0  0  0  0  0
   -4.1208    1.3516    0.2597 C   0  0  0  0  0  0  0  0  0  0  0  0
   -4.7280    2.6158    0.2447 C   0  0  0  0  0  0  0  0  0  0  0  0
   -4.0689    3.7129   -0.3275 C   0  0  0  0  0  0  0  0  0  0  0  0
   -4.7647    5.3595   -0.1719 S   0  0  0  0  0  0  0  0  0  0  0  0
   -5.3239    5.4540   -1.9037 C   0  0  0  0  0  0  0  0  0  0  0  0
   -2.8271    3.5278   -0.9443 C   0  0  0  0  0  0  0  0  0  0  0  0
   -2.2289    2.2649   -0.9528 C   0  0  0  0  0  0  0  0  0  0  0  0
   -1.8806   -0.7839   -1.3036 C   0  0  0  0  0  0  0  0  0  0  0  0
   -2.9456   -1.4535   -1.9237 C   0  0  0  0  0  0  0  0  0  0  0  0
   -2.7766   -2.0300   -3.1824 C   0  0  0  0  0  0  0  0  0  0  0  0
   -1.5488   -1.9179   -3.8460 C   0  0  0  0  0  0  0  0  0  0  0  0
   -1.3547   -2.6191   -5.4832 S   0  0  0  0  0  0  0  0  0  0  0  0
   -1.7470   -1.0597   -6.3348 C   0  0  0  0  0  0  0  0  0  0  0  0
   -0.4880   -1.2343   -3.2384 C   0  0  0  0  0  0  0  0  0  0  0  0
   -0.6578   -0.6586   -1.9768 C   0  0  0  0  0  0  0  0  0  0  0  0
   -1.3177    0.7032    2.1761 C   0  0  0  0  0  0  0  0  0  0  0  0
   -1.6381    2.3511    2.1970 S   0  0  0  0  0  0  0  0  0  0  0  0
   -0.6321    2.7330    3.4907 C   0  0  0  0  0  0  0  0  0  0  0  0
    0.0037    1.5596    3.9246 C   0  0  0  0  0  0  0  0  0  0  0  0
    1.1932    1.5358    4.7416 N   0  0  0  0  0  0  0  0  0  0  0  0
    2.2991    2.4019    4.3986 C   0  0  0  0  0  0  0  0  0  0  0  0
    2.6746    2.5799    3.0526 C   0  0  0  0  0  0  0  0  0  0  0  0
    3.7704    3.3774    2.7227 C   0  0  0  0  0  0  0  0  0  0  0  0
    4.5098    4.0123    3.7276 C   0  0  0  0  0  0  0  0  0  0  0  0
    5.9776    4.9560    3.3023 S   0  0  0  0  0  0  0  0  0  0  0  0
    5.0539    6.4282    2.7714 C   0  0  0  0  0  0  0  0  0  0  0  0
    4.1375    3.8477    5.0679 C   0  0  0  0  0  0  0  0  0  0  0  0
    3.0456    3.0387    5.4044 C   0  0  0  0  0  0  0  0  0  0  0  0
    1.3814    0.4313    5.6582 C   0  0  0  0  0  0  0  0  0  0  0  0
    0.2924   -0.0670    6.3953 C   0  0  0  0  0  0  0  0  0  0  0  0
    0.4146   -1.2462    7.1349 C   0  0  0  0  0  0  0  0  0  0  0  0
    1.6335   -1.9317    7.1638 C   0  0  0  0  0  0  0  0  0  0  0  0
    1.7631   -3.4993    8.0242 S   0  0  0  0  0  0  0  0  0  0  0  0
    2.0598   -2.7323    9.6498 C   0  0  0  0  0  0  0  0  0  0  0  0
    2.7392   -1.4162    6.4812 C   0  0  0  0  0  0  0  0  0  0  0  0
    2.6171   -0.2457    5.7272 C   0  0  0  0  0  0  0  0  0  0  0  0
   -0.4368    0.4455    3.1857 C   0  0  0  0  0  0  0  0  0  0  0  0
    0.2443   -1.0538    2.9243 S   0  0  0  0  0  0  0  0  0  0  0  0
   -0.2008    4.1146    3.7300 C   0  0  0  0  0  0  0  0  0  0  0  0
   -0.4030    4.7794    4.8785 C   0  0  0  0  0  0  0  0  0  0  0  0
   -1.1740    4.2522    6.0105 C   0  0  0  0  0  0  0  0  0  0  0  0
   -1.6002    3.0735    6.1416 O   0  0  0  0  0  0  0  0  0  0  0  0
   -1.4709    5.3367    6.9126 C   0  0  0  0  0  0  0  0  0  0  0  0
   -2.3053    5.2833    8.0507 C   0  0  0  0  0  0  0  0  0  0  0  0
   -2.4622    6.4977    8.6890 C   0  0  0  0  0  0  0  0  0  0  0  0
   -1.7947    7.6894    8.2715 C   0  0  0  0  0  0  0  0  0  0  0  0
   -0.9719    7.7485    7.1615 C   0  0  0  0  0  0  0  0  0  0  0  0
   -0.8517    6.5223    6.4427 C   0  0  0  0  0  0  0  0  0  0  0  0
   -0.1652    6.2391    5.1451 C   0  0  0  0  0  0  0  0  0  0  0  0
    0.4841    7.1367    4.3504 C   0  0  0  0  0  0  0  0  0  0  0  0
    0.4606    8.5545    4.5830 C   0  0  0  0  0  0  0  0  0  0  0  0
    0.4443    9.7048    4.7287 N   0  0  0  0  0  0  0  0  0  0  0  0
    1.2265    6.7566    3.1791 C   0  0  0  0  0  0  0  0  0  0  0  0
    1.8234    6.4609    2.2320 N   0  0  0  0  0  0  0  0  0  0  0  0
   -2.4427    8.4618    9.3763 C   0  0  0  0  0  0  0  0  0  0  0  0
   -3.5935    9.4413    8.9953 C   0  0  0  0  0  0  0  0  0  0  0  0
   -4.3120    8.9354    7.7672 C   0  0  0  0  0  0  0  0  0  0  0  0
   -4.9512    7.8244    8.1313 C   0  0  0  0  0  0  0  0  0  0  0  0
   -4.6515    7.6131    9.5966 C   0  0  0  0  0  0  0  0  0  0  0  0
   -4.6226    9.0605   10.0465 C   0  0  0  0  0  0  0  0  0  0  0  0
   -3.1468    7.2437    9.7927 C   0  0  0  0  0  0  0  0  0  0  0  0
    2.6313   -3.7010   -8.7804 H   0  0  0  0  0  0  0  0  0  0  0  0
    0.7904    1.7045   -6.1338 H   0  0  0  0  0  0  0  0  0  0  0  0
    0.3404    0.6633  -11.1048 H   0  0  0  0  0  0  0  0  0  0  0  0
   -0.6121    3.9296  -10.3292 H   0  0  0  0  0  0  0  0  0  0  0  0
   -2.8101    2.2935  -10.7805 H   0  0  0  0  0  0  0  0  0  0  0  0
   -3.8487    4.6973  -10.3421 H   0  0  0  0  0  0  0  0  0  0  0  0
   -3.6511    5.2277   -7.8013 H   0  0  0  0  0  0  0  0  0  0  0  0
   -2.4829    3.1624   -6.6066 H   0  0  0  0  0  0  0  0  0  0  0  0
   -4.0051    1.9669   -8.4309 H   0  0  0  0  0  0  0  0  0  0  0  0
   -2.3865    1.1617   -8.3895 H   0  0  0  0  0  0  0  0  0  0  0  0
   -0.4332    4.4235   -7.9966 H   0  0  0  0  0  0  0  0  0  0  0  0
    3.0814   -5.7699   -7.3301 H   0  0  0  0  0  0  0  0  0  0  0  0
    4.9299   -6.7727   -5.9975 H   0  0  0  0  0  0  0  0  0  0  0  0
    5.0166   -8.3909   -5.2375 H   0  0  0  0  0  0  0  0  0  0  0  0
    6.5199   -6.7653   -4.1098 H   0  0  0  0  0  0  0  0  0  0  0  0
    5.2499   -7.3908   -2.9980 H   0  0  0  0  0  0  0  0  0  0  0  0
    5.1092   -5.7232   -3.7021 H   0  0  0  0  0  0  0  0  0  0  0  0
    2.1315   -6.3518   -0.7509 H   0  0  0  0  0  0  0  0  0  0  0  0
    2.8120   -8.4913    0.1707 H   0  0  0  0  0  0  0  0  0  0  0  0
    5.8310   -8.1151    2.7992 H   0  0  0  0  0  0  0  0  0  0  0  0
    4.1267   -8.7416    2.8040 H   0  0  0  0  0  0  0  0  0  0  0  0
    5.4855   -9.8114    3.3176 H   0  0  0  0  0  0  0  0  0  0  0  0
    6.9297   -7.2598    0.0833 H   0  0  0  0  0  0  0  0  0  0  0  0
    6.2886   -5.1270   -0.9231 H   0  0  0  0  0  0  0  0  0  0  0  0
    4.7792   -2.6534   -3.4162 H   0  0  0  0  0  0  0  0  0  0  0  0
    6.3195   -0.7489   -3.0659 H   0  0  0  0  0  0  0  0  0  0  0  0
    5.5830    1.6711   -1.4895 H   0  0  0  0  0  0  0  0  0  0  0  0
    6.6342    2.6463   -0.3904 H   0  0  0  0  0  0  0  0  0  0  0  0
    5.5000    1.4283    0.3095 H   0  0  0  0  0  0  0  0  0  0  0  0
    6.2249   -1.4518    1.1751 H   0  0  0  0  0  0  0  0  0  0  0  0
    4.6633   -3.3296    0.8345 H   0  0  0  0  0  0  0  0  0  0  0  0
   -3.8850   -2.8707    1.2688 H   0  0  0  0  0  0  0  0  0  0  0  0
   -6.1993   -3.2544    0.5037 H   0  0  0  0  0  0  0  0  0  0  0  0
   -7.2111   -2.7016   -2.2221 H   0  0  0  0  0  0  0  0  0  0  0  0
   -6.5131   -3.8172   -3.4720 H   0  0  0  0  0  0  0  0  0  0  0  0
   -8.3050   -3.6763   -3.2741 H   0  0  0  0  0  0  0  0  0  0  0  0
   -4.7759   -6.1228   -2.3714 H   0  0  0  0  0  0  0  0  0  0  0  0
   -2.4699   -5.7788   -1.5722 H   0  0  0  0  0  0  0  0  0  0  0  0
   -0.0746   -6.2920    0.4462 H   0  0  0  0  0  0  0  0  0  0  0  0
    0.9715   -7.3027    2.4333 H   0  0  0  0  0  0  0  0  0  0  0  0
    0.0072   -8.7817    6.2799 H   0  0  0  0  0  0  0  0  0  0  0  0
   -0.3546   -8.7506    4.5106 H   0  0  0  0  0  0  0  0  0  0  0  0
   -1.3850   -7.8014    5.6693 H   0  0  0  0  0  0  0  0  0  0  0  0
   -1.3322   -4.7019    4.9725 H   0  0  0  0  0  0  0  0  0  0  0  0
   -2.3567   -3.6603    2.9871 H   0  0  0  0  0  0  0  0  0  0  0  0
   -4.6117    0.5222    0.7568 H   0  0  0  0  0  0  0  0  0  0  0  0
   -5.6937    2.7493    0.7180 H   0  0  0  0  0  0  0  0  0  0  0  0
   -4.4525    5.6511   -2.5614 H   0  0  0  0  0  0  0  0  0  0  0  0
   -5.8212    4.5101   -2.2154 H   0  0  0  0  0  0  0  0  0  0  0  0
   -6.0443    6.2897   -2.0048 H   0  0  0  0  0  0  0  0  0  0  0  0
   -2.3039    4.3696   -1.3789 H   0  0  0  0  0  0  0  0  0  0  0  0
   -1.2306    2.1549   -1.3674 H   0  0  0  0  0  0  0  0  0  0  0  0
   -3.9122   -1.5004   -1.4416 H   0  0  0  0  0  0  0  0  0  0  0  0
   -3.6051   -2.5422   -3.6527 H   0  0  0  0  0  0  0  0  0  0  0  0
   -1.0218   -0.2820   -6.0363 H   0  0  0  0  0  0  0  0  0  0  0  0
   -1.6859   -1.2180   -7.4304 H   0  0  0  0  0  0  0  0  0  0  0  0
   -2.7721   -0.7265   -6.0678 H   0  0  0  0  0  0  0  0  0  0  0  0
    0.4569   -1.1214   -3.7511 H   0  0  0  0  0  0  0  0  0  0  0  0
    0.1515   -0.0986   -1.5289 H   0  0  0  0  0  0  0  0  0  0  0  0
    2.1194    2.0924    2.2596 H   0  0  0  0  0  0  0  0  0  0  0  0
    4.0459    3.5023    1.6851 H   0  0  0  0  0  0  0  0  0  0  0  0
    4.4450    6.8265    3.6086 H   0  0  0  0  0  0  0  0  0  0  0  0
    4.4032    6.1692    1.9123 H   0  0  0  0  0  0  0  0  0  0  0  0
    5.7678    7.2065    2.4348 H   0  0  0  0  0  0  0  0  0  0  0  0
    4.7057    4.3322    5.8534 H   0  0  0  0  0  0  0  0  0  0  0  0
    2.7754    2.9056    6.4461 H   0  0  0  0  0  0  0  0  0  0  0  0
   -0.6626    0.4457    6.3716 H   0  0  0  0  0  0  0  0  0  0  0  0
   -0.4438   -1.6364    7.6642 H   0  0  0  0  0  0  0  0  0  0  0  0
    1.1099   -2.3058   10.0335 H   0  0  0  0  0  0  0  0  0  0  0  0
    2.4135   -3.5121   10.3529 H   0  0  0  0  0  0  0  0  0  0  0  0
    2.8281   -1.9342    9.5817 H   0  0  0  0  0  0  0  0  0  0  0  0
    3.6847   -1.9446    6.4956 H   0  0  0  0  0  0  0  0  0  0  0  0
    3.4689    0.0992    5.1551 H   0  0  0  0  0  0  0  0  0  0  0  0
    0.1334    4.6204    2.8421 H   0  0  0  0  0  0  0  0  0  0  0  0
   -2.8105    4.3787    8.3711 H   0  0  0  0  0  0  0  0  0  0  0  0
   -0.4994    8.6764    6.8934 H   0  0  0  0  0  0  0  0  0  0  0  0
   -1.7244    8.8546   10.1325 H   0  0  0  0  0  0  0  0  0  0  0  0
   -3.3156   10.5163    8.9648 H   0  0  0  0  0  0  0  0  0  0  0  0
   -4.3684    9.4086    6.7916 H   0  0  0  0  0  0  0  0  0  0  0  0
   -5.6171    7.2431    7.5040 H   0  0  0  0  0  0  0  0  0  0  0  0
   -5.3734    6.9612   10.1288 H   0  0  0  0  0  0  0  0  0  0  0  0
   -4.2645    9.1929   11.0943 H   0  0  0  0  0  0  0  0  0  0  0  0
   -5.5995    9.5868    9.9214 H   0  0  0  0  0  0  0  0  0  0  0  0
   -2.8738    6.8974   10.8148 H   0  0  0  0  0  0  0  0  0  0  0  0
  1  2  2  3
  2  3  1  0
  3  4  2  0
  3  5  1  0
  5  6  2  0
  6  7  1  0
  7  8  2  0
  8  9  1  0
  9 10  2  0
 10 11  1  0
 11 12  2  3
 12 13  1  0
 13 14  3  0
 12 15  1  0
 15 16  3  0
  8 17  1  0
 17 18  1  0
 18 19  1  0
 19 20  2  0
 20 21  1  0
 21 22  1  0
 21 23  1  0
  1 24  1  0
 24 25  2  0
 25 26  1  0
 26 27  1  0
 27 28  1  0
 28 29  1  0
 26 30  2  0
 30 31  1  0
 30 32  1  0
 32 33  2  0
 33 34  1  0
 34 35  1  0
 35 36  2  0
 36 37  1  0
 37 38  2  0
 38 39  1  0
 39 40  1  0
 38 41  1  0
 41 42  2  0
 34 43  1  0
 43 44  2  0
 44 45  1  0
 45 46  2  0
 46 47  1  0
 47 48  1  0
 46 49  1  0
 49 50  2  0
 33 51  1  0
 51 52  1  0
 52 53  1  0
 53 54  2  0
 54 55  1  0
 55 56  1  0
 56 57  2  0
 57 58  1  0
 58 59  2  0
 59 60  1  0
 60 61  1  0
 59 62  1  0
 62 63  2  0
 55 64  1  0
 64 65  2  0
 65 66  1  0
 66 67  2  0
 67 68  1  0
 68 69  1  0
 67 70  1  0
 70 71  2  0
 54 72  1  0
 72 73  1  0
 53 74  1  0
 74 75  2  0
 75 76  1  0
 76 77  1  0
 77 78  2  0
 78 79  1  0
 79 80  2  0
 80 81  1  0
 81 82  1  0
 80 83  1  0
 83 84  2  0
 76 85  1  0
 85 86  2  0
 86 87  1  0
 87 88  2  0
 88 89  1  0
 89 90  1  0
 88 91  1  0
 91 92  2  0
 75 93  1  0
 93 94  1  0
 94 95  1  0
 95 96  2  0
 96 97  1  0
 97 98  1  0
 98 99  2  0
 99100  1  0
100101  2  0
101102  1  0
102103  1  0
101104  1  0
104105  2  0
 97106  1  0
106107  2  0
107108  1  0
108109  2  0
109110  1  0
110111  1  0
109112  1  0
112113  2  0
 96114  1  0
114115  1  0
 95116  1  0
116117  2  3
117118  1  0
118119  2  0
118120  1  0
120121  2  0
121122  1  0
122123  2  0
123124  1  0
124125  2  0
125126  1  0
126127  2  3
127128  1  0
128129  3  0
127130  1  0
130131  3  0
123132  1  0
132133  1  0
133134  1  0
134135  2  0
135136  1  0
136137  1  0
136138  1  0
 11  2  1  0
 23 17  1  0
 31 24  1  0
 73 32  1  0
115 74  1  0
126117  1  0
138132  1  0
 10  5  1  0
 22 18  1  0
 42 35  1  0
 50 43  1  0
 72 51  2  0
 84 77  1  0
 92 85  1  0
114 93  2  0
125120  1  0
137133  1  0
 23  7  1  0
 63 56  1  0
 71 64  1  0
105 98  1  0
113106  1  0
138122  1  0
  1139  1  0
  6140  1  0
  9141  1  0
 17142  1  0
 18143  1  0
 19144  1  0
 20145  1  0
 21146  1  0
 22147  1  0
 22148  1  0
 23149  1  0
 25150  1  0
 28151  1  0
 28152  1  0
 29153  1  0
 29154  1  0
 29155  1  0
 36156  1  0
 37157  1  0
 40158  1  0
 40159  1  0
 40160  1  0
 41161  1  0
 42162  1  0
 44163  1  0
 45164  1  0
 48165  1  0
 48166  1  0
 48167  1  0
 49168  1  0
 50169  1  0
 57170  1  0
 58171  1  0
 61172  1  0
 61173  1  0
 61174  1  0
 62175  1  0
 63176  1  0
 65177  1  0
 66178  1  0
 69179  1  0
 69180  1  0
 69181  1  0
 70182  1  0
 71183  1  0
 78184  1  0
 79185  1  0
 82186  1  0
 82187  1  0
 82188  1  0
 83189  1  0
 84190  1  0
 86191  1  0
 87192  1  0
 90193  1  0
 90194  1  0
 90195  1  0
 91196  1  0
 92197  1  0
 99198  1  0
100199  1  0
103200  1  0
103201  1  0
103202  1  0
104203  1  0
105204  1  0
107205  1  0
108206  1  0
111207  1  0
111208  1  0
111209  1  0
112210  1  0
113211  1  0
116212  1  0
121213  1  0
124214  1  0
132215  1  0
133216  1  0
134217  1  0
135218  1  0
136219  1  0
137220  1  0
137221  1  0
138222  1  0
M  END

