
     RDKit          3D

226249  0  0  0  0  0  0  0  0999 V2000
    7.3982   -3.1675   -3.0130 C   0  0  0  0  0  0  0  0  0  0  0  0
    6.6611   -4.0156   -3.7660 C   0  0  0  0  0  0  0  0  0  0  0  0
    5.5712   -3.6948   -4.6555 C   0  0  0  0  0  0  0  0  0  0  0  0
    5.6324   -2.7430   -5.5181 O   0  0  0  0  0  0  0  0  0  0  0  0
    4.5383   -4.7454   -4.5355 C   0  0  0  0  0  0  0  0  0  0  0  0
    3.4835   -4.9823   -5.5171 C   0  0  0  0  0  0  0  0  0  0  0  0
    2.8389   -6.1959   -5.3170 C   0  0  0  0  0  0  0  0  0  0  0  0
    3.1789   -7.0635   -4.2126 C   0  0  0  0  0  0  0  0  0  0  0  0
    4.1843   -6.8684   -3.2633 C   0  0  0  0  0  0  0  0  0  0  0  0
    4.9721   -5.7181   -3.5715 C   0  0  0  0  0  0  0  0  0  0  0  0
    6.3590   -5.4034   -3.1645 C   0  0  0  0  0  0  0  0  0  0  0  0
    7.1855   -6.2399   -2.4578 C   0  0  0  0  0  0  0  0  0  0  0  0
    6.7326   -7.3017   -1.5385 C   0  0  0  0  0  0  0  0  0  0  0  0
    6.2650   -8.0873   -0.8042 N   0  0  0  0  0  0  0  0  0  0  0  0
    8.5828   -6.0242   -2.3767 C   0  0  0  0  0  0  0  0  0  0  0  0
    9.7156   -5.7475   -2.4013 N   0  0  0  0  0  0  0  0  0  0  0  0
    2.1151   -8.0474   -4.5788 C   0  0  0  0  0  0  0  0  0  0  0  0
    0.7424   -8.0238   -3.8275 C   0  0  0  0  0  0  0  0  0  0  0  0
    0.3520   -6.5927   -3.4647 C   0  0  0  0  0  0  0  0  0  0  0  0
    0.0157   -5.9760   -4.6249 C   0  0  0  0  0  0  0  0  0  0  0  0
    0.2873   -6.9651   -5.7052 C   0  0  0  0  0  0  0  0  0  0  0  0
   -0.1866   -8.2522   -5.0198 C   0  0  0  0  0  0  0  0  0  0  0  0
    1.8299   -7.2333   -5.8035 C   0  0  0  0  0  0  0  0  0  0  0  0
    6.8049   -2.4947   -1.8756 C   0  0  0  0  0  0  0  0  0  0  0  0
    6.2131   -1.3190   -2.2002 C   0  0  0  0  0  0  0  0  0  0  0  0
    6.1536   -0.7563   -3.4275 N   0  0  0  0  0  0  0  0  0  0  0  0
    5.3126    0.2122   -3.3738 N   0  0  0  0  0  0  0  0  0  0  0  0
    5.1263    1.0533   -4.5498 C   0  0  0  0  0  0  0  0  0  0  0  0
    6.3114    2.0114   -4.7041 C   0  0  0  0  0  0  0  0  0  0  0  0
    4.7520    0.3790   -2.1466 N   0  0  0  0  0  0  0  0  0  0  0  0
    5.3636   -0.6009   -1.3921 C   0  0  0  0  0  0  0  0  0  0  0  0
    5.0366   -1.0314   -0.0628 C   0  0  0  0  0  0  0  0  0  0  0  0
    5.8332   -2.1288    0.4194 C   0  0  0  0  0  0  0  0  0  0  0  0
    6.7369   -2.8621   -0.4996 C   0  0  0  0  0  0  0  0  0  0  0  0
    7.6438   -4.2544    0.1105 Cl  0  0  0  0  0  0  0  0  0  0  0  0
    5.6155   -2.6915    2.1027 Cl  0  0  0  0  0  0  0  0  0  0  0  0
    3.6855   -0.7831    0.4641 C   0  0  0  0  0  0  0  0  0  0  0  0
    3.2209    0.0555    1.5158 C   0  0  0  0  0  0  0  0  0  0  0  0
    4.0684    0.6946    2.5244 N   0  0  0  0  0  0  0  0  0  0  0  0
    4.7468    1.9521    2.2653 C   0  0  0  0  0  0  0  0  0  0  0  0
    6.0817    2.1268    2.6856 C   0  0  0  0  0  0  0  0  0  0  0  0
    6.5751    3.4102    2.9951 C   0  0  0  0  0  0  0  0  0  0  0  0
    5.7563    4.5394    2.8006 C   0  0  0  0  0  0  0  0  0  0  0  0
    6.4391    6.1916    3.0447 S   0  0  0  0  0  0  0  0  0  0  0  0
    5.8634    6.4030    4.7594 C   0  0  0  0  0  0  0  0  0  0  0  0
    4.4550    4.3657    2.2631 C   0  0  0  0  0  0  0  0  0  0  0  0
    3.9680    3.0768    1.9587 C   0  0  0  0  0  0  0  0  0  0  0  0
    3.8884    0.2844    3.9149 C   0  0  0  0  0  0  0  0  0  0  0  0
    3.9114    1.2326    4.9785 C   0  0  0  0  0  0  0  0  0  0  0  0
    3.7676    0.8539    6.3193 C   0  0  0  0  0  0  0  0  0  0  0  0
    3.5781   -0.4844    6.6858 C   0  0  0  0  0  0  0  0  0  0  0  0
    3.4236   -0.8626    8.4255 S   0  0  0  0  0  0  0  0  0  0  0  0
    3.2026   -2.6562    8.3871 C   0  0  0  0  0  0  0  0  0  0  0  0
    3.5147   -1.4565    5.6417 C   0  0  0  0  0  0  0  0  0  0  0  0
    3.6439   -1.0713    4.2674 C   0  0  0  0  0  0  0  0  0  0  0  0
    1.8125    0.0236    1.5377 C   0  0  0  0  0  0  0  0  0  0  0  0
    0.5749    0.7988    2.4070 S   0  0  0  0  0  0  0  0  0  0  0  0
   -0.7540    0.0687    1.5597 C   0  0  0  0  0  0  0  0  0  0  0  0
   -0.1644   -0.8370    0.6589 C   0  0  0  0  0  0  0  0  0  0  0  0
   -0.7497   -1.8825   -0.1227 N   0  0  0  0  0  0  0  0  0  0  0  0
   -0.8817   -3.2020    0.4786 C   0  0  0  0  0  0  0  0  0  0  0  0
    0.1366   -3.6301    1.3754 C   0  0  0  0  0  0  0  0  0  0  0  0
    0.1688   -4.9204    1.8751 C   0  0  0  0  0  0  0  0  0  0  0  0
   -0.8461   -5.8677    1.5218 C   0  0  0  0  0  0  0  0  0  0  0  0
   -0.8442   -7.5670    2.2189 S   0  0  0  0  0  0  0  0  0  0  0  0
    0.7938   -7.6108    3.0479 C   0  0  0  0  0  0  0  0  0  0  0  0
   -1.8944   -5.4450    0.6699 C   0  0  0  0  0  0  0  0  0  0  0  0
   -1.9027   -4.1242    0.1409 C   0  0  0  0  0  0  0  0  0  0  0  0
   -0.6661   -1.7138   -1.5670 C   0  0  0  0  0  0  0  0  0  0  0  0
   -0.1083   -2.7461   -2.3560 C   0  0  0  0  0  0  0  0  0  0  0  0
    0.2917   -2.5046   -3.6874 C   0  0  0  0  0  0  0  0  0  0  0  0
    0.1293   -1.2419   -4.2818 C   0  0  0  0  0  0  0  0  0  0  0  0
    0.3272   -1.0295   -6.0537 S   0  0  0  0  0  0  0  0  0  0  0  0
    2.1433   -0.9466   -6.0709 C   0  0  0  0  0  0  0  0  0  0  0  0
   -0.3788   -0.2013   -3.4887 C   0  0  0  0  0  0  0  0  0  0  0  0
   -0.7321   -0.4191   -2.1403 C   0  0  0  0  0  0  0  0  0  0  0  0
    1.2165   -0.7737    0.6314 C   0  0  0  0  0  0  0  0  0  0  0  0
    2.3840   -1.5554   -0.3073 S   0  0  0  0  0  0  0  0  0  0  0  0
   -2.1564    0.5025    1.4519 C   0  0  0  0  0  0  0  0  0  0  0  0
   -2.7301    1.5574    2.1637 C   0  0  0  0  0  0  0  0  0  0  0  0
   -2.5143    1.8371    3.5982 N   0  0  0  0  0  0  0  0  0  0  0  0
   -3.5334    2.5113    4.3583 C   0  0  0  0  0  0  0  0  0  0  0  0
   -4.8203    1.9500    4.3475 C   0  0  0  0  0  0  0  0  0  0  0  0
   -5.7834    2.4002    5.2464 C   0  0  0  0  0  0  0  0  0  0  0  0
   -5.4316    3.3289    6.2835 C   0  0  0  0  0  0  0  0  0  0  0  0
   -6.6469    3.9214    7.4795 S   0  0  0  0  0  0  0  0  0  0  0  0
   -7.6138    2.3817    7.6902 C   0  0  0  0  0  0  0  0  0  0  0  0
   -4.1616    3.9265    6.2449 C   0  0  0  0  0  0  0  0  0  0  0  0
   -3.2438    3.5588    5.2587 C   0  0  0  0  0  0  0  0  0  0  0  0
   -1.7178    0.9935    4.4476 C   0  0  0  0  0  0  0  0  0  0  0  0
   -0.7381    1.4975    5.3261 C   0  0  0  0  0  0  0  0  0  0  0  0
   -0.2584    0.6986    6.4000 C   0  0  0  0  0  0  0  0  0  0  0  0
   -0.7414   -0.6279    6.5981 C   0  0  0  0  0  0  0  0  0  0  0  0
   -0.1055   -1.7417    7.8753 S   0  0  0  0  0  0  0  0  0  0  0  0
    0.0704   -0.5811    9.2751 C   0  0  0  0  0  0  0  0  0  0  0  0
   -1.5820   -1.1752    5.5883 C   0  0  0  0  0  0  0  0  0  0  0  0
   -2.0613   -0.3695    4.5357 C   0  0  0  0  0  0  0  0  0  0  0  0
   -3.7918    2.1666    1.4632 C   0  0  0  0  0  0  0  0  0  0  0  0
   -4.7760    3.5430    1.6239 S   0  0  0  0  0  0  0  0  0  0  0  0
   -5.4417    3.4875    0.0563 C   0  0  0  0  0  0  0  0  0  0  0  0
   -5.0745    2.2410   -0.5032 C   0  0  0  0  0  0  0  0  0  0  0  0
   -5.8788    1.5484   -1.4796 N   0  0  0  0  0  0  0  0  0  0  0  0
   -6.8932    0.7073   -0.9197 C   0  0  0  0  0  0  0  0  0  0  0  0
   -7.8336    1.2043    0.0311 C   0  0  0  0  0  0  0  0  0  0  0  0
   -8.7495    0.3407    0.6887 C   0  0  0  0  0  0  0  0  0  0  0  0
   -8.7289   -1.0432    0.3820 C   0  0  0  0  0  0  0  0  0  0  0  0
   -9.9501   -2.1001    1.0711 S   0  0  0  0  0  0  0  0  0  0  0  0
   -8.9887   -2.6036    2.5281 C   0  0  0  0  0  0  0  0  0  0  0  0
   -7.8525   -1.5187   -0.6314 C   0  0  0  0  0  0  0  0  0  0  0  0
   -6.9468   -0.6493   -1.2667 C   0  0  0  0  0  0  0  0  0  0  0  0
   -5.7588    1.6405   -2.9301 C   0  0  0  0  0  0  0  0  0  0  0  0
   -4.5548    1.3389   -3.5866 C   0  0  0  0  0  0  0  0  0  0  0  0
   -4.5604    1.0774   -4.9955 C   0  0  0  0  0  0  0  0  0  0  0  0
   -5.7923    1.1327   -5.7364 C   0  0  0  0  0  0  0  0  0  0  0  0
   -5.9167    1.0401   -7.5554 S   0  0  0  0  0  0  0  0  0  0  0  0
   -4.5554   -0.1004   -7.9410 C   0  0  0  0  0  0  0  0  0  0  0  0
   -6.9651    1.5021   -5.0519 C   0  0  0  0  0  0  0  0  0  0  0  0
   -6.9418    1.7809   -3.6872 C   0  0  0  0  0  0  0  0  0  0  0  0
   -4.1110    1.5811    0.2908 C   0  0  0  0  0  0  0  0  0  0  0  0
   -3.1525    0.2108    0.1040 S   0  0  0  0  0  0  0  0  0  0  0  0
   -5.7326    4.7087   -0.6944 C   0  0  0  0  0  0  0  0  0  0  0  0
   -4.7305    5.5115   -1.1191 C   0  0  0  0  0  0  0  0  0  0  0  0
   -3.3047    5.1577   -0.9391 C   0  0  0  0  0  0  0  0  0  0  0  0
   -2.7569    4.0135   -0.9282 O   0  0  0  0  0  0  0  0  0  0  0  0
   -2.5166    6.3631   -0.9611 C   0  0  0  0  0  0  0  0  0  0  0  0
   -1.0997    6.3118   -0.8636 C   0  0  0  0  0  0  0  0  0  0  0  0
   -0.5728    7.5704   -1.0915 C   0  0  0  0  0  0  0  0  0  0  0  0
   -1.3556    8.7139   -1.4827 C   0  0  0  0  0  0  0  0  0  0  0  0
   -2.7293    8.7646   -1.6660 C   0  0  0  0  0  0  0  0  0  0  0  0
   -3.3453    7.5057   -1.3342 C   0  0  0  0  0  0  0  0  0  0  0  0
   -4.7664    7.0094   -1.4606 C   0  0  0  0  0  0  0  0  0  0  0  0
   -5.8168    7.8558   -1.7021 C   0  0  0  0  0  0  0  0  0  0  0  0
   -7.0838    7.3943   -2.0843 C   0  0  0  0  0  0  0  0  0  0  0  0
   -8.1556    7.0239   -2.4774 N   0  0  0  0  0  0  0  0  0  0  0  0
   -5.7315    9.2875   -1.5469 C   0  0  0  0  0  0  0  0  0  0  0  0
   -5.6812   10.4815   -1.4167 N   0  0  0  0  0  0  0  0  0  0  0  0
   -0.2293    9.6294   -1.2113 C   0  0  0  0  0  0  0  0  0  0  0  0
   -0.1882   10.5744    0.0678 C   0  0  0  0  0  0  0  0  0  0  0  0
   -0.9238   10.0018    1.2630 C   0  0  0  0  0  0  0  0  0  0  0  0
   -0.2402    8.9084    1.6261 C   0  0  0  0  0  0  0  0  0  0  0  0
    0.9572    8.8087    0.7046 C   0  0  0  0  0  0  0  0  0  0  0  0
    1.2336   10.2831    0.5596 C   0  0  0  0  0  0  0  0  0  0  0  0
    0.5587    8.4724   -0.7814 C   0  0  0  0  0  0  0  0  0  0  0  0
    8.3499   -3.4132   -2.5985 H   0  0  0  0  0  0  0  0  0  0  0  0
    3.1827   -4.3070   -6.3939 H   0  0  0  0  0  0  0  0  0  0  0  0
    4.3813   -7.6359   -2.5513 H   0  0  0  0  0  0  0  0  0  0  0  0
    2.4878   -9.0879   -4.8192 H   0  0  0  0  0  0  0  0  0  0  0  0
    0.6491   -8.7359   -2.9960 H   0  0  0  0  0  0  0  0  0  0  0  0
    0.3497   -6.0991   -2.4656 H   0  0  0  0  0  0  0  0  0  0  0  0
   -0.5483   -5.0486   -4.7168 H   0  0  0  0  0  0  0  0  0  0  0  0
   -0.2130   -6.7605   -6.6534 H   0  0  0  0  0  0  0  0  0  0  0  0
   -1.3026   -8.2854   -4.7563 H   0  0  0  0  0  0  0  0  0  0  0  0
   -0.0267   -9.2082   -5.6061 H   0  0  0  0  0  0  0  0  0  0  0  0
    2.1695   -7.7422   -6.7581 H   0  0  0  0  0  0  0  0  0  0  0  0
    5.0968    0.3518   -5.4201 H   0  0  0  0  0  0  0  0  0  0  0  0
    4.1827    1.5517   -4.4583 H   0  0  0  0  0  0  0  0  0  0  0  0
    6.0644    2.9772   -4.2403 H   0  0  0  0  0  0  0  0  0  0  0  0
    7.2472    1.6334   -4.2318 H   0  0  0  0  0  0  0  0  0  0  0  0
    6.5044    2.1407   -5.7831 H   0  0  0  0  0  0  0  0  0  0  0  0
    6.6168    1.2487    3.0311 H   0  0  0  0  0  0  0  0  0  0  0  0
    7.5968    3.4645    3.3584 H   0  0  0  0  0  0  0  0  0  0  0  0
    4.8733    5.9260    4.9703 H   0  0  0  0  0  0  0  0  0  0  0  0
    6.6095    6.0162    5.4699 H   0  0  0  0  0  0  0  0  0  0  0  0
    5.7986    7.4776    4.9472 H   0  0  0  0  0  0  0  0  0  0  0  0
    3.8170    5.2306    2.0368 H   0  0  0  0  0  0  0  0  0  0  0  0
    2.8994    2.9802    1.7426 H   0  0  0  0  0  0  0  0  0  0  0  0
    4.0382    2.3186    4.8318 H   0  0  0  0  0  0  0  0  0  0  0  0
    3.8161    1.6412    7.0542 H   0  0  0  0  0  0  0  0  0  0  0  0
    2.9806   -2.9685    9.4156 H   0  0  0  0  0  0  0  0  0  0  0  0
    2.3403   -2.9493    7.7654 H   0  0  0  0  0  0  0  0  0  0  0  0
    4.1180   -3.1615    8.0392 H   0  0  0  0  0  0  0  0  0  0  0  0
    3.3623   -2.5519    5.8036 H   0  0  0  0  0  0  0  0  0  0  0  0
    3.5830   -1.8331    3.4696 H   0  0  0  0  0  0  0  0  0  0  0  0
    1.0308   -3.0514    1.7270 H   0  0  0  0  0  0  0  0  0  0  0  0
    1.0633   -5.1131    2.5154 H   0  0  0  0  0  0  0  0  0  0  0  0
    1.6435   -7.5104    2.3325 H   0  0  0  0  0  0  0  0  0  0  0  0
    0.8973   -8.5652    3.5700 H   0  0  0  0  0  0  0  0  0  0  0  0
    0.8993   -6.8790    3.8712 H   0  0  0  0  0  0  0  0  0  0  0  0
   -2.7007   -6.1086    0.4149 H   0  0  0  0  0  0  0  0  0  0  0  0
   -2.6702   -3.7962   -0.5212 H   0  0  0  0  0  0  0  0  0  0  0  0
    0.1188   -3.7510   -1.9326 H   0  0  0  0  0  0  0  0  0  0  0  0
    0.6748   -3.3486   -4.2478 H   0  0  0  0  0  0  0  0  0  0  0  0
    2.4969   -0.0351   -5.5897 H   0  0  0  0  0  0  0  0  0  0  0  0
    2.6684   -1.8416   -5.6412 H   0  0  0  0  0  0  0  0  0  0  0  0
    2.4853   -0.8387   -7.1105 H   0  0  0  0  0  0  0  0  0  0  0  0
   -0.5928    0.7623   -3.9415 H   0  0  0  0  0  0  0  0  0  0  0  0
   -1.0285    0.4369   -1.5468 H   0  0  0  0  0  0  0  0  0  0  0  0
   -5.1115    1.1028    3.6714 H   0  0  0  0  0  0  0  0  0  0  0  0
   -6.7971    1.9487    5.1335 H   0  0  0  0  0  0  0  0  0  0  0  0
   -7.8849    2.2363    8.7445 H   0  0  0  0  0  0  0  0  0  0  0  0
   -7.1525    1.4233    7.3551 H   0  0  0  0  0  0  0  0  0  0  0  0
   -8.5611    2.5531    7.1657 H   0  0  0  0  0  0  0  0  0  0  0  0
   -3.8589    4.6872    6.9325 H   0  0  0  0  0  0  0  0  0  0  0  0
   -2.2586    3.9318    5.2632 H   0  0  0  0  0  0  0  0  0  0  0  0
   -0.4396    2.5213    5.2375 H   0  0  0  0  0  0  0  0  0  0  0  0
    0.4386    1.2016    7.0750 H   0  0  0  0  0  0  0  0  0  0  0  0
    0.7829    0.2252    9.0414 H   0  0  0  0  0  0  0  0  0  0  0  0
    0.5631   -1.1711   10.0667 H   0  0  0  0  0  0  0  0  0  0  0  0
   -0.8866   -0.1480    9.6857 H   0  0  0  0  0  0  0  0  0  0  0  0
   -1.9010   -2.2443    5.6185 H   0  0  0  0  0  0  0  0  0  0  0  0
   -2.8072   -0.8626    3.8678 H   0  0  0  0  0  0  0  0  0  0  0  0
   -7.8621    2.2789    0.2535 H   0  0  0  0  0  0  0  0  0  0  0  0
   -9.4848    0.8195    1.3911 H   0  0  0  0  0  0  0  0  0  0  0  0
   -9.5237   -3.4344    3.0101 H   0  0  0  0  0  0  0  0  0  0  0  0
   -7.9438   -2.9376    2.2849 H   0  0  0  0  0  0  0  0  0  0  0  0
   -8.9932   -1.8292    3.3047 H   0  0  0  0  0  0  0  0  0  0  0  0
   -7.8681   -2.5479   -0.9820 H   0  0  0  0  0  0  0  0  0  0  0  0
   -6.2683   -1.0285   -2.0372 H   0  0  0  0  0  0  0  0  0  0  0  0
   -3.6513    1.1380   -2.9868 H   0  0  0  0  0  0  0  0  0  0  0  0
   -3.5894    0.8221   -5.4646 H   0  0  0  0  0  0  0  0  0  0  0  0
   -4.6660   -0.3823   -8.9967 H   0  0  0  0  0  0  0  0  0  0  0  0
   -3.6080    0.4514   -7.8496 H   0  0  0  0  0  0  0  0  0  0  0  0
   -4.4942   -1.0328   -7.3308 H   0  0  0  0  0  0  0  0  0  0  0  0
   -7.9223    1.6253   -5.5318 H   0  0  0  0  0  0  0  0  0  0  0  0
   -7.8993    1.9372   -3.1956 H   0  0  0  0  0  0  0  0  0  0  0  0
   -6.7258    4.9704   -0.7875 H   0  0  0  0  0  0  0  0  0  0  0  0
   -0.5302    5.4229   -0.4640 H   0  0  0  0  0  0  0  0  0  0  0  0
   -3.1822    9.7565   -1.8927 H   0  0  0  0  0  0  0  0  0  0  0  0
    0.1454   10.0908   -2.1659 H   0  0  0  0  0  0  0  0  0  0  0  0
   -0.3928   11.6561   -0.1416 H   0  0  0  0  0  0  0  0  0  0  0  0
   -1.9809   10.1745    1.4743 H   0  0  0  0  0  0  0  0  0  0  0  0
   -0.7217    8.0771    2.1558 H   0  0  0  0  0  0  0  0  0  0  0  0
    1.7746    8.2094    1.1030 H   0  0  0  0  0  0  0  0  0  0  0  0
    1.4731   10.7895    1.5242 H   0  0  0  0  0  0  0  0  0  0  0  0
    2.0621   10.5747   -0.1321 H   0  0  0  0  0  0  0  0  0  0  0  0
    1.3953    8.2427   -1.4531 H   0  0  0  0  0  0  0  0  0  0  0  0
  1  2  2  3
  2  3  1  0
  3  4  2  0
  3  5  1  0
  5  6  2  0
  6  7  1  0
  7  8  2  0
  8  9  1  0
  9 10  2  0
 10 11  1  0
 11 12  2  3
 12 13  1  0
 13 14  3  0
 12 15  1  0
 15 16  3  0
  8 17  1  0
 17 18  1  0
 18 19  1  0
 19 20  2  0
 20 21  1  0
 21 22  1  0
 21 23  1  0
  1 24  1  0
 24 25  1  0
 25 26  2  0
 26 27  1  0
 27 28  1  0
 28 29  1  0
 27 30  1  0
 30 31  2  0
 31 32  1  0
 32 33  2  0
 33 34  1  0
 34 35  1  0
 33 36  1  0
 32 37  1  0
 37 38  2  0
 38 39  1  0
 39 40  1  0
 40 41  2  0
 41 42  1  0
 42 43  2  0
 43 44  1  0
 44 45  1  0
 43 46  1  0
 46 47  2  0
 39 48  1  0
 48 49  2  0
 49 50  1  0
 50 51  2  0
 51 52  1  0
 52 53  1  0
 51 54  1  0
 54 55  2  0
 38 56  1  0
 56 57  1  0
 57 58  1  0
 58 59  2  0
 59 60  1  0
 60 61  1  0
 61 62  2  0
 62 63  1  0
 63 64  2  0
 64 65  1  0
 65 66  1  0
 64 67  1  0
 67 68  2  0
 60 69  1  0
 69 70  2  0
 70 71  1  0
 71 72  2  0
 72 73  1  0
 73 74  1  0
 72 75  1  0
 75 76  2  0
 59 77  1  0
 77 78  1  0
 58 79  1  0
 79 80  2  0
 80 81  1  0
 81 82  1  0
 82 83  2  0
 83 84  1  0
 84 85  2  0
 85 86  1  0
 86 87  1  0
 85 88  1  0
 88 89  2  0
 81 90  1  0
 90 91  2  0
 91 92  1  0
 92 93  2  0
 93 94  1  0
 94 95  1  0
 93 96  1  0
 96 97  2  0
 80 98  1  0
 98 99  1  0
 99100  1  0
100101  2  0
101102  1  0
102103  1  0
103104  2  0
104105  1  0
105106  2  0
106107  1  0
107108  1  0
106109  1  0
109110  2  0
102111  1  0
111112  2  0
112113  1  0
113114  2  0
114115  1  0
115116  1  0
114117  1  0
117118  2  0
101119  1  0
119120  1  0
100121  1  0
121122  2  3
122123  1  0
123124  2  0
123125  1  0
125126  2  0
126127  1  0
127128  2  0
128129  1  0
129130  2  0
130131  1  0
131132  2  3
132133  1  0
133134  3  0
132135  1  0
135136  3  0
128137  1  0
137138  1  0
138139  1  0
139140  2  0
140141  1  0
141142  1  0
141143  1  0
 11  2  1  0
 23 17  1  0
 34 24  2  0
 78 37  1  0
120 79  1  0
131122  1  0
143137  1  0
 10  5  1  0
 22 18  1  0
 31 25  1  0
 47 40  1  0
 55 48  1  0
 77 56  2  0
 89 82  1  0
 97 90  1  0
119 98  2  0
130125  1  0
142138  1  0
 23  7  1  0
 68 61  1  0
 76 69  1  0
110103  1  0
118111  1  0
143127  1  0
  1144  1  0
  6145  1  0
  9146  1  0
 17147  1  0
 18148  1  0
 19149  1  0
 20150  1  0
 21151  1  0
 22152  1  0
 22153  1  0
 23154  1  0
 28155  1  0
 28156  1  0
 29157  1  0
 29158  1  0
 29159  1  0
 41160  1  0
 42161  1  0
 45162  1  0
 45163  1  0
 45164  1  0
 46165  1  0
 47166  1  0
 49167  1  0
 50168  1  0
 53169  1  0
 53170  1  0
 53171  1  0
 54172  1  0
 55173  1  0
 62174  1  0
 63175  1  0
 66176  1  0
 66177  1  0
 66178  1  0
 67179  1  0
 68180  1  0
 70181  1  0
 71182  1  0
 74183  1  0
 74184  1  0
 74185  1  0
 75186  1  0
 76187  1  0
 83188  1  0
 84189  1  0
 87190  1  0
 87191  1  0
 87192  1  0
 88193  1  0
 89194  1  0
 91195  1  0
 92196  1  0
 95197  1  0
 95198  1  0
 95199  1  0
 96200  1  0
 97201  1  0
104202  1  0
105203  1  0
108204  1  0
108205  1  0
108206  1  0
109207  1  0
110208  1  0
112209  1  0
113210  1  0
116211  1  0
116212  1  0
116213  1  0
117214  1  0
118215  1  0
121216  1  0
126217  1  0
129218  1  0
137219  1  0
138220  1  0
139221  1  0
140222  1  0
141223  1  0
142224  1  0
142225  1  0
143226  1  0
M  END

