
     RDKit          3D

153167  0  0  0  0  0  0  0  0999 V2000
   -3.1697    4.5702   -4.6680 C   0  0  0  0  0  0  0  0  0  0  0  0
   -3.6461    4.8244   -3.4344 C   0  0  0  0  0  0  0  0  0  0  0  0
   -3.0005    4.3739   -2.1934 C   0  0  0  0  0  0  0  0  0  0  0  0
   -1.7783    4.4783   -1.9155 O   0  0  0  0  0  0  0  0  0  0  0  0
   -4.0031    3.8592   -1.2954 C   0  0  0  0  0  0  0  0  0  0  0  0
   -3.7793    3.0449   -0.1637 C   0  0  0  0  0  0  0  0  0  0  0  0
   -4.9292    2.4738    0.3457 C   0  0  0  0  0  0  0  0  0  0  0  0
   -6.2311    2.6873   -0.2180 C   0  0  0  0  0  0  0  0  0  0  0  0
   -6.4551    3.4949   -1.3254 C   0  0  0  0  0  0  0  0  0  0  0  0
   -5.2827    4.0995   -1.8566 C   0  0  0  0  0  0  0  0  0  0  0  0
   -5.1072    4.8658   -3.1217 C   0  0  0  0  0  0  0  0  0  0  0  0
   -6.0375    5.6073   -3.7647 C   0  0  0  0  0  0  0  0  0  0  0  0
   -7.3970    5.6995   -3.3004 C   0  0  0  0  0  0  0  0  0  0  0  0
   -8.4901    5.7822   -2.9307 N   0  0  0  0  0  0  0  0  0  0  0  0
   -5.6822    6.4762   -4.8553 C   0  0  0  0  0  0  0  0  0  0  0  0
   -5.3988    7.1822   -5.7266 N   0  0  0  0  0  0  0  0  0  0  0  0
   -6.8256    1.7194    0.7625 C   0  0  0  0  0  0  0  0  0  0  0  0
   -7.2122    0.3146    0.2093 C   0  0  0  0  0  0  0  0  0  0  0  0
   -7.3866   -0.5786    1.4140 C   0  0  0  0  0  0  0  0  0  0  0  0
   -6.1644   -0.7725    1.9211 C   0  0  0  0  0  0  0  0  0  0  0  0
   -5.2101    0.0003    1.0480 C   0  0  0  0  0  0  0  0  0  0  0  0
   -5.8838   -0.2329   -0.2937 C   0  0  0  0  0  0  0  0  0  0  0  0
   -5.4933    1.5045    1.3326 C   0  0  0  0  0  0  0  0  0  0  0  0
   -2.1237    3.5521   -4.8716 C   0  0  0  0  0  0  0  0  0  0  0  0
   -2.4352    2.2014   -4.9147 C   0  0  0  0  0  0  0  0  0  0  0  0
   -1.3741    1.3661   -4.5537 C   0  0  0  0  0  0  0  0  0  0  0  0
   -1.6639   -0.3543   -4.1398 S   0  0  0  0  0  0  0  0  0  0  0  0
   -1.5865   -0.9622   -5.8615 C   0  0  0  0  0  0  0  0  0  0  0  0
   -2.9869   -1.2413   -6.3841 C   0  0  0  0  0  0  0  0  0  0  0  0
   -0.1820    2.0472   -4.2834 C   0  0  0  0  0  0  0  0  0  0  0  0
   -0.5023    3.6966   -4.4470 S   0  0  0  0  0  0  0  0  0  0  0  0
    0.8654    1.5433   -3.3813 C   0  0  0  0  0  0  0  0  0  0  0  0
    1.6907    0.4078   -3.5604 C   0  0  0  0  0  0  0  0  0  0  0  0
    1.8545   -0.3245   -4.7982 N   0  0  0  0  0  0  0  0  0  0  0  0
    2.0063   -1.7646   -4.7614 C   0  0  0  0  0  0  0  0  0  0  0  0
    3.0410   -2.3937   -5.4783 C   0  0  0  0  0  0  0  0  0  0  0  0
    3.2351   -3.7763   -5.3730 C   0  0  0  0  0  0  0  0  0  0  0  0
    2.4075   -4.5420   -4.5426 C   0  0  0  0  0  0  0  0  0  0  0  0
    2.6841   -6.3008   -4.3645 S   0  0  0  0  0  0  0  0  0  0  0  0
    3.8515   -6.0996   -2.9825 C   0  0  0  0  0  0  0  0  0  0  0  0
    1.3667   -3.9259   -3.8395 C   0  0  0  0  0  0  0  0  0  0  0  0
    1.1669   -2.5493   -3.9489 C   0  0  0  0  0  0  0  0  0  0  0  0
    1.9678    0.3890   -6.0525 C   0  0  0  0  0  0  0  0  0  0  0  0
    1.5010   -0.1858   -7.2498 C   0  0  0  0  0  0  0  0  0  0  0  0
    1.5007    0.5483   -8.4397 C   0  0  0  0  0  0  0  0  0  0  0  0
    1.9684    1.8628   -8.4534 C   0  0  0  0  0  0  0  0  0  0  0  0
    1.8270    2.8490   -9.9400 S   0  0  0  0  0  0  0  0  0  0  0  0
    0.2023    3.5223   -9.4630 C   0  0  0  0  0  0  0  0  0  0  0  0
    2.5046    2.4219   -7.2888 C   0  0  0  0  0  0  0  0  0  0  0  0
    2.5122    1.6881   -6.0991 C   0  0  0  0  0  0  0  0  0  0  0  0
    2.3245    0.0683   -2.3599 C   0  0  0  0  0  0  0  0  0  0  0  0
    3.2209   -1.2434   -1.8297 S   0  0  0  0  0  0  0  0  0  0  0  0
    3.1812   -0.8168   -0.1800 C   0  0  0  0  0  0  0  0  0  0  0  0
    2.4947    0.4110   -0.0609 C   0  0  0  0  0  0  0  0  0  0  0  0
    2.2736    1.1296    1.1628 N   0  0  0  0  0  0  0  0  0  0  0  0
    3.2979    2.0633    1.5647 C   0  0  0  0  0  0  0  0  0  0  0  0
    3.7344    3.0671    0.6852 C   0  0  0  0  0  0  0  0  0  0  0  0
    4.7232    3.9739    1.0769 C   0  0  0  0  0  0  0  0  0  0  0  0
    5.3005    3.8800    2.3467 C   0  0  0  0  0  0  0  0  0  0  0  0
    6.5666    5.0482    2.8458 S   0  0  0  0  0  0  0  0  0  0  0  0
    7.9218    4.0729    2.1201 C   0  0  0  0  0  0  0  0  0  0  0  0
    4.8798    2.8777    3.2263 C   0  0  0  0  0  0  0  0  0  0  0  0
    3.8923    1.9683    2.8361 C   0  0  0  0  0  0  0  0  0  0  0  0
    1.0815    0.9078    1.9625 C   0  0  0  0  0  0  0  0  0  0  0  0
    0.7560    1.7711    3.0322 C   0  0  0  0  0  0  0  0  0  0  0  0
   -0.2492    1.4353    3.9370 C   0  0  0  0  0  0  0  0  0  0  0  0
   -0.9775    0.2538    3.7732 C   0  0  0  0  0  0  0  0  0  0  0  0
   -2.1084   -0.2819    5.0576 S   0  0  0  0  0  0  0  0  0  0  0  0
   -3.5073    0.6850    4.4228 C   0  0  0  0  0  0  0  0  0  0  0  0
   -0.7598   -0.5436    2.6486 C   0  0  0  0  0  0  0  0  0  0  0  0
    0.2544   -0.2122    1.7373 C   0  0  0  0  0  0  0  0  0  0  0  0
    2.0280    0.8549   -1.2967 C   0  0  0  0  0  0  0  0  0  0  0  0
    0.9509    2.0508   -1.7546 S   0  0  0  0  0  0  0  0  0  0  0  0
    3.4231   -1.8136    0.8919 C   0  0  0  0  0  0  0  0  0  0  0  0
    3.5122   -3.1849    0.6545 C   0  0  0  0  0  0  0  0  0  0  0  0
    3.2774   -3.9713    1.7867 C   0  0  0  0  0  0  0  0  0  0  0  0
    3.1678   -5.7663    1.7160 S   0  0  0  0  0  0  0  0  0  0  0  0
    1.5851   -5.8445    0.7982 C   0  0  0  0  0  0  0  0  0  0  0  0
    0.4109   -5.3182    1.6131 C   0  0  0  0  0  0  0  0  0  0  0  0
    3.1078   -3.2337    2.9584 C   0  0  0  0  0  0  0  0  0  0  0  0
    3.1387   -1.6009    2.5439 S   0  0  0  0  0  0  0  0  0  0  0  0
    2.4869   -3.7455    4.1750 C   0  0  0  0  0  0  0  0  0  0  0  0
    2.9806   -3.7276    5.4260 C   0  0  0  0  0  0  0  0  0  0  0  0
    2.0894   -3.9680    6.5739 C   0  0  0  0  0  0  0  0  0  0  0  0
    0.8543   -4.2279    6.5164 O   0  0  0  0  0  0  0  0  0  0  0  0
    2.8399   -3.7521    7.7825 C   0  0  0  0  0  0  0  0  0  0  0  0
    4.1355   -3.4153    7.4718 C   0  0  0  0  0  0  0  0  0  0  0  0
    4.9132   -3.0772    8.5790 C   0  0  0  0  0  0  0  0  0  0  0  0
    3.9067   -3.2245    9.9330 S   0  0  0  0  0  0  0  0  0  0  0  0
    2.5093   -3.7234    9.1274 C   0  0  0  0  0  0  0  0  0  0  0  0
    1.1602   -3.9207    9.7344 C   0  0  0  0  0  0  0  0  0  0  0  0
    4.3568   -3.4342    5.9993 C   0  0  0  0  0  0  0  0  0  0  0  0
    5.5766   -3.3975    5.4070 C   0  0  0  0  0  0  0  0  0  0  0  0
    5.8111   -3.5343    3.9952 C   0  0  0  0  0  0  0  0  0  0  0  0
    6.0662   -3.6201    2.8671 N   0  0  0  0  0  0  0  0  0  0  0  0
    6.7888   -3.2660    6.1750 C   0  0  0  0  0  0  0  0  0  0  0  0
    7.7719   -3.1700    6.7802 N   0  0  0  0  0  0  0  0  0  0  0  0
   -3.8272    4.7128   -5.5158 H   0  0  0  0  0  0  0  0  0  0  0  0
   -2.7911    2.8062    0.2130 H   0  0  0  0  0  0  0  0  0  0  0  0
   -7.4315    3.5603   -1.7778 H   0  0  0  0  0  0  0  0  0  0  0  0
   -7.5590    2.1853    1.4569 H   0  0  0  0  0  0  0  0  0  0  0  0
   -8.0484    0.2957   -0.5192 H   0  0  0  0  0  0  0  0  0  0  0  0
   -8.3014   -1.0525    1.7567 H   0  0  0  0  0  0  0  0  0  0  0  0
   -5.9151   -1.4257    2.7510 H   0  0  0  0  0  0  0  0  0  0  0  0
   -4.1462   -0.3153    1.1159 H   0  0  0  0  0  0  0  0  0  0  0  0
   -5.9266   -1.3107   -0.5857 H   0  0  0  0  0  0  0  0  0  0  0  0
   -5.4364    0.3440   -1.1330 H   0  0  0  0  0  0  0  0  0  0  0  0
   -5.3917    1.8288    2.3924 H   0  0  0  0  0  0  0  0  0  0  0  0
   -3.4524    1.8367   -5.0250 H   0  0  0  0  0  0  0  0  0  0  0  0
   -1.0898   -0.2349   -6.5317 H   0  0  0  0  0  0  0  0  0  0  0  0
   -1.0015   -1.9059   -5.8719 H   0  0  0  0  0  0  0  0  0  0  0  0
   -3.5684   -0.2948   -6.4521 H   0  0  0  0  0  0  0  0  0  0  0  0
   -2.9210   -1.6874   -7.4012 H   0  0  0  0  0  0  0  0  0  0  0  0
   -3.5161   -1.9540   -5.7201 H   0  0  0  0  0  0  0  0  0  0  0  0
    3.7090   -1.8088   -6.0993 H   0  0  0  0  0  0  0  0  0  0  0  0
    4.0387   -4.2469   -5.9231 H   0  0  0  0  0  0  0  0  0  0  0  0
    4.7738   -5.5925   -3.3420 H   0  0  0  0  0  0  0  0  0  0  0  0
    3.3864   -5.5093   -2.1659 H   0  0  0  0  0  0  0  0  0  0  0  0
    4.1254   -7.0992   -2.5880 H   0  0  0  0  0  0  0  0  0  0  0  0
    0.7316   -4.5129   -3.1878 H   0  0  0  0  0  0  0  0  0  0  0  0
    0.3814   -2.0895   -3.3669 H   0  0  0  0  0  0  0  0  0  0  0  0
    1.0953   -1.1885   -7.2567 H   0  0  0  0  0  0  0  0  0  0  0  0
    1.0981    0.1037   -9.3438 H   0  0  0  0  0  0  0  0  0  0  0  0
    0.3176    4.1932   -8.5880 H   0  0  0  0  0  0  0  0  0  0  0  0
   -0.2126    4.1085  -10.3124 H   0  0  0  0  0  0  0  0  0  0  0  0
   -0.5041    2.7029   -9.2138 H   0  0  0  0  0  0  0  0  0  0  0  0
    2.8852    3.4376   -7.2982 H   0  0  0  0  0  0  0  0  0  0  0  0
    2.9214    2.1479   -5.2121 H   0  0  0  0  0  0  0  0  0  0  0  0
    3.3000    3.1658   -0.3002 H   0  0  0  0  0  0  0  0  0  0  0  0
    5.0515    4.7454    0.3888 H   0  0  0  0  0  0  0  0  0  0  0  0
    7.9919    3.0867    2.6251 H   0  0  0  0  0  0  0  0  0  0  0  0
    7.7472    3.9250    1.0342 H   0  0  0  0  0  0  0  0  0  0  0  0
    8.8778    4.6199    2.2573 H   0  0  0  0  0  0  0  0  0  0  0  0
    5.3155    2.8054    4.2163 H   0  0  0  0  0  0  0  0  0  0  0  0
    3.5735    1.2019    3.5335 H   0  0  0  0  0  0  0  0  0  0  0  0
    1.3076    2.6864    3.1971 H   0  0  0  0  0  0  0  0  0  0  0  0
   -0.4411    2.0795    4.7885 H   0  0  0  0  0  0  0  0  0  0  0  0
   -3.2211    1.7462    4.2522 H   0  0  0  0  0  0  0  0  0  0  0  0
   -4.3356    0.6569    5.1583 H   0  0  0  0  0  0  0  0  0  0  0  0
   -3.8603    0.2386    3.4787 H   0  0  0  0  0  0  0  0  0  0  0  0
   -1.3359   -1.4465    2.4990 H   0  0  0  0  0  0  0  0  0  0  0  0
    0.4321   -0.8782    0.9057 H   0  0  0  0  0  0  0  0  0  0  0  0
    3.6222   -3.6178   -0.3294 H   0  0  0  0  0  0  0  0  0  0  0  0
    1.3930   -6.9072    0.5406 H   0  0  0  0  0  0  0  0  0  0  0  0
    1.6666   -5.2819   -0.1548 H   0  0  0  0  0  0  0  0  0  0  0  0
   -0.5391   -5.5391    1.0796 H   0  0  0  0  0  0  0  0  0  0  0  0
    0.3820   -5.8089    2.6089 H   0  0  0  0  0  0  0  0  0  0  0  0
    0.4893   -4.2172    1.7420 H   0  0  0  0  0  0  0  0  0  0  0  0
    1.4572   -4.0547    4.0436 H   0  0  0  0  0  0  0  0  0  0  0  0
    5.9358   -2.7367    8.6005 H   0  0  0  0  0  0  0  0  0  0  0  0
    0.5397   -3.0162    9.5742 H   0  0  0  0  0  0  0  0  0  0  0  0
    0.6568   -4.7946    9.2625 H   0  0  0  0  0  0  0  0  0  0  0  0
    1.2599   -4.1101   10.8200 H   0  0  0  0  0  0  0  0  0  0  0  0
  1  2  2  3
  2  3  1  0
  3  4  2  0
  3  5  1  0
  5  6  2  0
  6  7  1  0
  7  8  2  0
  8  9  1  0
  9 10  2  0
 10 11  1  0
 11 12  2  3
 12 13  1  0
 13 14  3  0
 12 15  1  0
 15 16  3  0
  8 17  1  0
 17 18  1  0
 18 19  1  0
 19 20  2  0
 20 21  1  0
 21 22  1  0
 21 23  1  0
  1 24  1  0
 24 25  2  0
 25 26  1  0
 26 27  1  0
 27 28  1  0
 28 29  1  0
 26 30  2  0
 30 31  1  0
 30 32  1  0
 32 33  2  0
 33 34  1  0
 34 35  1  0
 35 36  2  0
 36 37  1  0
 37 38  2  0
 38 39  1  0
 39 40  1  0
 38 41  1  0
 41 42  2  0
 34 43  1  0
 43 44  2  0
 44 45  1  0
 45 46  2  0
 46 47  1  0
 47 48  1  0
 46 49  1  0
 49 50  2  0
 33 51  1  0
 51 52  1  0
 52 53  1  0
 53 54  2  0
 54 55  1  0
 55 56  1  0
 56 57  2  0
 57 58  1  0
 58 59  2  0
 59 60  1  0
 60 61  1  0
 59 62  1  0
 62 63  2  0
 55 64  1  0
 64 65  2  0
 65 66  1  0
 66 67  2  0
 67 68  1  0
 68 69  1  0
 67 70  1  0
 70 71  2  0
 54 72  1  0
 72 73  1  0
 53 74  1  0
 74 75  2  0
 75 76  1  0
 76 77  1  0
 77 78  1  0
 78 79  1  0
 76 80  2  0
 80 81  1  0
 80 82  1  0
 82 83  2  3
 83 84  1  0
 84 85  2  0
 84 86  1  0
 86 87  1  0
 87 88  2  0
 88 89  1  0
 89 90  1  0
 90 91  1  0
 87 92  1  0
 92 93  2  3
 93 94  1  0
 94 95  3  0
 93 96  1  0
 96 97  3  0
 11  2  1  0
 23 17  1  0
 31 24  1  0
 73 32  1  0
 81 74  1  0
 92 83  1  0
 10  5  1  0
 22 18  1  0
 42 35  1  0
 50 43  1  0
 72 51  2  0
 90 86  2  0
 23  7  1  0
 63 56  1  0
 71 64  1  0
  1 98  1  0
  6 99  1  0
  9100  1  0
 17101  1  0
 18102  1  0
 19103  1  0
 20104  1  0
 21105  1  0
 22106  1  0
 22107  1  0
 23108  1  0
 25109  1  0
 28110  1  0
 28111  1  0
 29112  1  0
 29113  1  0
 29114  1  0
 36115  1  0
 37116  1  0
 40117  1  0
 40118  1  0
 40119  1  0
 41120  1  0
 42121  1  0
 44122  1  0
 45123  1  0
 48124  1  0
 48125  1  0
 48126  1  0
 49127  1  0
 50128  1  0
 57129  1  0
 58130  1  0
 61131  1  0
 61132  1  0
 61133  1  0
 62134  1  0
 63135  1  0
 65136  1  0
 66137  1  0
 69138  1  0
 69139  1  0
 69140  1  0
 70141  1  0
 71142  1  0
 75143  1  0
 78144  1  0
 78145  1  0
 79146  1  0
 79147  1  0
 79148  1  0
 82149  1  0
 88150  1  0
 91151  1  0
 91152  1  0
 91153  1  0
M  END

