
     RDKit          3D

164183  0  0  0  0  0  0  0  0999 V2000
    6.0896    3.2736    3.3869 C   0  0  0  0  0  0  0  0  0  0  0  0
    6.2736    4.2594    2.4866 C   0  0  0  0  0  0  0  0  0  0  0  0
    5.5698    4.3758    1.2013 C   0  0  0  0  0  0  0  0  0  0  0  0
    4.4576    3.8716    0.9066 O   0  0  0  0  0  0  0  0  0  0  0  0
    6.3900    5.1484    0.2960 C   0  0  0  0  0  0  0  0  0  0  0  0
    6.1547    5.3645   -1.0797 C   0  0  0  0  0  0  0  0  0  0  0  0
    7.1772    6.0272   -1.7265 C   0  0  0  0  0  0  0  0  0  0  0  0
    8.3699    6.4608   -1.0670 C   0  0  0  0  0  0  0  0  0  0  0  0
    8.6095    6.2528    0.2842 C   0  0  0  0  0  0  0  0  0  0  0  0
    7.5597    5.5769    0.9712 C   0  0  0  0  0  0  0  0  0  0  0  0
    7.4746    5.1445    2.3953 C   0  0  0  0  0  0  0  0  0  0  0  0
    8.2074    5.6107    3.4382 C   0  0  0  0  0  0  0  0  0  0  0  0
    7.8508    5.3313    4.8048 C   0  0  0  0  0  0  0  0  0  0  0  0
    7.5728    5.1085    5.9063 N   0  0  0  0  0  0  0  0  0  0  0  0
    9.3165    6.5139    3.2673 C   0  0  0  0  0  0  0  0  0  0  0  0
   10.2164    7.2363    3.1477 N   0  0  0  0  0  0  0  0  0  0  0  0
    8.9005    7.0092   -2.3576 C   0  0  0  0  0  0  0  0  0  0  0  0
    8.8641    8.5565   -2.5262 C   0  0  0  0  0  0  0  0  0  0  0  0
    9.0656    8.8175   -4.0010 C   0  0  0  0  0  0  0  0  0  0  0  0
    7.9475    8.4092   -4.6152 C   0  0  0  0  0  0  0  0  0  0  0  0
    7.0315    7.8888   -3.5332 C   0  0  0  0  0  0  0  0  0  0  0  0
    7.3819    8.8777   -2.4330 C   0  0  0  0  0  0  0  0  0  0  0  0
    7.6780    6.5640   -3.0314 C   0  0  0  0  0  0  0  0  0  0  0  0
    5.0653    2.2272    3.2480 C   0  0  0  0  0  0  0  0  0  0  0  0
    3.3816    2.4187    3.3141 S   0  0  0  0  0  0  0  0  0  0  0  0
    2.9989    0.7983    3.0263 C   0  0  0  0  0  0  0  0  0  0  0  0
    4.1947    0.1056    2.8850 C   0  0  0  0  0  0  0  0  0  0  0  0
    5.3306    0.8850    3.0387 C   0  0  0  0  0  0  0  0  0  0  0  0
    6.5991    0.3065    2.9493 O   0  0  0  0  0  0  0  0  0  0  0  0
    6.7341   -1.1223    2.9733 C   0  0  0  0  0  0  0  0  0  0  0  0
    5.5782   -1.7988    2.2037 C   0  0  0  0  0  0  0  0  0  0  0  0
    4.3148   -1.2565    2.6065 O   0  0  0  0  0  0  0  0  0  0  0  0
    1.6639    0.2464    2.7724 C   0  0  0  0  0  0  0  0  0  0  0  0
    1.3229   -0.5459    1.6710 C   0  0  0  0  0  0  0  0  0  0  0  0
    2.1290   -0.6968    0.4893 N   0  0  0  0  0  0  0  0  0  0  0  0
    2.3930    0.4837   -0.2961 C   0  0  0  0  0  0  0  0  0  0  0  0
    1.3401    1.3431   -0.6511 C   0  0  0  0  0  0  0  0  0  0  0  0
    1.5696    2.4366   -1.4862 C   0  0  0  0  0  0  0  0  0  0  0  0
    2.8536    2.6894   -1.9747 C   0  0  0  0  0  0  0  0  0  0  0  0
    3.1228    4.0626   -3.0980 S   0  0  0  0  0  0  0  0  0  0  0  0
    2.8493    3.0666   -4.5950 C   0  0  0  0  0  0  0  0  0  0  0  0
    3.9195    1.8611   -1.5952 C   0  0  0  0  0  0  0  0  0  0  0  0
    3.6890    0.7609   -0.7597 C   0  0  0  0  0  0  0  0  0  0  0  0
    2.4302   -2.0185   -0.0240 C   0  0  0  0  0  0  0  0  0  0  0  0
    2.5048   -3.1247    0.8479 C   0  0  0  0  0  0  0  0  0  0  0  0
    2.7598   -4.4066    0.3541 C   0  0  0  0  0  0  0  0  0  0  0  0
    2.9407   -4.6082   -1.0165 C   0  0  0  0  0  0  0  0  0  0  0  0
    3.2610   -6.2578   -1.6482 S   0  0  0  0  0  0  0  0  0  0  0  0
    1.4977   -6.6262   -1.9079 C   0  0  0  0  0  0  0  0  0  0  0  0
    2.8714   -3.5227   -1.8941 C   0  0  0  0  0  0  0  0  0  0  0  0
    2.6129   -2.2395   -1.4064 C   0  0  0  0  0  0  0  0  0  0  0  0
    0.0406   -1.0559    1.7944 C   0  0  0  0  0  0  0  0  0  0  0  0
   -0.8791   -2.0488    0.8236 S   0  0  0  0  0  0  0  0  0  0  0  0
   -2.2069   -2.0607    1.8819 C   0  0  0  0  0  0  0  0  0  0  0  0
   -1.9516   -1.2279    3.0059 C   0  0  0  0  0  0  0  0  0  0  0  0
   -2.9210   -0.8895    4.0373 N   0  0  0  0  0  0  0  0  0  0  0  0
   -2.6741    0.1596    4.9864 C   0  0  0  0  0  0  0  0  0  0  0  0
   -2.6828   -0.1259    6.3620 C   0  0  0  0  0  0  0  0  0  0  0  0
   -2.6181    0.9134    7.2958 C   0  0  0  0  0  0  0  0  0  0  0  0
   -2.5464    2.2436    6.8648 C   0  0  0  0  0  0  0  0  0  0  0  0
   -2.5685    3.5820    8.0618 S   0  0  0  0  0  0  0  0  0  0  0  0
   -0.7800    3.4984    8.4050 C   0  0  0  0  0  0  0  0  0  0  0  0
   -2.5249    2.5310    5.4948 C   0  0  0  0  0  0  0  0  0  0  0  0
   -2.6103    1.4954    4.5606 C   0  0  0  0  0  0  0  0  0  0  0  0
   -4.2976   -1.2685    3.9004 C   0  0  0  0  0  0  0  0  0  0  0  0
   -4.8369   -2.2865    4.6991 C   0  0  0  0  0  0  0  0  0  0  0  0
   -6.1667   -2.6850    4.5260 C   0  0  0  0  0  0  0  0  0  0  0  0
   -6.9770   -2.0396    3.5834 C   0  0  0  0  0  0  0  0  0  0  0  0
   -8.6808   -2.5487    3.3583 S   0  0  0  0  0  0  0  0  0  0  0  0
   -8.2885   -3.6171    1.9393 C   0  0  0  0  0  0  0  0  0  0  0  0
   -6.4530   -0.9910    2.8184 C   0  0  0  0  0  0  0  0  0  0  0  0
   -5.1186   -0.6054    2.9734 C   0  0  0  0  0  0  0  0  0  0  0  0
   -0.6439   -0.7042    2.9154 C   0  0  0  0  0  0  0  0  0  0  0  0
    0.3485    0.2869    3.8585 S   0  0  0  0  0  0  0  0  0  0  0  0
   -3.3713   -2.9044    1.5994 C   0  0  0  0  0  0  0  0  0  0  0  0
   -4.2589   -2.8386    0.1685 S   0  0  0  0  0  0  0  0  0  0  0  0
   -5.0852   -4.2993    0.3729 C   0  0  0  0  0  0  0  0  0  0  0  0
   -4.6584   -4.8482    1.5745 C   0  0  0  0  0  0  0  0  0  0  0  0
   -3.7042   -4.0886    2.2424 C   0  0  0  0  0  0  0  0  0  0  0  0
   -3.1432   -4.5621    3.4307 O   0  0  0  0  0  0  0  0  0  0  0  0
   -3.7579   -5.6566    4.1209 C   0  0  0  0  0  0  0  0  0  0  0  0
   -4.3040   -6.7059    3.1267 C   0  0  0  0  0  0  0  0  0  0  0  0
   -5.0619   -6.0833    2.0850 O   0  0  0  0  0  0  0  0  0  0  0  0
   -6.0800   -4.8830   -0.5441 C   0  0  0  0  0  0  0  0  0  0  0  0
   -6.0710   -4.7008   -1.8752 C   0  0  0  0  0  0  0  0  0  0  0  0
   -7.2913   -4.7055   -2.6869 C   0  0  0  0  0  0  0  0  0  0  0  0
   -8.4011   -5.1956   -2.3514 O   0  0  0  0  0  0  0  0  0  0  0  0
   -7.0449   -3.9216   -3.8828 C   0  0  0  0  0  0  0  0  0  0  0  0
   -7.9911   -3.4852   -4.8351 C   0  0  0  0  0  0  0  0  0  0  0  0
   -7.4880   -2.5744   -5.7481 C   0  0  0  0  0  0  0  0  0  0  0  0
   -6.1331   -2.1023   -5.7182 C   0  0  0  0  0  0  0  0  0  0  0  0
   -5.1981   -2.5353   -4.7995 C   0  0  0  0  0  0  0  0  0  0  0  0
   -5.6911   -3.4919   -3.8710 C   0  0  0  0  0  0  0  0  0  0  0  0
   -4.9955   -4.1101   -2.7183 C   0  0  0  0  0  0  0  0  0  0  0  0
   -3.6856   -4.4542   -2.6768 C   0  0  0  0  0  0  0  0  0  0  0  0
   -3.2004   -5.4486   -1.7512 C   0  0  0  0  0  0  0  0  0  0  0  0
   -2.8011   -6.2603   -1.0229 N   0  0  0  0  0  0  0  0  0  0  0  0
   -2.7403   -4.0104   -3.6680 C   0  0  0  0  0  0  0  0  0  0  0  0
   -1.9768   -3.6645   -4.4641 N   0  0  0  0  0  0  0  0  0  0  0  0
   -6.4164   -1.1598   -6.8447 C   0  0  0  0  0  0  0  0  0  0  0  0
   -6.5810    0.3423   -6.4631 C   0  0  0  0  0  0  0  0  0  0  0  0
   -7.2197    1.0047   -7.6543 C   0  0  0  0  0  0  0  0  0  0  0  0
   -8.4777    0.5524   -7.7145 C   0  0  0  0  0  0  0  0  0  0  0  0
   -8.6462   -0.3965   -6.5486 C   0  0  0  0  0  0  0  0  0  0  0  0
   -7.7848    0.3339   -5.5307 C   0  0  0  0  0  0  0  0  0  0  0  0
   -7.7962   -1.6540   -6.8914 C   0  0  0  0  0  0  0  0  0  0  0  0
    6.8557    3.0820    4.1234 H   0  0  0  0  0  0  0  0  0  0  0  0
    5.2729    5.0185   -1.5916 H   0  0  0  0  0  0  0  0  0  0  0  0
    9.5468    6.5458    0.7240 H   0  0  0  0  0  0  0  0  0  0  0  0
    9.8315    6.5087   -2.7067 H   0  0  0  0  0  0  0  0  0  0  0  0
    9.5318    9.1309   -1.8485 H   0  0  0  0  0  0  0  0  0  0  0  0
    9.9063    9.3148   -4.4710 H   0  0  0  0  0  0  0  0  0  0  0  0
    7.7253    8.5177   -5.6706 H   0  0  0  0  0  0  0  0  0  0  0  0
    5.9571    7.8272   -3.8087 H   0  0  0  0  0  0  0  0  0  0  0  0
    6.9238    8.6438   -1.4482 H   0  0  0  0  0  0  0  0  0  0  0  0
    7.1434    9.9364   -2.6989 H   0  0  0  0  0  0  0  0  0  0  0  0
    7.8317    5.7776   -3.8045 H   0  0  0  0  0  0  0  0  0  0  0  0
    7.7093   -1.4100    2.5316 H   0  0  0  0  0  0  0  0  0  0  0  0
    6.7121   -1.4661    4.0292 H   0  0  0  0  0  0  0  0  0  0  0  0
    5.7147   -1.6226    1.1159 H   0  0  0  0  0  0  0  0  0  0  0  0
    5.5875   -2.8949    2.3825 H   0  0  0  0  0  0  0  0  0  0  0  0
    0.3301    1.1449   -0.3053 H   0  0  0  0  0  0  0  0  0  0  0  0
    0.7439    3.0776   -1.7690 H   0  0  0  0  0  0  0  0  0  0  0  0
    3.6123    2.2647   -4.6644 H   0  0  0  0  0  0  0  0  0  0  0  0
    1.8341    2.6179   -4.5744 H   0  0  0  0  0  0  0  0  0  0  0  0
    2.9337    3.7222   -5.4862 H   0  0  0  0  0  0  0  0  0  0  0  0
    4.9193    2.0626   -1.9561 H   0  0  0  0  0  0  0  0  0  0  0  0
    4.5148    0.1171   -0.4850 H   0  0  0  0  0  0  0  0  0  0  0  0
    2.3652   -2.9991    1.9128 H   0  0  0  0  0  0  0  0  0  0  0  0
    2.8154   -5.2428    1.0382 H   0  0  0  0  0  0  0  0  0  0  0  0
    0.9553   -6.5968   -0.9391 H   0  0  0  0  0  0  0  0  0  0  0  0
    1.0561   -5.8888   -2.6054 H   0  0  0  0  0  0  0  0  0  0  0  0
    1.3979   -7.6401   -2.3453 H   0  0  0  0  0  0  0  0  0  0  0  0
    3.0020   -3.6736   -2.9574 H   0  0  0  0  0  0  0  0  0  0  0  0
    2.5324   -1.4277   -2.1148 H   0  0  0  0  0  0  0  0  0  0  0  0
   -2.7594   -1.1478    6.7064 H   0  0  0  0  0  0  0  0  0  0  0  0
   -2.6503    0.6827    8.3543 H   0  0  0  0  0  0  0  0  0  0  0  0
   -0.4994    2.4760    8.7400 H   0  0  0  0  0  0  0  0  0  0  0  0
   -0.5382    4.2211    9.2172 H   0  0  0  0  0  0  0  0  0  0  0  0
   -0.2065    3.7729    7.4945 H   0  0  0  0  0  0  0  0  0  0  0  0
   -2.4886    3.5585    5.1565 H   0  0  0  0  0  0  0  0  0  0  0  0
   -2.6433    1.7289    3.5043 H   0  0  0  0  0  0  0  0  0  0  0  0
   -4.2138   -2.7963    5.4251 H   0  0  0  0  0  0  0  0  0  0  0  0
   -6.5660   -3.4984    5.1223 H   0  0  0  0  0  0  0  0  0  0  0  0
   -7.8233   -3.0165    1.1269 H   0  0  0  0  0  0  0  0  0  0  0  0
   -7.5967   -4.4256    2.2560 H   0  0  0  0  0  0  0  0  0  0  0  0
   -9.2263   -4.0688    1.5559 H   0  0  0  0  0  0  0  0  0  0  0  0
   -7.0760   -0.4834    2.0922 H   0  0  0  0  0  0  0  0  0  0  0  0
   -4.7189    0.1950    2.3694 H   0  0  0  0  0  0  0  0  0  0  0  0
   -3.0179   -6.1262    4.8014 H   0  0  0  0  0  0  0  0  0  0  0  0
   -4.6030   -5.2724    4.7296 H   0  0  0  0  0  0  0  0  0  0  0  0
   -3.4529   -7.2525    2.6699 H   0  0  0  0  0  0  0  0  0  0  0  0
   -4.9460   -7.4381    3.6576 H   0  0  0  0  0  0  0  0  0  0  0  0
   -6.9285   -5.3782   -0.0883 H   0  0  0  0  0  0  0  0  0  0  0  0
   -9.0300   -3.7801   -4.8176 H   0  0  0  0  0  0  0  0  0  0  0  0
   -4.2037   -2.1169   -4.7639 H   0  0  0  0  0  0  0  0  0  0  0  0
   -5.8191   -1.3615   -7.7619 H   0  0  0  0  0  0  0  0  0  0  0  0
   -5.6693    0.8403   -6.0716 H   0  0  0  0  0  0  0  0  0  0  0  0
   -6.7889    1.7772   -8.2860 H   0  0  0  0  0  0  0  0  0  0  0  0
   -9.2448    0.8883   -8.4040 H   0  0  0  0  0  0  0  0  0  0  0  0
   -9.6947   -0.5949   -6.2428 H   0  0  0  0  0  0  0  0  0  0  0  0
   -8.1593    1.3560   -5.2850 H   0  0  0  0  0  0  0  0  0  0  0  0
   -7.6237   -0.2256   -4.5834 H   0  0  0  0  0  0  0  0  0  0  0  0
   -8.0709   -2.1845   -7.8300 H   0  0  0  0  0  0  0  0  0  0  0  0
  1  2  2  3
  2  3  1  0
  3  4  2  0
  3  5  1  0
  5  6  2  0
  6  7  1  0
  7  8  2  0
  8  9  1  0
  9 10  2  0
 10 11  1  0
 11 12  2  3
 12 13  1  0
 13 14  3  0
 12 15  1  0
 15 16  3  0
  8 17  1  0
 17 18  1  0
 18 19  1  0
 19 20  2  0
 20 21  1  0
 21 22  1  0
 21 23  1  0
  1 24  1  0
 24 25  1  0
 25 26  1  0
 26 27  2  0
 27 28  1  0
 28 29  1  0
 29 30  1  0
 30 31  1  0
 31 32  1  0
 26 33  1  0
 33 34  2  0
 34 35  1  0
 35 36  1  0
 36 37  2  0
 37 38  1  0
 38 39  2  0
 39 40  1  0
 40 41  1  0
 39 42  1  0
 42 43  2  0
 35 44  1  0
 44 45  2  0
 45 46  1  0
 46 47  2  0
 47 48  1  0
 48 49  1  0
 47 50  1  0
 50 51  2  0
 34 52  1  0
 52 53  1  0
 53 54  1  0
 54 55  2  0
 55 56  1  0
 56 57  1  0
 57 58  2  0
 58 59  1  0
 59 60  2  0
 60 61  1  0
 61 62  1  0
 60 63  1  0
 63 64  2  0
 56 65  1  0
 65 66  2  0
 66 67  1  0
 67 68  2  0
 68 69  1  0
 69 70  1  0
 68 71  1  0
 71 72  2  0
 55 73  1  0
 73 74  1  0
 54 75  1  0
 75 76  1  0
 76 77  1  0
 77 78  2  0
 78 79  1  0
 79 80  1  0
 80 81  1  0
 81 82  1  0
 82 83  1  0
 77 84  1  0
 84 85  2  3
 85 86  1  0
 86 87  2  0
 86 88  1  0
 88 89  2  0
 89 90  1  0
 90 91  2  0
 91 92  1  0
 92 93  2  0
 93 94  1  0
 94 95  2  3
 95 96  1  0
 96 97  3  0
 95 98  1  0
 98 99  3  0
 91100  1  0
100101  1  0
101102  1  0
102103  2  0
103104  1  0
104105  1  0
104106  1  0
 11  2  1  0
 23 17  1  0
 28 24  2  0
 74 33  1  0
 79 75  2  0
 94 85  1  0
106100  1  0
 10  5  1  0
 22 18  1  0
 32 27  1  0
 43 36  1  0
 51 44  1  0
 73 52  2  0
 83 78  1  0
 93 88  1  0
105101  1  0
 23  7  1  0
 64 57  1  0
 72 65  1  0
106 90  1  0
  1107  1  0
  6108  1  0
  9109  1  0
 17110  1  0
 18111  1  0
 19112  1  0
 20113  1  0
 21114  1  0
 22115  1  0
 22116  1  0
 23117  1  0
 30118  1  0
 30119  1  0
 31120  1  0
 31121  1  0
 37122  1  0
 38123  1  0
 41124  1  0
 41125  1  0
 41126  1  0
 42127  1  0
 43128  1  0
 45129  1  0
 46130  1  0
 49131  1  0
 49132  1  0
 49133  1  0
 50134  1  0
 51135  1  0
 58136  1  0
 59137  1  0
 62138  1  0
 62139  1  0
 62140  1  0
 63141  1  0
 64142  1  0
 66143  1  0
 67144  1  0
 70145  1  0
 70146  1  0
 70147  1  0
 71148  1  0
 72149  1  0
 81150  1  0
 81151  1  0
 82152  1  0
 82153  1  0
 84154  1  0
 89155  1  0
 92156  1  0
100157  1  0
101158  1  0
102159  1  0
103160  1  0
104161  1  0
105162  1  0
105163  1  0
106164  1  0
M  END

