
     RDKit          3D

156170  0  0  0  0  0  0  0  0999 V2000
    4.4552   -0.1689    4.8254 C   0  0  0  0  0  0  0  0  0  0  0  0
    4.7658    1.0551    4.3406 C   0  0  0  0  0  0  0  0  0  0  0  0
    4.2486    1.6457    3.0932 C   0  0  0  0  0  0  0  0  0  0  0  0
    3.6955    1.0377    2.1431 O   0  0  0  0  0  0  0  0  0  0  0  0
    4.4120    3.0853    3.1695 C   0  0  0  0  0  0  0  0  0  0  0  0
    3.9583    4.0489    2.2374 C   0  0  0  0  0  0  0  0  0  0  0  0
    4.1535    5.3528    2.6421 C   0  0  0  0  0  0  0  0  0  0  0  0
    4.7411    5.7057    3.9022 C   0  0  0  0  0  0  0  0  0  0  0  0
    5.1807    4.7647    4.8220 C   0  0  0  0  0  0  0  0  0  0  0  0
    5.0373    3.4125    4.3988 C   0  0  0  0  0  0  0  0  0  0  0  0
    5.4108    2.1610    5.1069 C   0  0  0  0  0  0  0  0  0  0  0  0
    6.3639    2.0272    6.0622 C   0  0  0  0  0  0  0  0  0  0  0  0
    6.8660    0.7421    6.4663 C   0  0  0  0  0  0  0  0  0  0  0  0
    7.2696   -0.2886    6.7995 N   0  0  0  0  0  0  0  0  0  0  0  0
    7.0726    3.1508    6.6189 C   0  0  0  0  0  0  0  0  0  0  0  0
    7.6575    4.0377    7.0746 N   0  0  0  0  0  0  0  0  0  0  0  0
    4.5677    7.1617    3.5986 C   0  0  0  0  0  0  0  0  0  0  0  0
    3.4086    7.8969    4.3417 C   0  0  0  0  0  0  0  0  0  0  0  0
    3.2016    9.1912    3.5997 C   0  0  0  0  0  0  0  0  0  0  0  0
    2.6697    8.8702    2.4112 C   0  0  0  0  0  0  0  0  0  0  0  0
    2.5312    7.3676    2.3967 C   0  0  0  0  0  0  0  0  0  0  0  0
    2.1697    7.1537    3.8643 C   0  0  0  0  0  0  0  0  0  0  0  0
    3.9784    6.8002    2.3026 C   0  0  0  0  0  0  0  0  0  0  0  0
    3.6328   -1.1285    4.0883 C   0  0  0  0  0  0  0  0  0  0  0  0
    3.9462   -1.7171    2.8790 C   0  0  0  0  0  0  0  0  0  0  0  0
    2.8545   -2.3492    2.2661 C   0  0  0  0  0  0  0  0  0  0  0  0
    3.0311   -2.9778    0.5908 S   0  0  0  0  0  0  0  0  0  0  0  0
    3.7243   -4.5862    1.1088 C   0  0  0  0  0  0  0  0  0  0  0  0
    4.4806   -5.2118   -0.0546 C   0  0  0  0  0  0  0  0  0  0  0  0
    1.6576   -2.2794    3.0047 C   0  0  0  0  0  0  0  0  0  0  0  0
    2.0268   -1.4196    4.4133 S   0  0  0  0  0  0  0  0  0  0  0  0
    0.2866   -2.3685    2.4502 C   0  0  0  0  0  0  0  0  0  0  0  0
   -0.6303   -1.2940    2.5063 C   0  0  0  0  0  0  0  0  0  0  0  0
   -0.8229   -0.4376    3.6481 N   0  0  0  0  0  0  0  0  0  0  0  0
   -1.1423   -1.0264    4.9353 C   0  0  0  0  0  0  0  0  0  0  0  0
   -0.7825   -0.3716    6.1316 C   0  0  0  0  0  0  0  0  0  0  0  0
   -1.0127   -0.9761    7.3736 C   0  0  0  0  0  0  0  0  0  0  0  0
   -1.5964   -2.2468    7.4463 C   0  0  0  0  0  0  0  0  0  0  0  0
   -1.8362   -3.0380    9.0379 S   0  0  0  0  0  0  0  0  0  0  0  0
   -3.5898   -2.5653    9.1797 C   0  0  0  0  0  0  0  0  0  0  0  0
   -1.9752   -2.9001    6.2641 C   0  0  0  0  0  0  0  0  0  0  0  0
   -1.7620   -2.2922    5.0231 C   0  0  0  0  0  0  0  0  0  0  0  0
   -0.8371    0.9873    3.4720 C   0  0  0  0  0  0  0  0  0  0  0  0
   -1.9086    1.7450    3.9648 C   0  0  0  0  0  0  0  0  0  0  0  0
   -1.8989    3.1361    3.8481 C   0  0  0  0  0  0  0  0  0  0  0  0
   -0.8249    3.7860    3.2368 C   0  0  0  0  0  0  0  0  0  0  0  0
   -0.8223    5.5701    3.1075 S   0  0  0  0  0  0  0  0  0  0  0  0
   -1.7015    5.5748    1.5207 C   0  0  0  0  0  0  0  0  0  0  0  0
    0.2505    3.0330    2.7358 C   0  0  0  0  0  0  0  0  0  0  0  0
    0.2381    1.6383    2.8448 C   0  0  0  0  0  0  0  0  0  0  0  0
   -1.5017   -1.3039    1.4213 C   0  0  0  0  0  0  0  0  0  0  0  0
   -2.3101   -0.0680    0.6346 S   0  0  0  0  0  0  0  0  0  0  0  0
   -2.5893   -0.9533   -0.7945 C   0  0  0  0  0  0  0  0  0  0  0  0
   -2.0438   -2.2403   -0.6412 C   0  0  0  0  0  0  0  0  0  0  0  0
   -2.2243   -3.2977   -1.6069 N   0  0  0  0  0  0  0  0  0  0  0  0
   -3.5482   -3.5202   -2.1265 C   0  0  0  0  0  0  0  0  0  0  0  0
   -4.6560   -3.5395   -1.2610 C   0  0  0  0  0  0  0  0  0  0  0  0
   -5.9464   -3.7044   -1.7640 C   0  0  0  0  0  0  0  0  0  0  0  0
   -6.1494   -3.8426   -3.1409 C   0  0  0  0  0  0  0  0  0  0  0  0
   -7.8158   -4.0130   -3.7901 S   0  0  0  0  0  0  0  0  0  0  0  0
   -8.1670   -2.2276   -3.7139 C   0  0  0  0  0  0  0  0  0  0  0  0
   -5.0494   -3.8442   -4.0110 C   0  0  0  0  0  0  0  0  0  0  0  0
   -3.7517   -3.7013   -3.5060 C   0  0  0  0  0  0  0  0  0  0  0  0
   -1.1605   -4.2073   -1.9495 C   0  0  0  0  0  0  0  0  0  0  0  0
    0.1643   -3.7529   -2.0778 C   0  0  0  0  0  0  0  0  0  0  0  0
    1.1980   -4.6591   -2.3429 C   0  0  0  0  0  0  0  0  0  0  0  0
    0.9116   -6.0213   -2.5061 C   0  0  0  0  0  0  0  0  0  0  0  0
    2.2383   -7.1982   -2.7872 S   0  0  0  0  0  0  0  0  0  0  0  0
    2.1811   -7.8638   -1.0894 C   0  0  0  0  0  0  0  0  0  0  0  0
   -0.4108   -6.4661   -2.4473 C   0  0  0  0  0  0  0  0  0  0  0  0
   -1.4384   -5.5681   -2.1602 C   0  0  0  0  0  0  0  0  0  0  0  0
   -1.4060   -2.3820    0.5959 C   0  0  0  0  0  0  0  0  0  0  0  0
   -0.1574   -3.3639    1.1404 S   0  0  0  0  0  0  0  0  0  0  0  0
   -2.5896   -0.2853   -2.0967 C   0  0  0  0  0  0  0  0  0  0  0  0
   -3.5321   -0.4089   -3.1135 C   0  0  0  0  0  0  0  0  0  0  0  0
   -3.1295    0.2073   -4.3146 C   0  0  0  0  0  0  0  0  0  0  0  0
   -4.1490    0.2191   -5.7873 S   0  0  0  0  0  0  0  0  0  0  0  0
   -4.9817    1.8011   -5.4073 C   0  0  0  0  0  0  0  0  0  0  0  0
   -6.0649    1.6141   -4.3599 C   0  0  0  0  0  0  0  0  0  0  0  0
   -1.8566    0.7771   -4.2452 C   0  0  0  0  0  0  0  0  0  0  0  0
   -1.2599    0.5529   -2.6918 S   0  0  0  0  0  0  0  0  0  0  0  0
   -1.1176    1.4752   -5.3041 C   0  0  0  0  0  0  0  0  0  0  0  0
   -0.4413    0.8463   -6.2741 C   0  0  0  0  0  0  0  0  0  0  0  0
    0.5645    1.6317   -7.3634 S   0  0  0  0  0  0  0  0  0  0  0  0
    1.0605    0.2237   -8.1637 C   0  0  0  0  0  0  0  0  0  0  0  0
    1.9371    0.2331   -9.1995 C   0  0  0  0  0  0  0  0  0  0  0  0
    2.4739    1.4891   -9.6809 C   0  0  0  0  0  0  0  0  0  0  0  0
    2.8813    2.4964  -10.0763 N   0  0  0  0  0  0  0  0  0  0  0  0
    2.2996   -0.9455   -9.9431 C   0  0  0  0  0  0  0  0  0  0  0  0
    2.5836   -1.8899  -10.5588 N   0  0  0  0  0  0  0  0  0  0  0  0
    0.4532   -0.8688   -7.5936 N   0  0  0  0  0  0  0  0  0  0  0  0
    0.6350   -2.2405   -7.9825 C   0  0  0  0  0  0  0  0  0  0  0  0
    1.5988   -3.0283   -7.3365 C   0  0  0  0  0  0  0  0  0  0  0  0
    1.7489   -4.3748   -7.6833 C   0  0  0  0  0  0  0  0  0  0  0  0
    0.9314   -4.9383   -8.6704 C   0  0  0  0  0  0  0  0  0  0  0  0
   -0.0404   -4.1590   -9.3088 C   0  0  0  0  0  0  0  0  0  0  0  0
   -0.1939   -2.8118   -8.9604 C   0  0  0  0  0  0  0  0  0  0  0  0
   -0.3623   -0.5253   -6.5474 C   0  0  0  0  0  0  0  0  0  0  0  0
   -0.9959   -1.3974   -5.8869 O   0  0  0  0  0  0  0  0  0  0  0  0
    4.6564   -0.4112    5.8540 H   0  0  0  0  0  0  0  0  0  0  0  0
    3.4641    3.7934    1.3051 H   0  0  0  0  0  0  0  0  0  0  0  0
    5.5698    5.0642    5.7846 H   0  0  0  0  0  0  0  0  0  0  0  0
    5.5287    7.7184    3.5387 H   0  0  0  0  0  0  0  0  0  0  0  0
    3.5212    7.9891    5.4389 H   0  0  0  0  0  0  0  0  0  0  0  0
    3.3701   10.1909    3.9717 H   0  0  0  0  0  0  0  0  0  0  0  0
    2.3179    9.5663    1.6601 H   0  0  0  0  0  0  0  0  0  0  0  0
    1.8031    6.9690    1.6595 H   0  0  0  0  0  0  0  0  0  0  0  0
    1.2117    7.6523    4.1544 H   0  0  0  0  0  0  0  0  0  0  0  0
    2.1203    6.0829    4.1689 H   0  0  0  0  0  0  0  0  0  0  0  0
    4.5660    7.1262    1.4172 H   0  0  0  0  0  0  0  0  0  0  0  0
    4.9137   -1.6109    2.4043 H   0  0  0  0  0  0  0  0  0  0  0  0
    4.4236   -4.4598    1.9615 H   0  0  0  0  0  0  0  0  0  0  0  0
    2.8971   -5.2532    1.4232 H   0  0  0  0  0  0  0  0  0  0  0  0
    5.3421   -4.5721   -0.3344 H   0  0  0  0  0  0  0  0  0  0  0  0
    4.8584   -6.2138    0.2440 H   0  0  0  0  0  0  0  0  0  0  0  0
    3.8109   -5.3251   -0.9294 H   0  0  0  0  0  0  0  0  0  0  0  0
   -0.2841    0.5897    6.1100 H   0  0  0  0  0  0  0  0  0  0  0  0
   -0.7184   -0.4645    8.2822 H   0  0  0  0  0  0  0  0  0  0  0  0
   -4.1807   -3.0855    8.3950 H   0  0  0  0  0  0  0  0  0  0  0  0
   -3.9695   -2.8760   10.1781 H   0  0  0  0  0  0  0  0  0  0  0  0
   -3.7168   -1.4645    9.0752 H   0  0  0  0  0  0  0  0  0  0  0  0
   -2.4465   -3.8726    6.3089 H   0  0  0  0  0  0  0  0  0  0  0  0
   -2.0745   -2.8119    4.1272 H   0  0  0  0  0  0  0  0  0  0  0  0
   -2.7574    1.2594    4.4256 H   0  0  0  0  0  0  0  0  0  0  0  0
   -2.7342    3.7134    4.2305 H   0  0  0  0  0  0  0  0  0  0  0  0
   -1.0850    5.0680    0.7499 H   0  0  0  0  0  0  0  0  0  0  0  0
   -2.6818    5.0612    1.6136 H   0  0  0  0  0  0  0  0  0  0  0  0
   -1.8767    6.6250    1.2156 H   0  0  0  0  0  0  0  0  0  0  0  0
    1.0953    3.5372    2.2742 H   0  0  0  0  0  0  0  0  0  0  0  0
    1.0773    1.0654    2.4692 H   0  0  0  0  0  0  0  0  0  0  0  0
   -4.5112   -3.4321   -0.1946 H   0  0  0  0  0  0  0  0  0  0  0  0
   -6.7858   -3.7188   -1.0806 H   0  0  0  0  0  0  0  0  0  0  0  0
   -7.3874   -1.6591   -4.2654 H   0  0  0  0  0  0  0  0  0  0  0  0
   -9.1558   -2.0322   -4.1792 H   0  0  0  0  0  0  0  0  0  0  0  0
   -8.1989   -1.9033   -2.6536 H   0  0  0  0  0  0  0  0  0  0  0  0
   -5.2061   -3.9529   -5.0769 H   0  0  0  0  0  0  0  0  0  0  0  0
   -2.9180   -3.6635   -4.1894 H   0  0  0  0  0  0  0  0  0  0  0  0
    0.3928   -2.7008   -1.9472 H   0  0  0  0  0  0  0  0  0  0  0  0
    2.2146   -4.2944   -2.4114 H   0  0  0  0  0  0  0  0  0  0  0  0
    3.0729   -8.4914   -0.9086 H   0  0  0  0  0  0  0  0  0  0  0  0
    2.1696   -7.0424   -0.3434 H   0  0  0  0  0  0  0  0  0  0  0  0
    1.2729   -8.4934   -0.9565 H   0  0  0  0  0  0  0  0  0  0  0  0
   -0.6418   -7.5145   -2.5794 H   0  0  0  0  0  0  0  0  0  0  0  0
   -2.4455   -5.9490   -2.0735 H   0  0  0  0  0  0  0  0  0  0  0  0
   -4.4786   -0.9176   -3.0001 H   0  0  0  0  0  0  0  0  0  0  0  0
   -5.4435    2.1715   -6.3445 H   0  0  0  0  0  0  0  0  0  0  0  0
   -4.2446    2.5585   -5.0661 H   0  0  0  0  0  0  0  0  0  0  0  0
   -6.7077    2.5189   -4.3023 H   0  0  0  0  0  0  0  0  0  0  0  0
   -6.7086    0.7456   -4.6113 H   0  0  0  0  0  0  0  0  0  0  0  0
   -5.6133    1.4577   -3.3572 H   0  0  0  0  0  0  0  0  0  0  0  0
   -0.9923    2.5465   -5.2059 H   0  0  0  0  0  0  0  0  0  0  0  0
    2.2249   -2.5977   -6.5653 H   0  0  0  0  0  0  0  0  0  0  0  0
    2.4873   -4.9811   -7.1785 H   0  0  0  0  0  0  0  0  0  0  0  0
    1.0611   -5.9740   -8.9465 H   0  0  0  0  0  0  0  0  0  0  0  0
   -0.6806   -4.5992  -10.0614 H   0  0  0  0  0  0  0  0  0  0  0  0
   -0.9465   -2.2106   -9.4530 H   0  0  0  0  0  0  0  0  0  0  0  0
  1  2  2  3
  2  3  1  0
  3  4  2  0
  3  5  1  0
  5  6  2  0
  6  7  1  0
  7  8  2  0
  8  9  1  0
  9 10  2  0
 10 11  1  0
 11 12  2  3
 12 13  1  0
 13 14  3  0
 12 15  1  0
 15 16  3  0
  8 17  1  0
 17 18  1  0
 18 19  1  0
 19 20  2  0
 20 21  1  0
 21 22  1  0
 21 23  1  0
  1 24  1  0
 24 25  2  0
 25 26  1  0
 26 27  1  0
 27 28  1  0
 28 29  1  0
 26 30  2  0
 30 31  1  0
 30 32  1  0
 32 33  2  0
 33 34  1  0
 34 35  1  0
 35 36  2  0
 36 37  1  0
 37 38  2  0
 38 39  1  0
 39 40  1  0
 38 41  1  0
 41 42  2  0
 34 43  1  0
 43 44  2  0
 44 45  1  0
 45 46  2  0
 46 47  1  0
 47 48  1  0
 46 49  1  0
 49 50  2  0
 33 51  1  0
 51 52  1  0
 52 53  1  0
 53 54  2  0
 54 55  1  0
 55 56  1  0
 56 57  2  0
 57 58  1  0
 58 59  2  0
 59 60  1  0
 60 61  1  0
 59 62  1  0
 62 63  2  0
 55 64  1  0
 64 65  2  0
 65 66  1  0
 66 67  2  0
 67 68  1  0
 68 69  1  0
 67 70  1  0
 70 71  2  0
 54 72  1  0
 72 73  1  0
 53 74  1  0
 74 75  2  0
 75 76  1  0
 76 77  1  0
 77 78  1  0
 78 79  1  0
 76 80  2  0
 80 81  1  0
 80 82  1  0
 82 83  2  3
 83 84  1  0
 84 85  1  0
 85 86  2  3
 86 87  1  0
 87 88  3  0
 86 89  1  0
 89 90  3  0
 85 91  1  0
 91 92  1  0
 92 93  2  0
 93 94  1  0
 94 95  2  0
 95 96  1  0
 96 97  2  0
 91 98  1  0
 98 99  2  0
 11  2  1  0
 23 17  1  0
 31 24  1  0
 73 32  1  0
 81 74  1  0
 98 83  1  0
 10  5  1  0
 22 18  1  0
 42 35  1  0
 50 43  1  0
 72 51  2  0
 97 92  1  0
 23  7  1  0
 63 56  1  0
 71 64  1  0
  1100  1  0
  6101  1  0
  9102  1  0
 17103  1  0
 18104  1  0
 19105  1  0
 20106  1  0
 21107  1  0
 22108  1  0
 22109  1  0
 23110  1  0
 25111  1  0
 28112  1  0
 28113  1  0
 29114  1  0
 29115  1  0
 29116  1  0
 36117  1  0
 37118  1  0
 40119  1  0
 40120  1  0
 40121  1  0
 41122  1  0
 42123  1  0
 44124  1  0
 45125  1  0
 48126  1  0
 48127  1  0
 48128  1  0
 49129  1  0
 50130  1  0
 57131  1  0
 58132  1  0
 61133  1  0
 61134  1  0
 61135  1  0
 62136  1  0
 63137  1  0
 65138  1  0
 66139  1  0
 69140  1  0
 69141  1  0
 69142  1  0
 70143  1  0
 71144  1  0
 75145  1  0
 78146  1  0
 78147  1  0
 79148  1  0
 79149  1  0
 79150  1  0
 82151  1  0
 93152  1  0
 94153  1  0
 95154  1  0
 96155  1  0
 97156  1  0
M  END

