
     RDKit          3D

140152  0  0  0  0  0  0  0  0999 V2000
    3.2814   -1.5114    4.7460 C   0  0  0  0  0  0  0  0  0  0  0  0
    4.1204   -0.5518    4.2980 C   0  0  0  0  0  0  0  0  0  0  0  0
    3.7659    0.5011    3.3305 C   0  0  0  0  0  0  0  0  0  0  0  0
    2.6090    0.8214    2.9579 O   0  0  0  0  0  0  0  0  0  0  0  0
    4.9770    1.0670    2.7890 C   0  0  0  0  0  0  0  0  0  0  0  0
    5.0736    1.9930    1.7253 C   0  0  0  0  0  0  0  0  0  0  0  0
    6.3682    2.2458    1.3198 C   0  0  0  0  0  0  0  0  0  0  0  0
    7.5099    1.6216    1.9124 C   0  0  0  0  0  0  0  0  0  0  0  0
    7.4231    0.7065    2.9505 C   0  0  0  0  0  0  0  0  0  0  0  0
    6.0961    0.4472    3.4036 C   0  0  0  0  0  0  0  0  0  0  0  0
    5.6101   -0.5074    4.4447 C   0  0  0  0  0  0  0  0  0  0  0  0
    6.3471   -1.0655    5.4420 C   0  0  0  0  0  0  0  0  0  0  0  0
    5.7446   -1.7777    6.5395 C   0  0  0  0  0  0  0  0  0  0  0  0
    5.2738   -2.3500    7.4274 N   0  0  0  0  0  0  0  0  0  0  0  0
    7.7695   -0.8775    5.5541 C   0  0  0  0  0  0  0  0  0  0  0  0
    8.9139   -0.7356    5.6587 N   0  0  0  0  0  0  0  0  0  0  0  0
    8.4174    2.3279    0.9481 C   0  0  0  0  0  0  0  0  0  0  0  0
    9.0269    1.4960   -0.2206 C   0  0  0  0  0  0  0  0  0  0  0  0
    8.0817    0.3816   -0.6090 C   0  0  0  0  0  0  0  0  0  0  0  0
    7.0172    0.9636   -1.1630 C   0  0  0  0  0  0  0  0  0  0  0  0
    7.2703    2.4519   -1.1293 C   0  0  0  0  0  0  0  0  0  0  0  0
    8.7677    2.4426   -1.3779 C   0  0  0  0  0  0  0  0  0  0  0  0
    7.2453    2.9667    0.3411 C   0  0  0  0  0  0  0  0  0  0  0  0
    1.8658   -1.5543    4.3599 C   0  0  0  0  0  0  0  0  0  0  0  0
    0.8888   -0.6896    4.8351 C   0  0  0  0  0  0  0  0  0  0  0  0
   -0.2075   -0.5663    3.9700 C   0  0  0  0  0  0  0  0  0  0  0  0
   -1.4717    0.6842    4.2245 S   0  0  0  0  0  0  0  0  0  0  0  0
   -0.5019    2.0513    3.5128 C   0  0  0  0  0  0  0  0  0  0  0  0
   -1.4206    3.2220    3.1848 C   0  0  0  0  0  0  0  0  0  0  0  0
   -0.1308   -1.3789    2.8351 C   0  0  0  0  0  0  0  0  0  0  0  0
    1.3461   -2.1795    2.8913 S   0  0  0  0  0  0  0  0  0  0  0  0
   -0.7700   -1.0650    1.5570 C   0  0  0  0  0  0  0  0  0  0  0  0
   -1.9468   -1.6156    1.0115 C   0  0  0  0  0  0  0  0  0  0  0  0
   -2.7162   -2.6717    1.6151 N   0  0  0  0  0  0  0  0  0  0  0  0
   -2.9866   -3.8799    0.8721 C   0  0  0  0  0  0  0  0  0  0  0  0
   -2.0089   -4.4280    0.0203 C   0  0  0  0  0  0  0  0  0  0  0  0
   -2.2847   -5.5714   -0.7307 C   0  0  0  0  0  0  0  0  0  0  0  0
   -3.5402   -6.1806   -0.6426 C   0  0  0  0  0  0  0  0  0  0  0  0
   -3.8923   -7.6459   -1.6186 S   0  0  0  0  0  0  0  0  0  0  0  0
   -4.5054   -6.6929   -3.0438 C   0  0  0  0  0  0  0  0  0  0  0  0
   -4.5111   -5.6588    0.2185 C   0  0  0  0  0  0  0  0  0  0  0  0
   -4.2360   -4.5155    0.9724 C   0  0  0  0  0  0  0  0  0  0  0  0
   -3.1557   -2.5468    2.9774 C   0  0  0  0  0  0  0  0  0  0  0  0
   -3.8687   -1.4106    3.3876 C   0  0  0  0  0  0  0  0  0  0  0  0
   -4.2286   -1.2538    4.7295 C   0  0  0  0  0  0  0  0  0  0  0  0
   -3.8842   -2.2327    5.6672 C   0  0  0  0  0  0  0  0  0  0  0  0
   -4.2485   -1.9733    7.4018 S   0  0  0  0  0  0  0  0  0  0  0  0
   -2.6179   -1.2355    7.7495 C   0  0  0  0  0  0  0  0  0  0  0  0
   -3.2190   -3.3926    5.2527 C   0  0  0  0  0  0  0  0  0  0  0  0
   -2.8597   -3.5517    3.9112 C   0  0  0  0  0  0  0  0  0  0  0  0
   -2.1361   -1.1635   -0.2994 C   0  0  0  0  0  0  0  0  0  0  0  0
   -3.2736   -1.4263   -1.5065 S   0  0  0  0  0  0  0  0  0  0  0  0
   -2.4620   -0.4675   -2.6734 C   0  0  0  0  0  0  0  0  0  0  0  0
   -1.2842    0.0392   -2.0980 C   0  0  0  0  0  0  0  0  0  0  0  0
   -0.2337    0.7250   -2.7972 N   0  0  0  0  0  0  0  0  0  0  0  0
   -0.1334    2.1719   -2.7541 C   0  0  0  0  0  0  0  0  0  0  0  0
   -0.9979    2.9421   -1.9461 C   0  0  0  0  0  0  0  0  0  0  0  0
   -0.8576    4.3310   -1.8779 C   0  0  0  0  0  0  0  0  0  0  0  0
    0.1494    4.9719   -2.6040 C   0  0  0  0  0  0  0  0  0  0  0  0
    0.3577    6.7499   -2.4857 S   0  0  0  0  0  0  0  0  0  0  0  0
    1.4429    6.6493   -1.0260 C   0  0  0  0  0  0  0  0  0  0  0  0
    0.9904    4.2270   -3.4350 C   0  0  0  0  0  0  0  0  0  0  0  0
    0.8432    2.8412   -3.5185 C   0  0  0  0  0  0  0  0  0  0  0  0
    0.9062   -0.0773   -3.1584 C   0  0  0  0  0  0  0  0  0  0  0  0
    2.1176    0.0656   -2.4615 C   0  0  0  0  0  0  0  0  0  0  0  0
    3.2073   -0.7480   -2.7724 C   0  0  0  0  0  0  0  0  0  0  0  0
    3.1057   -1.6983   -3.7927 C   0  0  0  0  0  0  0  0  0  0  0  0
    4.5129   -2.7387   -4.1846 S   0  0  0  0  0  0  0  0  0  0  0  0
    5.1665   -1.5926   -5.4364 C   0  0  0  0  0  0  0  0  0  0  0  0
    1.9011   -1.8483   -4.4889 C   0  0  0  0  0  0  0  0  0  0  0  0
    0.8005   -1.0497   -4.1660 C   0  0  0  0  0  0  0  0  0  0  0  0
   -1.1575   -0.3571   -0.7771 C   0  0  0  0  0  0  0  0  0  0  0  0
    0.0142   -0.1139    0.3827 S   0  0  0  0  0  0  0  0  0  0  0  0
   -2.9885   -0.1643   -4.0181 C   0  0  0  0  0  0  0  0  0  0  0  0
   -4.2134   -0.5897   -4.5228 C   0  0  0  0  0  0  0  0  0  0  0  0
   -4.5146   -0.0522   -5.7825 C   0  0  0  0  0  0  0  0  0  0  0  0
   -6.0535   -0.4180   -6.6368 S   0  0  0  0  0  0  0  0  0  0  0  0
   -7.0051    0.9306   -5.8476 C   0  0  0  0  0  0  0  0  0  0  0  0
   -7.6857    0.4362   -4.5776 C   0  0  0  0  0  0  0  0  0  0  0  0
   -3.5082    0.7674   -6.2955 C   0  0  0  0  0  0  0  0  0  0  0  0
   -2.2816    0.8620   -5.1493 S   0  0  0  0  0  0  0  0  0  0  0  0
   -3.5071    1.4818   -7.5912 C   0  0  0  0  0  0  0  0  0  0  0  0
   -2.5105    1.3265   -8.4884 C   0  0  0  0  0  0  0  0  0  0  0  0
   -1.4328    0.3903   -8.2705 C   0  0  0  0  0  0  0  0  0  0  0  0
   -0.5686   -0.3596   -8.0931 N   0  0  0  0  0  0  0  0  0  0  0  0
   -2.4917    2.0634   -9.7314 C   0  0  0  0  0  0  0  0  0  0  0  0
   -2.4740    2.6547  -10.7263 N   0  0  0  0  0  0  0  0  0  0  0  0
   -4.5982    2.3936   -7.8546 C   0  0  0  0  0  0  0  0  0  0  0  0
   -5.4668    3.1301   -8.0644 N   0  0  0  0  0  0  0  0  0  0  0  0
    3.6537   -2.3701    5.2779 H   0  0  0  0  0  0  0  0  0  0  0  0
    4.2121    2.4318    1.2377 H   0  0  0  0  0  0  0  0  0  0  0  0
    8.3060    0.2059    3.3123 H   0  0  0  0  0  0  0  0  0  0  0  0
    9.1168    3.0450    1.4306 H   0  0  0  0  0  0  0  0  0  0  0  0
   10.0859    1.1916   -0.0873 H   0  0  0  0  0  0  0  0  0  0  0  0
    8.2576   -0.6846   -0.5356 H   0  0  0  0  0  0  0  0  0  0  0  0
    6.1820    0.4485   -1.6211 H   0  0  0  0  0  0  0  0  0  0  0  0
    6.6719    3.0474   -1.8488 H   0  0  0  0  0  0  0  0  0  0  0  0
    9.2431    3.4437   -1.2544 H   0  0  0  0  0  0  0  0  0  0  0  0
    9.0477    2.0191   -2.3742 H   0  0  0  0  0  0  0  0  0  0  0  0
    7.2322    4.0728    0.4512 H   0  0  0  0  0  0  0  0  0  0  0  0
    1.0333   -0.0527    5.7014 H   0  0  0  0  0  0  0  0  0  0  0  0
    0.0092    1.7277    2.5840 H   0  0  0  0  0  0  0  0  0  0  0  0
    0.2673    2.3745    4.2467 H   0  0  0  0  0  0  0  0  0  0  0  0
   -0.8201    4.0876    2.8416 H   0  0  0  0  0  0  0  0  0  0  0  0
   -2.1234    2.9339    2.3769 H   0  0  0  0  0  0  0  0  0  0  0  0
   -1.9973    3.5207    4.0816 H   0  0  0  0  0  0  0  0  0  0  0  0
   -1.0321   -3.9686   -0.0616 H   0  0  0  0  0  0  0  0  0  0  0  0
   -1.5236   -5.9808   -1.3847 H   0  0  0  0  0  0  0  0  0  0  0  0
   -4.7838   -7.3946   -3.8569 H   0  0  0  0  0  0  0  0  0  0  0  0
   -3.7166   -6.0071   -3.4159 H   0  0  0  0  0  0  0  0  0  0  0  0
   -5.4028   -6.1087   -2.7515 H   0  0  0  0  0  0  0  0  0  0  0  0
   -5.4807   -6.1331    0.2957 H   0  0  0  0  0  0  0  0  0  0  0  0
   -5.0052   -4.1122    1.6187 H   0  0  0  0  0  0  0  0  0  0  0  0
   -4.1168   -0.6331    2.6749 H   0  0  0  0  0  0  0  0  0  0  0  0
   -4.7461   -0.3553    5.0435 H   0  0  0  0  0  0  0  0  0  0  0  0
   -2.4669   -0.3273    7.1284 H   0  0  0  0  0  0  0  0  0  0  0  0
   -2.5663   -0.9487    8.8199 H   0  0  0  0  0  0  0  0  0  0  0  0
   -1.8146   -1.9723    7.5330 H   0  0  0  0  0  0  0  0  0  0  0  0
   -2.9565   -4.1564    5.9716 H   0  0  0  0  0  0  0  0  0  0  0  0
   -2.3195   -4.4383    3.6033 H   0  0  0  0  0  0  0  0  0  0  0  0
   -1.7767    2.4767   -1.3560 H   0  0  0  0  0  0  0  0  0  0  0  0
   -1.5223    4.9057   -1.2477 H   0  0  0  0  0  0  0  0  0  0  0  0
    2.3405    6.0343   -1.2529 H   0  0  0  0  0  0  0  0  0  0  0  0
    1.7705    7.6722   -0.7477 H   0  0  0  0  0  0  0  0  0  0  0  0
    0.8896    6.2037   -0.1722 H   0  0  0  0  0  0  0  0  0  0  0  0
    1.7606    4.7199   -4.0156 H   0  0  0  0  0  0  0  0  0  0  0  0
    1.5010    2.2919   -4.1791 H   0  0  0  0  0  0  0  0  0  0  0  0
    2.2036    0.7933   -1.6630 H   0  0  0  0  0  0  0  0  0  0  0  0
    4.1299   -0.6406   -2.2169 H   0  0  0  0  0  0  0  0  0  0  0  0
    6.1280   -1.9883   -5.8232 H   0  0  0  0  0  0  0  0  0  0  0  0
    5.3398   -0.5913   -4.9886 H   0  0  0  0  0  0  0  0  0  0  0  0
    4.4482   -1.5082   -6.2778 H   0  0  0  0  0  0  0  0  0  0  0  0
    1.8165   -2.5873   -5.2742 H   0  0  0  0  0  0  0  0  0  0  0  0
   -0.1297   -1.1823   -4.7024 H   0  0  0  0  0  0  0  0  0  0  0  0
   -4.8836   -1.2533   -3.9890 H   0  0  0  0  0  0  0  0  0  0  0  0
   -7.7785    1.2764   -6.5655 H   0  0  0  0  0  0  0  0  0  0  0  0
   -6.3514    1.7996   -5.6107 H   0  0  0  0  0  0  0  0  0  0  0  0
   -8.2584    1.2651   -4.1149 H   0  0  0  0  0  0  0  0  0  0  0  0
   -6.9334    0.0797   -3.8453 H   0  0  0  0  0  0  0  0  0  0  0  0
   -8.3841   -0.3918   -4.8182 H   0  0  0  0  0  0  0  0  0  0  0  0
  1  2  2  3
  2  3  1  0
  3  4  2  0
  3  5  1  0
  5  6  2  0
  6  7  1  0
  7  8  2  0
  8  9  1  0
  9 10  2  0
 10 11  1  0
 11 12  2  3
 12 13  1  0
 13 14  3  0
 12 15  1  0
 15 16  3  0
  8 17  1  0
 17 18  1  0
 18 19  1  0
 19 20  2  0
 20 21  1  0
 21 22  1  0
 21 23  1  0
  1 24  1  0
 24 25  2  0
 25 26  1  0
 26 27  1  0
 27 28  1  0
 28 29  1  0
 26 30  2  0
 30 31  1  0
 30 32  1  0
 32 33  2  0
 33 34  1  0
 34 35  1  0
 35 36  2  0
 36 37  1  0
 37 38  2  0
 38 39  1  0
 39 40  1  0
 38 41  1  0
 41 42  2  0
 34 43  1  0
 43 44  2  0
 44 45  1  0
 45 46  2  0
 46 47  1  0
 47 48  1  0
 46 49  1  0
 49 50  2  0
 33 51  1  0
 51 52  1  0
 52 53  1  0
 53 54  2  0
 54 55  1  0
 55 56  1  0
 56 57  2  0
 57 58  1  0
 58 59  2  0
 59 60  1  0
 60 61  1  0
 59 62  1  0
 62 63  2  0
 55 64  1  0
 64 65  2  0
 65 66  1  0
 66 67  2  0
 67 68  1  0
 68 69  1  0
 67 70  1  0
 70 71  2  0
 54 72  1  0
 72 73  1  0
 53 74  1  0
 74 75  2  0
 75 76  1  0
 76 77  1  0
 77 78  1  0
 78 79  1  0
 76 80  2  0
 80 81  1  0
 80 82  1  0
 82 83  2  3
 83 84  1  0
 84 85  3  0
 83 86  1  0
 86 87  3  0
 82 88  1  0
 88 89  3  0
 11  2  1  0
 23 17  1  0
 31 24  1  0
 73 32  1  0
 81 74  1  0
 10  5  1  0
 22 18  1  0
 42 35  1  0
 50 43  1  0
 72 51  2  0
 23  7  1  0
 63 56  1  0
 71 64  1  0
  1 90  1  0
  6 91  1  0
  9 92  1  0
 17 93  1  0
 18 94  1  0
 19 95  1  0
 20 96  1  0
 21 97  1  0
 22 98  1  0
 22 99  1  0
 23100  1  0
 25101  1  0
 28102  1  0
 28103  1  0
 29104  1  0
 29105  1  0
 29106  1  0
 36107  1  0
 37108  1  0
 40109  1  0
 40110  1  0
 40111  1  0
 41112  1  0
 42113  1  0
 44114  1  0
 45115  1  0
 48116  1  0
 48117  1  0
 48118  1  0
 49119  1  0
 50120  1  0
 57121  1  0
 58122  1  0
 61123  1  0
 61124  1  0
 61125  1  0
 62126  1  0
 63127  1  0
 65128  1  0
 66129  1  0
 69130  1  0
 69131  1  0
 69132  1  0
 70133  1  0
 71134  1  0
 75135  1  0
 78136  1  0
 78137  1  0
 79138  1  0
 79139  1  0
 79140  1  0
M  END

