
     RDKit          3D

127143  0  0  0  0  0  0  0  0999 V2000
    5.2612   -1.3119   -5.1635 C   0  0  0  0  0  0  0  0  0  0  0  0
    4.0010   -1.7597   -5.3185 C   0  0  0  0  0  0  0  0  0  0  0  0
    2.8737   -1.4645   -4.4237 C   0  0  0  0  0  0  0  0  0  0  0  0
    2.8267   -0.5552   -3.5526 O   0  0  0  0  0  0  0  0  0  0  0  0
    1.8012   -2.3928   -4.7073 C   0  0  0  0  0  0  0  0  0  0  0  0
    0.5774   -2.5223   -4.0079 C   0  0  0  0  0  0  0  0  0  0  0  0
   -0.2260   -3.5477   -4.4706 C   0  0  0  0  0  0  0  0  0  0  0  0
    0.1548   -4.4138   -5.5458 C   0  0  0  0  0  0  0  0  0  0  0  0
    1.3532   -4.2988   -6.2280 C   0  0  0  0  0  0  0  0  0  0  0  0
    2.1830   -3.2257   -5.7917 C   0  0  0  0  0  0  0  0  0  0  0  0
    3.5212   -2.7932   -6.2917 C   0  0  0  0  0  0  0  0  0  0  0  0
    4.0669   -3.0865   -7.5029 C   0  0  0  0  0  0  0  0  0  0  0  0
    3.4547   -4.0003   -8.4334 C   0  0  0  0  0  0  0  0  0  0  0  0
    2.9766   -4.7296   -9.1948 N   0  0  0  0  0  0  0  0  0  0  0  0
    5.2304   -2.4086   -8.0126 C   0  0  0  0  0  0  0  0  0  0  0  0
    6.1629   -1.8688   -8.4343 N   0  0  0  0  0  0  0  0  0  0  0  0
   -1.1301   -5.1748   -5.4115 C   0  0  0  0  0  0  0  0  0  0  0  0
   -2.2100   -4.9107   -6.5022 C   0  0  0  0  0  0  0  0  0  0  0  0
   -3.5016   -5.4562   -5.9445 C   0  0  0  0  0  0  0  0  0  0  0  0
   -3.8594   -4.6398   -4.9459 C   0  0  0  0  0  0  0  0  0  0  0  0
   -2.7959   -3.5716   -4.8626 C   0  0  0  0  0  0  0  0  0  0  0  0
   -2.4988   -3.4266   -6.3471 C   0  0  0  0  0  0  0  0  0  0  0  0
   -1.5235   -4.2828   -4.3146 C   0  0  0  0  0  0  0  0  0  0  0  0
    5.6546   -0.3503   -4.1282 C   0  0  0  0  0  0  0  0  0  0  0  0
    5.8097   -0.7206   -2.4647 S   0  0  0  0  0  0  0  0  0  0  0  0
    6.2478    0.8491   -2.0819 C   0  0  0  0  0  0  0  0  0  0  0  0
    6.1316    1.6625   -0.9893 C   0  0  0  0  0  0  0  0  0  0  0  0
    6.0028    2.9323   -1.4635 C   0  0  0  0  0  0  0  0  0  0  0  0
    6.0570    2.9705   -2.8227 N   0  0  0  0  0  0  0  0  0  0  0  0
    5.5986    4.0597   -3.6879 C   0  0  0  0  0  0  0  0  0  0  0  0
    4.0837    4.0079   -3.8642 C   0  0  0  0  0  0  0  0  0  0  0  0
    6.1935    1.6619   -3.1697 C   0  0  0  0  0  0  0  0  0  0  0  0
    5.8726    1.0140   -4.3612 C   0  0  0  0  0  0  0  0  0  0  0  0
    5.3892    3.8262   -0.5800 C   0  0  0  0  0  0  0  0  0  0  0  0
    4.9972    3.1895    0.6185 C   0  0  0  0  0  0  0  0  0  0  0  0
    5.3928    1.5240    0.4965 S   0  0  0  0  0  0  0  0  0  0  0  0
    4.1394    3.7616    1.7039 C   0  0  0  0  0  0  0  0  0  0  0  0
    3.8146    3.0038    2.8424 C   0  0  0  0  0  0  0  0  0  0  0  0
    4.2407    1.7772    3.1974 N   0  0  0  0  0  0  0  0  0  0  0  0
    3.5521    1.4685    4.2919 N   0  0  0  0  0  0  0  0  0  0  0  0
    3.6877    0.2039    5.0035 C   0  0  0  0  0  0  0  0  0  0  0  0
    2.4070   -0.6150    4.8817 C   0  0  0  0  0  0  0  0  0  0  0  0
    2.6962    2.4182    4.6478 N   0  0  0  0  0  0  0  0  0  0  0  0
    2.8714    3.3975    3.7436 C   0  0  0  0  0  0  0  0  0  0  0  0
    2.1537    4.5843    3.6142 C   0  0  0  0  0  0  0  0  0  0  0  0
    2.5163    5.4318    2.5467 C   0  0  0  0  0  0  0  0  0  0  0  0
    3.4989    5.0340    1.6056 C   0  0  0  0  0  0  0  0  0  0  0  0
    3.7575    5.8840    0.5851 F   0  0  0  0  0  0  0  0  0  0  0  0
    1.8821    6.6202    2.3800 F   0  0  0  0  0  0  0  0  0  0  0  0
    0.9233    4.7834    4.4171 C   0  0  0  0  0  0  0  0  0  0  0  0
   -0.3364    4.7767    3.7812 C   0  0  0  0  0  0  0  0  0  0  0  0
   -0.4535    4.9546    2.4347 N   0  0  0  0  0  0  0  0  0  0  0  0
   -1.6556    4.8727    1.8053 C   0  0  0  0  0  0  0  0  0  0  0  0
   -2.7991    4.5677    2.5439 C   0  0  0  0  0  0  0  0  0  0  0  0
   -4.0389    4.4561    1.9061 O   0  0  0  0  0  0  0  0  0  0  0  0
   -5.2424    4.1068    2.5922 C   0  0  0  0  0  0  0  0  0  0  0  0
   -5.2580    2.6207    2.9418 C   0  0  0  0  0  0  0  0  0  0  0  0
   -2.6867    4.3687    3.8822 N   0  0  0  0  0  0  0  0  0  0  0  0
   -1.4915    4.4661    4.5240 C   0  0  0  0  0  0  0  0  0  0  0  0
   -1.3889    4.1399    5.8851 C   0  0  0  0  0  0  0  0  0  0  0  0
   -0.1669    4.3129    6.5460 C   0  0  0  0  0  0  0  0  0  0  0  0
    0.9820    4.6400    5.8184 C   0  0  0  0  0  0  0  0  0  0  0  0
    2.1782    4.6886    6.4600 F   0  0  0  0  0  0  0  0  0  0  0  0
   -0.0596    4.0254    7.8686 F   0  0  0  0  0  0  0  0  0  0  0  0
   -2.4745    3.3767    6.5276 C   0  0  0  0  0  0  0  0  0  0  0  0
   -2.7385    2.1021    6.1663 C   0  0  0  0  0  0  0  0  0  0  0  0
   -1.8375    1.2402    5.3820 C   0  0  0  0  0  0  0  0  0  0  0  0
   -0.7875    1.5953    4.7845 O   0  0  0  0  0  0  0  0  0  0  0  0
   -2.3099   -0.1195    5.4607 C   0  0  0  0  0  0  0  0  0  0  0  0
   -1.6875   -1.2642    4.9103 C   0  0  0  0  0  0  0  0  0  0  0  0
   -2.3424   -2.4457    5.1938 C   0  0  0  0  0  0  0  0  0  0  0  0
   -3.5375   -2.5085    5.9799 C   0  0  0  0  0  0  0  0  0  0  0  0
   -4.1445   -1.3910    6.5322 C   0  0  0  0  0  0  0  0  0  0  0  0
   -3.4988   -0.1564    6.2338 C   0  0  0  0  0  0  0  0  0  0  0  0
   -3.8686    1.2381    6.6253 C   0  0  0  0  0  0  0  0  0  0  0  0
   -5.0917    1.6688    7.0314 C   0  0  0  0  0  0  0  0  0  0  0  0
   -5.4425    3.0661    7.0506 C   0  0  0  0  0  0  0  0  0  0  0  0
   -5.7339    4.1857    7.0552 N   0  0  0  0  0  0  0  0  0  0  0  0
   -6.1755    0.7694    7.3249 C   0  0  0  0  0  0  0  0  0  0  0  0
   -7.0590    0.0598    7.5630 N   0  0  0  0  0  0  0  0  0  0  0  0
   -3.5914   -3.9993    5.8083 C   0  0  0  0  0  0  0  0  0  0  0  0
   -4.6387   -4.5833    4.8119 C   0  0  0  0  0  0  0  0  0  0  0  0
   -4.8943   -3.6005    3.6919 C   0  0  0  0  0  0  0  0  0  0  0  0
   -3.7750   -3.5464    2.9687 C   0  0  0  0  0  0  0  0  0  0  0  0
   -2.7934   -4.4923    3.6216 C   0  0  0  0  0  0  0  0  0  0  0  0
   -3.7628   -5.5723    4.0638 C   0  0  0  0  0  0  0  0  0  0  0  0
   -2.3601   -3.9337    5.0112 C   0  0  0  0  0  0  0  0  0  0  0  0
    6.0625   -1.6820   -5.7798 H   0  0  0  0  0  0  0  0  0  0  0  0
    0.2967   -1.8896   -3.1778 H   0  0  0  0  0  0  0  0  0  0  0  0
    1.6116   -5.0035   -7.0002 H   0  0  0  0  0  0  0  0  0  0  0  0
   -0.9897   -6.2395   -5.1174 H   0  0  0  0  0  0  0  0  0  0  0  0
   -1.9542   -5.2506   -7.5278 H   0  0  0  0  0  0  0  0  0  0  0  0
   -4.0858   -6.2851   -6.3260 H   0  0  0  0  0  0  0  0  0  0  0  0
   -4.7844   -4.6937   -4.3834 H   0  0  0  0  0  0  0  0  0  0  0  0
   -3.0971   -2.6435   -4.3328 H   0  0  0  0  0  0  0  0  0  0  0  0
   -3.3787   -3.0831   -6.9443 H   0  0  0  0  0  0  0  0  0  0  0  0
   -1.6316   -2.7700   -6.5811 H   0  0  0  0  0  0  0  0  0  0  0  0
   -1.6392   -4.7849   -3.3267 H   0  0  0  0  0  0  0  0  0  0  0  0
    6.0885    3.9804   -4.6821 H   0  0  0  0  0  0  0  0  0  0  0  0
    5.8858    5.0363   -3.2471 H   0  0  0  0  0  0  0  0  0  0  0  0
    3.7522    4.8391   -4.5239 H   0  0  0  0  0  0  0  0  0  0  0  0
    3.7819    3.0464   -4.3310 H   0  0  0  0  0  0  0  0  0  0  0  0
    3.5782    4.1068   -2.8806 H   0  0  0  0  0  0  0  0  0  0  0  0
    5.7107    1.5061   -5.3106 H   0  0  0  0  0  0  0  0  0  0  0  0
    5.1490    4.8349   -0.8691 H   0  0  0  0  0  0  0  0  0  0  0  0
    3.8993    0.4048    6.0758 H   0  0  0  0  0  0  0  0  0  0  0  0
    4.5360   -0.3792    4.5831 H   0  0  0  0  0  0  0  0  0  0  0  0
    2.1637   -0.7922    3.8119 H   0  0  0  0  0  0  0  0  0  0  0  0
    2.5387   -1.5926    5.3899 H   0  0  0  0  0  0  0  0  0  0  0  0
    1.5635   -0.0769    5.3634 H   0  0  0  0  0  0  0  0  0  0  0  0
   -1.7163    5.0272    0.7365 H   0  0  0  0  0  0  0  0  0  0  0  0
   -6.1033    4.3263    1.9264 H   0  0  0  0  0  0  0  0  0  0  0  0
   -5.3545    4.7192    3.5133 H   0  0  0  0  0  0  0  0  0  0  0  0
   -6.2267    2.3606    3.4208 H   0  0  0  0  0  0  0  0  0  0  0  0
   -5.1367    2.0153    2.0198 H   0  0  0  0  0  0  0  0  0  0  0  0
   -4.4385    2.3749    3.6479 H   0  0  0  0  0  0  0  0  0  0  0  0
   -3.0448    3.8737    7.2967 H   0  0  0  0  0  0  0  0  0  0  0  0
   -0.7800   -1.2247    4.3224 H   0  0  0  0  0  0  0  0  0  0  0  0
   -5.0191   -1.4931    7.1502 H   0  0  0  0  0  0  0  0  0  0  0  0
   -3.4774   -4.5675    6.7582 H   0  0  0  0  0  0  0  0  0  0  0  0
   -5.5503   -5.0101    5.2791 H   0  0  0  0  0  0  0  0  0  0  0  0
   -5.8245   -3.0925    3.4610 H   0  0  0  0  0  0  0  0  0  0  0  0
   -3.6353   -2.9848    2.0497 H   0  0  0  0  0  0  0  0  0  0  0  0
   -1.9639   -4.8330    2.9677 H   0  0  0  0  0  0  0  0  0  0  0  0
   -4.2865   -6.0746    3.2135 H   0  0  0  0  0  0  0  0  0  0  0  0
   -3.2996   -6.3454    4.7233 H   0  0  0  0  0  0  0  0  0  0  0  0
   -1.4963   -4.4579    5.4791 H   0  0  0  0  0  0  0  0  0  0  0  0
  1  2  2  3
  2  3  1  0
  3  4  2  0
  3  5  1  0
  5  6  2  0
  6  7  1  0
  7  8  2  0
  8  9  1  0
  9 10  2  0
 10 11  1  0
 11 12  2  3
 12 13  1  0
 13 14  3  0
 12 15  1  0
 15 16  3  0
  8 17  1  0
 17 18  1  0
 18 19  1  0
 19 20  2  0
 20 21  1  0
 21 22  1  0
 21 23  1  0
  1 24  1  0
 24 25  1  0
 25 26  1  0
 26 27  1  0
 27 28  2  0
 28 29  1  0
 29 30  1  0
 30 31  1  0
 29 32  1  0
 32 33  1  0
 28 34  1  0
 34 35  2  0
 35 36  1  0
 35 37  1  0
 37 38  1  0
 38 39  2  0
 39 40  1  0
 40 41  1  0
 41 42  1  0
 40 43  1  0
 43 44  2  0
 44 45  1  0
 45 46  2  0
 46 47  1  0
 47 48  1  0
 46 49  1  0
 45 50  1  0
 50 51  1  0
 51 52  2  0
 52 53  1  0
 53 54  2  0
 54 55  1  0
 55 56  1  0
 56 57  1  0
 54 58  1  0
 58 59  2  0
 59 60  1  0
 60 61  2  0
 61 62  1  0
 62 63  1  0
 61 64  1  0
 60 65  1  0
 65 66  2  3
 66 67  1  0
 67 68  2  0
 67 69  1  0
 69 70  2  0
 70 71  1  0
 71 72  2  0
 72 73  1  0
 73 74  2  0
 74 75  1  0
 75 76  2  3
 76 77  1  0
 77 78  3  0
 76 79  1  0
 79 80  3  0
 72 81  1  0
 81 82  1  0
 82 83  1  0
 83 84  2  0
 84 85  1  0
 85 86  1  0
 85 87  1  0
 11  2  1  0
 23 17  1  0
 33 24  2  0
 47 37  2  0
 62 50  2  0
 75 66  1  0
 87 81  1  0
 10  5  1  0
 22 18  1  0
 32 26  2  0
 44 38  1  0
 59 51  1  0
 74 69  1  0
 86 82  1  0
 23  7  1  0
 36 27  1  0
 87 71  1  0
  1 88  1  0
  6 89  1  0
  9 90  1  0
 17 91  1  0
 18 92  1  0
 19 93  1  0
 20 94  1  0
 21 95  1  0
 22 96  1  0
 22 97  1  0
 23 98  1  0
 30 99  1  0
 30100  1  0
 31101  1  0
 31102  1  0
 31103  1  0
 33104  1  0
 34105  1  0
 41106  1  0
 41107  1  0
 42108  1  0
 42109  1  0
 42110  1  0
 53111  1  0
 56112  1  0
 56113  1  0
 57114  1  0
 57115  1  0
 57116  1  0
 65117  1  0
 70118  1  0
 73119  1  0
 81120  1  0
 82121  1  0
 83122  1  0
 84123  1  0
 85124  1  0
 86125  1  0
 86126  1  0
 87127  1  0
M  END

