
     RDKit          3D

198220  0  0  0  0  0  0  0  0999 V2000
    2.0903   -9.3614    1.8730 C   0  0  0  0  0  0  0  0  0  0  0  0
    2.8080   -8.8450    2.8947 C   0  0  0  0  0  0  0  0  0  0  0  0
    3.8021   -7.7633    2.7919 C   0  0  0  0  0  0  0  0  0  0  0  0
    4.8063   -7.7530    2.0192 O   0  0  0  0  0  0  0  0  0  0  0  0
    3.6137   -6.8492    3.8975 C   0  0  0  0  0  0  0  0  0  0  0  0
    4.2717   -5.6262    4.1186 C   0  0  0  0  0  0  0  0  0  0  0  0
    3.8331   -4.9319    5.2341 C   0  0  0  0  0  0  0  0  0  0  0  0
    2.7937   -5.4138    6.0862 C   0  0  0  0  0  0  0  0  0  0  0  0
    2.1616   -6.6237    5.8923 C   0  0  0  0  0  0  0  0  0  0  0  0
    2.6190   -7.3609    4.7532 C   0  0  0  0  0  0  0  0  0  0  0  0
    2.2233   -8.7141    4.2518 C   0  0  0  0  0  0  0  0  0  0  0  0
    1.6064   -9.6880    4.9561 C   0  0  0  0  0  0  0  0  0  0  0  0
    1.7859  -11.0764    4.6310 C   0  0  0  0  0  0  0  0  0  0  0  0
    1.9691  -12.2161    4.4412 N   0  0  0  0  0  0  0  0  0  0  0  0
    0.8287   -9.4198    6.1328 C   0  0  0  0  0  0  0  0  0  0  0  0
    0.1699   -9.2161    7.0667 N   0  0  0  0  0  0  0  0  0  0  0  0
    2.8438   -4.1663    6.8953 C   0  0  0  0  0  0  0  0  0  0  0  0
    1.6920   -3.1587    6.6388 C   0  0  0  0  0  0  0  0  0  0  0  0
    2.1415   -1.8575    7.2693 C   0  0  0  0  0  0  0  0  0  0  0  0
    3.1572   -1.4071    6.5322 C   0  0  0  0  0  0  0  0  0  0  0  0
    3.3430   -2.3987    5.3991 C   0  0  0  0  0  0  0  0  0  0  0  0
    1.8890   -2.7707    5.1867 C   0  0  0  0  0  0  0  0  0  0  0  0
    3.9343   -3.6822    6.0336 C   0  0  0  0  0  0  0  0  0  0  0  0
    1.6935   -8.5566    0.6585 C   0  0  0  0  0  0  0  0  0  0  0  0
    0.0953   -8.5720    0.0474 S   0  0  0  0  0  0  0  0  0  0  0  0
    0.3196   -7.2889   -1.0038 C   0  0  0  0  0  0  0  0  0  0  0  0
   -0.5338   -6.4541   -1.7404 C   0  0  0  0  0  0  0  0  0  0  0  0
    0.1539   -5.2960   -2.1853 C   0  0  0  0  0  0  0  0  0  0  0  0
    1.7739   -5.4087   -1.6665 S   0  0  0  0  0  0  0  0  0  0  0  0
    1.5990   -6.8447   -0.8720 C   0  0  0  0  0  0  0  0  0  0  0  0
    2.4048   -7.5275    0.0099 C   0  0  0  0  0  0  0  0  0  0  0  0
   -0.4383   -4.0135   -2.6498 C   0  0  0  0  0  0  0  0  0  0  0  0
   -0.1103   -2.7817   -2.0910 C   0  0  0  0  0  0  0  0  0  0  0  0
    0.4131   -2.6235   -0.7683 N   0  0  0  0  0  0  0  0  0  0  0  0
   -0.4748   -2.8425    0.3616 C   0  0  0  0  0  0  0  0  0  0  0  0
   -1.8547   -2.5467    0.2681 C   0  0  0  0  0  0  0  0  0  0  0  0
   -2.6779   -2.6717    1.3938 C   0  0  0  0  0  0  0  0  0  0  0  0
   -2.1798   -3.1806    2.5793 C   0  0  0  0  0  0  0  0  0  0  0  0
   -3.2147   -3.2943    4.0392 S   0  0  0  0  0  0  0  0  0  0  0  0
   -3.9930   -4.8649    3.5509 C   0  0  0  0  0  0  0  0  0  0  0  0
   -0.8074   -3.4933    2.6696 C   0  0  0  0  0  0  0  0  0  0  0  0
    0.0331   -3.3280    1.5605 C   0  0  0  0  0  0  0  0  0  0  0  0
    1.5877   -1.7960   -0.6277 C   0  0  0  0  0  0  0  0  0  0  0  0
    2.6753   -1.9510   -1.5109 C   0  0  0  0  0  0  0  0  0  0  0  0
    3.7723   -1.0839   -1.4451 C   0  0  0  0  0  0  0  0  0  0  0  0
    3.7977   -0.0288   -0.5194 C   0  0  0  0  0  0  0  0  0  0  0  0
    5.2102    1.0741   -0.4503 S   0  0  0  0  0  0  0  0  0  0  0  0
    4.5765    2.2449   -1.6909 C   0  0  0  0  0  0  0  0  0  0  0  0
    2.7220    0.1371    0.3615 C   0  0  0  0  0  0  0  0  0  0  0  0
    1.6267   -0.7426    0.3129 C   0  0  0  0  0  0  0  0  0  0  0  0
   -0.7498   -1.7462   -2.7294 C   0  0  0  0  0  0  0  0  0  0  0  0
   -0.9448   -0.1971   -2.2141 S   0  0  0  0  0  0  0  0  0  0  0  0
   -2.2503    0.1446   -3.2632 C   0  0  0  0  0  0  0  0  0  0  0  0
   -2.5387   -1.0018   -4.0685 C   0  0  0  0  0  0  0  0  0  0  0  0
   -2.9964   -0.8976   -5.4178 N   0  0  0  0  0  0  0  0  0  0  0  0
   -1.9838   -0.8741   -6.4519 C   0  0  0  0  0  0  0  0  0  0  0  0
   -1.5613   -2.0649   -7.0442 C   0  0  0  0  0  0  0  0  0  0  0  0
   -0.6170   -2.0258   -8.0826 C   0  0  0  0  0  0  0  0  0  0  0  0
   -0.1131   -0.8048   -8.5385 C   0  0  0  0  0  0  0  0  0  0  0  0
    1.0814   -0.7795   -9.8738 S   0  0  0  0  0  0  0  0  0  0  0  0
    2.4676   -1.3920   -8.8488 C   0  0  0  0  0  0  0  0  0  0  0  0
   -0.5400    0.3900   -7.9562 C   0  0  0  0  0  0  0  0  0  0  0  0
   -1.5161    0.3622   -6.9427 C   0  0  0  0  0  0  0  0  0  0  0  0
   -4.3762   -0.7880   -5.8317 C   0  0  0  0  0  0  0  0  0  0  0  0
   -4.8358   -1.5208   -6.9487 C   0  0  0  0  0  0  0  0  0  0  0  0
   -6.0814   -1.2507   -7.5383 C   0  0  0  0  0  0  0  0  0  0  0  0
   -6.8817   -0.2354   -7.0236 C   0  0  0  0  0  0  0  0  0  0  0  0
   -8.4919    0.0965   -7.7550 S   0  0  0  0  0  0  0  0  0  0  0  0
   -7.9064    1.3113   -8.9808 C   0  0  0  0  0  0  0  0  0  0  0  0
   -6.4553    0.4743   -5.8896 C   0  0  0  0  0  0  0  0  0  0  0  0
   -5.2196    0.1953   -5.2963 C   0  0  0  0  0  0  0  0  0  0  0  0
   -1.6588   -2.0603   -3.6892 C   0  0  0  0  0  0  0  0  0  0  0  0
   -1.6111   -3.7482   -3.8946 S   0  0  0  0  0  0  0  0  0  0  0  0
   -3.1526    1.2232   -2.8307 C   0  0  0  0  0  0  0  0  0  0  0  0
   -3.0603    2.5186   -3.3668 C   0  0  0  0  0  0  0  0  0  0  0  0
   -3.1232    3.5754   -2.4090 C   0  0  0  0  0  0  0  0  0  0  0  0
   -2.8628    4.9425   -2.6598 C   0  0  0  0  0  0  0  0  0  0  0  0
   -3.2299    5.5291   -3.9868 C   0  0  0  0  0  0  0  0  0  0  0  0
   -2.4947    6.5686   -4.5842 C   0  0  0  0  0  0  0  0  0  0  0  0
   -2.9602    7.1917   -5.7546 C   0  0  0  0  0  0  0  0  0  0  0  0
   -4.1384    6.7685   -6.3602 C   0  0  0  0  0  0  0  0  0  0  0  0
   -4.8631    5.7112   -5.8161 C   0  0  0  0  0  0  0  0  0  0  0  0
   -6.2917    5.0384   -6.6650 S   0  0  0  0  0  0  0  0  0  0  0  0
   -7.5497    6.1146   -5.8725 C   0  0  0  0  0  0  0  0  0  0  0  0
   -7.8099    5.6986   -4.4294 C   0  0  0  0  0  0  0  0  0  0  0  0
   -4.4203    5.1071   -4.6259 C   0  0  0  0  0  0  0  0  0  0  0  0
   -2.4329    5.7122   -1.5340 C   0  0  0  0  0  0  0  0  0  0  0  0
   -2.4532    5.1841   -0.2402 C   0  0  0  0  0  0  0  0  0  0  0  0
   -2.9052    3.8794    0.0286 C   0  0  0  0  0  0  0  0  0  0  0  0
   -2.5476    3.2101    1.3101 C   0  0  0  0  0  0  0  0  0  0  0  0
   -1.5482    2.2317    1.3388 C   0  0  0  0  0  0  0  0  0  0  0  0
   -1.2068    1.5961    2.5294 C   0  0  0  0  0  0  0  0  0  0  0  0
   -1.8183    1.9946    3.7347 C   0  0  0  0  0  0  0  0  0  0  0  0
   -2.7548    3.0110    3.7392 C   0  0  0  0  0  0  0  0  0  0  0  0
   -3.5524    3.5106    5.2653 S   0  0  0  0  0  0  0  0  0  0  0  0
   -2.1062    4.3226    6.0288 C   0  0  0  0  0  0  0  0  0  0  0  0
   -2.4661    4.7820    7.4410 C   0  0  0  0  0  0  0  0  0  0  0  0
   -3.1426    3.6125    2.5243 C   0  0  0  0  0  0  0  0  0  0  0  0
   -3.2489    3.1085   -1.0993 C   0  0  0  0  0  0  0  0  0  0  0  0
   -3.3754    1.4373   -1.1516 S   0  0  0  0  0  0  0  0  0  0  0  0
   -1.7491    5.9690    0.6974 C   0  0  0  0  0  0  0  0  0  0  0  0
   -0.8855    6.8741    0.1258 C   0  0  0  0  0  0  0  0  0  0  0  0
   -1.3175    7.0090   -1.5076 S   0  0  0  0  0  0  0  0  0  0  0  0
    0.3364    7.4603    0.7684 C   0  0  0  0  0  0  0  0  0  0  0  0
    0.9617    6.9463    1.8320 C   0  0  0  0  0  0  0  0  0  0  0  0
    0.8479    5.5461    2.3327 C   0  0  0  0  0  0  0  0  0  0  0  0
    0.3029    4.5992    1.7038 O   0  0  0  0  0  0  0  0  0  0  0  0
    1.9170    5.3189    3.2844 C   0  0  0  0  0  0  0  0  0  0  0  0
    2.2034    4.0893    3.9622 C   0  0  0  0  0  0  0  0  0  0  0  0
    3.4942    3.6182    3.7580 C   0  0  0  0  0  0  0  0  0  0  0  0
    4.5448    4.5803    3.4037 C   0  0  0  0  0  0  0  0  0  0  0  0
    4.2985    5.8095    2.8879 C   0  0  0  0  0  0  0  0  0  0  0  0
    2.9321    6.2042    2.9067 C   0  0  0  0  0  0  0  0  0  0  0  0
    2.2769    7.4283    2.3502 C   0  0  0  0  0  0  0  0  0  0  0  0
    2.5823    8.7218    2.6520 C   0  0  0  0  0  0  0  0  0  0  0  0
    3.6575    9.0930    3.5630 C   0  0  0  0  0  0  0  0  0  0  0  0
    4.4713    9.4720    4.3050 N   0  0  0  0  0  0  0  0  0  0  0  0
    1.6472    9.7834    2.4790 C   0  0  0  0  0  0  0  0  0  0  0  0
    0.9879   10.7226    2.2886 N   0  0  0  0  0  0  0  0  0  0  0  0
    5.4915    3.9319    4.3653 C   0  0  0  0  0  0  0  0  0  0  0  0
    6.6799    3.1443    3.7721 C   0  0  0  0  0  0  0  0  0  0  0  0
    7.2069    2.2773    4.8863 C   0  0  0  0  0  0  0  0  0  0  0  0
    6.2687    1.3212    5.0931 C   0  0  0  0  0  0  0  0  0  0  0  0
    5.1567    1.6051    4.0950 C   0  0  0  0  0  0  0  0  0  0  0  0
    5.9938    2.1011    2.9148 C   0  0  0  0  0  0  0  0  0  0  0  0
    4.4815    2.8947    4.6333 C   0  0  0  0  0  0  0  0  0  0  0  0
    1.3848  -10.1329    2.1208 H   0  0  0  0  0  0  0  0  0  0  0  0
    5.0233   -5.2260    3.4639 H   0  0  0  0  0  0  0  0  0  0  0  0
    1.3595   -6.9499    6.5358 H   0  0  0  0  0  0  0  0  0  0  0  0
    3.1201   -4.3366    7.9655 H   0  0  0  0  0  0  0  0  0  0  0  0
    0.6739   -3.4929    6.9221 H   0  0  0  0  0  0  0  0  0  0  0  0
    1.6748   -1.3433    8.1029 H   0  0  0  0  0  0  0  0  0  0  0  0
    3.6704   -0.4625    6.6642 H   0  0  0  0  0  0  0  0  0  0  0  0
    3.8775   -2.0172    4.5160 H   0  0  0  0  0  0  0  0  0  0  0  0
    1.7512   -3.6093    4.4637 H   0  0  0  0  0  0  0  0  0  0  0  0
    1.2503   -1.9134    4.8595 H   0  0  0  0  0  0  0  0  0  0  0  0
    4.9079   -3.5547    6.5690 H   0  0  0  0  0  0  0  0  0  0  0  0
   -1.5924   -6.6379   -1.9185 H   0  0  0  0  0  0  0  0  0  0  0  0
    3.4138   -7.2372    0.2404 H   0  0  0  0  0  0  0  0  0  0  0  0
   -2.2987   -2.1727   -0.6393 H   0  0  0  0  0  0  0  0  0  0  0  0
   -3.7280   -2.4035    1.3131 H   0  0  0  0  0  0  0  0  0  0  0  0
   -4.5425   -5.2858    4.4282 H   0  0  0  0  0  0  0  0  0  0  0  0
   -4.7107   -4.6918    2.7273 H   0  0  0  0  0  0  0  0  0  0  0  0
   -3.2324   -5.6061    3.2282 H   0  0  0  0  0  0  0  0  0  0  0  0
   -0.4075   -3.8429    3.6146 H   0  0  0  0  0  0  0  0  0  0  0  0
    1.0961   -3.5329    1.6702 H   0  0  0  0  0  0  0  0  0  0  0  0
    2.6626   -2.7041   -2.2731 H   0  0  0  0  0  0  0  0  0  0  0  0
    4.6119   -1.2214   -2.1214 H   0  0  0  0  0  0  0  0  0  0  0  0
    4.2222    1.7133   -2.6026 H   0  0  0  0  0  0  0  0  0  0  0  0
    3.7402    2.8490   -1.2595 H   0  0  0  0  0  0  0  0  0  0  0  0
    5.3897    2.9399   -1.9799 H   0  0  0  0  0  0  0  0  0  0  0  0
    2.7287    0.9469    1.0841 H   0  0  0  0  0  0  0  0  0  0  0  0
    0.7902   -0.5652    0.9722 H   0  0  0  0  0  0  0  0  0  0  0  0
   -1.9354   -3.0181   -6.7109 H   0  0  0  0  0  0  0  0  0  0  0  0
   -0.2781   -2.9469   -8.5282 H   0  0  0  0  0  0  0  0  0  0  0  0
    2.5928   -2.4780   -9.0616 H   0  0  0  0  0  0  0  0  0  0  0  0
    2.2860   -1.2418   -7.7637 H   0  0  0  0  0  0  0  0  0  0  0  0
    3.4119   -0.8724   -9.1346 H   0  0  0  0  0  0  0  0  0  0  0  0
   -0.1722    1.3365   -8.3018 H   0  0  0  0  0  0  0  0  0  0  0  0
   -1.8925    1.2895   -6.5279 H   0  0  0  0  0  0  0  0  0  0  0  0
   -4.2247   -2.2889   -7.3756 H   0  0  0  0  0  0  0  0  0  0  0  0
   -6.3944   -1.8191   -8.3979 H   0  0  0  0  0  0  0  0  0  0  0  0
   -8.7929    1.8270   -9.4157 H   0  0  0  0  0  0  0  0  0  0  0  0
   -7.3587    0.8037   -9.8007 H   0  0  0  0  0  0  0  0  0  0  0  0
   -7.2566    2.0801   -8.5103 H   0  0  0  0  0  0  0  0  0  0  0  0
   -7.0872    1.2766   -5.5019 H   0  0  0  0  0  0  0  0  0  0  0  0
   -4.9412    0.8057   -4.4606 H   0  0  0  0  0  0  0  0  0  0  0  0
   -2.7857    2.6980   -4.3949 H   0  0  0  0  0  0  0  0  0  0  0  0
   -1.5543    6.8884   -4.1764 H   0  0  0  0  0  0  0  0  0  0  0  0
   -2.3906    8.0018   -6.1996 H   0  0  0  0  0  0  0  0  0  0  0  0
   -4.4843    7.2419   -7.2686 H   0  0  0  0  0  0  0  0  0  0  0  0
   -8.4939    6.0249   -6.4468 H   0  0  0  0  0  0  0  0  0  0  0  0
   -7.2195    7.1784   -5.9192 H   0  0  0  0  0  0  0  0  0  0  0  0
   -8.6499    6.2903   -4.0197 H   0  0  0  0  0  0  0  0  0  0  0  0
   -8.0717    4.6187   -4.3865 H   0  0  0  0  0  0  0  0  0  0  0  0
   -6.9085    5.8876   -3.8012 H   0  0  0  0  0  0  0  0  0  0  0  0
   -5.0136    4.3053   -4.2016 H   0  0  0  0  0  0  0  0  0  0  0  0
   -1.0265    1.9517    0.4455 H   0  0  0  0  0  0  0  0  0  0  0  0
   -0.4525    0.8468    2.5516 H   0  0  0  0  0  0  0  0  0  0  0  0
   -1.5293    1.4946    4.6630 H   0  0  0  0  0  0  0  0  0  0  0  0
   -1.7638    5.1977    5.4223 H   0  0  0  0  0  0  0  0  0  0  0  0
   -1.2580    3.5900    6.1096 H   0  0  0  0  0  0  0  0  0  0  0  0
   -3.2420    5.5671    7.4133 H   0  0  0  0  0  0  0  0  0  0  0  0
   -2.8202    3.9262    8.0361 H   0  0  0  0  0  0  0  0  0  0  0  0
   -1.5573    5.1890    7.9607 H   0  0  0  0  0  0  0  0  0  0  0  0
   -3.8830    4.3979    2.5228 H   0  0  0  0  0  0  0  0  0  0  0  0
   -1.7582    5.7717    1.7691 H   0  0  0  0  0  0  0  0  0  0  0  0
    0.7335    8.3482    0.2912 H   0  0  0  0  0  0  0  0  0  0  0  0
    2.2966    4.3912    5.0334 H   0  0  0  0  0  0  0  0  0  0  0  0
    5.0208    6.4919    2.5663 H   0  0  0  0  0  0  0  0  0  0  0  0
    5.6845    4.5100    5.3205 H   0  0  0  0  0  0  0  0  0  0  0  0
    7.4352    3.7693    3.2545 H   0  0  0  0  0  0  0  0  0  0  0  0
    7.8338    2.6614    5.6727 H   0  0  0  0  0  0  0  0  0  0  0  0
    6.0840    0.9824    6.0938 H   0  0  0  0  0  0  0  0  0  0  0  0
    4.4914    0.7426    3.8352 H   0  0  0  0  0  0  0  0  0  0  0  0
    6.6605    1.3119    2.5278 H   0  0  0  0  0  0  0  0  0  0  0  0
    5.3922    2.5265    2.0809 H   0  0  0  0  0  0  0  0  0  0  0  0
    4.1102    2.7905    5.6883 H   0  0  0  0  0  0  0  0  0  0  0  0
  1  2  2  3
  2  3  1  0
  3  4  2  0
  3  5  1  0
  5  6  2  0
  6  7  1  0
  7  8  2  0
  8  9  1  0
  9 10  2  0
 10 11  1  0
 11 12  2  3
 12 13  1  0
 13 14  3  0
 12 15  1  0
 15 16  3  0
  8 17  1  0
 17 18  1  0
 18 19  1  0
 19 20  2  0
 20 21  1  0
 21 22  1  0
 21 23  1  0
  1 24  1  0
 24 25  1  0
 25 26  1  0
 26 27  1  0
 27 28  2  0
 28 29  1  0
 29 30  1  0
 30 31  1  0
 28 32  1  0
 32 33  2  0
 33 34  1  0
 34 35  1  0
 35 36  2  0
 36 37  1  0
 37 38  2  0
 38 39  1  0
 39 40  1  0
 38 41  1  0
 41 42  2  0
 34 43  1  0
 43 44  2  0
 44 45  1  0
 45 46  2  0
 46 47  1  0
 47 48  1  0
 46 49  1  0
 49 50  2  0
 33 51  1  0
 51 52  1  0
 52 53  1  0
 53 54  2  0
 54 55  1  0
 55 56  1  0
 56 57  2  0
 57 58  1  0
 58 59  2  0
 59 60  1  0
 60 61  1  0
 59 62  1  0
 62 63  2  0
 55 64  1  0
 64 65  2  0
 65 66  1  0
 66 67  2  0
 67 68  1  0
 68 69  1  0
 67 70  1  0
 70 71  2  0
 54 72  1  0
 72 73  1  0
 53 74  1  0
 74 75  2  0
 75 76  1  0
 76 77  2  0
 77 78  1  0
 78 79  2  0
 79 80  1  0
 80 81  2  0
 81 82  1  0
 82 83  1  0
 83 84  1  0
 84 85  1  0
 82 86  2  0
 77 87  1  0
 87 88  2  0
 88 89  1  0
 89 90  1  0
 90 91  2  0
 91 92  1  0
 92 93  2  0
 93 94  1  0
 94 95  1  0
 95 96  1  0
 96 97  1  0
 94 98  2  0
 89 99  2  0
 99100  1  0
 88101  1  0
101102  2  0
102103  1  0
102104  1  0
104105  2  3
105106  1  0
106107  2  0
106108  1  0
108109  2  0
109110  1  0
110111  2  0
111112  1  0
112113  2  0
113114  1  0
114115  2  3
115116  1  0
116117  3  0
115118  1  0
118119  3  0
111120  1  0
120121  1  0
121122  1  0
122123  2  0
123124  1  0
124125  1  0
124126  1  0
 11  2  1  0
 23 17  1  0
 31 24  2  0
 73 32  1  0
100 74  1  0
114105  1  0
126120  1  0
 10  5  1  0
 22 18  1  0
 30 26  2  0
 42 35  1  0
 50 43  1  0
 72 51  2  0
 99 76  1  0
113108  1  0
125121  1  0
 23  7  1  0
 63 56  1  0
 71 64  1  0
 86 78  1  0
103 87  1  0
126110  1  0
 98 90  1  0
  1127  1  0
  6128  1  0
  9129  1  0
 17130  1  0
 18131  1  0
 19132  1  0
 20133  1  0
 21134  1  0
 22135  1  0
 22136  1  0
 23137  1  0
 27138  1  0
 31139  1  0
 36140  1  0
 37141  1  0
 40142  1  0
 40143  1  0
 40144  1  0
 41145  1  0
 42146  1  0
 44147  1  0
 45148  1  0
 48149  1  0
 48150  1  0
 48151  1  0
 49152  1  0
 50153  1  0
 57154  1  0
 58155  1  0
 61156  1  0
 61157  1  0
 61158  1  0
 62159  1  0
 63160  1  0
 65161  1  0
 66162  1  0
 69163  1  0
 69164  1  0
 69165  1  0
 70166  1  0
 71167  1  0
 75168  1  0
 79169  1  0
 80170  1  0
 81171  1  0
 84172  1  0
 84173  1  0
 85174  1  0
 85175  1  0
 85176  1  0
 86177  1  0
 91178  1  0
 92179  1  0
 93180  1  0
 96181  1  0
 96182  1  0
 97183  1  0
 97184  1  0
 97185  1  0
 98186  1  0
101187  1  0
104188  1  0
109189  1  0
112190  1  0
120191  1  0
121192  1  0
122193  1  0
123194  1  0
124195  1  0
125196  1  0
125197  1  0
126198  1  0
M  END

