
     RDKit          3D

238263  0  0  0  0  0  0  0  0999 V2000
   -6.2361   -3.8780   -7.0894 C   0  0  0  0  0  0  0  0  0  0  0  0
   -5.3291   -3.9082   -8.1079 C   0  0  0  0  0  0  0  0  0  0  0  0
   -3.9763   -4.4154   -8.0055 C   0  0  0  0  0  0  0  0  0  0  0  0
   -3.4701   -4.9572   -7.0002 O   0  0  0  0  0  0  0  0  0  0  0  0
   -3.2762   -4.2221   -9.1879 C   0  0  0  0  0  0  0  0  0  0  0  0
   -1.8656   -4.3081   -9.2932 C   0  0  0  0  0  0  0  0  0  0  0  0
   -1.3059   -3.7391  -10.3607 C   0  0  0  0  0  0  0  0  0  0  0  0
   -2.0704   -3.0739  -11.3695 C   0  0  0  0  0  0  0  0  0  0  0  0
   -3.3890   -2.7169  -11.0669 C   0  0  0  0  0  0  0  0  0  0  0  0
   -4.0124   -3.4155  -10.0634 C   0  0  0  0  0  0  0  0  0  0  0  0
   -5.3988   -3.3079   -9.4628 C   0  0  0  0  0  0  0  0  0  0  0  0
   -6.4800   -2.7984  -10.0901 C   0  0  0  0  0  0  0  0  0  0  0  0
   -7.8513   -3.1440   -9.7501 C   0  0  0  0  0  0  0  0  0  0  0  0
   -8.9345   -3.3375   -9.4733 N   0  0  0  0  0  0  0  0  0  0  0  0
   -6.3912   -1.9484  -11.2311 C   0  0  0  0  0  0  0  0  0  0  0  0
   -6.3044   -1.2214  -12.1337 N   0  0  0  0  0  0  0  0  0  0  0  0
   -0.8443   -2.7691  -12.1175 C   0  0  0  0  0  0  0  0  0  0  0  0
   -0.4715   -1.2717  -12.2258 C   0  0  0  0  0  0  0  0  0  0  0  0
    0.9742   -1.1834  -12.5364 C   0  0  0  0  0  0  0  0  0  0  0  0
    1.6033   -1.5451  -11.4175 C   0  0  0  0  0  0  0  0  0  0  0  0
    0.5584   -1.8905  -10.4313 C   0  0  0  0  0  0  0  0  0  0  0  0
   -0.4792   -0.8581  -10.7809 C   0  0  0  0  0  0  0  0  0  0  0  0
   -0.0722   -3.2353  -10.9977 C   0  0  0  0  0  0  0  0  0  0  0  0
   -5.7343   -3.8956   -5.7179 C   0  0  0  0  0  0  0  0  0  0  0  0
   -5.1213   -4.9583   -5.0362 C   0  0  0  0  0  0  0  0  0  0  0  0
   -4.1450   -4.5265   -4.1047 C   0  0  0  0  0  0  0  0  0  0  0  0
   -3.1902   -5.3265   -3.4337 C   0  0  0  0  0  0  0  0  0  0  0  0
   -3.6196   -6.5688   -2.8208 C   0  0  0  0  0  0  0  0  0  0  0  0
   -3.3831   -7.8546   -3.3473 C   0  0  0  0  0  0  0  0  0  0  0  0
   -3.7468   -9.0143   -2.6708 C   0  0  0  0  0  0  0  0  0  0  0  0
   -3.4471  -10.2604   -3.1370 F   0  0  0  0  0  0  0  0  0  0  0  0
   -4.4728   -8.8637   -1.4604 C   0  0  0  0  0  0  0  0  0  0  0  0
   -4.9077  -10.0192   -0.7858 O   0  0  0  0  0  0  0  0  0  0  0  0
   -4.2911  -10.4884    0.3784 C   0  0  0  0  0  0  0  0  0  0  0  0
   -5.2167  -11.4189    1.1159 C   0  0  0  0  0  0  0  0  0  0  0  0
   -4.7369   -7.6017   -0.9723 C   0  0  0  0  0  0  0  0  0  0  0  0
   -5.3270   -7.4648    0.2345 F   0  0  0  0  0  0  0  0  0  0  0  0
   -4.2775   -6.4400   -1.6204 C   0  0  0  0  0  0  0  0  0  0  0  0
   -2.0779   -4.6311   -2.8522 C   0  0  0  0  0  0  0  0  0  0  0  0
   -2.0895   -3.2503   -2.6799 C   0  0  0  0  0  0  0  0  0  0  0  0
   -3.0857   -2.4559   -3.2760 C   0  0  0  0  0  0  0  0  0  0  0  0
   -2.8358   -1.0339   -3.4555 C   0  0  0  0  0  0  0  0  0  0  0  0
   -1.5995   -0.5925   -3.9452 C   0  0  0  0  0  0  0  0  0  0  0  0
   -1.3684    0.7781   -4.1005 C   0  0  0  0  0  0  0  0  0  0  0  0
   -2.3543    1.6900   -3.7852 C   0  0  0  0  0  0  0  0  0  0  0  0
   -2.0895    3.0310   -3.9720 O   0  0  0  0  0  0  0  0  0  0  0  0
   -2.2646    3.7256   -5.2160 C   0  0  0  0  0  0  0  0  0  0  0  0
   -1.3511    3.2043   -6.3339 C   0  0  0  0  0  0  0  0  0  0  0  0
   -3.5872    1.2563   -3.2885 C   0  0  0  0  0  0  0  0  0  0  0  0
   -3.8402   -0.1112   -3.0933 C   0  0  0  0  0  0  0  0  0  0  0  0
   -4.5452    2.1546   -2.9932 F   0  0  0  0  0  0  0  0  0  0  0  0
   -0.1508    1.1465   -4.5380 F   0  0  0  0  0  0  0  0  0  0  0  0
   -4.1001   -3.1065   -4.0030 C   0  0  0  0  0  0  0  0  0  0  0  0
   -5.1712   -2.4172   -5.0898 S   0  0  0  0  0  0  0  0  0  0  0  0
   -1.0623   -2.7941   -1.8657 C   0  0  0  0  0  0  0  0  0  0  0  0
   -0.1804   -3.7615   -1.4255 C   0  0  0  0  0  0  0  0  0  0  0  0
   -0.7122   -5.2634   -2.0070 S   0  0  0  0  0  0  0  0  0  0  0  0
    0.8818   -3.4248   -0.4373 C   0  0  0  0  0  0  0  0  0  0  0  0
    0.5484   -3.1218    0.9237 C   0  0  0  0  0  0  0  0  0  0  0  0
   -0.2233   -4.0513    1.7514 N   0  0  0  0  0  0  0  0  0  0  0  0
   -0.4262   -4.0186    3.1622 C   0  0  0  0  0  0  0  0  0  0  0  0
   -0.1728   -5.1189    3.9660 C   0  0  0  0  0  0  0  0  0  0  0  0
   -0.4181   -5.1583    5.3518 C   0  0  0  0  0  0  0  0  0  0  0  0
   -0.9759   -4.0612    5.9791 C   0  0  0  0  0  0  0  0  0  0  0  0
   -1.6733   -4.3530    7.6332 S   0  0  0  0  0  0  0  0  0  0  0  0
   -1.1066   -2.7901    8.4274 C   0  0  0  0  0  0  0  0  0  0  0  0
   -1.2677   -2.9765    5.1832 C   0  0  0  0  0  0  0  0  0  0  0  0
   -1.0304   -2.8861    3.8057 C   0  0  0  0  0  0  0  0  0  0  0  0
   -0.3605   -5.4137    1.1683 C   0  0  0  0  0  0  0  0  0  0  0  0
   -1.6052   -5.9902    0.9869 C   0  0  0  0  0  0  0  0  0  0  0  0
   -1.6380   -7.3399    0.5713 C   0  0  0  0  0  0  0  0  0  0  0  0
   -0.4474   -8.0059    0.2777 C   0  0  0  0  0  0  0  0  0  0  0  0
   -0.4606   -9.7415   -0.2380 S   0  0  0  0  0  0  0  0  0  0  0  0
   -0.0913   -9.3816   -1.9834 C   0  0  0  0  0  0  0  0  0  0  0  0
    0.7966   -7.4135    0.4920 C   0  0  0  0  0  0  0  0  0  0  0  0
    0.8306   -6.0731    0.9352 C   0  0  0  0  0  0  0  0  0  0  0  0
    1.1789   -1.8897    1.3666 C   0  0  0  0  0  0  0  0  0  0  0  0
    0.8990   -0.7855    2.5905 S   0  0  0  0  0  0  0  0  0  0  0  0
    2.0153    0.3961    2.0417 C   0  0  0  0  0  0  0  0  0  0  0  0
    2.6332   -0.1104    0.8794 C   0  0  0  0  0  0  0  0  0  0  0  0
    3.7061    0.6231    0.1680 N   0  0  0  0  0  0  0  0  0  0  0  0
    4.1789    0.1964   -1.1282 C   0  0  0  0  0  0  0  0  0  0  0  0
    3.2838    0.0107   -2.2144 C   0  0  0  0  0  0  0  0  0  0  0  0
    3.8002   -0.5237   -3.3712 C   0  0  0  0  0  0  0  0  0  0  0  0
    5.1669   -0.6871   -3.6048 C   0  0  0  0  0  0  0  0  0  0  0  0
    5.8076   -1.1866   -5.2137 S   0  0  0  0  0  0  0  0  0  0  0  0
    5.7796   -3.0133   -4.9497 C   0  0  0  0  0  0  0  0  0  0  0  0
    6.0553   -0.3281   -2.5657 C   0  0  0  0  0  0  0  0  0  0  0  0
    5.5501    0.0450   -1.3545 C   0  0  0  0  0  0  0  0  0  0  0  0
    4.3752    1.7521    0.7786 C   0  0  0  0  0  0  0  0  0  0  0  0
    4.6077    2.8898    0.0129 C   0  0  0  0  0  0  0  0  0  0  0  0
    5.2605    3.9637    0.6224 C   0  0  0  0  0  0  0  0  0  0  0  0
    5.7328    3.9019    1.8965 C   0  0  0  0  0  0  0  0  0  0  0  0
    6.4439    5.3693    2.7112 S   0  0  0  0  0  0  0  0  0  0  0  0
    7.6890    5.8831    1.4285 C   0  0  0  0  0  0  0  0  0  0  0  0
    5.5344    2.7587    2.6673 C   0  0  0  0  0  0  0  0  0  0  0  0
    4.8559    1.6676    2.1048 C   0  0  0  0  0  0  0  0  0  0  0  0
    2.1089   -1.3647    0.5383 C   0  0  0  0  0  0  0  0  0  0  0  0
    2.0870   -2.3362   -0.8583 S   0  0  0  0  0  0  0  0  0  0  0  0
    1.9476    1.7437    2.6732 C   0  0  0  0  0  0  0  0  0  0  0  0
    1.4482    2.9398    2.1005 C   0  0  0  0  0  0  0  0  0  0  0  0
    1.2132    3.9803    3.0519 C   0  0  0  0  0  0  0  0  0  0  0  0
    0.7166    5.2948    2.8355 C   0  0  0  0  0  0  0  0  0  0  0  0
    0.0602    5.7729    1.5762 C   0  0  0  0  0  0  0  0  0  0  0  0
    0.5238    5.4413    0.2953 C   0  0  0  0  0  0  0  0  0  0  0  0
   -0.1957    5.6594   -0.8671 C   0  0  0  0  0  0  0  0  0  0  0  0
    0.1666    5.1677   -2.0556 F   0  0  0  0  0  0  0  0  0  0  0  0
   -1.4047    6.3821   -0.7831 C   0  0  0  0  0  0  0  0  0  0  0  0
   -2.1615    6.5874   -1.9249 O   0  0  0  0  0  0  0  0  0  0  0  0
   -2.2845    7.8522   -2.5785 C   0  0  0  0  0  0  0  0  0  0  0  0
   -3.5808    7.8812   -3.3928 C   0  0  0  0  0  0  0  0  0  0  0  0
   -1.8354    6.8649    0.4355 C   0  0  0  0  0  0  0  0  0  0  0  0
   -2.9497    7.6414    0.4761 F   0  0  0  0  0  0  0  0  0  0  0  0
   -1.1565    6.5137    1.6284 C   0  0  0  0  0  0  0  0  0  0  0  0
    0.6186    6.1113    4.0529 C   0  0  0  0  0  0  0  0  0  0  0  0
    0.8399    5.5617    5.2836 C   0  0  0  0  0  0  0  0  0  0  0  0
    1.1706    4.2072    5.4896 C   0  0  0  0  0  0  0  0  0  0  0  0
    0.4002    3.4115    6.4782 C   0  0  0  0  0  0  0  0  0  0  0  0
   -0.9162    3.1443    6.0602 C   0  0  0  0  0  0  0  0  0  0  0  0
   -1.7410    2.3797    6.9410 C   0  0  0  0  0  0  0  0  0  0  0  0
   -1.2407    1.8631    8.1139 C   0  0  0  0  0  0  0  0  0  0  0  0
   -1.9306    0.7395    8.7036 O   0  0  0  0  0  0  0  0  0  0  0  0
   -2.1997    0.5437   10.1043 C   0  0  0  0  0  0  0  0  0  0  0  0
   -3.7147    0.7483   10.3971 C   0  0  0  0  0  0  0  0  0  0  0  0
   -0.0667    2.3765    8.6639 C   0  0  0  0  0  0  0  0  0  0  0  0
    0.8229    3.0108    7.7413 C   0  0  0  0  0  0  0  0  0  0  0  0
    0.2528    2.4106    9.9895 F   0  0  0  0  0  0  0  0  0  0  0  0
   -2.9536    1.8778    6.5819 F   0  0  0  0  0  0  0  0  0  0  0  0
    1.4908    3.4951    4.3365 C   0  0  0  0  0  0  0  0  0  0  0  0
    1.9509    1.8935    4.3154 S   0  0  0  0  0  0  0  0  0  0  0  0
    0.6994    6.4195    6.3358 C   0  0  0  0  0  0  0  0  0  0  0  0
    0.4480    7.7168    5.9305 C   0  0  0  0  0  0  0  0  0  0  0  0
    0.3316    7.7989    4.2449 S   0  0  0  0  0  0  0  0  0  0  0  0
    0.7567    8.8238    6.9053 C   0  0  0  0  0  0  0  0  0  0  0  0
    1.9641    8.7797    7.4626 C   0  0  0  0  0  0  0  0  0  0  0  0
    3.1129    8.4021    6.6504 C   0  0  0  0  0  0  0  0  0  0  0  0
    3.1838    8.4739    5.3831 O   0  0  0  0  0  0  0  0  0  0  0  0
    4.1718    7.9867    7.4923 C   0  0  0  0  0  0  0  0  0  0  0  0
    5.3548    7.3277    7.1009 C   0  0  0  0  0  0  0  0  0  0  0  0
    6.1394    6.8091    8.1080 C   0  0  0  0  0  0  0  0  0  0  0  0
    5.7308    6.8813    9.4644 C   0  0  0  0  0  0  0  0  0  0  0  0
    4.5671    7.4829    9.8809 C   0  0  0  0  0  0  0  0  0  0  0  0
    3.7737    8.0971    8.8474 C   0  0  0  0  0  0  0  0  0  0  0  0
    2.3382    8.4868    8.8854 C   0  0  0  0  0  0  0  0  0  0  0  0
    1.4564    8.3133    9.9246 C   0  0  0  0  0  0  0  0  0  0  0  0
    1.8841    8.1915   11.2664 C   0  0  0  0  0  0  0  0  0  0  0  0
    2.2587    8.0765   12.3690 N   0  0  0  0  0  0  0  0  0  0  0  0
    0.0447    8.1670    9.7601 C   0  0  0  0  0  0  0  0  0  0  0  0
   -1.0733    8.0823    9.6012 N   0  0  0  0  0  0  0  0  0  0  0  0
    6.8828    6.0086    9.8549 C   0  0  0  0  0  0  0  0  0  0  0  0
    6.5287    4.5346   10.0865 C   0  0  0  0  0  0  0  0  0  0  0  0
    5.4302    4.0793    9.1366 C   0  0  0  0  0  0  0  0  0  0  0  0
    5.9724    4.0382    7.9275 C   0  0  0  0  0  0  0  0  0  0  0  0
    7.3836    4.5130    8.0768 C   0  0  0  0  0  0  0  0  0  0  0  0
    7.7049    3.8719    9.4262 C   0  0  0  0  0  0  0  0  0  0  0  0
    7.3559    6.0315    8.4810 C   0  0  0  0  0  0  0  0  0  0  0  0
   -7.2626   -3.5196   -7.3063 H   0  0  0  0  0  0  0  0  0  0  0  0
   -1.2344   -4.6513   -8.5175 H   0  0  0  0  0  0  0  0  0  0  0  0
   -3.7556   -1.7741  -11.4695 H   0  0  0  0  0  0  0  0  0  0  0  0
   -0.7036   -3.3732  -13.0449 H   0  0  0  0  0  0  0  0  0  0  0  0
   -1.1237   -0.7321  -12.8893 H   0  0  0  0  0  0  0  0  0  0  0  0
    1.4377   -0.9584  -13.4718 H   0  0  0  0  0  0  0  0  0  0  0  0
    2.6252   -1.4568  -11.2017 H   0  0  0  0  0  0  0  0  0  0  0  0
    0.8449   -1.8812   -9.3681 H   0  0  0  0  0  0  0  0  0  0  0  0
   -1.4489   -0.9288  -10.2429 H   0  0  0  0  0  0  0  0  0  0  0  0
   -0.0869    0.2024  -10.6910 H   0  0  0  0  0  0  0  0  0  0  0  0
    0.6826   -4.0886  -11.1820 H   0  0  0  0  0  0  0  0  0  0  0  0
   -5.3653   -5.9974   -5.2111 H   0  0  0  0  0  0  0  0  0  0  0  0
   -2.8932   -7.9400   -4.2609 H   0  0  0  0  0  0  0  0  0  0  0  0
   -3.9725   -9.6698    1.0590 H   0  0  0  0  0  0  0  0  0  0  0  0
   -3.3713  -11.0194    0.0901 H   0  0  0  0  0  0  0  0  0  0  0  0
   -4.7955  -11.6701    2.1356 H   0  0  0  0  0  0  0  0  0  0  0  0
   -5.3535  -12.3713    0.5068 H   0  0  0  0  0  0  0  0  0  0  0  0
   -6.2307  -10.9180    1.2249 H   0  0  0  0  0  0  0  0  0  0  0  0
   -4.5193   -5.4482   -1.1971 H   0  0  0  0  0  0  0  0  0  0  0  0
   -0.7953   -1.3101   -4.1642 H   0  0  0  0  0  0  0  0  0  0  0  0
   -3.3260    3.6721   -5.5549 H   0  0  0  0  0  0  0  0  0  0  0  0
   -2.0383    4.8129   -5.0558 H   0  0  0  0  0  0  0  0  0  0  0  0
   -1.6152    2.1606   -6.5890 H   0  0  0  0  0  0  0  0  0  0  0  0
   -1.4435    3.8672   -7.2365 H   0  0  0  0  0  0  0  0  0  0  0  0
   -0.3002    3.2473   -5.9765 H   0  0  0  0  0  0  0  0  0  0  0  0
   -4.7611   -0.4356   -2.6380 H   0  0  0  0  0  0  0  0  0  0  0  0
   -1.0097   -1.7553   -1.5479 H   0  0  0  0  0  0  0  0  0  0  0  0
    0.2209   -6.0307    3.4945 H   0  0  0  0  0  0  0  0  0  0  0  0
   -0.3206   -6.0849    5.9011 H   0  0  0  0  0  0  0  0  0  0  0  0
   -0.0325   -2.8800    8.7429 H   0  0  0  0  0  0  0  0  0  0  0  0
   -1.7037   -2.7435    9.3841 H   0  0  0  0  0  0  0  0  0  0  0  0
   -1.2463   -1.9133    7.8162 H   0  0  0  0  0  0  0  0  0  0  0  0
   -1.6711   -2.0742    5.6915 H   0  0  0  0  0  0  0  0  0  0  0  0
   -1.3675   -2.0442    3.2599 H   0  0  0  0  0  0  0  0  0  0  0  0
   -2.4902   -5.5053    1.2146 H   0  0  0  0  0  0  0  0  0  0  0  0
   -2.5644   -7.8314    0.4808 H   0  0  0  0  0  0  0  0  0  0  0  0
    0.0456  -10.3485   -2.5177 H   0  0  0  0  0  0  0  0  0  0  0  0
   -0.9069   -8.7968   -2.4399 H   0  0  0  0  0  0  0  0  0  0  0  0
    0.8594   -8.7956   -2.0432 H   0  0  0  0  0  0  0  0  0  0  0  0
    1.7246   -7.9495    0.2939 H   0  0  0  0  0  0  0  0  0  0  0  0
    1.7706   -5.6049    1.0946 H   0  0  0  0  0  0  0  0  0  0  0  0
    2.2494    0.2266   -2.1248 H   0  0  0  0  0  0  0  0  0  0  0  0
    3.1320   -0.7845   -4.2067 H   0  0  0  0  0  0  0  0  0  0  0  0
    5.7240   -3.2638   -3.8724 H   0  0  0  0  0  0  0  0  0  0  0  0
    6.7328   -3.4331   -5.3962 H   0  0  0  0  0  0  0  0  0  0  0  0
    4.8979   -3.4486   -5.4960 H   0  0  0  0  0  0  0  0  0  0  0  0
    7.1428   -0.3848   -2.7812 H   0  0  0  0  0  0  0  0  0  0  0  0
    6.2752    0.3260   -0.5757 H   0  0  0  0  0  0  0  0  0  0  0  0
    4.2906    2.9897   -1.0131 H   0  0  0  0  0  0  0  0  0  0  0  0
    5.4076    4.8767    0.0382 H   0  0  0  0  0  0  0  0  0  0  0  0
    8.6930    5.4236    1.6285 H   0  0  0  0  0  0  0  0  0  0  0  0
    7.3707    5.6304    0.4091 H   0  0  0  0  0  0  0  0  0  0  0  0
    7.8079    7.0064    1.4775 H   0  0  0  0  0  0  0  0  0  0  0  0
    5.8045    2.7715    3.6914 H   0  0  0  0  0  0  0  0  0  0  0  0
    4.6902    0.7811    2.7185 H   0  0  0  0  0  0  0  0  0  0  0  0
    1.0413    2.9790    1.1301 H   0  0  0  0  0  0  0  0  0  0  0  0
    1.4761    4.9131    0.1940 H   0  0  0  0  0  0  0  0  0  0  0  0
   -1.4269    8.0054   -3.2822 H   0  0  0  0  0  0  0  0  0  0  0  0
   -2.3023    8.6693   -1.8488 H   0  0  0  0  0  0  0  0  0  0  0  0
   -4.4243    7.4902   -2.7782 H   0  0  0  0  0  0  0  0  0  0  0  0
   -3.4836    7.2369   -4.3252 H   0  0  0  0  0  0  0  0  0  0  0  0
   -3.8113    8.9378   -3.7106 H   0  0  0  0  0  0  0  0  0  0  0  0
   -1.5361    6.7555    2.6267 H   0  0  0  0  0  0  0  0  0  0  0  0
   -1.2181    3.6298    5.1212 H   0  0  0  0  0  0  0  0  0  0  0  0
   -1.9172   -0.5194   10.2907 H   0  0  0  0  0  0  0  0  0  0  0  0
   -1.5638    1.2194   10.7576 H   0  0  0  0  0  0  0  0  0  0  0  0
   -4.3030   -0.1774   10.0798 H   0  0  0  0  0  0  0  0  0  0  0  0
   -3.8321    0.8929   11.5253 H   0  0  0  0  0  0  0  0  0  0  0  0
   -4.0752    1.6630    9.8322 H   0  0  0  0  0  0  0  0  0  0  0  0
    1.7784    3.4090    8.1000 H   0  0  0  0  0  0  0  0  0  0  0  0
    0.9072    6.1585    7.3798 H   0  0  0  0  0  0  0  0  0  0  0  0
   -0.0484    9.3982    7.3723 H   0  0  0  0  0  0  0  0  0  0  0  0
    5.6231    7.1751    6.0639 H   0  0  0  0  0  0  0  0  0  0  0  0
    4.3030    7.4652   10.8990 H   0  0  0  0  0  0  0  0  0  0  0  0
    7.6126    6.4707   10.5760 H   0  0  0  0  0  0  0  0  0  0  0  0
    6.3604    4.2413   11.1557 H   0  0  0  0  0  0  0  0  0  0  0  0
    4.3734    3.8787    9.3603 H   0  0  0  0  0  0  0  0  0  0  0  0
    5.4606    3.7402    7.0019 H   0  0  0  0  0  0  0  0  0  0  0  0
    8.0726    4.2314    7.2432 H   0  0  0  0  0  0  0  0  0  0  0  0
    8.6836    4.2082    9.8385 H   0  0  0  0  0  0  0  0  0  0  0  0
    7.6567    2.7570    9.4170 H   0  0  0  0  0  0  0  0  0  0  0  0
    8.3408    6.5605    8.3279 H   0  0  0  0  0  0  0  0  0  0  0  0
  1  2  2  3
  2  3  1  0
  3  4  2  0
  3  5  1  0
  5  6  2  0
  6  7  1  0
  7  8  2  0
  8  9  1  0
  9 10  2  0
 10 11  1  0
 11 12  2  3
 12 13  1  0
 13 14  3  0
 12 15  1  0
 15 16  3  0
  8 17  1  0
 17 18  1  0
 18 19  1  0
 19 20  2  0
 20 21  1  0
 21 22  1  0
 21 23  1  0
  1 24  1  0
 24 25  2  0
 25 26  1  0
 26 27  2  0
 27 28  1  0
 28 29  2  0
 29 30  1  0
 30 31  1  0
 30 32  2  0
 32 33  1  0
 33 34  1  0
 34 35  1  0
 32 36  1  0
 36 37  1  0
 36 38  2  0
 27 39  1  0
 39 40  2  0
 40 41  1  0
 41 42  1  0
 42 43  2  0
 43 44  1  0
 44 45  2  0
 45 46  1  0
 46 47  1  0
 47 48  1  0
 45 49  1  0
 49 50  2  0
 49 51  1  0
 44 52  1  0
 41 53  2  0
 53 54  1  0
 40 55  1  0
 55 56  2  0
 56 57  1  0
 56 58  1  0
 58 59  2  0
 59 60  1  0
 60 61  1  0
 61 62  2  0
 62 63  1  0
 63 64  2  0
 64 65  1  0
 65 66  1  0
 64 67  1  0
 67 68  2  0
 60 69  1  0
 69 70  2  0
 70 71  1  0
 71 72  2  0
 72 73  1  0
 73 74  1  0
 72 75  1  0
 75 76  2  0
 59 77  1  0
 77 78  1  0
 78 79  1  0
 79 80  2  0
 80 81  1  0
 81 82  1  0
 82 83  2  0
 83 84  1  0
 84 85  2  0
 85 86  1  0
 86 87  1  0
 85 88  1  0
 88 89  2  0
 81 90  1  0
 90 91  2  0
 91 92  1  0
 92 93  2  0
 93 94  1  0
 94 95  1  0
 93 96  1  0
 96 97  2  0
 80 98  1  0
 98 99  1  0
 79100  1  0
100101  2  0
101102  1  0
102103  2  0
103104  1  0
104105  2  0
105106  1  0
106107  1  0
106108  2  0
108109  1  0
109110  1  0
110111  1  0
108112  1  0
112113  1  0
112114  2  0
103115  1  0
115116  2  0
116117  1  0
117118  1  0
118119  2  0
119120  1  0
120121  2  0
121122  1  0
122123  1  0
123124  1  0
121125  1  0
125126  2  0
125127  1  0
120128  1  0
117129  2  0
129130  1  0
116131  1  0
131132  2  0
132133  1  0
132134  1  0
134135  2  3
135136  1  0
136137  2  0
136138  1  0
138139  2  0
139140  1  0
140141  2  0
141142  1  0
142143  2  0
143144  1  0
144145  2  3
145146  1  0
146147  3  0
145148  1  0
148149  3  0
141150  1  0
150151  1  0
151152  1  0
152153  2  0
153154  1  0
154155  1  0
154156  1  0
 11  2  1  0
 23 17  1  0
 54 24  1  0
 99 58  1  0
130100  1  0
144135  1  0
156150  1  0
 10  5  1  0
 22 18  1  0
 53 26  1  0
 68 61  1  0
 76 69  1  0
 98 77  2  0
129102  1  0
143138  1  0
155151  1  0
 23  7  1  0
 38 28  1  0
 57 39  1  0
 89 82  1  0
 97 90  1  0
114104  1  0
133115  1  0
156140  1  0
 50 42  1  0
126118  1  0
  1157  1  0
  6158  1  0
  9159  1  0
 17160  1  0
 18161  1  0
 19162  1  0
 20163  1  0
 21164  1  0
 22165  1  0
 22166  1  0
 23167  1  0
 25168  1  0
 29169  1  0
 34170  1  0
 34171  1  0
 35172  1  0
 35173  1  0
 35174  1  0
 38175  1  0
 43176  1  0
 47177  1  0
 47178  1  0
 48179  1  0
 48180  1  0
 48181  1  0
 50182  1  0
 55183  1  0
 62184  1  0
 63185  1  0
 66186  1  0
 66187  1  0
 66188  1  0
 67189  1  0
 68190  1  0
 70191  1  0
 71192  1  0
 74193  1  0
 74194  1  0
 74195  1  0
 75196  1  0
 76197  1  0
 83198  1  0
 84199  1  0
 87200  1  0
 87201  1  0
 87202  1  0
 88203  1  0
 89204  1  0
 91205  1  0
 92206  1  0
 95207  1  0
 95208  1  0
 95209  1  0
 96210  1  0
 97211  1  0
101212  1  0
105213  1  0
110214  1  0
110215  1  0
111216  1  0
111217  1  0
111218  1  0
114219  1  0
119220  1  0
123221  1  0
123222  1  0
124223  1  0
124224  1  0
124225  1  0
126226  1  0
131227  1  0
134228  1  0
139229  1  0
142230  1  0
150231  1  0
151232  1  0
152233  1  0
153234  1  0
154235  1  0
155236  1  0
155237  1  0
156238  1  0
M  END

