
     RDKit          3D

230253  0  0  0  0  0  0  0  0999 V2000
    2.5042    8.3488    2.5154 C   0  0  0  0  0  0  0  0  0  0  0  0
    2.8021    8.2509    1.1982 C   0  0  0  0  0  0  0  0  0  0  0  0
    2.0606    7.4122    0.2450 C   0  0  0  0  0  0  0  0  0  0  0  0
    0.8131    7.2385    0.2220 O   0  0  0  0  0  0  0  0  0  0  0  0
    2.9901    6.8179   -0.6829 C   0  0  0  0  0  0  0  0  0  0  0  0
    2.7107    5.7921   -1.6138 C   0  0  0  0  0  0  0  0  0  0  0  0
    3.8276    5.3203   -2.2746 C   0  0  0  0  0  0  0  0  0  0  0  0
    5.1522    5.8075   -2.0201 C   0  0  0  0  0  0  0  0  0  0  0  0
    5.4302    6.8083   -1.0936 C   0  0  0  0  0  0  0  0  0  0  0  0
    4.2867    7.3311   -0.4299 C   0  0  0  0  0  0  0  0  0  0  0  0
    4.1842    8.3589    0.6459 C   0  0  0  0  0  0  0  0  0  0  0  0
    5.0810    9.3286    0.9438 C   0  0  0  0  0  0  0  0  0  0  0  0
    6.3672    9.4070    0.3071 C   0  0  0  0  0  0  0  0  0  0  0  0
    7.4083    9.4783   -0.2004 N   0  0  0  0  0  0  0  0  0  0  0  0
    4.7198   10.4366    1.7918 C   0  0  0  0  0  0  0  0  0  0  0  0
    4.4090   11.3424    2.4388 N   0  0  0  0  0  0  0  0  0  0  0  0
    5.7175    4.8156   -2.9971 C   0  0  0  0  0  0  0  0  0  0  0  0
    6.4352    3.5669   -2.3923 C   0  0  0  0  0  0  0  0  0  0  0  0
    6.5598    2.5771   -3.5249 C   0  0  0  0  0  0  0  0  0  0  0  0
    5.3254    2.1318   -3.7786 C   0  0  0  0  0  0  0  0  0  0  0  0
    4.4052    2.8399   -2.8125 C   0  0  0  0  0  0  0  0  0  0  0  0
    5.3265    2.8818   -1.6098 C   0  0  0  0  0  0  0  0  0  0  0  0
    4.3571    4.3300   -3.2684 C   0  0  0  0  0  0  0  0  0  0  0  0
    1.6293    7.3366    3.1372 C   0  0  0  0  0  0  0  0  0  0  0  0
    2.0233    6.0034    3.1104 C   0  0  0  0  0  0  0  0  0  0  0  0
    0.9623    5.1130    2.9282 C   0  0  0  0  0  0  0  0  0  0  0  0
    1.0857    3.7642    2.5485 C   0  0  0  0  0  0  0  0  0  0  0  0
    2.3877    3.0642    2.5094 C   0  0  0  0  0  0  0  0  0  0  0  0
    3.5407    3.4883    1.8597 C   0  0  0  0  0  0  0  0  0  0  0  0
    4.6760    2.7392    2.2017 C   0  0  0  0  0  0  0  0  0  0  0  0
    6.2866    3.2008    1.6687 Cl  0  0  0  0  0  0  0  0  0  0  0  0
    4.4097    1.6900    3.0777 C   0  0  0  0  0  0  0  0  0  0  0  0
    5.6462    0.5488    3.8501 Si  0  0  0  0  0  4  0  0  0  0  0  0
    6.7280    1.5963    4.9787 C   0  0  0  0  0  0  0  0  0  0  0  0
    7.7519    0.7603    5.7307 C   0  0  0  0  0  0  0  0  0  0  0  0
    6.7358   -0.2448    2.5278 C   0  0  0  0  0  0  0  0  0  0  0  0
    5.9619   -0.5869    1.2573 C   0  0  0  0  0  0  0  0  0  0  0  0
    4.7704   -0.7517    4.8943 C   0  0  0  0  0  0  0  0  0  0  0  0
    4.0151   -1.7725    4.0534 C   0  0  0  0  0  0  0  0  0  0  0  0
    2.7734    1.7357    3.4675 S   0  0  0  0  0  0  0  0  0  0  0  0
   -0.0930    3.1193    2.1474 C   0  0  0  0  0  0  0  0  0  0  0  0
   -1.3558    3.7199    2.2222 C   0  0  0  0  0  0  0  0  0  0  0  0
   -1.4877    5.0359    2.7080 C   0  0  0  0  0  0  0  0  0  0  0  0
   -2.8104    5.6170    3.0135 C   0  0  0  0  0  0  0  0  0  0  0  0
   -3.8768    4.9388    4.1266 S   0  0  0  0  0  0  0  0  0  0  0  0
   -4.8985    6.2660    4.2646 C   0  0  0  0  0  0  0  0  0  0  0  0
   -6.2299    6.4161    5.5493 Si  0  0  0  0  0  4  0  0  0  0  0  0
   -6.5910    4.7305    6.3089 C   0  0  0  0  0  0  0  0  0  0  0  0
   -5.5412    4.2792    7.3178 C   0  0  0  0  0  0  0  0  0  0  0  0
   -5.6996    7.6714    6.8542 C   0  0  0  0  0  0  0  0  0  0  0  0
   -4.2186    7.5633    7.2040 C   0  0  0  0  0  0  0  0  0  0  0  0
   -7.8107    7.0274    4.7308 C   0  0  0  0  0  0  0  0  0  0  0  0
   -8.9096    7.3037    5.7509 C   0  0  0  0  0  0  0  0  0  0  0  0
   -4.4007    7.2734    3.4354 C   0  0  0  0  0  0  0  0  0  0  0  0
   -3.2404    6.9105    2.7363 C   0  0  0  0  0  0  0  0  0  0  0  0
   -5.0605    8.9000    3.3436 Cl  0  0  0  0  0  0  0  0  0  0  0  0
   -0.2906    5.7348    2.9706 C   0  0  0  0  0  0  0  0  0  0  0  0
   -0.0574    7.4000    3.1235 S   0  0  0  0  0  0  0  0  0  0  0  0
   -2.3683    2.9562    1.6106 C   0  0  0  0  0  0  0  0  0  0  0  0
   -1.8715    1.8039    1.0011 C   0  0  0  0  0  0  0  0  0  0  0  0
   -0.2142    1.6880    1.2892 S   0  0  0  0  0  0  0  0  0  0  0  0
   -2.5696    0.9034    0.0746 C   0  0  0  0  0  0  0  0  0  0  0  0
   -3.8456    0.3408    0.2326 C   0  0  0  0  0  0  0  0  0  0  0  0
   -4.9470    1.0454    0.8343 N   0  0  0  0  0  0  0  0  0  0  0  0
   -5.7569    1.8367   -0.0650 C   0  0  0  0  0  0  0  0  0  0  0  0
   -5.1560    2.7988   -0.8938 C   0  0  0  0  0  0  0  0  0  0  0  0
   -5.9057    3.4742   -1.8618 C   0  0  0  0  0  0  0  0  0  0  0  0
   -7.2666    3.1858   -2.0204 C   0  0  0  0  0  0  0  0  0  0  0  0
   -8.2122    4.0033   -3.3037 S   0  0  0  0  0  0  0  0  0  0  0  0
   -7.8776    2.7121   -4.5452 C   0  0  0  0  0  0  0  0  0  0  0  0
   -7.8818    2.2478   -1.1839 C   0  0  0  0  0  0  0  0  0  0  0  0
   -7.1319    1.5742   -0.2115 C   0  0  0  0  0  0  0  0  0  0  0  0
   -5.3781    0.7670    2.1868 C   0  0  0  0  0  0  0  0  0  0  0  0
   -6.2368    1.6606    2.8599 C   0  0  0  0  0  0  0  0  0  0  0  0
   -6.7387    1.3490    4.1245 C   0  0  0  0  0  0  0  0  0  0  0  0
   -6.3623    0.1642    4.7598 C   0  0  0  0  0  0  0  0  0  0  0  0
   -7.0142   -0.2288    6.3837 S   0  0  0  0  0  0  0  0  0  0  0  0
   -8.4746   -1.1015    5.7288 C   0  0  0  0  0  0  0  0  0  0  0  0
   -5.4756   -0.7127    4.1241 C   0  0  0  0  0  0  0  0  0  0  0  0
   -4.9873   -0.4166    2.8455 C   0  0  0  0  0  0  0  0  0  0  0  0
   -4.0490   -0.6720   -0.7038 C   0  0  0  0  0  0  0  0  0  0  0  0
   -5.0947   -1.9760   -0.7672 S   0  0  0  0  0  0  0  0  0  0  0  0
   -4.2894   -2.7532   -2.0656 C   0  0  0  0  0  0  0  0  0  0  0  0
   -3.2253   -1.9176   -2.5049 C   0  0  0  0  0  0  0  0  0  0  0  0
   -2.6210   -1.9596   -3.8280 N   0  0  0  0  0  0  0  0  0  0  0  0
   -1.4954   -1.1249   -4.1320 C   0  0  0  0  0  0  0  0  0  0  0  0
   -0.1977   -1.5046   -3.7606 C   0  0  0  0  0  0  0  0  0  0  0  0
    0.8958   -0.7047   -4.1164 C   0  0  0  0  0  0  0  0  0  0  0  0
    0.6929    0.4822   -4.8414 C   0  0  0  0  0  0  0  0  0  0  0  0
    2.0776    1.5249   -5.2944 S   0  0  0  0  0  0  0  0  0  0  0  0
    2.2297    0.8155   -6.9658 C   0  0  0  0  0  0  0  0  0  0  0  0
   -0.6033    0.8673   -5.1943 C   0  0  0  0  0  0  0  0  0  0  0  0
   -1.6911    0.0671   -4.8493 C   0  0  0  0  0  0  0  0  0  0  0  0
   -3.3846   -2.4103   -4.9669 C   0  0  0  0  0  0  0  0  0  0  0  0
   -4.7469   -2.0958   -5.0970 C   0  0  0  0  0  0  0  0  0  0  0  0
   -5.4845   -2.5922   -6.1756 C   0  0  0  0  0  0  0  0  0  0  0  0
   -4.8642   -3.3859   -7.1427 C   0  0  0  0  0  0  0  0  0  0  0  0
   -5.8295   -4.0671   -8.4913 S   0  0  0  0  0  0  0  0  0  0  0  0
   -6.2241   -5.6012   -7.5921 C   0  0  0  0  0  0  0  0  0  0  0  0
   -3.4902   -3.6384   -7.0647 C   0  0  0  0  0  0  0  0  0  0  0  0
   -2.7502   -3.1449   -5.9872 C   0  0  0  0  0  0  0  0  0  0  0  0
   -3.0748   -0.8315   -1.6327 C   0  0  0  0  0  0  0  0  0  0  0  0
   -1.8065    0.1956   -1.2727 S   0  0  0  0  0  0  0  0  0  0  0  0
   -4.3218   -4.2309   -2.2305 C   0  0  0  0  0  0  0  0  0  0  0  0
   -3.5709   -5.0969   -3.4866 S   0  0  0  0  0  0  0  0  0  0  0  0
   -3.6254   -6.5741   -2.7199 C   0  0  0  0  0  0  0  0  0  0  0  0
   -2.7129   -7.5891   -2.6717 C   0  0  0  0  0  0  0  0  0  0  0  0
   -2.6651   -8.0062   -1.3714 C   0  0  0  0  0  0  0  0  0  0  0  0
   -3.5372   -7.3124   -0.5903 N   0  0  0  0  0  0  0  0  0  0  0  0
   -3.5626   -7.2526    0.8728 C   0  0  0  0  0  0  0  0  0  0  0  0
   -4.8282   -7.9263    1.3986 C   0  0  0  0  0  0  0  0  0  0  0  0
   -4.1043   -6.4171   -1.4486 C   0  0  0  0  0  0  0  0  0  0  0  0
   -4.5486   -5.1188   -1.1581 C   0  0  0  0  0  0  0  0  0  0  0  0
   -1.4635   -8.6310   -1.0108 C   0  0  0  0  0  0  0  0  0  0  0  0
   -0.5554   -8.6142   -2.0771 C   0  0  0  0  0  0  0  0  0  0  0  0
   -1.2477   -7.8454   -3.4343 S   0  0  0  0  0  0  0  0  0  0  0  0
    0.8188   -9.1343   -2.0093 C   0  0  0  0  0  0  0  0  0  0  0  0
    1.9083   -8.4593   -2.4386 C   0  0  0  0  0  0  0  0  0  0  0  0
    1.9838   -7.0011   -2.6080 C   0  0  0  0  0  0  0  0  0  0  0  0
    1.0340   -6.1793   -2.5095 O   0  0  0  0  0  0  0  0  0  0  0  0
    3.3680   -6.6207   -2.7515 C   0  0  0  0  0  0  0  0  0  0  0  0
    3.8698   -5.3075   -2.9164 C   0  0  0  0  0  0  0  0  0  0  0  0
    5.2419   -5.2443   -3.0520 C   0  0  0  0  0  0  0  0  0  0  0  0
    6.0841   -6.4052   -3.0393 C   0  0  0  0  0  0  0  0  0  0  0  0
    5.6007   -7.6906   -2.8604 C   0  0  0  0  0  0  0  0  0  0  0  0
    4.1861   -7.7799   -2.6963 C   0  0  0  0  0  0  0  0  0  0  0  0
    3.3124   -8.9814   -2.5237 C   0  0  0  0  0  0  0  0  0  0  0  0
    3.6916  -10.2834   -2.5624 C   0  0  0  0  0  0  0  0  0  0  0  0
    2.7436  -11.3589   -2.7084 C   0  0  0  0  0  0  0  0  0  0  0  0
    1.9836  -12.2242   -2.8179 N   0  0  0  0  0  0  0  0  0  0  0  0
    5.0681  -10.7003   -2.5044 C   0  0  0  0  0  0  0  0  0  0  0  0
    6.1691  -11.0549   -2.4527 N   0  0  0  0  0  0  0  0  0  0  0  0
    7.2948   -5.5466   -3.2640 C   0  0  0  0  0  0  0  0  0  0  0  0
    8.2277   -5.3321   -2.0373 C   0  0  0  0  0  0  0  0  0  0  0  0
    9.1075   -4.1534   -2.3902 C   0  0  0  0  0  0  0  0  0  0  0  0
    8.3146   -3.0708   -2.3721 C   0  0  0  0  0  0  0  0  0  0  0  0
    6.9315   -3.5581   -2.0164 C   0  0  0  0  0  0  0  0  0  0  0  0
    7.3167   -4.6478   -1.0278 C   0  0  0  0  0  0  0  0  0  0  0  0
    6.4317   -4.3588   -3.2567 C   0  0  0  0  0  0  0  0  0  0  0  0
    3.2074    8.8242    3.1816 H   0  0  0  0  0  0  0  0  0  0  0  0
    1.7207    5.3808   -1.7706 H   0  0  0  0  0  0  0  0  0  0  0  0
    6.4472    7.1000   -0.8891 H   0  0  0  0  0  0  0  0  0  0  0  0
    6.2200    5.2848   -3.8701 H   0  0  0  0  0  0  0  0  0  0  0  0
    7.3761    3.7757   -1.8372 H   0  0  0  0  0  0  0  0  0  0  0  0
    7.4685    2.2106   -3.9889 H   0  0  0  0  0  0  0  0  0  0  0  0
    5.0636    1.3383   -4.4742 H   0  0  0  0  0  0  0  0  0  0  0  0
    3.4221    2.3490   -2.6468 H   0  0  0  0  0  0  0  0  0  0  0  0
    4.9193    3.4782   -0.7687 H   0  0  0  0  0  0  0  0  0  0  0  0
    5.6135    1.8747   -1.2249 H   0  0  0  0  0  0  0  0  0  0  0  0
    4.0043    4.5011   -4.3114 H   0  0  0  0  0  0  0  0  0  0  0  0
    3.0639    5.7277    3.0384 H   0  0  0  0  0  0  0  0  0  0  0  0
    3.5782    4.3501    1.2060 H   0  0  0  0  0  0  0  0  0  0  0  0
    6.0807    2.1292    5.7079 H   0  0  0  0  0  0  0  0  0  0  0  0
    7.2587    2.3514    4.3653 H   0  0  0  0  0  0  0  0  0  0  0  0
    7.2498    0.0657    6.4336 H   0  0  0  0  0  0  0  0  0  0  0  0
    8.4153    1.4277    6.3188 H   0  0  0  0  0  0  0  0  0  0  0  0
    8.3825    0.1842    5.0215 H   0  0  0  0  0  0  0  0  0  0  0  0
    7.1952   -1.1670    2.9445 H   0  0  0  0  0  0  0  0  0  0  0  0
    7.5524    0.4644    2.2752 H   0  0  0  0  0  0  0  0  0  0  0  0
    5.4643    0.3143    0.8396 H   0  0  0  0  0  0  0  0  0  0  0  0
    5.1928   -1.3634    1.4540 H   0  0  0  0  0  0  0  0  0  0  0  0
    6.6681   -0.9784    0.4950 H   0  0  0  0  0  0  0  0  0  0  0  0
    4.0570   -0.2286    5.5689 H   0  0  0  0  0  0  0  0  0  0  0  0
    5.5160   -1.2864    5.5175 H   0  0  0  0  0  0  0  0  0  0  0  0
    3.3372   -1.2702    3.3321 H   0  0  0  0  0  0  0  0  0  0  0  0
    4.7275   -2.4237    3.5068 H   0  0  0  0  0  0  0  0  0  0  0  0
    3.4016   -2.4136    4.7204 H   0  0  0  0  0  0  0  0  0  0  0  0
   -6.6331    3.9987    5.4790 H   0  0  0  0  0  0  0  0  0  0  0  0
   -7.5812    4.7510    6.8062 H   0  0  0  0  0  0  0  0  0  0  0  0
   -5.7478    3.2284    7.6145 H   0  0  0  0  0  0  0  0  0  0  0  0
   -5.5907    4.9127    8.2295 H   0  0  0  0  0  0  0  0  0  0  0  0
   -4.5212    4.3245    6.8812 H   0  0  0  0  0  0  0  0  0  0  0  0
   -6.3120    7.5258    7.7712 H   0  0  0  0  0  0  0  0  0  0  0  0
   -5.8973    8.6915    6.4616 H   0  0  0  0  0  0  0  0  0  0  0  0
   -3.9882    6.5864    7.6719 H   0  0  0  0  0  0  0  0  0  0  0  0
   -3.9507    8.3638    7.9268 H   0  0  0  0  0  0  0  0  0  0  0  0
   -3.5847    7.6895    6.3027 H   0  0  0  0  0  0  0  0  0  0  0  0
   -8.1628    6.2597    4.0101 H   0  0  0  0  0  0  0  0  0  0  0  0
   -7.6001    7.9608    4.1729 H   0  0  0  0  0  0  0  0  0  0  0  0
   -9.2214    6.3694    6.2595 H   0  0  0  0  0  0  0  0  0  0  0  0
   -9.7978    7.7267    5.2346 H   0  0  0  0  0  0  0  0  0  0  0  0
   -8.5661    8.0407    6.5090 H   0  0  0  0  0  0  0  0  0  0  0  0
   -2.7120    7.5922    2.0834 H   0  0  0  0  0  0  0  0  0  0  0  0
   -3.3912    3.2921    1.5116 H   0  0  0  0  0  0  0  0  0  0  0  0
   -4.0991    3.0175   -0.8084 H   0  0  0  0  0  0  0  0  0  0  0  0
   -5.4241    4.2066   -2.5007 H   0  0  0  0  0  0  0  0  0  0  0  0
   -8.2370    1.7232   -4.1847 H   0  0  0  0  0  0  0  0  0  0  0  0
   -6.7869    2.6563   -4.7534 H   0  0  0  0  0  0  0  0  0  0  0  0
   -8.4098    2.9663   -5.4836 H   0  0  0  0  0  0  0  0  0  0  0  0
   -8.9343    2.0265   -1.2985 H   0  0  0  0  0  0  0  0  0  0  0  0
   -7.6127    0.8233    0.3989 H   0  0  0  0  0  0  0  0  0  0  0  0
   -6.5316    2.5945    2.3975 H   0  0  0  0  0  0  0  0  0  0  0  0
   -7.4359    2.0240    4.6039 H   0  0  0  0  0  0  0  0  0  0  0  0
   -9.0404   -0.4412    5.0382 H   0  0  0  0  0  0  0  0  0  0  0  0
   -8.1578   -2.0212    5.1929 H   0  0  0  0  0  0  0  0  0  0  0  0
   -9.1348   -1.3858    6.5706 H   0  0  0  0  0  0  0  0  0  0  0  0
   -5.1774   -1.6334    4.6151 H   0  0  0  0  0  0  0  0  0  0  0  0
   -4.3231   -1.1292    2.3700 H   0  0  0  0  0  0  0  0  0  0  0  0
   -0.0401   -2.4254   -3.2143 H   0  0  0  0  0  0  0  0  0  0  0  0
    1.8955   -1.0068   -3.8312 H   0  0  0  0  0  0  0  0  0  0  0  0
    2.5336   -0.2493   -6.8982 H   0  0  0  0  0  0  0  0  0  0  0  0
    1.2645    0.8868   -7.5132 H   0  0  0  0  0  0  0  0  0  0  0  0
    2.9990    1.3774   -7.5315 H   0  0  0  0  0  0  0  0  0  0  0  0
   -0.7672    1.7796   -5.7601 H   0  0  0  0  0  0  0  0  0  0  0  0
   -2.6887    0.3724   -5.1407 H   0  0  0  0  0  0  0  0  0  0  0  0
   -5.2458   -1.4822   -4.3581 H   0  0  0  0  0  0  0  0  0  0  0  0
   -6.5426   -2.3738   -6.2463 H   0  0  0  0  0  0  0  0  0  0  0  0
   -5.2952   -6.1849   -7.4083 H   0  0  0  0  0  0  0  0  0  0  0  0
   -6.7148   -5.3683   -6.6220 H   0  0  0  0  0  0  0  0  0  0  0  0
   -6.9164   -6.2144   -8.2075 H   0  0  0  0  0  0  0  0  0  0  0  0
   -2.9978   -4.2385   -7.8194 H   0  0  0  0  0  0  0  0  0  0  0  0
   -1.6961   -3.3746   -5.9150 H   0  0  0  0  0  0  0  0  0  0  0  0
   -2.6794   -7.7640    1.3081 H   0  0  0  0  0  0  0  0  0  0  0  0
   -3.5322   -6.1987    1.2215 H   0  0  0  0  0  0  0  0  0  0  0  0
   -4.9347   -7.7223    2.4842 H   0  0  0  0  0  0  0  0  0  0  0  0
   -5.7194   -7.5337    0.8707 H   0  0  0  0  0  0  0  0  0  0  0  0
   -4.7633   -9.0231    1.2474 H   0  0  0  0  0  0  0  0  0  0  0  0
   -4.8210   -4.7895   -0.1647 H   0  0  0  0  0  0  0  0  0  0  0  0
   -1.2065   -8.9500   -0.0087 H   0  0  0  0  0  0  0  0  0  0  0  0
    0.9338  -10.0980   -1.5438 H   0  0  0  0  0  0  0  0  0  0  0  0
    3.2403   -4.4260   -2.9461 H   0  0  0  0  0  0  0  0  0  0  0  0
    6.2869   -8.5216   -2.8645 H   0  0  0  0  0  0  0  0  0  0  0  0
    7.8072   -5.7420   -4.2347 H   0  0  0  0  0  0  0  0  0  0  0  0
    8.7665   -6.2341   -1.6730 H   0  0  0  0  0  0  0  0  0  0  0  0
   10.1818   -4.1499   -2.5387 H   0  0  0  0  0  0  0  0  0  0  0  0
    8.6437   -2.0451   -2.5016 H   0  0  0  0  0  0  0  0  0  0  0  0
    6.2395   -2.7788   -1.6342 H   0  0  0  0  0  0  0  0  0  0  0  0
    7.8609   -4.2602   -0.1310 H   0  0  0  0  0  0  0  0  0  0  0  0
    6.4616   -5.2758   -0.6862 H   0  0  0  0  0  0  0  0  0  0  0  0
    6.4104   -3.7940   -4.2188 H   0  0  0  0  0  0  0  0  0  0  0  0
  1  2  2  3
  2  3  1  0
  3  4  2  0
  3  5  1  0
  5  6  2  0
  6  7  1  0
  7  8  2  0
  8  9  1  0
  9 10  2  0
 10 11  1  0
 11 12  2  3
 12 13  1  0
 13 14  3  0
 12 15  1  0
 15 16  3  0
  8 17  1  0
 17 18  1  0
 18 19  1  0
 19 20  2  0
 20 21  1  0
 21 22  1  0
 21 23  1  0
  1 24  1  0
 24 25  2  0
 25 26  1  0
 26 27  2  0
 27 28  1  0
 28 29  2  0
 29 30  1  0
 30 31  1  0
 30 32  2  0
 32 33  1  0
 33 34  1  0
 34 35  1  0
 33 36  1  0
 36 37  1  0
 33 38  1  0
 38 39  1  0
 32 40  1  0
 27 41  1  0
 41 42  2  0
 42 43  1  0
 43 44  1  0
 44 45  1  0
 45 46  1  0
 46 47  1  0
 47 48  1  0
 48 49  1  0
 47 50  1  0
 50 51  1  0
 47 52  1  0
 52 53  1  0
 46 54  2  0
 54 55  1  0
 54 56  1  0
 43 57  2  0
 57 58  1  0
 42 59  1  0
 59 60  2  0
 60 61  1  0
 60 62  1  0
 62 63  2  0
 63 64  1  0
 64 65  1  0
 65 66  2  0
 66 67  1  0
 67 68  2  0
 68 69  1  0
 69 70  1  0
 68 71  1  0
 71 72  2  0
 64 73  1  0
 73 74  2  0
 74 75  1  0
 75 76  2  0
 76 77  1  0
 77 78  1  0
 76 79  1  0
 79 80  2  0
 63 81  1  0
 81 82  1  0
 82 83  1  0
 83 84  2  0
 84 85  1  0
 85 86  1  0
 86 87  2  0
 87 88  1  0
 88 89  2  0
 89 90  1  0
 90 91  1  0
 89 92  1  0
 92 93  2  0
 85 94  1  0
 94 95  2  0
 95 96  1  0
 96 97  2  0
 97 98  1  0
 98 99  1  0
 97100  1  0
100101  2  0
 84102  1  0
102103  1  0
 83104  1  0
104105  1  0
105106  1  0
106107  1  0
107108  2  0
108109  1  0
109110  1  0
110111  1  0
109112  1  0
112113  1  0
108114  1  0
114115  2  0
115116  1  0
115117  1  0
117118  2  3
118119  1  0
119120  2  0
119121  1  0
121122  2  0
122123  1  0
123124  2  0
124125  1  0
125126  2  0
126127  1  0
127128  2  3
128129  1  0
129130  3  0
128131  1  0
131132  3  0
124133  1  0
133134  1  0
134135  1  0
135136  2  0
136137  1  0
137138  1  0
137139  1  0
 11  2  1  0
 23 17  1  0
 58 24  1  0
103 62  1  0
113104  2  0
127118  1  0
139133  1  0
 10  5  1  0
 22 18  1  0
 57 26  1  0
 72 65  1  0
 80 73  1  0
102 81  2  0
112106  2  0
126121  1  0
138134  1  0
 23  7  1  0
 40 28  1  0
 61 41  1  0
 93 86  1  0
101 94  1  0
116107  1  0
139123  1  0
 55 44  2  0
  1140  1  0
  6141  1  0
  9142  1  0
 17143  1  0
 18144  1  0
 19145  1  0
 20146  1  0
 21147  1  0
 22148  1  0
 22149  1  0
 23150  1  0
 25151  1  0
 29152  1  0
 34153  1  0
 34154  1  0
 35155  1  0
 35156  1  0
 35157  1  0
 36158  1  0
 36159  1  0
 37160  1  0
 37161  1  0
 37162  1  0
 38163  1  0
 38164  1  0
 39165  1  0
 39166  1  0
 39167  1  0
 48168  1  0
 48169  1  0
 49170  1  0
 49171  1  0
 49172  1  0
 50173  1  0
 50174  1  0
 51175  1  0
 51176  1  0
 51177  1  0
 52178  1  0
 52179  1  0
 53180  1  0
 53181  1  0
 53182  1  0
 55183  1  0
 59184  1  0
 66185  1  0
 67186  1  0
 70187  1  0
 70188  1  0
 70189  1  0
 71190  1  0
 72191  1  0
 74192  1  0
 75193  1  0
 78194  1  0
 78195  1  0
 78196  1  0
 79197  1  0
 80198  1  0
 87199  1  0
 88200  1  0
 91201  1  0
 91202  1  0
 91203  1  0
 92204  1  0
 93205  1  0
 95206  1  0
 96207  1  0
 99208  1  0
 99209  1  0
 99210  1  0
100211  1  0
101212  1  0
110213  1  0
110214  1  0
111215  1  0
111216  1  0
111217  1  0
113218  1  0
114219  1  0
117220  1  0
122221  1  0
125222  1  0
133223  1  0
134224  1  0
135225  1  0
136226  1  0
137227  1  0
138228  1  0
138229  1  0
139230  1  0
M  END

