
     RDKit          3D

282307  0  0  0  0  0  0  0  0999 V2000
   -1.5925   10.3501   -0.7940 C   0  0  0  0  0  0  0  0  0  0  0  0
   -1.7698   10.3170   -2.1274 C   0  0  0  0  0  0  0  0  0  0  0  0
   -1.8329    9.0994   -2.9556 C   0  0  0  0  0  0  0  0  0  0  0  0
   -2.0671    7.9264   -2.5514 O   0  0  0  0  0  0  0  0  0  0  0  0
   -1.5135    9.4457   -4.3214 C   0  0  0  0  0  0  0  0  0  0  0  0
   -1.2899    8.5520   -5.3944 C   0  0  0  0  0  0  0  0  0  0  0  0
   -0.8050    9.1682   -6.5338 C   0  0  0  0  0  0  0  0  0  0  0  0
   -0.5466   10.5747   -6.6223 C   0  0  0  0  0  0  0  0  0  0  0  0
   -0.7808   11.4556   -5.5803 C   0  0  0  0  0  0  0  0  0  0  0  0
   -1.3039   10.8476   -4.4013 C   0  0  0  0  0  0  0  0  0  0  0  0
   -1.5872   11.4589   -3.0730 C   0  0  0  0  0  0  0  0  0  0  0  0
   -1.8440   12.7663   -2.8220 C   0  0  0  0  0  0  0  0  0  0  0  0
   -2.3274   13.2152   -1.5376 C   0  0  0  0  0  0  0  0  0  0  0  0
   -2.7118   13.5913   -0.5096 N   0  0  0  0  0  0  0  0  0  0  0  0
   -1.8300   13.7655   -3.8588 C   0  0  0  0  0  0  0  0  0  0  0  0
   -1.8302   14.5751   -4.6839 N   0  0  0  0  0  0  0  0  0  0  0  0
    0.0325   10.3999   -7.9941 C   0  0  0  0  0  0  0  0  0  0  0  0
    1.5855   10.4658   -8.0982 C   0  0  0  0  0  0  0  0  0  0  0  0
    1.9302    9.8910   -9.4489 C   0  0  0  0  0  0  0  0  0  0  0  0
    1.6789    8.5774   -9.3769 C   0  0  0  0  0  0  0  0  0  0  0  0
    1.1693    8.3102   -7.9827 C   0  0  0  0  0  0  0  0  0  0  0  0
    2.0392    9.3025   -7.2275 C   0  0  0  0  0  0  0  0  0  0  0  0
   -0.2465    8.9616   -7.9090 C   0  0  0  0  0  0  0  0  0  0  0  0
   -1.5895    9.1428    0.0354 C   0  0  0  0  0  0  0  0  0  0  0  0
   -2.6791    8.2979    0.2373 C   0  0  0  0  0  0  0  0  0  0  0  0
   -2.3206    7.1056    0.8793 C   0  0  0  0  0  0  0  0  0  0  0  0
   -3.1751    6.0220    1.1559 C   0  0  0  0  0  0  0  0  0  0  0  0
   -4.6409    6.1428    1.0789 C   0  0  0  0  0  0  0  0  0  0  0  0
   -5.5079    5.2701    0.4337 C   0  0  0  0  0  0  0  0  0  0  0  0
   -6.8452    5.4288    0.8213 C   0  0  0  0  0  0  0  0  0  0  0  0
   -8.1290    4.4368    0.1565 Cl  0  0  0  0  0  0  0  0  0  0  0  0
   -7.0365    6.4110    1.7906 C   0  0  0  0  0  0  0  0  0  0  0  0
   -8.5812    6.7679    2.7627 Si  0  0  0  0  0  4  0  0  0  0  0  0
   -8.2179    8.0918    4.0578 C   0  0  0  0  0  0  0  0  0  0  0  0
   -7.3617    7.5573    5.2034 C   0  0  0  0  0  0  0  0  0  0  0  0
   -9.9161    7.3351    1.5601 C   0  0  0  0  0  0  0  0  0  0  0  0
  -10.9229    8.2782    2.2115 C   0  0  0  0  0  0  0  0  0  0  0  0
   -9.1161    5.1698    3.6168 C   0  0  0  0  0  0  0  0  0  0  0  0
  -10.3536    5.3500    4.4916 C   0  0  0  0  0  0  0  0  0  0  0  0
   -5.5367    7.0836    2.1409 S   0  0  0  0  0  0  0  0  0  0  0  0
   -2.5759    4.8641    1.6757 C   0  0  0  0  0  0  0  0  0  0  0  0
   -1.2178    4.7972    2.0007 C   0  0  0  0  0  0  0  0  0  0  0  0
   -0.3816    5.9153    1.8136 C   0  0  0  0  0  0  0  0  0  0  0  0
    1.0052    5.9325    2.3230 C   0  0  0  0  0  0  0  0  0  0  0  0
    1.4310    5.6700    3.9227 S   0  0  0  0  0  0  0  0  0  0  0  0
    3.0917    5.8265    3.7218 C   0  0  0  0  0  0  0  0  0  0  0  0
    4.2852    5.5242    5.1205 Si  0  0  0  0  0  4  0  0  0  0  0  0
    3.3627    6.0483    6.6857 C   0  0  0  0  0  0  0  0  0  0  0  0
    4.1601    5.8500    7.9675 C   0  0  0  0  0  0  0  0  0  0  0  0
    5.8919    6.4945    4.9159 C   0  0  0  0  0  0  0  0  0  0  0  0
    7.0075    6.0112    5.8369 C   0  0  0  0  0  0  0  0  0  0  0  0
    4.6050    3.6703    5.2146 C   0  0  0  0  0  0  0  0  0  0  0  0
    5.0982    3.1204    3.8809 C   0  0  0  0  0  0  0  0  0  0  0  0
    3.3319    6.0462    2.3613 C   0  0  0  0  0  0  0  0  0  0  0  0
    2.1644    6.1378    1.5872 C   0  0  0  0  0  0  0  0  0  0  0  0
    4.9143    6.1625    1.6124 Cl  0  0  0  0  0  0  0  0  0  0  0  0
   -0.9559    7.0359    1.1953 C   0  0  0  0  0  0  0  0  0  0  0  0
   -0.1977    8.4528    0.6925 S   0  0  0  0  0  0  0  0  0  0  0  0
   -0.8277    3.5308    2.4670 C   0  0  0  0  0  0  0  0  0  0  0  0
   -1.8755    2.6060    2.5008 C   0  0  0  0  0  0  0  0  0  0  0  0
   -3.2839    3.3740    1.9835 S   0  0  0  0  0  0  0  0  0  0  0  0
   -1.7017    1.1612    2.7504 C   0  0  0  0  0  0  0  0  0  0  0  0
   -2.5630    0.1242    2.3382 C   0  0  0  0  0  0  0  0  0  0  0  0
   -3.8327    0.3050    1.6858 N   0  0  0  0  0  0  0  0  0  0  0  0
   -3.9285    0.0303    0.2735 C   0  0  0  0  0  0  0  0  0  0  0  0
   -2.9054    0.4320   -0.6058 C   0  0  0  0  0  0  0  0  0  0  0  0
   -2.9637    0.1039   -1.9626 C   0  0  0  0  0  0  0  0  0  0  0  0
   -4.0435   -0.6368   -2.4591 C   0  0  0  0  0  0  0  0  0  0  0  0
   -4.0958   -1.1093   -4.1887 S   0  0  0  0  0  0  0  0  0  0  0  0
   -3.1894   -2.6633   -3.9127 C   0  0  0  0  0  0  0  0  0  0  0  0
   -5.0755   -1.0273   -1.5973 C   0  0  0  0  0  0  0  0  0  0  0  0
   -5.0156   -0.7017   -0.2385 C   0  0  0  0  0  0  0  0  0  0  0  0
   -5.0038    0.5989    2.4810 C   0  0  0  0  0  0  0  0  0  0  0  0
   -5.1072    0.1356    3.8089 C   0  0  0  0  0  0  0  0  0  0  0  0
   -6.2168    0.4651    4.5893 C   0  0  0  0  0  0  0  0  0  0  0  0
   -7.2461    1.2452    4.0519 C   0  0  0  0  0  0  0  0  0  0  0  0
   -8.6592    1.6897    5.0680 S   0  0  0  0  0  0  0  0  0  0  0  0
   -9.5661    0.1580    4.6958 C   0  0  0  0  0  0  0  0  0  0  0  0
   -7.1597    1.7043    2.7372 C   0  0  0  0  0  0  0  0  0  0  0  0
   -6.0471    1.3856    1.9547 C   0  0  0  0  0  0  0  0  0  0  0  0
   -1.9659   -1.1223    2.4848 C   0  0  0  0  0  0  0  0  0  0  0  0
   -2.3297   -2.6597    1.9434 S   0  0  0  0  0  0  0  0  0  0  0  0
   -0.8182   -3.3383    2.3728 C   0  0  0  0  0  0  0  0  0  0  0  0
   -0.0343   -2.3210    2.9641 C   0  0  0  0  0  0  0  0  0  0  0  0
    1.3342   -2.4539    3.3861 N   0  0  0  0  0  0  0  0  0  0  0  0
    2.3947   -1.8886    2.5753 C   0  0  0  0  0  0  0  0  0  0  0  0
    2.2119   -1.7003    1.1902 C   0  0  0  0  0  0  0  0  0  0  0  0
    3.2235   -1.1470    0.4038 C   0  0  0  0  0  0  0  0  0  0  0  0
    4.4317   -0.7530    0.9915 C   0  0  0  0  0  0  0  0  0  0  0  0
    5.7566   -0.0870   -0.0241 S   0  0  0  0  0  0  0  0  0  0  0  0
    5.1909    1.6339    0.1481 C   0  0  0  0  0  0  0  0  0  0  0  0
    4.6170   -0.9109    2.3679 C   0  0  0  0  0  0  0  0  0  0  0  0
    3.6112   -1.4766    3.1555 C   0  0  0  0  0  0  0  0  0  0  0  0
    1.5833   -2.9985    4.6966 C   0  0  0  0  0  0  0  0  0  0  0  0
    0.8773   -2.5051    5.8055 C   0  0  0  0  0  0  0  0  0  0  0  0
    1.0730   -3.0562    7.0714 C   0  0  0  0  0  0  0  0  0  0  0  0
    1.9446   -4.1358    7.2382 C   0  0  0  0  0  0  0  0  0  0  0  0
    2.1310   -4.8841    8.8571 S   0  0  0  0  0  0  0  0  0  0  0  0
    0.6454   -5.9232    8.6897 C   0  0  0  0  0  0  0  0  0  0  0  0
    2.6764   -4.6189    6.1463 C   0  0  0  0  0  0  0  0  0  0  0  0
    2.5109   -4.0408    4.8856 C   0  0  0  0  0  0  0  0  0  0  0  0
   -0.7105   -1.1074    2.9954 C   0  0  0  0  0  0  0  0  0  0  0  0
   -0.2318    0.4694    3.2892 S   0  0  0  0  0  0  0  0  0  0  0  0
   -0.3448   -4.6225    1.8025 C   0  0  0  0  0  0  0  0  0  0  0  0
    0.9845   -5.0177    1.6701 C   0  0  0  0  0  0  0  0  0  0  0  0
    1.1900   -5.9698    0.6636 C   0  0  0  0  0  0  0  0  0  0  0  0
    2.4441   -6.3670    0.1766 C   0  0  0  0  0  0  0  0  0  0  0  0
    3.6941   -6.0629    0.8833 C   0  0  0  0  0  0  0  0  0  0  0  0
    4.3717   -4.8553    0.8833 C   0  0  0  0  0  0  0  0  0  0  0  0
    5.5965   -4.9258    1.5601 C   0  0  0  0  0  0  0  0  0  0  0  0
    6.6845   -3.5548    1.6373 Cl  0  0  0  0  0  0  0  0  0  0  0  0
    5.8694   -6.1852    2.0870 C   0  0  0  0  0  0  0  0  0  0  0  0
    7.4046   -6.7647    2.9344 Si  0  0  0  0  0  4  0  0  0  0  0  0
    8.7093   -7.0223    1.6042 C   0  0  0  0  0  0  0  0  0  0  0  0
   10.1224   -6.7728    2.1131 C   0  0  0  0  0  0  0  0  0  0  0  0
    7.9456   -5.5144    4.2382 C   0  0  0  0  0  0  0  0  0  0  0  0
    6.8220   -5.2242    5.2261 C   0  0  0  0  0  0  0  0  0  0  0  0
    7.0112   -8.4180    3.7438 C   0  0  0  0  0  0  0  0  0  0  0  0
    8.2217   -9.0363    4.4272 C   0  0  0  0  0  0  0  0  0  0  0  0
    4.6046   -7.2141    1.6916 S   0  0  0  0  0  0  0  0  0  0  0  0
    2.4618   -7.0316   -1.0520 C   0  0  0  0  0  0  0  0  0  0  0  0
    1.2944   -7.4203   -1.7126 C   0  0  0  0  0  0  0  0  0  0  0  0
    0.0279   -7.2196   -1.1140 C   0  0  0  0  0  0  0  0  0  0  0  0
   -1.1775   -7.9130   -1.6340 C   0  0  0  0  0  0  0  0  0  0  0  0
   -2.7892   -7.5012   -1.3734 S   0  0  0  0  0  0  0  0  0  0  0  0
   -3.4715   -8.9083   -1.9964 C   0  0  0  0  0  0  0  0  0  0  0  0
   -5.2424   -9.3903   -1.7581 Si  0  0  0  0  0  4  0  0  0  0  0  0
   -5.9361  -10.0857   -3.3655 C   0  0  0  0  0  0  0  0  0  0  0  0
   -6.9247  -11.2211   -3.1200 C   0  0  0  0  0  0  0  0  0  0  0  0
   -6.2151   -7.8587   -1.2591 C   0  0  0  0  0  0  0  0  0  0  0  0
   -7.6891   -8.1774   -1.0388 C   0  0  0  0  0  0  0  0  0  0  0  0
   -5.2775  -10.6702   -0.3736 C   0  0  0  0  0  0  0  0  0  0  0  0
   -4.5201  -10.1836    0.8573 C   0  0  0  0  0  0  0  0  0  0  0  0
   -2.4309   -9.7400   -2.3953 C   0  0  0  0  0  0  0  0  0  0  0  0
   -1.1640   -9.1904   -2.1890 C   0  0  0  0  0  0  0  0  0  0  0  0
   -2.6334  -11.3914   -2.9610 Cl  0  0  0  0  0  0  0  0  0  0  0  0
    0.0163   -6.3931    0.0339 C   0  0  0  0  0  0  0  0  0  0  0  0
   -1.2634   -5.5533    0.7262 S   0  0  0  0  0  0  0  0  0  0  0  0
    1.5278   -7.7970   -3.0486 C   0  0  0  0  0  0  0  0  0  0  0  0
    2.8634   -7.6654   -3.4252 C   0  0  0  0  0  0  0  0  0  0  0  0
    3.7653   -7.1389   -2.1062 S   0  0  0  0  0  0  0  0  0  0  0  0
    3.2918   -7.4115   -4.8055 C   0  0  0  0  0  0  0  0  0  0  0  0
    3.1429   -6.1976   -5.3920 C   0  0  0  0  0  0  0  0  0  0  0  0
    2.3303   -5.0944   -4.8488 C   0  0  0  0  0  0  0  0  0  0  0  0
    1.8486   -5.0115   -3.6882 O   0  0  0  0  0  0  0  0  0  0  0  0
    2.1658   -4.0874   -5.8632 C   0  0  0  0  0  0  0  0  0  0  0  0
    1.3928   -2.9077   -5.7553 C   0  0  0  0  0  0  0  0  0  0  0  0
    1.4400   -2.1052   -6.8761 C   0  0  0  0  0  0  0  0  0  0  0  0
    2.2094   -2.4317   -8.0355 C   0  0  0  0  0  0  0  0  0  0  0  0
    2.9512   -3.5964   -8.1539 C   0  0  0  0  0  0  0  0  0  0  0  0
    2.9081   -4.4556   -7.0135 C   0  0  0  0  0  0  0  0  0  0  0  0
    3.5897   -5.7664   -6.7591 C   0  0  0  0  0  0  0  0  0  0  0  0
    4.5318   -6.3621   -7.5402 C   0  0  0  0  0  0  0  0  0  0  0  0
    5.3300   -7.4716   -7.0906 C   0  0  0  0  0  0  0  0  0  0  0  0
    5.9911   -8.3565   -6.7421 N   0  0  0  0  0  0  0  0  0  0  0  0
    4.8639   -5.8940   -8.8572 C   0  0  0  0  0  0  0  0  0  0  0  0
    5.1482   -5.5355   -9.9217 N   0  0  0  0  0  0  0  0  0  0  0  0
    1.8244   -1.1322   -8.6778 C   0  0  0  0  0  0  0  0  0  0  0  0
    2.8903    0.0126   -8.7033 C   0  0  0  0  0  0  0  0  0  0  0  0
    3.7865   -0.0799   -7.4846 C   0  0  0  0  0  0  0  0  0  0  0  0
    3.0300    0.2220   -6.4281 C   0  0  0  0  0  0  0  0  0  0  0  0
    1.6455    0.5053   -6.9609 C   0  0  0  0  0  0  0  0  0  0  0  0
    2.0204    1.1790   -8.2672 C   0  0  0  0  0  0  0  0  0  0  0  0
    1.0096   -0.8108   -7.5043 C   0  0  0  0  0  0  0  0  0  0  0  0
   -1.2593   11.2617   -0.3115 H   0  0  0  0  0  0  0  0  0  0  0  0
   -1.4039    7.4765   -5.3082 H   0  0  0  0  0  0  0  0  0  0  0  0
   -0.4946   12.4937   -5.6556 H   0  0  0  0  0  0  0  0  0  0  0  0
   -0.5292   10.9401   -8.7911 H   0  0  0  0  0  0  0  0  0  0  0  0
    2.0450   11.4513   -7.8712 H   0  0  0  0  0  0  0  0  0  0  0  0
    2.3928   10.4045  -10.2840 H   0  0  0  0  0  0  0  0  0  0  0  0
    1.9107    7.8486  -10.1455 H   0  0  0  0  0  0  0  0  0  0  0  0
    1.2311    7.2514   -7.6503 H   0  0  0  0  0  0  0  0  0  0  0  0
    1.7862    9.4081   -6.1497 H   0  0  0  0  0  0  0  0  0  0  0  0
    3.1304    9.0848   -7.3180 H   0  0  0  0  0  0  0  0  0  0  0  0
   -0.9926    8.5852   -8.6440 H   0  0  0  0  0  0  0  0  0  0  0  0
   -3.6740    8.5153   -0.1313 H   0  0  0  0  0  0  0  0  0  0  0  0
   -5.1764    4.5120   -0.2624 H   0  0  0  0  0  0  0  0  0  0  0  0
   -7.6991    8.9409    3.5692 H   0  0  0  0  0  0  0  0  0  0  0  0
   -9.1749    8.4636    4.4748 H   0  0  0  0  0  0  0  0  0  0  0  0
   -7.0741    8.3928    5.8757 H   0  0  0  0  0  0  0  0  0  0  0  0
   -6.4284    7.0896    4.8294 H   0  0  0  0  0  0  0  0  0  0  0  0
   -7.9297    6.8100    5.7967 H   0  0  0  0  0  0  0  0  0  0  0  0
  -10.4410    6.4396    1.1708 H   0  0  0  0  0  0  0  0  0  0  0  0
   -9.4340    7.8569    0.7090 H   0  0  0  0  0  0  0  0  0  0  0  0
  -10.4263    9.2321    2.4931 H   0  0  0  0  0  0  0  0  0  0  0  0
  -11.3734    7.8163    3.1170 H   0  0  0  0  0  0  0  0  0  0  0  0
  -11.7343    8.5110    1.4906 H   0  0  0  0  0  0  0  0  0  0  0  0
   -9.3235    4.4034    2.8404 H   0  0  0  0  0  0  0  0  0  0  0  0
   -8.2692    4.8109    4.2396 H   0  0  0  0  0  0  0  0  0  0  0  0
  -10.2044    6.1614    5.2287 H   0  0  0  0  0  0  0  0  0  0  0  0
  -11.2389    5.5753    3.8669 H   0  0  0  0  0  0  0  0  0  0  0  0
  -10.5533    4.4090    5.0411 H   0  0  0  0  0  0  0  0  0  0  0  0
    2.4367    5.4342    6.7545 H   0  0  0  0  0  0  0  0  0  0  0  0
    3.0705    7.1160    6.5855 H   0  0  0  0  0  0  0  0  0  0  0  0
    4.9294    6.6381    8.0709 H   0  0  0  0  0  0  0  0  0  0  0  0
    4.6274    4.8452    7.9919 H   0  0  0  0  0  0  0  0  0  0  0  0
    3.4793    5.9341    8.8397 H   0  0  0  0  0  0  0  0  0  0  0  0
    5.6890    7.5650    5.1032 H   0  0  0  0  0  0  0  0  0  0  0  0
    6.2559    6.3822    3.8827 H   0  0  0  0  0  0  0  0  0  0  0  0
    7.2017    4.9269    5.6925 H   0  0  0  0  0  0  0  0  0  0  0  0
    7.9434    6.5595    5.5966 H   0  0  0  0  0  0  0  0  0  0  0  0
    6.7681    6.2083    6.8971 H   0  0  0  0  0  0  0  0  0  0  0  0
    3.6569    3.1560    5.4955 H   0  0  0  0  0  0  0  0  0  0  0  0
    5.3565    3.4681    6.0088 H   0  0  0  0  0  0  0  0  0  0  0  0
    4.2684    3.1375    3.1403 H   0  0  0  0  0  0  0  0  0  0  0  0
    5.9586    3.7167    3.5067 H   0  0  0  0  0  0  0  0  0  0  0  0
    5.4249    2.0713    4.0223 H   0  0  0  0  0  0  0  0  0  0  0  0
    2.1720    6.3191    0.5217 H   0  0  0  0  0  0  0  0  0  0  0  0
    0.1957    3.2716    2.7027 H   0  0  0  0  0  0  0  0  0  0  0  0
   -2.0604    0.9932   -0.2358 H   0  0  0  0  0  0  0  0  0  0  0  0
   -2.1634    0.4081   -2.6250 H   0  0  0  0  0  0  0  0  0  0  0  0
   -2.1294   -2.4447   -3.6684 H   0  0  0  0  0  0  0  0  0  0  0  0
   -3.2307   -3.2717   -4.8379 H   0  0  0  0  0  0  0  0  0  0  0  0
   -3.6511   -3.2385   -3.0816 H   0  0  0  0  0  0  0  0  0  0  0  0
   -5.9132   -1.6053   -1.9773 H   0  0  0  0  0  0  0  0  0  0  0  0
   -5.8020   -1.0519    0.4179 H   0  0  0  0  0  0  0  0  0  0  0  0
   -4.3258   -0.4782    4.2431 H   0  0  0  0  0  0  0  0  0  0  0  0
   -6.2838    0.0974    5.6113 H   0  0  0  0  0  0  0  0  0  0  0  0
   -9.0023   -0.7191    5.0746 H   0  0  0  0  0  0  0  0  0  0  0  0
  -10.5511    0.1982    5.2032 H   0  0  0  0  0  0  0  0  0  0  0  0
   -9.7295    0.0555    3.6031 H   0  0  0  0  0  0  0  0  0  0  0  0
   -7.9508    2.3109    2.3188 H   0  0  0  0  0  0  0  0  0  0  0  0
   -5.9811    1.7752    0.9468 H   0  0  0  0  0  0  0  0  0  0  0  0
    1.2892   -1.9992    0.7089 H   0  0  0  0  0  0  0  0  0  0  0  0
    3.0709   -1.0205   -0.6616 H   0  0  0  0  0  0  0  0  0  0  0  0
    5.9342    2.3102   -0.3223 H   0  0  0  0  0  0  0  0  0  0  0  0
    5.0997    1.9061    1.2191 H   0  0  0  0  0  0  0  0  0  0  0  0
    4.2122    1.7590   -0.3620 H   0  0  0  0  0  0  0  0  0  0  0  0
    5.5485   -0.5975    2.8312 H   0  0  0  0  0  0  0  0  0  0  0  0
    3.7834   -1.5741    4.2176 H   0  0  0  0  0  0  0  0  0  0  0  0
    0.1802   -1.6834    5.6883 H   0  0  0  0  0  0  0  0  0  0  0  0
    0.5182   -2.6617    7.9171 H   0  0  0  0  0  0  0  0  0  0  0  0
   -0.2478   -5.2986    8.4748 H   0  0  0  0  0  0  0  0  0  0  0  0
    0.4769   -6.4713    9.6395 H   0  0  0  0  0  0  0  0  0  0  0  0
    0.7898   -6.6526    7.8691 H   0  0  0  0  0  0  0  0  0  0  0  0
    3.3668   -5.4451    6.2682 H   0  0  0  0  0  0  0  0  0  0  0  0
    3.0882   -4.4144    4.0507 H   0  0  0  0  0  0  0  0  0  0  0  0
    1.8035   -4.5394    2.1676 H   0  0  0  0  0  0  0  0  0  0  0  0
    4.0151   -3.9709    0.3743 H   0  0  0  0  0  0  0  0  0  0  0  0
    8.6216   -8.0636    1.2339 H   0  0  0  0  0  0  0  0  0  0  0  0
    8.4956   -6.3346    0.7596 H   0  0  0  0  0  0  0  0  0  0  0  0
   10.2741   -5.6890    2.3033 H   0  0  0  0  0  0  0  0  0  0  0  0
   10.8500   -7.0964    1.3420 H   0  0  0  0  0  0  0  0  0  0  0  0
   10.3169   -7.3410    3.0445 H   0  0  0  0  0  0  0  0  0  0  0  0
    8.8225   -5.9201    4.7865 H   0  0  0  0  0  0  0  0  0  0  0  0
    8.2636   -4.5743    3.7426 H   0  0  0  0  0  0  0  0  0  0  0  0
    5.9064   -4.8881    4.6978 H   0  0  0  0  0  0  0  0  0  0  0  0
    6.5947   -6.1297    5.8235 H   0  0  0  0  0  0  0  0  0  0  0  0
    7.1416   -4.4177    5.9181 H   0  0  0  0  0  0  0  0  0  0  0  0
    6.2054   -8.2597    4.4898 H   0  0  0  0  0  0  0  0  0  0  0  0
    6.6392   -9.1157    2.9619 H   0  0  0  0  0  0  0  0  0  0  0  0
    9.0158   -9.2598    3.6862 H   0  0  0  0  0  0  0  0  0  0  0  0
    8.6200   -8.3557    5.2057 H   0  0  0  0  0  0  0  0  0  0  0  0
    7.9194   -9.9890    4.9146 H   0  0  0  0  0  0  0  0  0  0  0  0
   -6.4362   -9.2605   -3.9134 H   0  0  0  0  0  0  0  0  0  0  0  0
   -5.1047  -10.4602   -3.9939 H   0  0  0  0  0  0  0  0  0  0  0  0
   -7.7528  -10.8870   -2.4611 H   0  0  0  0  0  0  0  0  0  0  0  0
   -6.4072  -12.0838   -2.6467 H   0  0  0  0  0  0  0  0  0  0  0  0
   -7.3503  -11.5541   -4.0875 H   0  0  0  0  0  0  0  0  0  0  0  0
   -6.1169   -7.1009   -2.0645 H   0  0  0  0  0  0  0  0  0  0  0  0
   -5.7824   -7.4416   -0.3235 H   0  0  0  0  0  0  0  0  0  0  0  0
   -8.1559   -8.5195   -1.9868 H   0  0  0  0  0  0  0  0  0  0  0  0
   -7.8087   -8.9585   -0.2606 H   0  0  0  0  0  0  0  0  0  0  0  0
   -8.2174   -7.2622   -0.6996 H   0  0  0  0  0  0  0  0  0  0  0  0
   -6.3313  -10.8921   -0.1070 H   0  0  0  0  0  0  0  0  0  0  0  0
   -4.8012  -11.6038   -0.7460 H   0  0  0  0  0  0  0  0  0  0  0  0
   -3.4408  -10.0659    0.6219 H   0  0  0  0  0  0  0  0  0  0  0  0
   -4.9322   -9.2147    1.2125 H   0  0  0  0  0  0  0  0  0  0  0  0
   -4.6188  -10.9355    1.6671 H   0  0  0  0  0  0  0  0  0  0  0  0
   -0.2622   -9.7547   -2.3720 H   0  0  0  0  0  0  0  0  0  0  0  0
    0.7355   -7.9681   -3.7674 H   0  0  0  0  0  0  0  0  0  0  0  0
    3.7693   -8.2313   -5.3105 H   0  0  0  0  0  0  0  0  0  0  0  0
    0.8353   -2.6460   -4.8630 H   0  0  0  0  0  0  0  0  0  0  0  0
    3.5062   -3.7909   -9.0494 H   0  0  0  0  0  0  0  0  0  0  0  0
    1.2351   -1.2466   -9.6165 H   0  0  0  0  0  0  0  0  0  0  0  0
    3.4259    0.1542   -9.6655 H   0  0  0  0  0  0  0  0  0  0  0  0
    4.8538   -0.2769   -7.4618 H   0  0  0  0  0  0  0  0  0  0  0  0
    3.3760    0.3191   -5.4065 H   0  0  0  0  0  0  0  0  0  0  0  0
    0.9969    1.1019   -6.2825 H   0  0  0  0  0  0  0  0  0  0  0  0
    1.1490    1.3603   -8.9400 H   0  0  0  0  0  0  0  0  0  0  0  0
    2.5886    2.1317   -8.1223 H   0  0  0  0  0  0  0  0  0  0  0  0
   -0.0781   -0.7520   -7.7186 H   0  0  0  0  0  0  0  0  0  0  0  0
  1  2  2  3
  2  3  1  0
  3  4  2  0
  3  5  1  0
  5  6  2  0
  6  7  1  0
  7  8  2  0
  8  9  1  0
  9 10  2  0
 10 11  1  0
 11 12  2  3
 12 13  1  0
 13 14  3  0
 12 15  1  0
 15 16  3  0
  8 17  1  0
 17 18  1  0
 18 19  1  0
 19 20  2  0
 20 21  1  0
 21 22  1  0
 21 23  1  0
  1 24  1  0
 24 25  2  0
 25 26  1  0
 26 27  2  0
 27 28  1  0
 28 29  2  0
 29 30  1  0
 30 31  1  0
 30 32  2  0
 32 33  1  0
 33 34  1  0
 34 35  1  0
 33 36  1  0
 36 37  1  0
 33 38  1  0
 38 39  1  0
 32 40  1  0
 27 41  1  0
 41 42  2  0
 42 43  1  0
 43 44  1  0
 44 45  1  0
 45 46  1  0
 46 47  1  0
 47 48  1  0
 48 49  1  0
 47 50  1  0
 50 51  1  0
 47 52  1  0
 52 53  1  0
 46 54  2  0
 54 55  1  0
 54 56  1  0
 43 57  2  0
 57 58  1  0
 42 59  1  0
 59 60  2  0
 60 61  1  0
 60 62  1  0
 62 63  2  0
 63 64  1  0
 64 65  1  0
 65 66  2  0
 66 67  1  0
 67 68  2  0
 68 69  1  0
 69 70  1  0
 68 71  1  0
 71 72  2  0
 64 73  1  0
 73 74  2  0
 74 75  1  0
 75 76  2  0
 76 77  1  0
 77 78  1  0
 76 79  1  0
 79 80  2  0
 63 81  1  0
 81 82  1  0
 82 83  1  0
 83 84  2  0
 84 85  1  0
 85 86  1  0
 86 87  2  0
 87 88  1  0
 88 89  2  0
 89 90  1  0
 90 91  1  0
 89 92  1  0
 92 93  2  0
 85 94  1  0
 94 95  2  0
 95 96  1  0
 96 97  2  0
 97 98  1  0
 98 99  1  0
 97100  1  0
100101  2  0
 84102  1  0
102103  1  0
 83104  1  0
104105  2  0
105106  1  0
106107  2  0
107108  1  0
108109  2  0
109110  1  0
110111  1  0
110112  2  0
112113  1  0
113114  1  0
114115  1  0
113116  1  0
116117  1  0
113118  1  0
118119  1  0
112120  1  0
107121  1  0
121122  2  0
122123  1  0
123124  1  0
124125  1  0
125126  1  0
126127  1  0
127128  1  0
128129  1  0
127130  1  0
130131  1  0
127132  1  0
132133  1  0
126134  2  0
134135  1  0
134136  1  0
123137  2  0
137138  1  0
122139  1  0
139140  2  0
140141  1  0
140142  1  0
142143  2  3
143144  1  0
144145  2  0
144146  1  0
146147  2  0
147148  1  0
148149  2  0
149150  1  0
150151  2  0
151152  1  0
152153  2  3
153154  1  0
154155  3  0
153156  1  0
156157  3  0
149158  1  0
158159  1  0
159160  1  0
160161  2  0
161162  1  0
162163  1  0
162164  1  0
 11  2  1  0
 23 17  1  0
 58 24  1  0
103 62  1  0
138104  1  0
152143  1  0
164158  1  0
 10  5  1  0
 22 18  1  0
 57 26  1  0
 72 65  1  0
 80 73  1  0
102 81  2  0
137106  1  0
151146  1  0
163159  1  0
 23  7  1  0
 40 28  1  0
 61 41  1  0
 93 86  1  0
101 94  1  0
120108  1  0
141121  1  0
164148  1  0
 55 44  2  0
135124  2  0
  1165  1  0
  6166  1  0
  9167  1  0
 17168  1  0
 18169  1  0
 19170  1  0
 20171  1  0
 21172  1  0
 22173  1  0
 22174  1  0
 23175  1  0
 25176  1  0
 29177  1  0
 34178  1  0
 34179  1  0
 35180  1  0
 35181  1  0
 35182  1  0
 36183  1  0
 36184  1  0
 37185  1  0
 37186  1  0
 37187  1  0
 38188  1  0
 38189  1  0
 39190  1  0
 39191  1  0
 39192  1  0
 48193  1  0
 48194  1  0
 49195  1  0
 49196  1  0
 49197  1  0
 50198  1  0
 50199  1  0
 51200  1  0
 51201  1  0
 51202  1  0
 52203  1  0
 52204  1  0
 53205  1  0
 53206  1  0
 53207  1  0
 55208  1  0
 59209  1  0
 66210  1  0
 67211  1  0
 70212  1  0
 70213  1  0
 70214  1  0
 71215  1  0
 72216  1  0
 74217  1  0
 75218  1  0
 78219  1  0
 78220  1  0
 78221  1  0
 79222  1  0
 80223  1  0
 87224  1  0
 88225  1  0
 91226  1  0
 91227  1  0
 91228  1  0
 92229  1  0
 93230  1  0
 95231  1  0
 96232  1  0
 99233  1  0
 99234  1  0
 99235  1  0
100236  1  0
101237  1  0
105238  1  0
109239  1  0
114240  1  0
114241  1  0
115242  1  0
115243  1  0
115244  1  0
116245  1  0
116246  1  0
117247  1  0
117248  1  0
117249  1  0
118250  1  0
118251  1  0
119252  1  0
119253  1  0
119254  1  0
128255  1  0
128256  1  0
129257  1  0
129258  1  0
129259  1  0
130260  1  0
130261  1  0
131262  1  0
131263  1  0
131264  1  0
132265  1  0
132266  1  0
133267  1  0
133268  1  0
133269  1  0
135270  1  0
139271  1  0
142272  1  0
147273  1  0
150274  1  0
158275  1  0
159276  1  0
160277  1  0
161278  1  0
162279  1  0
163280  1  0
163281  1  0
164282  1  0
M  END

