
     RDKit          3D

186207  0  0  0  0  0  0  0  0999 V2000
    4.4861   -7.9709    0.3203 C   0  0  0  0  0  0  0  0  0  0  0  0
    3.8829   -8.6523    1.3196 C   0  0  0  0  0  0  0  0  0  0  0  0
    3.1664   -8.0167    2.4360 C   0  0  0  0  0  0  0  0  0  0  0  0
    2.9930   -6.7853    2.6082 O   0  0  0  0  0  0  0  0  0  0  0  0
    2.8149   -9.0340    3.3968 C   0  0  0  0  0  0  0  0  0  0  0  0
    2.1898   -8.8216    4.6470 C   0  0  0  0  0  0  0  0  0  0  0  0
    1.9966   -9.9799    5.3782 C   0  0  0  0  0  0  0  0  0  0  0  0
    2.3583  -11.2721    4.8978 C   0  0  0  0  0  0  0  0  0  0  0  0
    2.9913  -11.4845    3.6859 C   0  0  0  0  0  0  0  0  0  0  0  0
    3.2292  -10.3027    2.9225 C   0  0  0  0  0  0  0  0  0  0  0  0
    3.8910  -10.1350    1.5918 C   0  0  0  0  0  0  0  0  0  0  0  0
    4.2713  -11.1270    0.7365 C   0  0  0  0  0  0  0  0  0  0  0  0
    4.1085  -12.5242    1.0314 C   0  0  0  0  0  0  0  0  0  0  0  0
    3.9766  -13.6517    1.2513 N   0  0  0  0  0  0  0  0  0  0  0  0
    4.7637  -10.8660   -0.5887 C   0  0  0  0  0  0  0  0  0  0  0  0
    5.1542  -10.6724   -1.6636 N   0  0  0  0  0  0  0  0  0  0  0  0
    1.8265  -11.9093    6.1522 C   0  0  0  0  0  0  0  0  0  0  0  0
    2.8614  -12.4425    7.1848 C   0  0  0  0  0  0  0  0  0  0  0  0
    4.1369  -11.6340    7.1002 C   0  0  0  0  0  0  0  0  0  0  0  0
    3.8425  -10.4130    7.5457 C   0  0  0  0  0  0  0  0  0  0  0  0
    2.3787  -10.4329    7.9304 C   0  0  0  0  0  0  0  0  0  0  0  0
    2.2901  -11.8498    8.4638 C   0  0  0  0  0  0  0  0  0  0  0  0
    1.4889  -10.5749    6.6582 C   0  0  0  0  0  0  0  0  0  0  0  0
    4.1649   -6.5737    0.0110 C   0  0  0  0  0  0  0  0  0  0  0  0
    5.3213   -5.3031   -0.1122 S   0  0  0  0  0  0  0  0  0  0  0  0
    4.1345   -4.1814   -0.4989 C   0  0  0  0  0  0  0  0  0  0  0  0
    3.9470   -2.8493   -0.7484 C   0  0  0  0  0  0  0  0  0  0  0  0
    2.6138   -2.6927   -0.9667 C   0  0  0  0  0  0  0  0  0  0  0  0
    1.9272   -3.8590   -0.8536 N   0  0  0  0  0  0  0  0  0  0  0  0
    0.4789   -4.0745   -0.9069 C   0  0  0  0  0  0  0  0  0  0  0  0
   -0.1317   -3.8950    0.4778 C   0  0  0  0  0  0  0  0  0  0  0  0
    2.9013   -4.7540   -0.5518 C   0  0  0  0  0  0  0  0  0  0  0  0
    2.8656   -6.1085   -0.2657 C   0  0  0  0  0  0  0  0  0  0  0  0
    2.1999   -1.3917   -1.1907 C   0  0  0  0  0  0  0  0  0  0  0  0
    3.2973   -0.5183   -1.1007 C   0  0  0  0  0  0  0  0  0  0  0  0
    4.7508   -1.3744   -0.7616 S   0  0  0  0  0  0  0  0  0  0  0  0
    3.1542    0.9339   -1.1832 C   0  0  0  0  0  0  0  0  0  0  0  0
    2.8857    1.7254   -0.0552 C   0  0  0  0  0  0  0  0  0  0  0  0
    3.3797    1.4537    1.2618 N   0  0  0  0  0  0  0  0  0  0  0  0
    4.7781    1.6784    1.5535 C   0  0  0  0  0  0  0  0  0  0  0  0
    5.5292    2.6048    0.8025 C   0  0  0  0  0  0  0  0  0  0  0  0
    6.8873    2.7950    1.0538 C   0  0  0  0  0  0  0  0  0  0  0  0
    7.5208    2.0636    2.0600 C   0  0  0  0  0  0  0  0  0  0  0  0
    9.2755    2.2891    2.3700 S   0  0  0  0  0  0  0  0  0  0  0  0
    9.7840    0.8245    1.4173 C   0  0  0  0  0  0  0  0  0  0  0  0
    6.7810    1.1576    2.8334 C   0  0  0  0  0  0  0  0  0  0  0  0
    5.4225    0.9630    2.5823 C   0  0  0  0  0  0  0  0  0  0  0  0
    2.4405    1.1202    2.2976 C   0  0  0  0  0  0  0  0  0  0  0  0
    1.6334   -0.0211    2.1773 C   0  0  0  0  0  0  0  0  0  0  0  0
    0.6684   -0.3104    3.1409 C   0  0  0  0  0  0  0  0  0  0  0  0
    0.5131    0.5292    4.2499 C   0  0  0  0  0  0  0  0  0  0  0  0
   -0.7653    0.1844    5.4598 S   0  0  0  0  0  0  0  0  0  0  0  0
    0.2739   -0.9504    6.4256 C   0  0  0  0  0  0  0  0  0  0  0  0
    1.3235    1.6634    4.3844 C   0  0  0  0  0  0  0  0  0  0  0  0
    2.2918    1.9538    3.4196 C   0  0  0  0  0  0  0  0  0  0  0  0
    2.1558    2.8639   -0.3812 C   0  0  0  0  0  0  0  0  0  0  0  0
    1.2242    3.9372    0.5107 S   0  0  0  0  0  0  0  0  0  0  0  0
    0.4301    4.5979   -0.8501 C   0  0  0  0  0  0  0  0  0  0  0  0
    0.9434    3.9831   -2.0051 C   0  0  0  0  0  0  0  0  0  0  0  0
    0.6082    4.3587   -3.3547 N   0  0  0  0  0  0  0  0  0  0  0  0
    0.0166    3.3809   -4.2408 C   0  0  0  0  0  0  0  0  0  0  0  0
   -1.0131    2.5464   -3.7773 C   0  0  0  0  0  0  0  0  0  0  0  0
   -1.5537    1.5585   -4.5976 C   0  0  0  0  0  0  0  0  0  0  0  0
   -1.0730    1.3908   -5.8976 C   0  0  0  0  0  0  0  0  0  0  0  0
   -1.7346    0.0833   -6.9257 S   0  0  0  0  0  0  0  0  0  0  0  0
   -0.4864   -1.1320   -6.4008 C   0  0  0  0  0  0  0  0  0  0  0  0
   -0.0553    2.2249   -6.3756 C   0  0  0  0  0  0  0  0  0  0  0  0
    0.4934    3.2132   -5.5548 C   0  0  0  0  0  0  0  0  0  0  0  0
    1.0750    5.6375   -3.8527 C   0  0  0  0  0  0  0  0  0  0  0  0
    2.2962    6.1819   -3.3958 C   0  0  0  0  0  0  0  0  0  0  0  0
    2.7526    7.4068   -3.8775 C   0  0  0  0  0  0  0  0  0  0  0  0
    2.0146    8.1071   -4.8355 C   0  0  0  0  0  0  0  0  0  0  0  0
    2.6039    9.6813   -5.4588 S   0  0  0  0  0  0  0  0  0  0  0  0
    3.5981    8.9202   -6.7783 C   0  0  0  0  0  0  0  0  0  0  0  0
    0.7980    7.5817   -5.2911 C   0  0  0  0  0  0  0  0  0  0  0  0
    0.3277    6.3574   -4.8030 C   0  0  0  0  0  0  0  0  0  0  0  0
    1.8745    3.0024   -1.6998 C   0  0  0  0  0  0  0  0  0  0  0  0
    2.4606    1.6780   -2.5484 S   0  0  0  0  0  0  0  0  0  0  0  0
   -0.9728    5.0514   -0.8012 C   0  0  0  0  0  0  0  0  0  0  0  0
   -2.0139    4.1106   -0.6507 C   0  0  0  0  0  0  0  0  0  0  0  0
   -1.8487    2.7642   -0.2767 C   0  0  0  0  0  0  0  0  0  0  0  0
   -3.0291    2.0317   -0.3285 C   0  0  0  0  0  0  0  0  0  0  0  0
   -3.1981    0.6191    0.1569 C   0  0  0  0  0  0  0  0  0  0  0  0
   -2.4755   -0.3706   -0.7618 C   0  0  0  0  0  0  0  0  0  0  0  0
   -4.2785    3.0355   -0.8423 S   0  0  0  0  0  0  0  0  0  0  0  0
   -3.3425    4.4424   -0.9639 C   0  0  0  0  0  0  0  0  0  0  0  0
   -3.7171    5.7376   -1.3958 C   0  0  0  0  0  0  0  0  0  0  0  0
   -2.6711    6.6810   -1.5091 C   0  0  0  0  0  0  0  0  0  0  0  0
   -1.3468    6.3377   -1.2135 C   0  0  0  0  0  0  0  0  0  0  0  0
   -0.3459    7.6563   -1.5097 S   0  0  0  0  0  0  0  0  0  0  0  0
   -1.5740    8.6720   -2.0480 C   0  0  0  0  0  0  0  0  0  0  0  0
   -1.3902   10.0923   -2.4893 C   0  0  0  0  0  0  0  0  0  0  0  0
   -1.0961   11.0050   -1.2984 C   0  0  0  0  0  0  0  0  0  0  0  0
   -2.7962    8.0041   -1.9737 C   0  0  0  0  0  0  0  0  0  0  0  0
   -5.0422    6.0487   -1.9836 C   0  0  0  0  0  0  0  0  0  0  0  0
   -6.2434    5.8450   -1.4215 C   0  0  0  0  0  0  0  0  0  0  0  0
   -6.5193    5.0419   -0.2262 C   0  0  0  0  0  0  0  0  0  0  0  0
   -5.8296    5.0194    0.8274 O   0  0  0  0  0  0  0  0  0  0  0  0
   -7.7069    4.2413   -0.4887 C   0  0  0  0  0  0  0  0  0  0  0  0
   -8.0273    2.9889    0.0937 C   0  0  0  0  0  0  0  0  0  0  0  0
   -8.9718    2.2661   -0.6199 C   0  0  0  0  0  0  0  0  0  0  0  0
   -9.5838    2.7472   -1.8280 C   0  0  0  0  0  0  0  0  0  0  0  0
   -9.2827    3.9747   -2.3914 C   0  0  0  0  0  0  0  0  0  0  0  0
   -8.3019    4.7218   -1.6858 C   0  0  0  0  0  0  0  0  0  0  0  0
   -7.5058    5.8525   -2.1980 C   0  0  0  0  0  0  0  0  0  0  0  0
   -7.9482    6.8464   -3.0083 C   0  0  0  0  0  0  0  0  0  0  0  0
   -7.1335    7.9973   -3.2999 C   0  0  0  0  0  0  0  0  0  0  0  0
   -6.4846    8.9320   -3.5273 N   0  0  0  0  0  0  0  0  0  0  0  0
   -9.3251    6.9269   -3.4219 C   0  0  0  0  0  0  0  0  0  0  0  0
  -10.4309    7.0078   -3.7256 N   0  0  0  0  0  0  0  0  0  0  0  0
  -10.2900    1.4348   -2.0128 C   0  0  0  0  0  0  0  0  0  0  0  0
   -9.7471    0.4766   -3.1121 C   0  0  0  0  0  0  0  0  0  0  0  0
   -8.2515    0.6669   -3.2816 C   0  0  0  0  0  0  0  0  0  0  0  0
   -7.6791    0.2236   -2.1608 C   0  0  0  0  0  0  0  0  0  0  0  0
   -8.8019   -0.2678   -1.2723 C   0  0  0  0  0  0  0  0  0  0  0  0
   -9.7305   -0.8292   -2.3331 C   0  0  0  0  0  0  0  0  0  0  0  0
   -9.6625    0.9396   -0.7827 C   0  0  0  0  0  0  0  0  0  0  0  0
    5.2279   -8.4354   -0.3058 H   0  0  0  0  0  0  0  0  0  0  0  0
    1.9066   -7.8434    5.0122 H   0  0  0  0  0  0  0  0  0  0  0  0
    3.2838  -12.4822    3.4048 H   0  0  0  0  0  0  0  0  0  0  0  0
    0.9377  -12.5598    5.9922 H   0  0  0  0  0  0  0  0  0  0  0  0
    3.0033  -13.5405    7.1873 H   0  0  0  0  0  0  0  0  0  0  0  0
    5.1191  -11.9887    6.8104 H   0  0  0  0  0  0  0  0  0  0  0  0
    4.5474   -9.5987    7.6813 H   0  0  0  0  0  0  0  0  0  0  0  0
    2.0696   -9.6360    8.6389 H   0  0  0  0  0  0  0  0  0  0  0  0
    2.9318  -12.0317    9.3580 H   0  0  0  0  0  0  0  0  0  0  0  0
    1.2491  -12.1765    8.6772 H   0  0  0  0  0  0  0  0  0  0  0  0
    0.3987  -10.4187    6.8262 H   0  0  0  0  0  0  0  0  0  0  0  0
    0.0230   -3.3523   -1.6166 H   0  0  0  0  0  0  0  0  0  0  0  0
    0.2668   -5.0996   -1.2729 H   0  0  0  0  0  0  0  0  0  0  0  0
   -1.2312   -4.0305    0.4178 H   0  0  0  0  0  0  0  0  0  0  0  0
    0.0796   -2.8705    0.8617 H   0  0  0  0  0  0  0  0  0  0  0  0
    0.2921   -4.6384    1.1817 H   0  0  0  0  0  0  0  0  0  0  0  0
    1.9740   -6.7151   -0.2651 H   0  0  0  0  0  0  0  0  0  0  0  0
    1.1777   -1.0878   -1.3537 H   0  0  0  0  0  0  0  0  0  0  0  0
    5.0641    3.1841    0.0186 H   0  0  0  0  0  0  0  0  0  0  0  0
    7.4474    3.5151    0.4737 H   0  0  0  0  0  0  0  0  0  0  0  0
   10.7694    0.4846    1.7871 H   0  0  0  0  0  0  0  0  0  0  0  0
    9.0638   -0.0067    1.5493 H   0  0  0  0  0  0  0  0  0  0  0  0
    9.8697    1.0758    0.3431 H   0  0  0  0  0  0  0  0  0  0  0  0
    7.2729    0.5943    3.6189 H   0  0  0  0  0  0  0  0  0  0  0  0
    4.8735    0.2424    3.1754 H   0  0  0  0  0  0  0  0  0  0  0  0
    1.7520   -0.6871    1.3371 H   0  0  0  0  0  0  0  0  0  0  0  0
    0.0439   -1.1877    3.0280 H   0  0  0  0  0  0  0  0  0  0  0  0
   -0.3045   -1.3149    7.3010 H   0  0  0  0  0  0  0  0  0  0  0  0
    0.5735   -1.8137    5.7971 H   0  0  0  0  0  0  0  0  0  0  0  0
    1.1795   -0.4204    6.7895 H   0  0  0  0  0  0  0  0  0  0  0  0
    1.1941    2.3207    5.2365 H   0  0  0  0  0  0  0  0  0  0  0  0
    2.8934    2.8516    3.5147 H   0  0  0  0  0  0  0  0  0  0  0  0
   -1.3988    2.6547   -2.7854 H   0  0  0  0  0  0  0  0  0  0  0  0
   -2.3368    0.9199   -4.2196 H   0  0  0  0  0  0  0  0  0  0  0  0
   -0.8136   -2.1499   -6.6968 H   0  0  0  0  0  0  0  0  0  0  0  0
   -0.3499   -1.1053   -5.2999 H   0  0  0  0  0  0  0  0  0  0  0  0
    0.4806   -0.8996   -6.8946 H   0  0  0  0  0  0  0  0  0  0  0  0
    0.3280    2.0989   -7.3790 H   0  0  0  0  0  0  0  0  0  0  0  0
    1.2985    3.8256   -5.9371 H   0  0  0  0  0  0  0  0  0  0  0  0
    2.9010    5.6514   -2.6690 H   0  0  0  0  0  0  0  0  0  0  0  0
    3.6938    7.8100   -3.5181 H   0  0  0  0  0  0  0  0  0  0  0  0
    4.3329    8.2083   -6.3455 H   0  0  0  0  0  0  0  0  0  0  0  0
    4.1532    9.7102   -7.3200 H   0  0  0  0  0  0  0  0  0  0  0  0
    2.9374    8.3890   -7.4937 H   0  0  0  0  0  0  0  0  0  0  0  0
    0.2117    8.1283   -6.0178 H   0  0  0  0  0  0  0  0  0  0  0  0
   -0.6220    5.9777   -5.1553 H   0  0  0  0  0  0  0  0  0  0  0  0
   -0.9209    2.3207    0.0584 H   0  0  0  0  0  0  0  0  0  0  0  0
   -2.7733    0.5411    1.1851 H   0  0  0  0  0  0  0  0  0  0  0  0
   -4.2819    0.3580    0.1943 H   0  0  0  0  0  0  0  0  0  0  0  0
   -2.5095   -1.3839   -0.3024 H   0  0  0  0  0  0  0  0  0  0  0  0
   -2.9670   -0.4173   -1.7670 H   0  0  0  0  0  0  0  0  0  0  0  0
   -1.4033   -0.0916   -0.8917 H   0  0  0  0  0  0  0  0  0  0  0  0
   -0.5535   10.1434   -3.2165 H   0  0  0  0  0  0  0  0  0  0  0  0
   -2.3084   10.4488   -3.0072 H   0  0  0  0  0  0  0  0  0  0  0  0
   -1.9243   10.9526   -0.5613 H   0  0  0  0  0  0  0  0  0  0  0  0
   -1.0181   12.0511   -1.6539 H   0  0  0  0  0  0  0  0  0  0  0  0
   -0.1460   10.7143   -0.8064 H   0  0  0  0  0  0  0  0  0  0  0  0
   -3.7394    8.4616   -2.2509 H   0  0  0  0  0  0  0  0  0  0  0  0
   -4.9997    6.4394   -2.9854 H   0  0  0  0  0  0  0  0  0  0  0  0
   -7.5004    2.5679    0.9381 H   0  0  0  0  0  0  0  0  0  0  0  0
   -9.6794    4.2629   -3.3620 H   0  0  0  0  0  0  0  0  0  0  0  0
  -11.3939    1.5019   -1.9582 H   0  0  0  0  0  0  0  0  0  0  0  0
  -10.3237    0.4487   -4.0583 H   0  0  0  0  0  0  0  0  0  0  0  0
   -7.7267    1.0229   -4.1619 H   0  0  0  0  0  0  0  0  0  0  0  0
   -6.6151    0.1454   -1.9834 H   0  0  0  0  0  0  0  0  0  0  0  0
   -8.4950   -0.9879   -0.4828 H   0  0  0  0  0  0  0  0  0  0  0  0
  -10.7342   -1.1248   -1.9400 H   0  0  0  0  0  0  0  0  0  0  0  0
   -9.2794   -1.6842   -2.8988 H   0  0  0  0  0  0  0  0  0  0  0  0
  -10.3901    0.7046    0.0325 H   0  0  0  0  0  0  0  0  0  0  0  0
  1  2  2  3
  2  3  1  0
  3  4  2  0
  3  5  1  0
  5  6  2  0
  6  7  1  0
  7  8  2  0
  8  9  1  0
  9 10  2  0
 10 11  1  0
 11 12  2  3
 12 13  1  0
 13 14  3  0
 12 15  1  0
 15 16  3  0
  8 17  1  0
 17 18  1  0
 18 19  1  0
 19 20  2  0
 20 21  1  0
 21 22  1  0
 21 23  1  0
  1 24  1  0
 24 25  1  0
 25 26  1  0
 26 27  1  0
 27 28  2  0
 28 29  1  0
 29 30  1  0
 30 31  1  0
 29 32  1  0
 32 33  1  0
 28 34  1  0
 34 35  2  0
 35 36  1  0
 35 37  1  0
 37 38  2  0
 38 39  1  0
 39 40  1  0
 40 41  2  0
 41 42  1  0
 42 43  2  0
 43 44  1  0
 44 45  1  0
 43 46  1  0
 46 47  2  0
 39 48  1  0
 48 49  2  0
 49 50  1  0
 50 51  2  0
 51 52  1  0
 52 53  1  0
 51 54  1  0
 54 55  2  0
 38 56  1  0
 56 57  1  0
 57 58  1  0
 58 59  2  0
 59 60  1  0
 60 61  1  0
 61 62  2  0
 62 63  1  0
 63 64  2  0
 64 65  1  0
 65 66  1  0
 64 67  1  0
 67 68  2  0
 60 69  1  0
 69 70  2  0
 70 71  1  0
 71 72  2  0
 72 73  1  0
 73 74  1  0
 72 75  1  0
 75 76  2  0
 59 77  1  0
 77 78  1  0
 58 79  1  0
 79 80  2  0
 80 81  1  0
 81 82  2  0
 82 83  1  0
 83 84  1  0
 82 85  1  0
 85 86  1  0
 86 87  2  0
 87 88  1  0
 88 89  2  0
 89 90  1  0
 90 91  1  0
 91 92  1  0
 92 93  1  0
 91 94  2  0
 87 95  1  0
 95 96  2  3
 96 97  1  0
 97 98  2  0
 97 99  1  0
 99100  2  0
100101  1  0
101102  2  0
102103  1  0
103104  2  0
104105  1  0
105106  2  3
106107  1  0
107108  3  0
106109  1  0
109110  3  0
102111  1  0
111112  1  0
112113  1  0
113114  2  0
114115  1  0
115116  1  0
115117  1  0
 11  2  1  0
 23 17  1  0
 33 24  2  0
 78 37  1  0
 89 79  1  0
105 96  1  0
117111  1  0
 10  5  1  0
 22 18  1  0
 32 26  2  0
 47 40  1  0
 55 48  1  0
 77 56  2  0
 86 80  1  0
 94 88  1  0
104 99  1  0
116112  1  0
 23  7  1  0
 36 27  1  0
 68 61  1  0
 76 69  1  0
117101  1  0
  1118  1  0
  6119  1  0
  9120  1  0
 17121  1  0
 18122  1  0
 19123  1  0
 20124  1  0
 21125  1  0
 22126  1  0
 22127  1  0
 23128  1  0
 30129  1  0
 30130  1  0
 31131  1  0
 31132  1  0
 31133  1  0
 33134  1  0
 34135  1  0
 41136  1  0
 42137  1  0
 45138  1  0
 45139  1  0
 45140  1  0
 46141  1  0
 47142  1  0
 49143  1  0
 50144  1  0
 53145  1  0
 53146  1  0
 53147  1  0
 54148  1  0
 55149  1  0
 62150  1  0
 63151  1  0
 66152  1  0
 66153  1  0
 66154  1  0
 67155  1  0
 68156  1  0
 70157  1  0
 71158  1  0
 74159  1  0
 74160  1  0
 74161  1  0
 75162  1  0
 76163  1  0
 81164  1  0
 83165  1  0
 83166  1  0
 84167  1  0
 84168  1  0
 84169  1  0
 92170  1  0
 92171  1  0
 93172  1  0
 93173  1  0
 93174  1  0
 94175  1  0
 95176  1  0
100177  1  0
103178  1  0
111179  1  0
112180  1  0
113181  1  0
114182  1  0
115183  1  0
116184  1  0
116185  1  0
117186  1  0
M  END

