
     RDKit          3D

280306  0  0  0  0  0  0  0  0999 V2000
   -2.9543   -3.6128    6.3432 C   0  0  0  0  0  0  0  0  0  0  0  0
   -3.0685   -3.3971    7.6588 C   0  0  0  0  0  0  0  0  0  0  0  0
   -2.4260   -4.5081    8.4209 C   0  0  0  0  0  0  0  0  0  0  0  0
   -2.9346   -5.6561    8.5331 O   0  0  0  0  0  0  0  0  0  0  0  0
   -1.0842   -4.1421    8.8579 C   0  0  0  0  0  0  0  0  0  0  0  0
    0.0333   -5.0257    8.9669 C   0  0  0  0  0  0  0  0  0  0  0  0
    1.2494   -4.3907    8.7793 C   0  0  0  0  0  0  0  0  0  0  0  0
    1.3627   -2.9892    8.4771 C   0  0  0  0  0  0  0  0  0  0  0  0
    0.2752   -2.1336    8.3869 C   0  0  0  0  0  0  0  0  0  0  0  0
   -0.9608   -2.7600    8.6121 C   0  0  0  0  0  0  0  0  0  0  0  0
   -2.2758   -2.2471    8.2125 C   0  0  0  0  0  0  0  0  0  0  0  0
   -2.8161   -1.1868    8.8288 C   0  0  0  0  0  0  0  0  0  0  0  0
   -2.0126   -0.3217    9.6925 C   0  0  0  0  0  0  0  0  0  0  0  0
   -1.3506    0.3547   10.3687 N   0  0  0  0  0  0  0  0  0  0  0  0
   -4.0595   -0.6253    8.3715 C   0  0  0  0  0  0  0  0  0  0  0  0
   -5.0022   -0.1293    7.8915 N   0  0  0  0  0  0  0  0  0  0  0  0
    2.8050   -3.1394    8.1443 C   0  0  0  0  0  0  0  0  0  0  0  0
    3.1618   -3.1653    6.6196 C   0  0  0  0  0  0  0  0  0  0  0  0
    4.5856   -3.6611    6.5560 C   0  0  0  0  0  0  0  0  0  0  0  0
    4.5501   -4.9521    6.9007 C   0  0  0  0  0  0  0  0  0  0  0  0
    3.0983   -5.2881    7.1803 C   0  0  0  0  0  0  0  0  0  0  0  0
    2.4567   -4.4148    6.1104 C   0  0  0  0  0  0  0  0  0  0  0  0
    2.7260   -4.5555    8.5041 C   0  0  0  0  0  0  0  0  0  0  0  0
   -3.7675   -3.0347    5.2723 C   0  0  0  0  0  0  0  0  0  0  0  0
   -3.6978   -3.5289    3.9630 C   0  0  0  0  0  0  0  0  0  0  0  0
   -4.1325   -2.6193    2.9879 C   0  0  0  0  0  0  0  0  0  0  0  0
   -4.0539   -2.8311    1.6041 C   0  0  0  0  0  0  0  0  0  0  0  0
   -3.6603   -4.1319    1.0473 C   0  0  0  0  0  0  0  0  0  0  0  0
   -2.3698   -4.6234    0.9059 C   0  0  0  0  0  0  0  0  0  0  0  0
   -2.3282   -5.9139    0.3481 C   0  0  0  0  0  0  0  0  0  0  0  0
   -0.7959   -6.7247    0.0573 Cl  0  0  0  0  0  0  0  0  0  0  0  0
   -3.5869   -6.4523    0.0769 C   0  0  0  0  0  0  0  0  0  0  0  0
   -4.0660   -8.0555   -0.7425 Si  0  0  0  0  0  4  0  0  0  0  0  0
   -5.4901   -8.7967    0.2554 C   0  0  0  0  0  0  0  0  0  0  0  0
   -6.2174   -9.9060   -0.5028 C   0  0  0  0  0  0  0  0  0  0  0  0
   -2.6893   -9.3303   -0.8892 C   0  0  0  0  0  0  0  0  0  0  0  0
   -2.2975   -9.9033    0.4681 C   0  0  0  0  0  0  0  0  0  0  0  0
   -4.6650   -7.6856   -2.4840 C   0  0  0  0  0  0  0  0  0  0  0  0
   -5.8363   -6.7032   -2.4895 C   0  0  0  0  0  0  0  0  0  0  0  0
   -4.7420   -5.3017    0.5033 S   0  0  0  0  0  0  0  0  0  0  0  0
   -4.3073   -1.7324    0.7700 C   0  0  0  0  0  0  0  0  0  0  0  0
   -4.7010   -0.4892    1.2676 C   0  0  0  0  0  0  0  0  0  0  0  0
   -4.9474   -0.3090    2.6575 C   0  0  0  0  0  0  0  0  0  0  0  0
   -5.6264    0.9045    3.1718 C   0  0  0  0  0  0  0  0  0  0  0  0
   -6.9332    1.6558    2.4121 S   0  0  0  0  0  0  0  0  0  0  0  0
   -7.2501    2.7816    3.6194 C   0  0  0  0  0  0  0  0  0  0  0  0
   -8.6967    3.9290    3.6002 Si  0  0  0  0  0  4  0  0  0  0  0  0
   -9.9570    3.3172    4.8598 C   0  0  0  0  0  0  0  0  0  0  0  0
  -10.3134    1.8549    4.6167 C   0  0  0  0  0  0  0  0  0  0  0  0
   -8.1254    5.6838    4.0319 C   0  0  0  0  0  0  0  0  0  0  0  0
   -9.1117    6.4028    4.9499 C   0  0  0  0  0  0  0  0  0  0  0  0
   -9.4596    3.9397    1.8847 C   0  0  0  0  0  0  0  0  0  0  0  0
  -10.7110    4.8124    1.8304 C   0  0  0  0  0  0  0  0  0  0  0  0
   -6.3572    2.5593    4.6592 C   0  0  0  0  0  0  0  0  0  0  0  0
   -5.4395    1.5326    4.4038 C   0  0  0  0  0  0  0  0  0  0  0  0
   -6.4049    3.3787    6.2138 Cl  0  0  0  0  0  0  0  0  0  0  0  0
   -4.5896   -1.3923    3.4994 C   0  0  0  0  0  0  0  0  0  0  0  0
   -4.4167   -1.4650    5.1734 S   0  0  0  0  0  0  0  0  0  0  0  0
   -4.6050    0.5338    0.2998 C   0  0  0  0  0  0  0  0  0  0  0  0
   -4.1139    0.0948   -0.9386 C   0  0  0  0  0  0  0  0  0  0  0  0
   -3.8632   -1.5713   -0.8353 S   0  0  0  0  0  0  0  0  0  0  0  0
   -3.3681    0.9263   -1.9217 C   0  0  0  0  0  0  0  0  0  0  0  0
   -2.8567    2.2201   -1.6731 C   0  0  0  0  0  0  0  0  0  0  0  0
   -3.7517    3.3353   -1.4725 N   0  0  0  0  0  0  0  0  0  0  0  0
   -4.2495    4.0037   -2.6531 C   0  0  0  0  0  0  0  0  0  0  0  0
   -4.9971    3.2988   -3.6090 C   0  0  0  0  0  0  0  0  0  0  0  0
   -5.4557    3.9407   -4.7628 C   0  0  0  0  0  0  0  0  0  0  0  0
   -5.1730    5.2973   -4.9750 C   0  0  0  0  0  0  0  0  0  0  0  0
   -5.7976    6.1375   -6.4323 S   0  0  0  0  0  0  0  0  0  0  0  0
   -4.3718    5.7545   -7.5142 C   0  0  0  0  0  0  0  0  0  0  0  0
   -4.4336    6.0110   -4.0216 C   0  0  0  0  0  0  0  0  0  0  0  0
   -3.9746    5.3617   -2.8667 C   0  0  0  0  0  0  0  0  0  0  0  0
   -3.9565    3.9689   -0.1859 C   0  0  0  0  0  0  0  0  0  0  0  0
   -5.1863    4.6027    0.0789 C   0  0  0  0  0  0  0  0  0  0  0  0
   -5.3470    5.3936    1.2109 C   0  0  0  0  0  0  0  0  0  0  0  0
   -4.2806    5.5615    2.0982 C   0  0  0  0  0  0  0  0  0  0  0  0
   -4.4117    6.7456    3.4432 S   0  0  0  0  0  0  0  0  0  0  0  0
   -4.0777    8.2078    2.3951 C   0  0  0  0  0  0  0  0  0  0  0  0
   -3.0888    4.8484    1.9036 C   0  0  0  0  0  0  0  0  0  0  0  0
   -2.9255    4.0506    0.7692 C   0  0  0  0  0  0  0  0  0  0  0  0
   -1.6642    2.4100   -2.3885 C   0  0  0  0  0  0  0  0  0  0  0  0
   -0.3479    3.4132   -2.1531 S   0  0  0  0  0  0  0  0  0  0  0  0
    0.7393    2.5529   -3.1528 C   0  0  0  0  0  0  0  0  0  0  0  0
    0.0165    1.4891   -3.7328 C   0  0  0  0  0  0  0  0  0  0  0  0
    0.5340    0.5591   -4.7102 N   0  0  0  0  0  0  0  0  0  0  0  0
    0.8035    1.0125   -6.0581 C   0  0  0  0  0  0  0  0  0  0  0  0
    1.6830    0.2897   -6.8927 C   0  0  0  0  0  0  0  0  0  0  0  0
    1.8684    0.6561   -8.2330 C   0  0  0  0  0  0  0  0  0  0  0  0
    1.1742    1.7587   -8.7516 C   0  0  0  0  0  0  0  0  0  0  0  0
    1.3821    2.2252  -10.4761 S   0  0  0  0  0  0  0  0  0  0  0  0
   -0.0687    1.2763  -11.0400 C   0  0  0  0  0  0  0  0  0  0  0  0
    0.3226    2.5029   -7.9326 C   0  0  0  0  0  0  0  0  0  0  0  0
    0.1338    2.1321   -6.5963 C   0  0  0  0  0  0  0  0  0  0  0  0
    0.3252   -0.8517   -4.4836 C   0  0  0  0  0  0  0  0  0  0  0  0
   -0.5269   -1.5904   -5.3370 C   0  0  0  0  0  0  0  0  0  0  0  0
   -0.8926   -2.8944   -5.0041 C   0  0  0  0  0  0  0  0  0  0  0  0
   -0.4078   -3.4840   -3.8228 C   0  0  0  0  0  0  0  0  0  0  0  0
   -0.9670   -5.1138   -3.3304 S   0  0  0  0  0  0  0  0  0  0  0  0
    0.1691   -6.0311   -4.4243 C   0  0  0  0  0  0  0  0  0  0  0  0
    0.4717   -2.7690   -3.0049 C   0  0  0  0  0  0  0  0  0  0  0  0
    0.8257   -1.4557   -3.3194 C   0  0  0  0  0  0  0  0  0  0  0  0
   -1.2896    1.4221   -3.2352 C   0  0  0  0  0  0  0  0  0  0  0  0
   -2.4078    0.1817   -3.1192 S   0  0  0  0  0  0  0  0  0  0  0  0
    2.2254    2.6009   -3.0250 C   0  0  0  0  0  0  0  0  0  0  0  0
    2.9449    2.5473   -1.8051 C   0  0  0  0  0  0  0  0  0  0  0  0
    2.4350    2.8973   -0.4975 N   0  0  0  0  0  0  0  0  0  0  0  0
    2.8679    2.1277    0.6477 C   0  0  0  0  0  0  0  0  0  0  0  0
    3.6435    2.7511    1.6478 C   0  0  0  0  0  0  0  0  0  0  0  0
    4.1163    2.0133    2.7276 C   0  0  0  0  0  0  0  0  0  0  0  0
    3.8135    0.6433    2.8372 C   0  0  0  0  0  0  0  0  0  0  0  0
    4.4037   -0.2840    4.2532 S   0  0  0  0  0  0  0  0  0  0  0  0
    3.2470    0.5218    5.4088 C   0  0  0  0  0  0  0  0  0  0  0  0
    3.0593    0.0167    1.8299 C   0  0  0  0  0  0  0  0  0  0  0  0
    2.5956    0.7508    0.7380 C   0  0  0  0  0  0  0  0  0  0  0  0
    1.9170    4.2217   -0.2252 C   0  0  0  0  0  0  0  0  0  0  0  0
    0.9503    4.3877    0.7888 C   0  0  0  0  0  0  0  0  0  0  0  0
    0.5633    5.6651    1.1950 C   0  0  0  0  0  0  0  0  0  0  0  0
    1.1530    6.7964    0.6234 C   0  0  0  0  0  0  0  0  0  0  0  0
    0.7029    8.4260    1.2177 S   0  0  0  0  0  0  0  0  0  0  0  0
    1.7104    8.3446    2.7409 C   0  0  0  0  0  0  0  0  0  0  0  0
    2.0852    6.6477   -0.4126 C   0  0  0  0  0  0  0  0  0  0  0  0
    2.4586    5.3659   -0.8420 C   0  0  0  0  0  0  0  0  0  0  0  0
    4.2488    2.0723   -2.0026 C   0  0  0  0  0  0  0  0  0  0  0  0
    5.4782    1.5407   -0.9734 S   0  0  0  0  0  0  0  0  0  0  0  0
    6.4728    0.9777   -2.2170 C   0  0  0  0  0  0  0  0  0  0  0  0
    5.8791    1.2297   -3.4559 C   0  0  0  0  0  0  0  0  0  0  0  0
    6.5783    1.1099   -4.7038 N   0  0  0  0  0  0  0  0  0  0  0  0
    7.3000    2.2594   -5.2023 C   0  0  0  0  0  0  0  0  0  0  0  0
    8.6588    2.1659   -5.5792 C   0  0  0  0  0  0  0  0  0  0  0  0
    9.3520    3.3058   -6.0002 C   0  0  0  0  0  0  0  0  0  0  0  0
    8.7121    4.5499   -6.0293 C   0  0  0  0  0  0  0  0  0  0  0  0
    9.6228    6.0224   -6.5047 S   0  0  0  0  0  0  0  0  0  0  0  0
   10.4375    6.1786   -4.8836 C   0  0  0  0  0  0  0  0  0  0  0  0
    7.3614    4.6487   -5.6688 C   0  0  0  0  0  0  0  0  0  0  0  0
    6.6721    3.5150   -5.2485 C   0  0  0  0  0  0  0  0  0  0  0  0
    6.7023   -0.1771   -5.3444 C   0  0  0  0  0  0  0  0  0  0  0  0
    7.8469   -0.9813   -5.1641 C   0  0  0  0  0  0  0  0  0  0  0  0
    8.0238   -2.1334   -5.9302 C   0  0  0  0  0  0  0  0  0  0  0  0
    7.0432   -2.5164   -6.8559 C   0  0  0  0  0  0  0  0  0  0  0  0
    7.3276   -3.9132   -7.9565 S   0  0  0  0  0  0  0  0  0  0  0  0
    6.8241   -5.2130   -6.7733 C   0  0  0  0  0  0  0  0  0  0  0  0
    5.8724   -1.7589   -6.9828 C   0  0  0  0  0  0  0  0  0  0  0  0
    5.7088   -0.5894   -6.2376 C   0  0  0  0  0  0  0  0  0  0  0  0
    4.6160    1.8181   -3.2844 C   0  0  0  0  0  0  0  0  0  0  0  0
    3.2937    2.1018   -4.2763 S   0  0  0  0  0  0  0  0  0  0  0  0
    7.4934   -0.0534   -1.9593 C   0  0  0  0  0  0  0  0  0  0  0  0
    7.1319   -1.3220   -1.6859 C   0  0  0  0  0  0  0  0  0  0  0  0
    5.8362   -1.9127   -2.0664 C   0  0  0  0  0  0  0  0  0  0  0  0
    4.8862   -1.3501   -2.6691 O   0  0  0  0  0  0  0  0  0  0  0  0
    5.8079   -3.2838   -1.6396 C   0  0  0  0  0  0  0  0  0  0  0  0
    4.6961   -4.1482   -1.7644 C   0  0  0  0  0  0  0  0  0  0  0  0
    4.8608   -5.3453   -1.0925 C   0  0  0  0  0  0  0  0  0  0  0  0
    6.0427   -5.6819   -0.3485 C   0  0  0  0  0  0  0  0  0  0  0  0
    7.1613   -4.8493   -0.2645 C   0  0  0  0  0  0  0  0  0  0  0  0
    7.0218   -3.5993   -0.9609 C   0  0  0  0  0  0  0  0  0  0  0  0
    7.9070   -2.3911   -0.9659 C   0  0  0  0  0  0  0  0  0  0  0  0
    9.0641   -2.2218   -0.2669 C   0  0  0  0  0  0  0  0  0  0  0  0
    9.7660   -3.3048    0.3812 C   0  0  0  0  0  0  0  0  0  0  0  0
   10.3515   -4.1540    0.9126 N   0  0  0  0  0  0  0  0  0  0  0  0
    9.6265   -0.9245   -0.0053 C   0  0  0  0  0  0  0  0  0  0  0  0
   10.0791    0.1211    0.2323 N   0  0  0  0  0  0  0  0  0  0  0  0
    5.3949   -6.9458    0.1249 C   0  0  0  0  0  0  0  0  0  0  0  0
    4.8621   -6.9383    1.5941 C   0  0  0  0  0  0  0  0  0  0  0  0
    3.9476   -8.1324    1.7074 C   0  0  0  0  0  0  0  0  0  0  0  0
    2.8610   -7.8514    0.9794 C   0  0  0  0  0  0  0  0  0  0  0  0
    3.0756   -6.4666    0.4055 C   0  0  0  0  0  0  0  0  0  0  0  0
    3.8038   -5.8353    1.5890 C   0  0  0  0  0  0  0  0  0  0  0  0
    4.1997   -6.6206   -0.6653 C   0  0  0  0  0  0  0  0  0  0  0  0
   -1.9673   -3.9299    5.9691 H   0  0  0  0  0  0  0  0  0  0  0  0
   -0.0550   -6.1136    8.9811 H   0  0  0  0  0  0  0  0  0  0  0  0
    0.3800   -1.1131    8.0101 H   0  0  0  0  0  0  0  0  0  0  0  0
    3.4688   -2.5191    8.7869 H   0  0  0  0  0  0  0  0  0  0  0  0
    2.9481   -2.2450    6.0433 H   0  0  0  0  0  0  0  0  0  0  0  0
    5.4520   -3.1257    6.1686 H   0  0  0  0  0  0  0  0  0  0  0  0
    5.3944   -5.6343    6.8978 H   0  0  0  0  0  0  0  0  0  0  0  0
    2.8430   -6.3625    7.1340 H   0  0  0  0  0  0  0  0  0  0  0  0
    1.3496   -4.3639    6.1508 H   0  0  0  0  0  0  0  0  0  0  0  0
    2.7553   -4.6978    5.0700 H   0  0  0  0  0  0  0  0  0  0  0  0
    3.3041   -4.8394    9.4047 H   0  0  0  0  0  0  0  0  0  0  0  0
   -3.2379   -4.4695    3.7262 H   0  0  0  0  0  0  0  0  0  0  0  0
   -1.4859   -4.0696    1.2129 H   0  0  0  0  0  0  0  0  0  0  0  0
   -6.2185   -7.9964    0.5081 H   0  0  0  0  0  0  0  0  0  0  0  0
   -5.0975   -9.2065    1.2118 H   0  0  0  0  0  0  0  0  0  0  0  0
   -6.7701   -9.4842   -1.3687 H   0  0  0  0  0  0  0  0  0  0  0  0
   -6.9563  -10.3914    0.1697 H   0  0  0  0  0  0  0  0  0  0  0  0
   -5.5014  -10.6778   -0.8706 H   0  0  0  0  0  0  0  0  0  0  0  0
   -1.8124   -8.8782   -1.3878 H   0  0  0  0  0  0  0  0  0  0  0  0
   -3.0449  -10.1607   -1.5350 H   0  0  0  0  0  0  0  0  0  0  0  0
   -3.1106  -10.5541    0.8573 H   0  0  0  0  0  0  0  0  0  0  0  0
   -2.1039   -9.0916    1.2087 H   0  0  0  0  0  0  0  0  0  0  0  0
   -1.3831  -10.5157    0.3679 H   0  0  0  0  0  0  0  0  0  0  0  0
   -4.9795   -8.6417   -2.9607 H   0  0  0  0  0  0  0  0  0  0  0  0
   -3.8169   -7.2698   -3.0687 H   0  0  0  0  0  0  0  0  0  0  0  0
   -6.2911   -6.6851   -3.5021 H   0  0  0  0  0  0  0  0  0  0  0  0
   -6.6275   -7.0113   -1.7758 H   0  0  0  0  0  0  0  0  0  0  0  0
   -5.4773   -5.6831   -2.2398 H   0  0  0  0  0  0  0  0  0  0  0  0
   -9.5397    3.4351    5.8867 H   0  0  0  0  0  0  0  0  0  0  0  0
  -10.8900    3.9321    4.7906 H   0  0  0  0  0  0  0  0  0  0  0  0
  -11.0653    1.5304    5.3662 H   0  0  0  0  0  0  0  0  0  0  0  0
   -9.4066    1.2202    4.7073 H   0  0  0  0  0  0  0  0  0  0  0  0
  -10.7573    1.7303    3.6010 H   0  0  0  0  0  0  0  0  0  0  0  0
   -7.1333    5.6300    4.5334 H   0  0  0  0  0  0  0  0  0  0  0  0
   -7.9998    6.2549    3.0934 H   0  0  0  0  0  0  0  0  0  0  0  0
  -10.1327    6.4069    4.5110 H   0  0  0  0  0  0  0  0  0  0  0  0
   -9.1337    5.9113    5.9475 H   0  0  0  0  0  0  0  0  0  0  0  0
   -8.7892    7.4587    5.0806 H   0  0  0  0  0  0  0  0  0  0  0  0
   -9.7308    2.9009    1.6180 H   0  0  0  0  0  0  0  0  0  0  0  0
   -8.7081    4.3182    1.1599 H   0  0  0  0  0  0  0  0  0  0  0  0
  -10.4762    5.8636    2.1127 H   0  0  0  0  0  0  0  0  0  0  0  0
  -11.4942    4.4204    2.5140 H   0  0  0  0  0  0  0  0  0  0  0  0
  -11.1151    4.8146    0.7989 H   0  0  0  0  0  0  0  0  0  0  0  0
   -4.6840    1.2612    5.1302 H   0  0  0  0  0  0  0  0  0  0  0  0
   -4.7617    1.5793    0.5307 H   0  0  0  0  0  0  0  0  0  0  0  0
   -5.2354    2.2546   -3.4606 H   0  0  0  0  0  0  0  0  0  0  0  0
   -6.0520    3.3851   -5.4779 H   0  0  0  0  0  0  0  0  0  0  0  0
   -3.5734    5.1920   -6.9796 H   0  0  0  0  0  0  0  0  0  0  0  0
   -4.7227    5.1514   -8.3800 H   0  0  0  0  0  0  0  0  0  0  0  0
   -3.9463    6.7106   -7.8908 H   0  0  0  0  0  0  0  0  0  0  0  0
   -4.2270    7.0703   -4.1572 H   0  0  0  0  0  0  0  0  0  0  0  0
   -3.3932    5.9242   -2.1470 H   0  0  0  0  0  0  0  0  0  0  0  0
   -6.0010    4.5313   -0.6344 H   0  0  0  0  0  0  0  0  0  0  0  0
   -6.2832    5.9242    1.3664 H   0  0  0  0  0  0  0  0  0  0  0  0
   -5.0168    8.7907    2.2779 H   0  0  0  0  0  0  0  0  0  0  0  0
   -3.6888    7.9419    1.3896 H   0  0  0  0  0  0  0  0  0  0  0  0
   -3.3271    8.8554    2.8977 H   0  0  0  0  0  0  0  0  0  0  0  0
   -2.2812    4.9428    2.6177 H   0  0  0  0  0  0  0  0  0  0  0  0
   -1.9921    3.5402    0.6040 H   0  0  0  0  0  0  0  0  0  0  0  0
    2.2117   -0.5703   -6.5081 H   0  0  0  0  0  0  0  0  0  0  0  0
    2.5360    0.0805   -8.8589 H   0  0  0  0  0  0  0  0  0  0  0  0
   -0.9511    1.4730  -10.3943 H   0  0  0  0  0  0  0  0  0  0  0  0
    0.1823    0.1980  -11.0421 H   0  0  0  0  0  0  0  0  0  0  0  0
   -0.3191    1.5880  -12.0760 H   0  0  0  0  0  0  0  0  0  0  0  0
   -0.2300    3.3491   -8.3321 H   0  0  0  0  0  0  0  0  0  0  0  0
   -0.5689    2.6971   -6.0007 H   0  0  0  0  0  0  0  0  0  0  0  0
   -0.9448   -1.1285   -6.2201 H   0  0  0  0  0  0  0  0  0  0  0  0
   -1.5786   -3.4256   -5.6429 H   0  0  0  0  0  0  0  0  0  0  0  0
   -0.3746   -6.3754   -5.3276 H   0  0  0  0  0  0  0  0  0  0  0  0
    0.5559   -6.9189   -3.8805 H   0  0  0  0  0  0  0  0  0  0  0  0
    1.0351   -5.4123   -4.7416 H   0  0  0  0  0  0  0  0  0  0  0  0
    0.8449   -3.2133   -2.0869 H   0  0  0  0  0  0  0  0  0  0  0  0
    1.4695   -0.8899   -2.6531 H   0  0  0  0  0  0  0  0  0  0  0  0
    3.8963    3.7987    1.5794 H   0  0  0  0  0  0  0  0  0  0  0  0
    4.7035    2.5160    3.4895 H   0  0  0  0  0  0  0  0  0  0  0  0
    3.2439   -0.0295    6.3725 H   0  0  0  0  0  0  0  0  0  0  0  0
    3.5926    1.5619    5.6088 H   0  0  0  0  0  0  0  0  0  0  0  0
    2.2129    0.5317    4.9948 H   0  0  0  0  0  0  0  0  0  0  0  0
    2.8582   -1.0500    1.8852 H   0  0  0  0  0  0  0  0  0  0  0  0
    2.0265    0.2644   -0.0398 H   0  0  0  0  0  0  0  0  0  0  0  0
    0.5390    3.5290    1.2939 H   0  0  0  0  0  0  0  0  0  0  0  0
   -0.1521    5.7708    2.0005 H   0  0  0  0  0  0  0  0  0  0  0  0
    2.5603    9.0571    2.6616 H   0  0  0  0  0  0  0  0  0  0  0  0
    1.0651    8.6817    3.5801 H   0  0  0  0  0  0  0  0  0  0  0  0
    2.0647    7.3205    2.9602 H   0  0  0  0  0  0  0  0  0  0  0  0
    2.5286    7.5216   -0.8795 H   0  0  0  0  0  0  0  0  0  0  0  0
    3.2223    5.2684   -1.6099 H   0  0  0  0  0  0  0  0  0  0  0  0
    9.2065    1.2373   -5.5224 H   0  0  0  0  0  0  0  0  0  0  0  0
   10.3959    3.2142   -6.2756 H   0  0  0  0  0  0  0  0  0  0  0  0
   10.9078    7.1797   -4.8065 H   0  0  0  0  0  0  0  0  0  0  0  0
    9.7108    6.0547   -4.0513 H   0  0  0  0  0  0  0  0  0  0  0  0
   11.2340    5.4114   -4.7945 H   0  0  0  0  0  0  0  0  0  0  0  0
    6.8448    5.6016   -5.7095 H   0  0  0  0  0  0  0  0  0  0  0  0
    5.6376    3.6314   -4.9641 H   0  0  0  0  0  0  0  0  0  0  0  0
    8.6167   -0.6933   -4.4646 H   0  0  0  0  0  0  0  0  0  0  0  0
    8.9423   -2.7009   -5.8385 H   0  0  0  0  0  0  0  0  0  0  0  0
    7.7472   -5.7168   -6.4027 H   0  0  0  0  0  0  0  0  0  0  0  0
    6.2068   -5.9592   -7.3283 H   0  0  0  0  0  0  0  0  0  0  0  0
    6.2448   -4.8029   -5.9131 H   0  0  0  0  0  0  0  0  0  0  0  0
    5.1147   -2.0317   -7.7163 H   0  0  0  0  0  0  0  0  0  0  0  0
    4.8299    0.0314   -6.3866 H   0  0  0  0  0  0  0  0  0  0  0  0
    8.4981    0.2967   -1.8491 H   0  0  0  0  0  0  0  0  0  0  0  0
    3.7649   -3.8604   -2.2306 H   0  0  0  0  0  0  0  0  0  0  0  0
    8.0061   -5.1297    0.3442 H   0  0  0  0  0  0  0  0  0  0  0  0
    5.9138   -7.8695   -0.2009 H   0  0  0  0  0  0  0  0  0  0  0  0
    5.6355   -6.8542    2.3862 H   0  0  0  0  0  0  0  0  0  0  0  0
    4.0901   -9.0099    2.3238 H   0  0  0  0  0  0  0  0  0  0  0  0
    1.9719   -8.4651    0.9080 H   0  0  0  0  0  0  0  0  0  0  0  0
    2.1565   -5.9449    0.0699 H   0  0  0  0  0  0  0  0  0  0  0  0
    4.2006   -4.8174    1.3877 H   0  0  0  0  0  0  0  0  0  0  0  0
    3.1930   -5.7990    2.5176 H   0  0  0  0  0  0  0  0  0  0  0  0
    3.9804   -7.3120   -1.5082 H   0  0  0  0  0  0  0  0  0  0  0  0
  1  2  2  3
  2  3  1  0
  3  4  2  0
  3  5  1  0
  5  6  2  0
  6  7  1  0
  7  8  2  0
  8  9  1  0
  9 10  2  0
 10 11  1  0
 11 12  2  3
 12 13  1  0
 13 14  3  0
 12 15  1  0
 15 16  3  0
  8 17  1  0
 17 18  1  0
 18 19  1  0
 19 20  2  0
 20 21  1  0
 21 22  1  0
 21 23  1  0
  1 24  1  0
 24 25  2  0
 25 26  1  0
 26 27  2  0
 27 28  1  0
 28 29  2  0
 29 30  1  0
 30 31  1  0
 30 32  2  0
 32 33  1  0
 33 34  1  0
 34 35  1  0
 33 36  1  0
 36 37  1  0
 33 38  1  0
 38 39  1  0
 32 40  1  0
 27 41  1  0
 41 42  2  0
 42 43  1  0
 43 44  1  0
 44 45  1  0
 45 46  1  0
 46 47  1  0
 47 48  1  0
 48 49  1  0
 47 50  1  0
 50 51  1  0
 47 52  1  0
 52 53  1  0
 46 54  2  0
 54 55  1  0
 54 56  1  0
 43 57  2  0
 57 58  1  0
 42 59  1  0
 59 60  2  0
 60 61  1  0
 60 62  1  0
 62 63  2  0
 63 64  1  0
 64 65  1  0
 65 66  2  0
 66 67  1  0
 67 68  2  0
 68 69  1  0
 69 70  1  0
 68 71  1  0
 71 72  2  0
 64 73  1  0
 73 74  2  0
 74 75  1  0
 75 76  2  0
 76 77  1  0
 77 78  1  0
 76 79  1  0
 79 80  2  0
 63 81  1  0
 81 82  1  0
 82 83  1  0
 83 84  2  0
 84 85  1  0
 85 86  1  0
 86 87  2  0
 87 88  1  0
 88 89  2  0
 89 90  1  0
 90 91  1  0
 89 92  1  0
 92 93  2  0
 85 94  1  0
 94 95  2  0
 95 96  1  0
 96 97  2  0
 97 98  1  0
 98 99  1  0
 97100  1  0
100101  2  0
 84102  1  0
102103  1  0
 83104  1  0
104105  2  0
105106  1  0
106107  1  0
107108  2  0
108109  1  0
109110  2  0
110111  1  0
111112  1  0
110113  1  0
113114  2  0
106115  1  0
115116  2  0
116117  1  0
117118  2  0
118119  1  0
119120  1  0
118121  1  0
121122  2  0
105123  1  0
123124  1  0
124125  1  0
125126  2  0
126127  1  0
127128  1  0
128129  2  0
129130  1  0
130131  2  0
131132  1  0
132133  1  0
131134  1  0
134135  2  0
127136  1  0
136137  2  0
137138  1  0
138139  2  0
139140  1  0
140141  1  0
139142  1  0
142143  2  0
126144  1  0
144145  1  0
125146  1  0
146147  2  3
147148  1  0
148149  2  0
148150  1  0
150151  2  0
151152  1  0
152153  2  0
153154  1  0
154155  2  0
155156  1  0
156157  2  3
157158  1  0
158159  3  0
157160  1  0
160161  3  0
153162  1  0
162163  1  0
163164  1  0
164165  2  0
165166  1  0
166167  1  0
166168  1  0
 11  2  1  0
 23 17  1  0
 58 24  1  0
103 62  1  0
145104  1  0
156147  1  0
168162  1  0
 10  5  1  0
 22 18  1  0
 57 26  1  0
 72 65  1  0
 80 73  1  0
102 81  2  0
114107  1  0
122115  1  0
144123  2  0
155150  1  0
167163  1  0
 23  7  1  0
 40 28  1  0
 61 41  1  0
 93 86  1  0
101 94  1  0
135128  1  0
143136  1  0
168152  1  0
 55 44  2  0
  1169  1  0
  6170  1  0
  9171  1  0
 17172  1  0
 18173  1  0
 19174  1  0
 20175  1  0
 21176  1  0
 22177  1  0
 22178  1  0
 23179  1  0
 25180  1  0
 29181  1  0
 34182  1  0
 34183  1  0
 35184  1  0
 35185  1  0
 35186  1  0
 36187  1  0
 36188  1  0
 37189  1  0
 37190  1  0
 37191  1  0
 38192  1  0
 38193  1  0
 39194  1  0
 39195  1  0
 39196  1  0
 48197  1  0
 48198  1  0
 49199  1  0
 49200  1  0
 49201  1  0
 50202  1  0
 50203  1  0
 51204  1  0
 51205  1  0
 51206  1  0
 52207  1  0
 52208  1  0
 53209  1  0
 53210  1  0
 53211  1  0
 55212  1  0
 59213  1  0
 66214  1  0
 67215  1  0
 70216  1  0
 70217  1  0
 70218  1  0
 71219  1  0
 72220  1  0
 74221  1  0
 75222  1  0
 78223  1  0
 78224  1  0
 78225  1  0
 79226  1  0
 80227  1  0
 87228  1  0
 88229  1  0
 91230  1  0
 91231  1  0
 91232  1  0
 92233  1  0
 93234  1  0
 95235  1  0
 96236  1  0
 99237  1  0
 99238  1  0
 99239  1  0
100240  1  0
101241  1  0
108242  1  0
109243  1  0
112244  1  0
112245  1  0
112246  1  0
113247  1  0
114248  1  0
116249  1  0
117250  1  0
120251  1  0
120252  1  0
120253  1  0
121254  1  0
122255  1  0
129256  1  0
130257  1  0
133258  1  0
133259  1  0
133260  1  0
134261  1  0
135262  1  0
137263  1  0
138264  1  0
141265  1  0
141266  1  0
141267  1  0
142268  1  0
143269  1  0
146270  1  0
151271  1  0
154272  1  0
162273  1  0
163274  1  0
164275  1  0
165276  1  0
166277  1  0
167278  1  0
167279  1  0
168280  1  0
M  END

