
     RDKit          3D

208225  0  0  0  0  0  0  0  0999 V2000
    7.3381   -4.0285    1.6364 C   0  0  0  0  0  0  0  0  0  0  0  0
    7.6909   -2.8618    2.2132 C   0  0  0  0  0  0  0  0  0  0  0  0
    7.1488   -1.5540    1.8524 C   0  0  0  0  0  0  0  0  0  0  0  0
    6.4706   -1.2830    0.8231 O   0  0  0  0  0  0  0  0  0  0  0  0
    7.5399   -0.5866    2.8450 C   0  0  0  0  0  0  0  0  0  0  0  0
    6.9775    0.7056    3.0127 C   0  0  0  0  0  0  0  0  0  0  0  0
    7.2437    1.2770    4.2418 C   0  0  0  0  0  0  0  0  0  0  0  0
    8.0246    0.6284    5.2514 C   0  0  0  0  0  0  0  0  0  0  0  0
    8.6102   -0.6125    5.0737 C   0  0  0  0  0  0  0  0  0  0  0  0
    8.3686   -1.2232    3.8055 C   0  0  0  0  0  0  0  0  0  0  0  0
    8.5275   -2.6684    3.4209 C   0  0  0  0  0  0  0  0  0  0  0  0
    8.9748   -3.6461    4.2476 C   0  0  0  0  0  0  0  0  0  0  0  0
    9.9221   -3.3884    5.2820 C   0  0  0  0  0  0  0  0  0  0  0  0
   10.7075   -3.1572    6.1041 N   0  0  0  0  0  0  0  0  0  0  0  0
    8.1450   -4.8214    4.4475 C   0  0  0  0  0  0  0  0  0  0  0  0
    7.4651   -5.7478    4.6230 N   0  0  0  0  0  0  0  0  0  0  0  0
    7.7434    1.7456    6.2086 C   0  0  0  0  0  0  0  0  0  0  0  0
    8.8953    2.7452    6.5296 C   0  0  0  0  0  0  0  0  0  0  0  0
    9.8053    2.8911    5.3363 C   0  0  0  0  0  0  0  0  0  0  0  0
    9.0965    3.5095    4.3970 C   0  0  0  0  0  0  0  0  0  0  0  0
    7.7246    3.7667    4.9721 C   0  0  0  0  0  0  0  0  0  0  0  0
    8.1247    4.0454    6.4134 C   0  0  0  0  0  0  0  0  0  0  0  0
    6.9582    2.4234    5.1709 C   0  0  0  0  0  0  0  0  0  0  0  0
    5.9996   -4.1553    1.0468 C   0  0  0  0  0  0  0  0  0  0  0  0
    4.8671   -3.6967    1.6970 C   0  0  0  0  0  0  0  0  0  0  0  0
    3.7805   -3.4990    0.8473 C   0  0  0  0  0  0  0  0  0  0  0  0
    2.5811   -2.8426    1.2022 C   0  0  0  0  0  0  0  0  0  0  0  0
    2.2557   -2.5600    2.6301 C   0  0  0  0  0  0  0  0  0  0  0  0
    2.4399   -3.4530    3.6930 C   0  0  0  0  0  0  0  0  0  0  0  0
    2.1152   -2.9104    4.9445 C   0  0  0  0  0  0  0  0  0  0  0  0
    2.2769   -3.8397    6.4235 Cl  0  0  0  0  0  0  0  0  0  0  0  0
    1.6480   -1.5950    4.8870 C   0  0  0  0  0  0  0  0  0  0  0  0
    0.9776   -0.5795    6.2894 Si  0  0  0  0  0  4  0  0  0  0  0  0
   -0.4873   -1.4573    7.0692 C   0  0  0  0  0  0  0  0  0  0  0  0
   -1.5447   -1.8132    6.0323 C   0  0  0  0  0  0  0  0  0  0  0  0
    2.2469   -0.3394    7.6633 C   0  0  0  0  0  0  0  0  0  0  0  0
    3.5300    0.3204    7.1779 C   0  0  0  0  0  0  0  0  0  0  0  0
    0.4324    1.0953    5.6246 C   0  0  0  0  0  0  0  0  0  0  0  0
   -0.2980    1.9326    6.6684 C   0  0  0  0  0  0  0  0  0  0  0  0
    1.6574   -1.1123    3.2708 S   0  0  0  0  0  0  0  0  0  0  0  0
    1.7342   -2.4780    0.1423 C   0  0  0  0  0  0  0  0  0  0  0  0
    1.9917   -2.8453   -1.1940 C   0  0  0  0  0  0  0  0  0  0  0  0
    3.1379   -3.6018   -1.5273 C   0  0  0  0  0  0  0  0  0  0  0  0
    3.2845   -4.2550   -2.8394 C   0  0  0  0  0  0  0  0  0  0  0  0
    2.2434   -5.4560   -3.4002 S   0  0  0  0  0  0  0  0  0  0  0  0
    3.2091   -6.0006   -4.6596 C   0  0  0  0  0  0  0  0  0  0  0  0
    2.8893   -7.5570   -5.6336 Si  0  0  0  0  0  4  0  0  0  0  0  0
    3.3199   -7.3467   -7.4543 C   0  0  0  0  0  0  0  0  0  0  0  0
    2.6783   -6.1164   -8.0746 C   0  0  0  0  0  0  0  0  0  0  0  0
    1.1259   -8.2131   -5.4795 C   0  0  0  0  0  0  0  0  0  0  0  0
    0.0570   -7.1370   -5.4394 C   0  0  0  0  0  0  0  0  0  0  0  0
    4.0053   -8.8918   -4.9226 C   0  0  0  0  0  0  0  0  0  0  0  0
    3.9755  -10.1736   -5.7557 C   0  0  0  0  0  0  0  0  0  0  0  0
    4.4038   -5.2607   -4.6221 C   0  0  0  0  0  0  0  0  0  0  0  0
    4.4427   -4.2878   -3.6161 C   0  0  0  0  0  0  0  0  0  0  0  0
    5.7845   -5.5562   -5.6701 Cl  0  0  0  0  0  0  0  0  0  0  0  0
    4.0527   -3.8510   -0.4822 C   0  0  0  0  0  0  0  0  0  0  0  0
    5.6504   -4.4033   -0.5860 S   0  0  0  0  0  0  0  0  0  0  0  0
    1.0788   -2.2876   -2.1051 C   0  0  0  0  0  0  0  0  0  0  0  0
    0.1287   -1.4839   -1.4756 C   0  0  0  0  0  0  0  0  0  0  0  0
    0.3793   -1.5017    0.1926 S   0  0  0  0  0  0  0  0  0  0  0  0
   -0.8116   -0.5591   -2.1189 C   0  0  0  0  0  0  0  0  0  0  0  0
   -0.6962    0.8395   -2.0565 C   0  0  0  0  0  0  0  0  0  0  0  0
    0.5526    1.5369   -1.9300 N   0  0  0  0  0  0  0  0  0  0  0  0
    1.1512    2.0143   -3.1503 C   0  0  0  0  0  0  0  0  0  0  0  0
    1.3403    3.3915   -3.3507 C   0  0  0  0  0  0  0  0  0  0  0  0
    1.7577    3.8731   -4.5965 C   0  0  0  0  0  0  0  0  0  0  0  0
    1.9677    2.9856   -5.6626 C   0  0  0  0  0  0  0  0  0  0  0  0
    2.3784    3.6217   -7.2842 S   0  0  0  0  0  0  0  0  0  0  0  0
    0.6380    3.7784   -7.8043 C   0  0  0  0  0  0  0  0  0  0  0  0
    1.8262    1.6049   -5.4576 C   0  0  0  0  0  0  0  0  0  0  0  0
    1.4077    1.1261   -4.2087 C   0  0  0  0  0  0  0  0  0  0  0  0
    1.1101    1.8668   -0.6340 C   0  0  0  0  0  0  0  0  0  0  0  0
    0.2847    1.9866    0.5051 C   0  0  0  0  0  0  0  0  0  0  0  0
    0.8394    2.3385    1.7458 C   0  0  0  0  0  0  0  0  0  0  0  0
    2.2083    2.5703    1.8712 C   0  0  0  0  0  0  0  0  0  0  0  0
    2.9295    3.0253    3.4483 S   0  0  0  0  0  0  0  0  0  0  0  0
    2.7722    4.8140    3.1314 C   0  0  0  0  0  0  0  0  0  0  0  0
    3.0355    2.4130    0.7565 C   0  0  0  0  0  0  0  0  0  0  0  0
    2.4966    2.0731   -0.4928 C   0  0  0  0  0  0  0  0  0  0  0  0
   -1.9102    1.4611   -2.3486 C   0  0  0  0  0  0  0  0  0  0  0  0
   -2.4881    3.0018   -2.0629 S   0  0  0  0  0  0  0  0  0  0  0  0
   -4.1198    2.5931   -2.3424 C   0  0  0  0  0  0  0  0  0  0  0  0
   -4.2067    1.2311   -2.7287 C   0  0  0  0  0  0  0  0  0  0  0  0
   -5.3918    0.5611   -3.2433 N   0  0  0  0  0  0  0  0  0  0  0  0
   -6.6175    1.2669   -3.5334 C   0  0  0  0  0  0  0  0  0  0  0  0
   -7.8506    0.7309   -3.1244 C   0  0  0  0  0  0  0  0  0  0  0  0
   -9.0446    1.3680   -3.4651 C   0  0  0  0  0  0  0  0  0  0  0  0
   -9.0294    2.5436   -4.2163 C   0  0  0  0  0  0  0  0  0  0  0  0
  -10.5565    3.4181   -4.5605 S   0  0  0  0  0  0  0  0  0  0  0  0
  -11.0355    2.3305   -5.9418 C   0  0  0  0  0  0  0  0  0  0  0  0
   -7.8090    3.0741   -4.6474 C   0  0  0  0  0  0  0  0  0  0  0  0
   -6.6109    2.4249   -4.3348 C   0  0  0  0  0  0  0  0  0  0  0  0
   -5.2488   -0.7049   -3.8987 C   0  0  0  0  0  0  0  0  0  0  0  0
   -5.6891   -1.8853   -3.2847 C   0  0  0  0  0  0  0  0  0  0  0  0
   -5.5626   -3.1125   -3.9512 C   0  0  0  0  0  0  0  0  0  0  0  0
   -4.9812   -3.1612   -5.2236 C   0  0  0  0  0  0  0  0  0  0  0  0
   -4.8284   -4.7277   -6.0877 S   0  0  0  0  0  0  0  0  0  0  0  0
   -3.1975   -5.1175   -5.3879 C   0  0  0  0  0  0  0  0  0  0  0  0
   -4.5390   -1.9822   -5.8350 C   0  0  0  0  0  0  0  0  0  0  0  0
   -4.6748   -0.7599   -5.1724 C   0  0  0  0  0  0  0  0  0  0  0  0
   -2.9443    0.6255   -2.6460 C   0  0  0  0  0  0  0  0  0  0  0  0
   -2.4123   -0.9673   -2.5159 S   0  0  0  0  0  0  0  0  0  0  0  0
   -5.2027    3.3715   -1.7170 C   0  0  0  0  0  0  0  0  0  0  0  0
   -5.2888    4.7603   -1.6619 C   0  0  0  0  0  0  0  0  0  0  0  0
   -6.2881    5.2255   -0.7885 C   0  0  0  0  0  0  0  0  0  0  0  0
   -6.5692    6.9310   -0.5123 Cl  0  0  0  0  0  0  0  0  0  0  0  0
   -6.9858    4.2033   -0.1459 C   0  0  0  0  0  0  0  0  0  0  0  0
   -6.3250    2.7341   -0.6329 S   0  0  0  0  0  0  0  0  0  0  0  0
   -7.9552    4.3920    0.9535 C   0  0  0  0  0  0  0  0  0  0  0  0
   -8.9605    3.5435    1.2766 C   0  0  0  0  0  0  0  0  0  0  0  0
   -9.4080    2.4398    0.4138 C   0  0  0  0  0  0  0  0  0  0  0  0
   -9.2790    2.5369   -0.8379 O   0  0  0  0  0  0  0  0  0  0  0  0
  -10.0678    1.2940    0.9724 N   0  0  0  0  0  0  0  0  0  0  0  0
  -10.2003    0.0672    0.1551 C   0  0  0  0  0  0  0  0  0  0  0  0
  -11.5484    0.0487   -0.5694 C   0  0  0  0  0  0  0  0  0  0  0  0
  -10.6181    1.3880    2.3108 C   0  0  0  0  0  0  0  0  0  0  0  0
  -11.3238    0.0599    3.0002 S   0  0  0  0  0  0  0  0  0  0  0  0
  -10.5450    2.6394    3.0382 N   0  0  0  0  0  0  0  0  0  0  0  0
  -11.2156    2.8164    4.3399 C   0  0  0  0  0  0  0  0  0  0  0  0
  -10.2850    2.4178    5.4739 C   0  0  0  0  0  0  0  0  0  0  0  0
   -9.7025    3.7066    2.5464 C   0  0  0  0  0  0  0  0  0  0  0  0
   -9.5929    4.7792    3.2015 O   0  0  0  0  0  0  0  0  0  0  0  0
    7.8866   -4.9414    1.8471 H   0  0  0  0  0  0  0  0  0  0  0  0
    6.3276    1.1654    2.2828 H   0  0  0  0  0  0  0  0  0  0  0  0
    9.1144   -1.0849    5.8959 H   0  0  0  0  0  0  0  0  0  0  0  0
    7.1380    1.4346    7.0840 H   0  0  0  0  0  0  0  0  0  0  0  0
    9.3979    2.5800    7.5018 H   0  0  0  0  0  0  0  0  0  0  0  0
   10.8494    2.6058    5.2702 H   0  0  0  0  0  0  0  0  0  0  0  0
    9.4625    3.8025    3.4201 H   0  0  0  0  0  0  0  0  0  0  0  0
    7.1489    4.5691    4.4784 H   0  0  0  0  0  0  0  0  0  0  0  0
    8.7782    4.9514    6.5156 H   0  0  0  0  0  0  0  0  0  0  0  0
    7.2617    4.1253    7.1148 H   0  0  0  0  0  0  0  0  0  0  0  0
    5.8789    2.5333    5.4347 H   0  0  0  0  0  0  0  0  0  0  0  0
    4.9045   -3.3591    2.7210 H   0  0  0  0  0  0  0  0  0  0  0  0
    2.8065   -4.4607    3.5690 H   0  0  0  0  0  0  0  0  0  0  0  0
   -0.1250   -2.3851    7.5648 H   0  0  0  0  0  0  0  0  0  0  0  0
   -0.9290   -0.8019    7.8472 H   0  0  0  0  0  0  0  0  0  0  0  0
   -1.1243   -2.5175    5.2833 H   0  0  0  0  0  0  0  0  0  0  0  0
   -1.9057   -0.8968    5.5248 H   0  0  0  0  0  0  0  0  0  0  0  0
   -2.4005   -2.3046    6.5411 H   0  0  0  0  0  0  0  0  0  0  0  0
    2.4808   -1.3314    8.1057 H   0  0  0  0  0  0  0  0  0  0  0  0
    1.7784    0.2891    8.4479 H   0  0  0  0  0  0  0  0  0  0  0  0
    3.3167    1.2844    6.6723 H   0  0  0  0  0  0  0  0  0  0  0  0
    4.1778    0.5263    8.0558 H   0  0  0  0  0  0  0  0  0  0  0  0
    4.0753   -0.3538    6.4873 H   0  0  0  0  0  0  0  0  0  0  0  0
    1.3326    1.6538    5.2921 H   0  0  0  0  0  0  0  0  0  0  0  0
   -0.2272    0.9394    4.7454 H   0  0  0  0  0  0  0  0  0  0  0  0
   -1.2200    1.4175    7.0091 H   0  0  0  0  0  0  0  0  0  0  0  0
   -0.5943    2.8966    6.2077 H   0  0  0  0  0  0  0  0  0  0  0  0
    0.3623    2.1434    7.5369 H   0  0  0  0  0  0  0  0  0  0  0  0
    2.9736   -8.2519   -8.0001 H   0  0  0  0  0  0  0  0  0  0  0  0
    4.4174   -7.2862   -7.5465 H   0  0  0  0  0  0  0  0  0  0  0  0
    3.0268   -6.0128   -9.1210 H   0  0  0  0  0  0  0  0  0  0  0  0
    1.5756   -6.2065   -8.0832 H   0  0  0  0  0  0  0  0  0  0  0  0
    2.9751   -5.1989   -7.5150 H   0  0  0  0  0  0  0  0  0  0  0  0
    0.9427   -8.8860   -6.3499 H   0  0  0  0  0  0  0  0  0  0  0  0
    1.0642   -8.8227   -4.5455 H   0  0  0  0  0  0  0  0  0  0  0  0
    0.2624   -6.3275   -6.1693 H   0  0  0  0  0  0  0  0  0  0  0  0
   -0.9196   -7.5975   -5.6812 H   0  0  0  0  0  0  0  0  0  0  0  0
   -0.0115   -6.7077   -4.4173 H   0  0  0  0  0  0  0  0  0  0  0  0
    3.6504   -9.1185   -3.8910 H   0  0  0  0  0  0  0  0  0  0  0  0
    5.0406   -8.5148   -4.8607 H   0  0  0  0  0  0  0  0  0  0  0  0
    4.5071  -10.9801   -5.1991 H   0  0  0  0  0  0  0  0  0  0  0  0
    4.4984  -10.0087   -6.7252 H   0  0  0  0  0  0  0  0  0  0  0  0
    2.9340  -10.5045   -5.9368 H   0  0  0  0  0  0  0  0  0  0  0  0
    5.3142   -3.6699   -3.4258 H   0  0  0  0  0  0  0  0  0  0  0  0
    1.1432   -2.3930   -3.1811 H   0  0  0  0  0  0  0  0  0  0  0  0
    1.1379    4.0962   -2.5521 H   0  0  0  0  0  0  0  0  0  0  0  0
    1.8703    4.9392   -4.7525 H   0  0  0  0  0  0  0  0  0  0  0  0
    0.6026    4.1447   -8.8533 H   0  0  0  0  0  0  0  0  0  0  0  0
    0.1141    4.5062   -7.1518 H   0  0  0  0  0  0  0  0  0  0  0  0
    0.1267    2.7924   -7.7470 H   0  0  0  0  0  0  0  0  0  0  0  0
    2.0115    0.9184   -6.2638 H   0  0  0  0  0  0  0  0  0  0  0  0
    1.2777    0.0634   -4.0788 H   0  0  0  0  0  0  0  0  0  0  0  0
   -0.7813    1.8109    0.4337 H   0  0  0  0  0  0  0  0  0  0  0  0
    0.1864    2.4176    2.6090 H   0  0  0  0  0  0  0  0  0  0  0  0
    3.3057    5.0765    2.1878 H   0  0  0  0  0  0  0  0  0  0  0  0
    1.7011    5.1059    3.0560 H   0  0  0  0  0  0  0  0  0  0  0  0
    3.2542    5.3750    3.9672 H   0  0  0  0  0  0  0  0  0  0  0  0
    4.0999    2.5682    0.8462 H   0  0  0  0  0  0  0  0  0  0  0  0
    3.1576    1.9757   -1.3363 H   0  0  0  0  0  0  0  0  0  0  0  0
   -7.8830   -0.1690   -2.5331 H   0  0  0  0  0  0  0  0  0  0  0  0
   -9.9859    0.9404   -3.1324 H   0  0  0  0  0  0  0  0  0  0  0  0
  -11.5192    1.4229   -5.5276 H   0  0  0  0  0  0  0  0  0  0  0  0
  -10.1627    2.0709   -6.5754 H   0  0  0  0  0  0  0  0  0  0  0  0
  -11.8008    2.8499   -6.5578 H   0  0  0  0  0  0  0  0  0  0  0  0
   -7.7873    3.9895   -5.2256 H   0  0  0  0  0  0  0  0  0  0  0  0
   -5.6805    2.8270   -4.7030 H   0  0  0  0  0  0  0  0  0  0  0  0
   -6.1085   -1.8618   -2.2882 H   0  0  0  0  0  0  0  0  0  0  0  0
   -5.8968   -4.0225   -3.4709 H   0  0  0  0  0  0  0  0  0  0  0  0
   -2.4966   -4.2716   -5.5344 H   0  0  0  0  0  0  0  0  0  0  0  0
   -3.2960   -5.3466   -4.3067 H   0  0  0  0  0  0  0  0  0  0  0  0
   -2.7859   -6.0026   -5.9191 H   0  0  0  0  0  0  0  0  0  0  0  0
   -4.1148   -2.0069   -6.8299 H   0  0  0  0  0  0  0  0  0  0  0  0
   -4.3324    0.1460   -5.6546 H   0  0  0  0  0  0  0  0  0  0  0  0
   -4.6197    5.4239   -2.1996 H   0  0  0  0  0  0  0  0  0  0  0  0
   -7.7767    5.2503    1.5876 H   0  0  0  0  0  0  0  0  0  0  0  0
   -9.3837    0.0145   -0.6019 H   0  0  0  0  0  0  0  0  0  0  0  0
  -10.0907   -0.8420    0.7835 H   0  0  0  0  0  0  0  0  0  0  0  0
  -11.5956   -0.8448   -1.2234 H   0  0  0  0  0  0  0  0  0  0  0  0
  -11.6755    0.9610   -1.1826 H   0  0  0  0  0  0  0  0  0  0  0  0
  -12.3783   -0.0036    0.1672 H   0  0  0  0  0  0  0  0  0  0  0  0
  -12.1524    2.2233    4.3883 H   0  0  0  0  0  0  0  0  0  0  0  0
  -11.5230    3.8738    4.4740 H   0  0  0  0  0  0  0  0  0  0  0  0
   -9.3547    3.0223    5.4207 H   0  0  0  0  0  0  0  0  0  0  0  0
  -10.7826    2.5818    6.4520 H   0  0  0  0  0  0  0  0  0  0  0  0
  -10.0179    1.3431    5.3720 H   0  0  0  0  0  0  0  0  0  0  0  0
  1  2  2  3
  2  3  1  0
  3  4  2  0
  3  5  1  0
  5  6  2  0
  6  7  1  0
  7  8  2  0
  8  9  1  0
  9 10  2  0
 10 11  1  0
 11 12  2  3
 12 13  1  0
 13 14  3  0
 12 15  1  0
 15 16  3  0
  8 17  1  0
 17 18  1  0
 18 19  1  0
 19 20  2  0
 20 21  1  0
 21 22  1  0
 21 23  1  0
  1 24  1  0
 24 25  2  0
 25 26  1  0
 26 27  2  0
 27 28  1  0
 28 29  2  0
 29 30  1  0
 30 31  1  0
 30 32  2  0
 32 33  1  0
 33 34  1  0
 34 35  1  0
 33 36  1  0
 36 37  1  0
 33 38  1  0
 38 39  1  0
 32 40  1  0
 27 41  1  0
 41 42  2  0
 42 43  1  0
 43 44  1  0
 44 45  1  0
 45 46  1  0
 46 47  1  0
 47 48  1  0
 48 49  1  0
 47 50  1  0
 50 51  1  0
 47 52  1  0
 52 53  1  0
 46 54  2  0
 54 55  1  0
 54 56  1  0
 43 57  2  0
 57 58  1  0
 42 59  1  0
 59 60  2  0
 60 61  1  0
 60 62  1  0
 62 63  2  0
 63 64  1  0
 64 65  1  0
 65 66  2  0
 66 67  1  0
 67 68  2  0
 68 69  1  0
 69 70  1  0
 68 71  1  0
 71 72  2  0
 64 73  1  0
 73 74  2  0
 74 75  1  0
 75 76  2  0
 76 77  1  0
 77 78  1  0
 76 79  1  0
 79 80  2  0
 63 81  1  0
 81 82  1  0
 82 83  1  0
 83 84  2  0
 84 85  1  0
 85 86  1  0
 86 87  2  0
 87 88  1  0
 88 89  2  0
 89 90  1  0
 90 91  1  0
 89 92  1  0
 92 93  2  0
 85 94  1  0
 94 95  2  0
 95 96  1  0
 96 97  2  0
 97 98  1  0
 98 99  1  0
 97100  1  0
100101  2  0
 84102  1  0
102103  1  0
 83104  1  0
104105  2  0
105106  1  0
106107  1  0
106108  2  0
108109  1  0
108110  1  0
110111  2  3
111112  1  0
112113  2  0
112114  1  0
114115  1  0
115116  1  0
114117  1  0
117118  2  0
117119  1  0
119120  1  0
120121  1  0
119122  1  0
122123  2  0
 11  2  1  0
 23 17  1  0
 58 24  1  0
103 62  1  0
109104  1  0
122111  1  0
 10  5  1  0
 22 18  1  0
 57 26  1  0
 72 65  1  0
 80 73  1  0
102 81  2  0
 23  7  1  0
 40 28  1  0
 61 41  1  0
 93 86  1  0
101 94  1  0
 55 44  2  0
  1124  1  0
  6125  1  0
  9126  1  0
 17127  1  0
 18128  1  0
 19129  1  0
 20130  1  0
 21131  1  0
 22132  1  0
 22133  1  0
 23134  1  0
 25135  1  0
 29136  1  0
 34137  1  0
 34138  1  0
 35139  1  0
 35140  1  0
 35141  1  0
 36142  1  0
 36143  1  0
 37144  1  0
 37145  1  0
 37146  1  0
 38147  1  0
 38148  1  0
 39149  1  0
 39150  1  0
 39151  1  0
 48152  1  0
 48153  1  0
 49154  1  0
 49155  1  0
 49156  1  0
 50157  1  0
 50158  1  0
 51159  1  0
 51160  1  0
 51161  1  0
 52162  1  0
 52163  1  0
 53164  1  0
 53165  1  0
 53166  1  0
 55167  1  0
 59168  1  0
 66169  1  0
 67170  1  0
 70171  1  0
 70172  1  0
 70173  1  0
 71174  1  0
 72175  1  0
 74176  1  0
 75177  1  0
 78178  1  0
 78179  1  0
 78180  1  0
 79181  1  0
 80182  1  0
 87183  1  0
 88184  1  0
 91185  1  0
 91186  1  0
 91187  1  0
 92188  1  0
 93189  1  0
 95190  1  0
 96191  1  0
 99192  1  0
 99193  1  0
 99194  1  0
100195  1  0
101196  1  0
105197  1  0
110198  1  0
115199  1  0
115200  1  0
116201  1  0
116202  1  0
116203  1  0
120204  1  0
120205  1  0
121206  1  0
121207  1  0
121208  1  0
M  END

