
     RDKit          3D

176196  0  0  0  0  0  0  0  0999 V2000
    4.8758    2.0696   -8.6630 C   0  0  0  0  0  0  0  0  0  0  0  0
    5.4930    1.2634   -7.7716 C   0  0  0  0  0  0  0  0  0  0  0  0
    4.9032    0.7433   -6.5322 C   0  0  0  0  0  0  0  0  0  0  0  0
    3.8859    1.1980   -5.9417 O   0  0  0  0  0  0  0  0  0  0  0  0
    5.7000   -0.3727   -6.0682 C   0  0  0  0  0  0  0  0  0  0  0  0
    5.3789   -1.2737   -5.0226 C   0  0  0  0  0  0  0  0  0  0  0  0
    6.2728   -2.3255   -4.8984 C   0  0  0  0  0  0  0  0  0  0  0  0
    7.4199   -2.4798   -5.7353 C   0  0  0  0  0  0  0  0  0  0  0  0
    7.7310   -1.6001   -6.7596 C   0  0  0  0  0  0  0  0  0  0  0  0
    6.8311   -0.5062   -6.9125 C   0  0  0  0  0  0  0  0  0  0  0  0
    6.8164    0.5809   -7.9342 C   0  0  0  0  0  0  0  0  0  0  0  0
    7.8577    0.9809   -8.7106 C   0  0  0  0  0  0  0  0  0  0  0  0
    9.1267    0.2956   -8.7328 C   0  0  0  0  0  0  0  0  0  0  0  0
   10.1515   -0.2478   -8.7651 N   0  0  0  0  0  0  0  0  0  0  0  0
    7.8238    2.1823   -9.4953 C   0  0  0  0  0  0  0  0  0  0  0  0
    7.8143    3.1478  -10.1394 N   0  0  0  0  0  0  0  0  0  0  0  0
    7.7730   -3.7649   -5.0516 C   0  0  0  0  0  0  0  0  0  0  0  0
    7.5129   -5.0671   -5.8539 C   0  0  0  0  0  0  0  0  0  0  0  0
    7.5499   -6.1949   -4.8365 C   0  0  0  0  0  0  0  0  0  0  0  0
    6.4589   -6.0632   -4.0829 C   0  0  0  0  0  0  0  0  0  0  0  0
    5.7194   -4.8450   -4.5974 C   0  0  0  0  0  0  0  0  0  0  0  0
    6.0001   -5.0152   -6.0739 C   0  0  0  0  0  0  0  0  0  0  0  0
    6.5858   -3.6166   -4.1982 C   0  0  0  0  0  0  0  0  0  0  0  0
    3.4922    2.5524   -8.5033 C   0  0  0  0  0  0  0  0  0  0  0  0
    2.1135    1.5508   -8.3344 S   0  0  0  0  0  0  0  0  0  0  0  0
    1.0751    2.8505   -8.1215 C   0  0  0  0  0  0  0  0  0  0  0  0
   -0.0565    3.0492   -7.3746 C   0  0  0  0  0  0  0  0  0  0  0  0
    0.0069    4.3244   -6.8955 C   0  0  0  0  0  0  0  0  0  0  0  0
    1.1231    4.9611   -7.3371 N   0  0  0  0  0  0  0  0  0  0  0  0
    1.6227    6.2771   -6.8971 C   0  0  0  0  0  0  0  0  0  0  0  0
    0.9798    7.3752   -7.7328 C   0  0  0  0  0  0  0  0  0  0  0  0
    1.7708    4.0279   -8.0801 C   0  0  0  0  0  0  0  0  0  0  0  0
    3.1412    3.8994   -8.3286 C   0  0  0  0  0  0  0  0  0  0  0  0
   -0.6714    4.5244   -5.6840 C   0  0  0  0  0  0  0  0  0  0  0  0
   -1.2382    3.3354   -5.1954 C   0  0  0  0  0  0  0  0  0  0  0  0
   -0.8551    2.0752   -6.2823 S   0  0  0  0  0  0  0  0  0  0  0  0
   -1.7040    3.1197   -3.7879 C   0  0  0  0  0  0  0  0  0  0  0  0
   -1.3734    1.9345   -3.1209 C   0  0  0  0  0  0  0  0  0  0  0  0
   -0.6766    0.8824   -3.5783 N   0  0  0  0  0  0  0  0  0  0  0  0
   -0.5796    0.0474   -2.5511 N   0  0  0  0  0  0  0  0  0  0  0  0
    0.1468   -1.2173   -2.6124 C   0  0  0  0  0  0  0  0  0  0  0  0
   -0.8176   -2.3938   -2.5148 C   0  0  0  0  0  0  0  0  0  0  0  0
   -1.1712    0.5164   -1.4565 N   0  0  0  0  0  0  0  0  0  0  0  0
   -1.6641    1.7131   -1.8091 C   0  0  0  0  0  0  0  0  0  0  0  0
   -2.2762    2.6690   -1.0040 C   0  0  0  0  0  0  0  0  0  0  0  0
   -2.6732    3.8754   -1.6312 C   0  0  0  0  0  0  0  0  0  0  0  0
   -2.4074    4.0942   -3.0184 C   0  0  0  0  0  0  0  0  0  0  0  0
   -3.0101    5.5712   -3.7834 Cl  0  0  0  0  0  0  0  0  0  0  0  0
   -3.4305    5.1537   -0.6735 Cl  0  0  0  0  0  0  0  0  0  0  0  0
   -2.4027    2.4287    0.4611 C   0  0  0  0  0  0  0  0  0  0  0  0
   -1.3893    1.9037    1.2881 C   0  0  0  0  0  0  0  0  0  0  0  0
    0.0017    1.8034    0.9192 N   0  0  0  0  0  0  0  0  0  0  0  0
    0.7852    0.6669    1.3428 C   0  0  0  0  0  0  0  0  0  0  0  0
    0.2325   -0.6317    1.2956 C   0  0  0  0  0  0  0  0  0  0  0  0
    0.9055   -1.7063    1.8829 C   0  0  0  0  0  0  0  0  0  0  0  0
    2.1370   -1.5001    2.5190 C   0  0  0  0  0  0  0  0  0  0  0  0
    2.9167   -2.8447    3.4062 S   0  0  0  0  0  0  0  0  0  0  0  0
    2.0591   -2.4485    4.9664 C   0  0  0  0  0  0  0  0  0  0  0  0
    2.7161   -0.2269    2.5125 C   0  0  0  0  0  0  0  0  0  0  0  0
    2.0498    0.8531    1.9337 C   0  0  0  0  0  0  0  0  0  0  0  0
    0.6323    2.9541    0.3270 C   0  0  0  0  0  0  0  0  0  0  0  0
    1.3902    2.8168   -0.8496 C   0  0  0  0  0  0  0  0  0  0  0  0
    1.9005    3.9563   -1.4857 C   0  0  0  0  0  0  0  0  0  0  0  0
    1.6774    5.2272   -0.9380 C   0  0  0  0  0  0  0  0  0  0  0  0
    2.2788    6.6892   -1.7871 S   0  0  0  0  0  0  0  0  0  0  0  0
    0.7354    6.9142   -2.7135 C   0  0  0  0  0  0  0  0  0  0  0  0
    0.9674    5.3569    0.2559 C   0  0  0  0  0  0  0  0  0  0  0  0
    0.4330    4.2366    0.8779 C   0  0  0  0  0  0  0  0  0  0  0  0
   -1.8709    1.6083    2.5595 C   0  0  0  0  0  0  0  0  0  0  0  0
   -1.2077    0.8717    3.9140 S   0  0  0  0  0  0  0  0  0  0  0  0
   -2.6568    0.9208    4.8000 C   0  0  0  0  0  0  0  0  0  0  0  0
   -3.6594    1.5327    4.0360 C   0  0  0  0  0  0  0  0  0  0  0  0
   -4.9823    1.8083    4.5174 N   0  0  0  0  0  0  0  0  0  0  0  0
   -5.9793    0.7923    4.3619 C   0  0  0  0  0  0  0  0  0  0  0  0
   -6.2395   -0.1098    5.4050 C   0  0  0  0  0  0  0  0  0  0  0  0
   -7.2570   -1.0684    5.2742 C   0  0  0  0  0  0  0  0  0  0  0  0
   -8.0291   -1.1001    4.1048 C   0  0  0  0  0  0  0  0  0  0  0  0
   -9.3973   -2.2567    3.9783 S   0  0  0  0  0  0  0  0  0  0  0  0
   -8.4709   -3.4361    2.9503 C   0  0  0  0  0  0  0  0  0  0  0  0
   -7.7759   -0.1917    3.0714 C   0  0  0  0  0  0  0  0  0  0  0  0
   -6.7486    0.7402    3.1964 C   0  0  0  0  0  0  0  0  0  0  0  0
   -5.2732    3.0393    5.2291 C   0  0  0  0  0  0  0  0  0  0  0  0
   -6.6039    3.4977    5.3682 C   0  0  0  0  0  0  0  0  0  0  0  0
   -6.8772    4.6925    6.0356 C   0  0  0  0  0  0  0  0  0  0  0  0
   -5.8311    5.4579    6.5614 C   0  0  0  0  0  0  0  0  0  0  0  0
   -6.1825    7.0147    7.3979 S   0  0  0  0  0  0  0  0  0  0  0  0
   -6.0365    8.0083    5.8740 C   0  0  0  0  0  0  0  0  0  0  0  0
   -4.5138    5.0133    6.4410 C   0  0  0  0  0  0  0  0  0  0  0  0
   -4.2313    3.8179    5.7778 C   0  0  0  0  0  0  0  0  0  0  0  0
   -3.1807    1.8920    2.7740 C   0  0  0  0  0  0  0  0  0  0  0  0
   -3.8558    2.5084    1.3663 S   0  0  0  0  0  0  0  0  0  0  0  0
   -2.8459    0.1512    6.0297 C   0  0  0  0  0  0  0  0  0  0  0  0
   -2.8952   -1.1984    6.0054 C   0  0  0  0  0  0  0  0  0  0  0  0
   -3.2089   -1.9894    4.8104 C   0  0  0  0  0  0  0  0  0  0  0  0
   -3.4613   -1.5325    3.6544 O   0  0  0  0  0  0  0  0  0  0  0  0
   -3.3568   -3.3745    5.1828 C   0  0  0  0  0  0  0  0  0  0  0  0
   -3.7055   -4.4472    4.3260 C   0  0  0  0  0  0  0  0  0  0  0  0
   -3.7813   -5.6669    4.9702 C   0  0  0  0  0  0  0  0  0  0  0  0
   -3.5493   -5.8302    6.3725 C   0  0  0  0  0  0  0  0  0  0  0  0
   -3.2558   -4.7756    7.2229 C   0  0  0  0  0  0  0  0  0  0  0  0
   -3.1440   -3.5066    6.5819 C   0  0  0  0  0  0  0  0  0  0  0  0
   -2.8096   -2.1641    7.1473 C   0  0  0  0  0  0  0  0  0  0  0  0
   -2.3159   -1.9092    8.3905 C   0  0  0  0  0  0  0  0  0  0  0  0
   -2.1603   -2.9204    9.4049 C   0  0  0  0  0  0  0  0  0  0  0  0
   -2.0235   -3.7153   10.2400 N   0  0  0  0  0  0  0  0  0  0  0  0
   -1.7765   -0.6297    8.7539 C   0  0  0  0  0  0  0  0  0  0  0  0
   -1.3199    0.3949    9.0434 N   0  0  0  0  0  0  0  0  0  0  0  0
   -3.7699   -7.3061    6.2511 C   0  0  0  0  0  0  0  0  0  0  0  0
   -2.4955   -8.2014    6.2734 C   0  0  0  0  0  0  0  0  0  0  0  0
   -2.9307   -9.5574    5.7621 C   0  0  0  0  0  0  0  0  0  0  0  0
   -3.1857   -9.4015    4.4576 C   0  0  0  0  0  0  0  0  0  0  0  0
   -2.9063   -7.9485    4.1323 C   0  0  0  0  0  0  0  0  0  0  0  0
   -1.7183   -7.7366    5.0558 C   0  0  0  0  0  0  0  0  0  0  0  0
   -4.0314   -7.1306    4.8227 C   0  0  0  0  0  0  0  0  0  0  0  0
    5.3536    2.3632   -9.5838 H   0  0  0  0  0  0  0  0  0  0  0  0
    4.4769   -1.1951   -4.4285 H   0  0  0  0  0  0  0  0  0  0  0  0
    8.5595   -1.8067   -7.4212 H   0  0  0  0  0  0  0  0  0  0  0  0
    8.7464   -3.7225   -4.5050 H   0  0  0  0  0  0  0  0  0  0  0  0
    8.1334   -5.2269   -6.7515 H   0  0  0  0  0  0  0  0  0  0  0  0
    8.2628   -7.0087   -4.7855 H   0  0  0  0  0  0  0  0  0  0  0  0
    6.1368   -6.7475   -3.2969 H   0  0  0  0  0  0  0  0  0  0  0  0
    4.6431   -4.7899   -4.3176 H   0  0  0  0  0  0  0  0  0  0  0  0
    5.5868   -5.9609   -6.5031 H   0  0  0  0  0  0  0  0  0  0  0  0
    5.6553   -4.1635   -6.6974 H   0  0  0  0  0  0  0  0  0  0  0  0
    6.8005   -3.5099   -3.1138 H   0  0  0  0  0  0  0  0  0  0  0  0
    2.7226    6.3343   -7.0103 H   0  0  0  0  0  0  0  0  0  0  0  0
    1.3974    6.4378   -5.8314 H   0  0  0  0  0  0  0  0  0  0  0  0
    1.3709    8.3640   -7.4071 H   0  0  0  0  0  0  0  0  0  0  0  0
    1.2408    7.2267   -8.8044 H   0  0  0  0  0  0  0  0  0  0  0  0
   -0.1206    7.3668   -7.6122 H   0  0  0  0  0  0  0  0  0  0  0  0
    3.8649    4.7002   -8.2529 H   0  0  0  0  0  0  0  0  0  0  0  0
   -0.5775    5.4326   -5.1116 H   0  0  0  0  0  0  0  0  0  0  0  0
    0.7084   -1.2823   -3.5694 H   0  0  0  0  0  0  0  0  0  0  0  0
    0.8812   -1.2637   -1.7774 H   0  0  0  0  0  0  0  0  0  0  0  0
   -0.2555   -3.3417   -2.6234 H   0  0  0  0  0  0  0  0  0  0  0  0
   -1.3283   -2.3817   -1.5295 H   0  0  0  0  0  0  0  0  0  0  0  0
   -1.5718   -2.3335   -3.3302 H   0  0  0  0  0  0  0  0  0  0  0  0
   -0.7360   -0.8002    0.8513 H   0  0  0  0  0  0  0  0  0  0  0  0
    0.4482   -2.6838    1.8817 H   0  0  0  0  0  0  0  0  0  0  0  0
    0.9744   -2.2906    4.7905 H   0  0  0  0  0  0  0  0  0  0  0  0
    2.1919   -3.2979    5.6706 H   0  0  0  0  0  0  0  0  0  0  0  0
    2.5036   -1.5348    5.4186 H   0  0  0  0  0  0  0  0  0  0  0  0
    3.6665   -0.0624    3.0065 H   0  0  0  0  0  0  0  0  0  0  0  0
    2.4872    1.8392    1.9924 H   0  0  0  0  0  0  0  0  0  0  0  0
    1.5396    1.8438   -1.2946 H   0  0  0  0  0  0  0  0  0  0  0  0
    2.4431    3.8500   -2.4149 H   0  0  0  0  0  0  0  0  0  0  0  0
    0.4264    5.9445   -3.1596 H   0  0  0  0  0  0  0  0  0  0  0  0
    0.8993    7.6479   -3.5182 H   0  0  0  0  0  0  0  0  0  0  0  0
   -0.0681    7.2735   -2.0347 H   0  0  0  0  0  0  0  0  0  0  0  0
    0.8104    6.3374    0.6878 H   0  0  0  0  0  0  0  0  0  0  0  0
   -0.1345    4.3498    1.7910 H   0  0  0  0  0  0  0  0  0  0  0  0
   -5.6708   -0.0639    6.3248 H   0  0  0  0  0  0  0  0  0  0  0  0
   -7.4632   -1.7453    6.0901 H   0  0  0  0  0  0  0  0  0  0  0  0
   -7.5705   -3.7939    3.4863 H   0  0  0  0  0  0  0  0  0  0  0  0
   -8.1736   -2.9503    1.9986 H   0  0  0  0  0  0  0  0  0  0  0  0
   -9.1257   -4.3011    2.7155 H   0  0  0  0  0  0  0  0  0  0  0  0
   -8.3851   -0.2090    2.1781 H   0  0  0  0  0  0  0  0  0  0  0  0
   -6.5732    1.4555    2.3984 H   0  0  0  0  0  0  0  0  0  0  0  0
   -7.4268    2.9346    4.9540 H   0  0  0  0  0  0  0  0  0  0  0  0
   -7.9022    5.0243    6.1392 H   0  0  0  0  0  0  0  0  0  0  0  0
   -5.0393    7.8733    5.4155 H   0  0  0  0  0  0  0  0  0  0  0  0
   -6.8288    7.7099    5.1551 H   0  0  0  0  0  0  0  0  0  0  0  0
   -6.1711    9.0786    6.1258 H   0  0  0  0  0  0  0  0  0  0  0  0
   -3.7037    5.6006    6.8568 H   0  0  0  0  0  0  0  0  0  0  0  0
   -3.1989    3.5101    5.6990 H   0  0  0  0  0  0  0  0  0  0  0  0
   -2.8882    0.7119    6.9470 H   0  0  0  0  0  0  0  0  0  0  0  0
   -3.8659   -4.3385    3.2681 H   0  0  0  0  0  0  0  0  0  0  0  0
   -3.1492   -4.9450    8.2772 H   0  0  0  0  0  0  0  0  0  0  0  0
   -4.6409   -7.6752    6.8401 H   0  0  0  0  0  0  0  0  0  0  0  0
   -1.9205   -8.2155    7.2251 H   0  0  0  0  0  0  0  0  0  0  0  0
   -2.9186  -10.5021    6.3012 H   0  0  0  0  0  0  0  0  0  0  0  0
   -3.4206  -10.1998    3.7606 H   0  0  0  0  0  0  0  0  0  0  0  0
   -2.7436   -7.7269    3.0593 H   0  0  0  0  0  0  0  0  0  0  0  0
   -0.8400   -8.3941    4.8158 H   0  0  0  0  0  0  0  0  0  0  0  0
   -1.3689   -6.6863    5.0920 H   0  0  0  0  0  0  0  0  0  0  0  0
   -5.0782   -7.3719    4.5058 H   0  0  0  0  0  0  0  0  0  0  0  0
  1  2  2  3
  2  3  1  0
  3  4  2  0
  3  5  1  0
  5  6  2  0
  6  7  1  0
  7  8  2  0
  8  9  1  0
  9 10  2  0
 10 11  1  0
 11 12  2  3
 12 13  1  0
 13 14  3  0
 12 15  1  0
 15 16  3  0
  8 17  1  0
 17 18  1  0
 18 19  1  0
 19 20  2  0
 20 21  1  0
 21 22  1  0
 21 23  1  0
  1 24  1  0
 24 25  1  0
 25 26  1  0
 26 27  1  0
 27 28  2  0
 28 29  1  0
 29 30  1  0
 30 31  1  0
 29 32  1  0
 32 33  1  0
 28 34  1  0
 34 35  2  0
 35 36  1  0
 35 37  1  0
 37 38  1  0
 38 39  2  0
 39 40  1  0
 40 41  1  0
 41 42  1  0
 40 43  1  0
 43 44  2  0
 44 45  1  0
 45 46  2  0
 46 47  1  0
 47 48  1  0
 46 49  1  0
 45 50  1  0
 50 51  2  0
 51 52  1  0
 52 53  1  0
 53 54  2  0
 54 55  1  0
 55 56  2  0
 56 57  1  0
 57 58  1  0
 56 59  1  0
 59 60  2  0
 52 61  1  0
 61 62  2  0
 62 63  1  0
 63 64  2  0
 64 65  1  0
 65 66  1  0
 64 67  1  0
 67 68  2  0
 51 69  1  0
 69 70  1  0
 70 71  1  0
 71 72  2  0
 72 73  1  0
 73 74  1  0
 74 75  2  0
 75 76  1  0
 76 77  2  0
 77 78  1  0
 78 79  1  0
 77 80  1  0
 80 81  2  0
 73 82  1  0
 82 83  2  0
 83 84  1  0
 84 85  2  0
 85 86  1  0
 86 87  1  0
 85 88  1  0
 88 89  2  0
 72 90  1  0
 90 91  1  0
 71 92  1  0
 92 93  2  3
 93 94  1  0
 94 95  2  0
 94 96  1  0
 96 97  2  0
 97 98  1  0
 98 99  2  0
 99100  1  0
100101  2  0
101102  1  0
102103  2  3
103104  1  0
104105  3  0
103106  1  0
106107  3  0
 99108  1  0
108109  1  0
109110  1  0
110111  2  0
111112  1  0
112113  1  0
112114  1  0
 11  2  1  0
 23 17  1  0
 33 24  2  0
 47 37  2  0
 91 50  1  0
102 93  1  0
114108  1  0
 10  5  1  0
 22 18  1  0
 32 26  2  0
 44 38  1  0
 60 53  1  0
 68 61  1  0
 90 69  2  0
101 96  1  0
113109  1  0
 23  7  1  0
 36 27  1  0
 81 74  1  0
 89 82  1  0
114 98  1  0
  1115  1  0
  6116  1  0
  9117  1  0
 17118  1  0
 18119  1  0
 19120  1  0
 20121  1  0
 21122  1  0
 22123  1  0
 22124  1  0
 23125  1  0
 30126  1  0
 30127  1  0
 31128  1  0
 31129  1  0
 31130  1  0
 33131  1  0
 34132  1  0
 41133  1  0
 41134  1  0
 42135  1  0
 42136  1  0
 42137  1  0
 54138  1  0
 55139  1  0
 58140  1  0
 58141  1  0
 58142  1  0
 59143  1  0
 60144  1  0
 62145  1  0
 63146  1  0
 66147  1  0
 66148  1  0
 66149  1  0
 67150  1  0
 68151  1  0
 75152  1  0
 76153  1  0
 79154  1  0
 79155  1  0
 79156  1  0
 80157  1  0
 81158  1  0
 83159  1  0
 84160  1  0
 87161  1  0
 87162  1  0
 87163  1  0
 88164  1  0
 89165  1  0
 92166  1  0
 97167  1  0
100168  1  0
108169  1  0
109170  1  0
110171  1  0
111172  1  0
112173  1  0
113174  1  0
113175  1  0
114176  1  0
M  END

