
     RDKit          3D

184204  0  0  0  0  0  0  0  0999 V2000
    1.0940   -4.3224    6.9879 C   0  0  0  0  0  0  0  0  0  0  0  0
    0.7096   -3.5361    8.0126 C   0  0  0  0  0  0  0  0  0  0  0  0
    0.7856   -2.0683    8.0362 C   0  0  0  0  0  0  0  0  0  0  0  0
    1.6488   -1.3585    7.4568 O   0  0  0  0  0  0  0  0  0  0  0  0
   -0.2988   -1.5642    8.8434 C   0  0  0  0  0  0  0  0  0  0  0  0
   -0.7863   -0.2388    8.8588 C   0  0  0  0  0  0  0  0  0  0  0  0
   -2.0318   -0.1151    9.4400 C   0  0  0  0  0  0  0  0  0  0  0  0
   -2.7597   -1.2223    9.9858 C   0  0  0  0  0  0  0  0  0  0  0  0
   -2.2677   -2.5186   10.0036 C   0  0  0  0  0  0  0  0  0  0  0  0
   -0.9777   -2.6638    9.4241 C   0  0  0  0  0  0  0  0  0  0  0  0
   -0.2639   -3.9159    9.0714 C   0  0  0  0  0  0  0  0  0  0  0  0
   -0.3399   -5.0974    9.7290 C   0  0  0  0  0  0  0  0  0  0  0  0
    0.5322   -6.2021    9.4182 C   0  0  0  0  0  0  0  0  0  0  0  0
    1.2285   -7.0891    9.1638 N   0  0  0  0  0  0  0  0  0  0  0  0
   -1.1692   -5.2576   10.8986 C   0  0  0  0  0  0  0  0  0  0  0  0
   -1.8250   -5.3828   11.8491 N   0  0  0  0  0  0  0  0  0  0  0  0
   -3.9483   -0.3407   10.2316 C   0  0  0  0  0  0  0  0  0  0  0  0
   -5.1582   -0.4672    9.2535 C   0  0  0  0  0  0  0  0  0  0  0  0
   -4.6776   -0.8650    7.8763 C   0  0  0  0  0  0  0  0  0  0  0  0
   -3.9964    0.1748    7.3894 C   0  0  0  0  0  0  0  0  0  0  0  0
   -4.0348    1.2454    8.4557 C   0  0  0  0  0  0  0  0  0  0  0  0
   -5.4360    1.0015    8.9878 C   0  0  0  0  0  0  0  0  0  0  0  0
   -3.1940    0.7972    9.6925 C   0  0  0  0  0  0  0  0  0  0  0  0
    1.4534   -3.7800    5.6609 C   0  0  0  0  0  0  0  0  0  0  0  0
    0.8100   -2.6775    5.1945 N   0  0  0  0  0  0  0  0  0  0  0  0
    1.0092   -2.2037    3.9622 N   0  0  0  0  0  0  0  0  0  0  0  0
    1.8411   -2.7959    3.0631 C   0  0  0  0  0  0  0  0  0  0  0  0
    2.4999   -3.9691    3.4877 C   0  0  0  0  0  0  0  0  0  0  0  0
    3.3459   -4.9657    2.8084 C   0  0  0  0  0  0  0  0  0  0  0  0
    3.6062   -5.0100    1.5773 O   0  0  0  0  0  0  0  0  0  0  0  0
    3.7514   -5.9853    3.7214 N   0  0  0  0  0  0  0  0  0  0  0  0
    4.3540   -7.2684    3.3688 C   0  0  0  0  0  0  0  0  0  0  0  0
    3.2885   -8.2381    2.8723 C   0  0  0  0  0  0  0  0  0  0  0  0
    3.0741   -5.6765    4.9352 C   0  0  0  0  0  0  0  0  0  0  0  0
    3.1208   -6.3941    5.9706 O   0  0  0  0  0  0  0  0  0  0  0  0
    2.3148   -4.4369    4.7804 C   0  0  0  0  0  0  0  0  0  0  0  0
    1.9200   -2.2066    1.7038 C   0  0  0  0  0  0  0  0  0  0  0  0
    0.9393   -1.3640    1.1284 C   0  0  0  0  0  0  0  0  0  0  0  0
   -0.0849   -0.6660    1.8643 N   0  0  0  0  0  0  0  0  0  0  0  0
   -1.4725   -0.9396    1.5946 C   0  0  0  0  0  0  0  0  0  0  0  0
   -2.3801    0.1203    1.4194 C   0  0  0  0  0  0  0  0  0  0  0  0
   -3.7505   -0.1310    1.3294 C   0  0  0  0  0  0  0  0  0  0  0  0
   -4.2295   -1.4419    1.4192 C   0  0  0  0  0  0  0  0  0  0  0  0
   -5.9977   -1.7464    1.4275 S   0  0  0  0  0  0  0  0  0  0  0  0
   -6.1455   -1.5095    3.2276 C   0  0  0  0  0  0  0  0  0  0  0  0
   -3.3288   -2.5084    1.5258 C   0  0  0  0  0  0  0  0  0  0  0  0
   -1.9532   -2.2595    1.6110 C   0  0  0  0  0  0  0  0  0  0  0  0
    0.2812    0.3700    2.8086 C   0  0  0  0  0  0  0  0  0  0  0  0
   -0.4959    0.5897    3.9636 C   0  0  0  0  0  0  0  0  0  0  0  0
   -0.1299    1.5687    4.8906 C   0  0  0  0  0  0  0  0  0  0  0  0
    1.0236    2.3293    4.6890 C   0  0  0  0  0  0  0  0  0  0  0  0
    1.5103    3.5666    5.8952 S   0  0  0  0  0  0  0  0  0  0  0  0
    2.5328    2.4036    6.8510 C   0  0  0  0  0  0  0  0  0  0  0  0
    1.8118    2.1108    3.5518 C   0  0  0  0  0  0  0  0  0  0  0  0
    1.4463    1.1380    2.6189 C   0  0  0  0  0  0  0  0  0  0  0  0
    1.2668   -1.0308   -0.1792 C   0  0  0  0  0  0  0  0  0  0  0  0
    0.5681   -0.0310   -1.3216 S   0  0  0  0  0  0  0  0  0  0  0  0
    1.8479   -0.2161   -2.4318 C   0  0  0  0  0  0  0  0  0  0  0  0
    2.8472   -1.0395   -1.8841 C   0  0  0  0  0  0  0  0  0  0  0  0
    4.1934   -1.0869   -2.3622 N   0  0  0  0  0  0  0  0  0  0  0  0
    4.5905   -2.0472   -3.3423 C   0  0  0  0  0  0  0  0  0  0  0  0
    4.6184   -1.6949   -4.6973 C   0  0  0  0  0  0  0  0  0  0  0  0
    5.0477   -2.6218   -5.6549 C   0  0  0  0  0  0  0  0  0  0  0  0
    5.4565   -3.9005   -5.2647 C   0  0  0  0  0  0  0  0  0  0  0  0
    6.0020   -5.0772   -6.5064 S   0  0  0  0  0  0  0  0  0  0  0  0
    7.7611   -4.6091   -6.3812 C   0  0  0  0  0  0  0  0  0  0  0  0
    5.4395   -4.2508   -3.9060 C   0  0  0  0  0  0  0  0  0  0  0  0
    5.0074   -3.3281   -2.9494 C   0  0  0  0  0  0  0  0  0  0  0  0
    5.1537   -0.1877   -1.7957 C   0  0  0  0  0  0  0  0  0  0  0  0
    5.0810    1.1842   -2.0776 C   0  0  0  0  0  0  0  0  0  0  0  0
    5.9270    2.0857   -1.4254 C   0  0  0  0  0  0  0  0  0  0  0  0
    6.8480    1.6216   -0.4807 C   0  0  0  0  0  0  0  0  0  0  0  0
    7.8930    2.7841    0.3937 S   0  0  0  0  0  0  0  0  0  0  0  0
    6.6447    3.1239    1.6799 C   0  0  0  0  0  0  0  0  0  0  0  0
    6.9404    0.2504   -0.2112 C   0  0  0  0  0  0  0  0  0  0  0  0
    6.1024   -0.6524   -0.8717 C   0  0  0  0  0  0  0  0  0  0  0  0
    2.4703   -1.4810   -0.6177 C   0  0  0  0  0  0  0  0  0  0  0  0
    3.2109   -2.3649    0.5931 S   0  0  0  0  0  0  0  0  0  0  0  0
    1.8258    0.3806   -3.7672 C   0  0  0  0  0  0  0  0  0  0  0  0
    1.6946    2.0401   -3.9815 S   0  0  0  0  0  0  0  0  0  0  0  0
    0.8999    2.0074   -5.4621 C   0  0  0  0  0  0  0  0  0  0  0  0
    0.7423    0.6693   -5.8392 C   0  0  0  0  0  0  0  0  0  0  0  0
   -0.0164    0.1801   -7.0165 C   0  0  0  0  0  0  0  0  0  0  0  0
   -0.4796    0.9895   -7.8615 O   0  0  0  0  0  0  0  0  0  0  0  0
   -0.2221   -1.2829   -7.1681 C   0  0  0  0  0  0  0  0  0  0  0  0
   -0.9516   -1.9184   -8.1827 C   0  0  0  0  0  0  0  0  0  0  0  0
   -1.7065   -1.3003   -9.3250 C   0  0  0  0  0  0  0  0  0  0  0  0
   -0.7782   -0.9833  -10.4929 C   0  0  0  0  0  0  0  0  0  0  0  0
   -0.8590   -3.5809   -7.9316 S   0  0  0  0  0  0  0  0  0  0  0  0
    0.0766   -3.5311   -6.5308 C   0  0  0  0  0  0  0  0  0  0  0  0
    0.5410   -4.7258   -5.7350 C   0  0  0  0  0  0  0  0  0  0  0  0
    0.1445   -6.0659   -6.3508 C   0  0  0  0  0  0  0  0  0  0  0  0
    0.3326   -2.1860   -6.2345 C   0  0  0  0  0  0  0  0  0  0  0  0
    1.0723   -1.6940   -5.0504 C   0  0  0  0  0  0  0  0  0  0  0  0
    1.5366   -2.5007   -4.2001 O   0  0  0  0  0  0  0  0  0  0  0  0
    1.2559   -0.2368   -4.8858 C   0  0  0  0  0  0  0  0  0  0  0  0
    0.3565    3.1939   -6.1441 C   0  0  0  0  0  0  0  0  0  0  0  0
   -0.4441    4.0993   -5.5417 C   0  0  0  0  0  0  0  0  0  0  0  0
   -1.1305    3.9203   -4.2506 C   0  0  0  0  0  0  0  0  0  0  0  0
   -0.9899    2.9603   -3.4460 O   0  0  0  0  0  0  0  0  0  0  0  0
   -2.1399    4.9423   -4.1180 C   0  0  0  0  0  0  0  0  0  0  0  0
   -3.0405    5.0925   -3.0391 C   0  0  0  0  0  0  0  0  0  0  0  0
   -3.9704    6.0925   -3.2314 C   0  0  0  0  0  0  0  0  0  0  0  0
   -4.0404    6.8818   -4.4221 C   0  0  0  0  0  0  0  0  0  0  0  0
   -3.1532    6.7450   -5.4791 C   0  0  0  0  0  0  0  0  0  0  0  0
   -2.1477    5.7529   -5.2785 C   0  0  0  0  0  0  0  0  0  0  0  0
   -1.0283    5.3305   -6.1693 C   0  0  0  0  0  0  0  0  0  0  0  0
   -0.4799    6.0571   -7.1789 C   0  0  0  0  0  0  0  0  0  0  0  0
   -1.0727    7.2735   -7.6695 C   0  0  0  0  0  0  0  0  0  0  0  0
   -1.5359    8.2523   -8.0837 N   0  0  0  0  0  0  0  0  0  0  0  0
    0.8030    5.7348   -7.7434 C   0  0  0  0  0  0  0  0  0  0  0  0
    1.8359    5.4823   -8.2034 N   0  0  0  0  0  0  0  0  0  0  0  0
   -5.2670    7.5775   -3.9066 C   0  0  0  0  0  0  0  0  0  0  0  0
   -6.6300    7.1422   -4.5266 C   0  0  0  0  0  0  0  0  0  0  0  0
   -7.6963    7.6689   -3.5995 C   0  0  0  0  0  0  0  0  0  0  0  0
   -7.6147    6.9456   -2.4756 C   0  0  0  0  0  0  0  0  0  0  0  0
   -6.5007    5.9509   -2.6872 C   0  0  0  0  0  0  0  0  0  0  0  0
   -6.7194    5.6683   -4.1638 C   0  0  0  0  0  0  0  0  0  0  0  0
   -5.1833    6.7788   -2.6790 C   0  0  0  0  0  0  0  0  0  0  0  0
    0.9286   -5.3886    7.0295 H   0  0  0  0  0  0  0  0  0  0  0  0
   -0.2950    0.5823    8.3495 H   0  0  0  0  0  0  0  0  0  0  0  0
   -2.8758   -3.3459   10.3387 H   0  0  0  0  0  0  0  0  0  0  0  0
   -4.2208   -0.2319   11.3066 H   0  0  0  0  0  0  0  0  0  0  0  0
   -6.0217   -1.0508    9.6377 H   0  0  0  0  0  0  0  0  0  0  0  0
   -4.8764   -1.7949    7.3563 H   0  0  0  0  0  0  0  0  0  0  0  0
   -3.5502    0.2382    6.3993 H   0  0  0  0  0  0  0  0  0  0  0  0
   -3.8307    2.2752    8.0914 H   0  0  0  0  0  0  0  0  0  0  0  0
   -5.6628    1.5877    9.9108 H   0  0  0  0  0  0  0  0  0  0  0  0
   -6.2355    1.1747    8.2271 H   0  0  0  0  0  0  0  0  0  0  0  0
   -2.9935    1.5960   10.4401 H   0  0  0  0  0  0  0  0  0  0  0  0
    4.8665   -7.6963    4.2533 H   0  0  0  0  0  0  0  0  0  0  0  0
    5.1160   -7.1162    2.5739 H   0  0  0  0  0  0  0  0  0  0  0  0
    2.5323   -8.4117    3.6666 H   0  0  0  0  0  0  0  0  0  0  0  0
    3.7601   -9.2080    2.6085 H   0  0  0  0  0  0  0  0  0  0  0  0
    2.7853   -7.8261    1.9704 H   0  0  0  0  0  0  0  0  0  0  0  0
   -2.0259    1.1419    1.3895 H   0  0  0  0  0  0  0  0  0  0  0  0
   -4.4410    0.6982    1.2373 H   0  0  0  0  0  0  0  0  0  0  0  0
   -7.2105   -1.5681    3.5204 H   0  0  0  0  0  0  0  0  0  0  0  0
   -5.5788   -2.2970    3.7623 H   0  0  0  0  0  0  0  0  0  0  0  0
   -5.7558   -0.5110    3.5184 H   0  0  0  0  0  0  0  0  0  0  0  0
   -3.6953   -3.5264    1.5845 H   0  0  0  0  0  0  0  0  0  0  0  0
   -1.2695   -3.0899    1.7419 H   0  0  0  0  0  0  0  0  0  0  0  0
   -1.3860    0.0034    4.1544 H   0  0  0  0  0  0  0  0  0  0  0  0
   -0.7442    1.7318    5.7706 H   0  0  0  0  0  0  0  0  0  0  0  0
    3.3104    1.9492    6.1979 H   0  0  0  0  0  0  0  0  0  0  0  0
    1.8962    1.6049    7.2892 H   0  0  0  0  0  0  0  0  0  0  0  0
    3.0336    2.9549    7.6706 H   0  0  0  0  0  0  0  0  0  0  0  0
    2.7155    2.6865    3.3931 H   0  0  0  0  0  0  0  0  0  0  0  0
    2.0637    1.0018    1.7426 H   0  0  0  0  0  0  0  0  0  0  0  0
    4.3080   -0.7049   -5.0086 H   0  0  0  0  0  0  0  0  0  0  0  0
    5.0619   -2.3413   -6.7019 H   0  0  0  0  0  0  0  0  0  0  0  0
    7.8816   -3.5114   -6.2443 H   0  0  0  0  0  0  0  0  0  0  0  0
    8.2826   -4.9034   -7.3187 H   0  0  0  0  0  0  0  0  0  0  0  0
    8.2279   -5.1466   -5.5235 H   0  0  0  0  0  0  0  0  0  0  0  0
    5.7565   -5.2361   -3.5919 H   0  0  0  0  0  0  0  0  0  0  0  0
    5.0137   -3.6016   -1.8996 H   0  0  0  0  0  0  0  0  0  0  0  0
    4.3550    1.5542   -2.7899 H   0  0  0  0  0  0  0  0  0  0  0  0
    5.8505    3.1445   -1.6392 H   0  0  0  0  0  0  0  0  0  0  0  0
    5.7166    3.5232    1.2134 H   0  0  0  0  0  0  0  0  0  0  0  0
    6.4091    2.1966    2.2421 H   0  0  0  0  0  0  0  0  0  0  0  0
    7.0448    3.8820    2.3790 H   0  0  0  0  0  0  0  0  0  0  0  0
    7.6487   -0.1174    0.5208 H   0  0  0  0  0  0  0  0  0  0  0  0
    6.1597   -1.7061   -0.6337 H   0  0  0  0  0  0  0  0  0  0  0  0
   -2.4838   -2.0161   -9.6713 H   0  0  0  0  0  0  0  0  0  0  0  0
   -2.2344   -0.3834   -8.9926 H   0  0  0  0  0  0  0  0  0  0  0  0
   -0.1139   -0.1338  -10.2438 H   0  0  0  0  0  0  0  0  0  0  0  0
   -1.3830   -0.7081  -11.3795 H   0  0  0  0  0  0  0  0  0  0  0  0
   -0.1634   -1.8703  -10.7536 H   0  0  0  0  0  0  0  0  0  0  0  0
    0.1081   -4.6712   -4.7141 H   0  0  0  0  0  0  0  0  0  0  0  0
    1.6481   -4.6957   -5.6506 H   0  0  0  0  0  0  0  0  0  0  0  0
    0.5603   -6.1573   -7.3777 H   0  0  0  0  0  0  0  0  0  0  0  0
   -0.9637   -6.1641   -6.3849 H   0  0  0  0  0  0  0  0  0  0  0  0
    0.5486   -6.8945   -5.7344 H   0  0  0  0  0  0  0  0  0  0  0  0
    0.5751    3.2818   -7.1958 H   0  0  0  0  0  0  0  0  0  0  0  0
   -3.0352    4.4643   -2.1563 H   0  0  0  0  0  0  0  0  0  0  0  0
   -3.2701    7.3301   -6.3780 H   0  0  0  0  0  0  0  0  0  0  0  0
   -5.1346    8.6729   -3.7565 H   0  0  0  0  0  0  0  0  0  0  0  0
   -6.7676    7.3829   -5.6020 H   0  0  0  0  0  0  0  0  0  0  0  0
   -8.4530    8.4144   -3.8245 H   0  0  0  0  0  0  0  0  0  0  0  0
   -8.2930    7.0041   -1.6324 H   0  0  0  0  0  0  0  0  0  0  0  0
   -6.5135    5.0669   -2.0122 H   0  0  0  0  0  0  0  0  0  0  0  0
   -7.7117    5.2116   -4.3850 H   0  0  0  0  0  0  0  0  0  0  0  0
   -5.9306    5.0329   -4.6285 H   0  0  0  0  0  0  0  0  0  0  0  0
   -4.9821    7.3621   -1.7545 H   0  0  0  0  0  0  0  0  0  0  0  0
  1  2  2  3
  2  3  1  0
  3  4  2  0
  3  5  1  0
  5  6  2  0
  6  7  1  0
  7  8  2  0
  8  9  1  0
  9 10  2  0
 10 11  1  0
 11 12  2  3
 12 13  1  0
 13 14  3  0
 12 15  1  0
 15 16  3  0
  8 17  1  0
 17 18  1  0
 18 19  1  0
 19 20  2  0
 20 21  1  0
 21 22  1  0
 21 23  1  0
  1 24  1  0
 24 25  2  0
 25 26  1  0
 26 27  2  0
 27 28  1  0
 28 29  1  0
 29 30  2  0
 29 31  1  0
 31 32  1  0
 32 33  1  0
 31 34  1  0
 34 35  2  0
 34 36  1  0
 27 37  1  0
 37 38  2  0
 38 39  1  0
 39 40  1  0
 40 41  2  0
 41 42  1  0
 42 43  2  0
 43 44  1  0
 44 45  1  0
 43 46  1  0
 46 47  2  0
 39 48  1  0
 48 49  2  0
 49 50  1  0
 50 51  2  0
 51 52  1  0
 52 53  1  0
 51 54  1  0
 54 55  2  0
 38 56  1  0
 56 57  1  0
 57 58  1  0
 58 59  2  0
 59 60  1  0
 60 61  1  0
 61 62  2  0
 62 63  1  0
 63 64  2  0
 64 65  1  0
 65 66  1  0
 64 67  1  0
 67 68  2  0
 60 69  1  0
 69 70  2  0
 70 71  1  0
 71 72  2  0
 72 73  1  0
 73 74  1  0
 72 75  1  0
 75 76  2  0
 59 77  1  0
 77 78  1  0
 58 79  1  0
 79 80  1  0
 80 81  1  0
 81 82  2  0
 82 83  1  0
 83 84  2  0
 83 85  1  0
 85 86  2  0
 86 87  1  0
 87 88  1  0
 86 89  1  0
 89 90  1  0
 90 91  1  0
 91 92  1  0
 90 93  2  0
 93 94  1  0
 94 95  2  0
 94 96  1  0
 81 97  1  0
 97 98  2  3
 98 99  1  0
 99100  2  0
 99101  1  0
101102  2  0
102103  1  0
103104  2  0
104105  1  0
105106  2  0
106107  1  0
107108  2  3
108109  1  0
109110  3  0
108111  1  0
111112  3  0
104113  1  0
113114  1  0
114115  1  0
115116  2  0
116117  1  0
117118  1  0
117119  1  0
 11  2  1  0
 23 17  1  0
 36 24  1  0
 78 37  1  0
 96 79  2  0
107 98  1  0
119113  1  0
 10  5  1  0
 22 18  1  0
 36 28  2  0
 47 40  1  0
 55 48  1  0
 77 56  2  0
 96 82  1  0
106101  1  0
118114  1  0
 23  7  1  0
 68 61  1  0
 76 69  1  0
 93 85  1  0
119103  1  0
  1120  1  0
  6121  1  0
  9122  1  0
 17123  1  0
 18124  1  0
 19125  1  0
 20126  1  0
 21127  1  0
 22128  1  0
 22129  1  0
 23130  1  0
 32131  1  0
 32132  1  0
 33133  1  0
 33134  1  0
 33135  1  0
 41136  1  0
 42137  1  0
 45138  1  0
 45139  1  0
 45140  1  0
 46141  1  0
 47142  1  0
 49143  1  0
 50144  1  0
 53145  1  0
 53146  1  0
 53147  1  0
 54148  1  0
 55149  1  0
 62150  1  0
 63151  1  0
 66152  1  0
 66153  1  0
 66154  1  0
 67155  1  0
 68156  1  0
 70157  1  0
 71158  1  0
 74159  1  0
 74160  1  0
 74161  1  0
 75162  1  0
 76163  1  0
 87164  1  0
 87165  1  0
 88166  1  0
 88167  1  0
 88168  1  0
 91169  1  0
 91170  1  0
 92171  1  0
 92172  1  0
 92173  1  0
 97174  1  0
102175  1  0
105176  1  0
113177  1  0
114178  1  0
115179  1  0
116180  1  0
117181  1  0
118182  1  0
118183  1  0
119184  1  0
M  END

