
     RDKit          3D

222247  0  0  0  0  0  0  0  0999 V2000
    0.7316    0.1112   -6.9225 C   0  0  0  0  0  0  0  0  0  0  0  0
    1.3957   -0.5358   -7.8984 C   0  0  0  0  0  0  0  0  0  0  0  0
    2.5412   -1.4347   -7.6850 C   0  0  0  0  0  0  0  0  0  0  0  0
    3.3095   -1.4434   -6.6869 O   0  0  0  0  0  0  0  0  0  0  0  0
    2.6138   -2.3572   -8.7959 C   0  0  0  0  0  0  0  0  0  0  0  0
    3.4362   -3.5033   -8.8971 C   0  0  0  0  0  0  0  0  0  0  0  0
    3.1346   -4.3209   -9.9726 C   0  0  0  0  0  0  0  0  0  0  0  0
    2.0805   -4.0343  -10.9001 C   0  0  0  0  0  0  0  0  0  0  0  0
    1.2856   -2.8993  -10.8183 C   0  0  0  0  0  0  0  0  0  0  0  0
    1.5995   -2.0333   -9.7308 C   0  0  0  0  0  0  0  0  0  0  0  0
    0.9035   -0.7992   -9.2799 C   0  0  0  0  0  0  0  0  0  0  0  0
    0.1589    0.0416  -10.0403 C   0  0  0  0  0  0  0  0  0  0  0  0
   -0.2509    1.3442   -9.5684 C   0  0  0  0  0  0  0  0  0  0  0  0
   -0.5681    2.3929   -9.1978 N   0  0  0  0  0  0  0  0  0  0  0  0
   -0.1464   -0.2404  -11.4177 C   0  0  0  0  0  0  0  0  0  0  0  0
   -0.3988   -0.4617  -12.5260 N   0  0  0  0  0  0  0  0  0  0  0  0
    2.3074   -5.3456  -11.5877 C   0  0  0  0  0  0  0  0  0  0  0  0
    1.2733   -6.4747  -11.2873 C   0  0  0  0  0  0  0  0  0  0  0  0
    1.9128   -7.7555  -11.7679 C   0  0  0  0  0  0  0  0  0  0  0  0
    2.9194   -8.0144  -10.9237 C   0  0  0  0  0  0  0  0  0  0  0  0
    2.9234   -6.9047   -9.9001 C   0  0  0  0  0  0  0  0  0  0  0  0
    1.4229   -6.6867   -9.7895 C   0  0  0  0  0  0  0  0  0  0  0  0
    3.4056   -5.6292  -10.6528 C   0  0  0  0  0  0  0  0  0  0  0  0
    1.1147   -0.0115   -5.5152 C   0  0  0  0  0  0  0  0  0  0  0  0
    0.7705   -1.0882   -4.7119 C   0  0  0  0  0  0  0  0  0  0  0  0
    1.4107   -1.0540   -3.4648 C   0  0  0  0  0  0  0  0  0  0  0  0
    1.2609   -1.9924   -2.4269 C   0  0  0  0  0  0  0  0  0  0  0  0
    0.2841   -3.0916   -2.5037 C   0  0  0  0  0  0  0  0  0  0  0  0
    0.3568   -4.3768   -3.5873 S   0  0  0  0  0  0  0  0  0  0  0  0
   -1.0837   -5.1028   -3.1091 C   0  0  0  0  0  0  0  0  0  0  0  0
   -1.7077   -6.2760   -3.8021 C   0  0  0  0  0  0  0  0  0  0  0  0
   -2.5612   -5.8078   -4.9736 C   0  0  0  0  0  0  0  0  0  0  0  0
   -1.6605   -4.3255   -2.1046 C   0  0  0  0  0  0  0  0  0  0  0  0
   -3.2213   -4.6835   -1.3741 Cl  0  0  0  0  0  0  0  0  0  0  0  0
   -0.8924   -3.2007   -1.7598 C   0  0  0  0  0  0  0  0  0  0  0  0
   -1.4163   -2.0055   -0.5810 Cl  0  0  0  0  0  0  0  0  0  0  0  0
    2.0209   -1.7782   -1.2671 C   0  0  0  0  0  0  0  0  0  0  0  0
    2.8499   -0.6682   -1.0919 C   0  0  0  0  0  0  0  0  0  0  0  0
    2.9764    0.2890   -2.1208 C   0  0  0  0  0  0  0  0  0  0  0  0
    3.7435    1.5295   -1.9318 C   0  0  0  0  0  0  0  0  0  0  0  0
    3.3509    2.7365   -0.8303 S   0  0  0  0  0  0  0  0  0  0  0  0
    4.5827    3.7959   -1.2703 C   0  0  0  0  0  0  0  0  0  0  0  0
    4.8528    5.1081   -0.6064 C   0  0  0  0  0  0  0  0  0  0  0  0
    5.9527    4.9713    0.4443 C   0  0  0  0  0  0  0  0  0  0  0  0
    5.3304    3.2081   -2.2894 C   0  0  0  0  0  0  0  0  0  0  0  0
    4.8580    1.9420   -2.6653 C   0  0  0  0  0  0  0  0  0  0  0  0
    5.6331    0.9447   -3.8867 Cl  0  0  0  0  0  0  0  0  0  0  0  0
    6.7312    3.9756   -3.0277 Cl  0  0  0  0  0  0  0  0  0  0  0  0
    2.2503    0.0552   -3.3035 C   0  0  0  0  0  0  0  0  0  0  0  0
    2.1902    0.9994   -4.6982 S   0  0  0  0  0  0  0  0  0  0  0  0
    3.4458   -0.6195    0.1862 C   0  0  0  0  0  0  0  0  0  0  0  0
    3.0742   -1.6869    1.0096 C   0  0  0  0  0  0  0  0  0  0  0  0
    2.0205   -2.6861    0.1413 S   0  0  0  0  0  0  0  0  0  0  0  0
    3.1836   -1.7061    2.4857 C   0  0  0  0  0  0  0  0  0  0  0  0
    2.4147   -2.5566    3.2971 C   0  0  0  0  0  0  0  0  0  0  0  0
    2.1771   -3.9459    2.9855 N   0  0  0  0  0  0  0  0  0  0  0  0
    3.2835   -4.7632    2.5494 C   0  0  0  0  0  0  0  0  0  0  0  0
    4.5319   -4.6795    3.1934 C   0  0  0  0  0  0  0  0  0  0  0  0
    5.5899   -5.4954    2.7909 C   0  0  0  0  0  0  0  0  0  0  0  0
    5.4228   -6.3761    1.7137 C   0  0  0  0  0  0  0  0  0  0  0  0
    6.7828   -7.4187    1.1844 S   0  0  0  0  0  0  0  0  0  0  0  0
    7.4771   -6.1527    0.0708 C   0  0  0  0  0  0  0  0  0  0  0  0
    4.1856   -6.4577    1.0629 C   0  0  0  0  0  0  0  0  0  0  0  0
    3.1178   -5.6623    1.4875 C   0  0  0  0  0  0  0  0  0  0  0  0
    0.9255   -4.5776    3.3008 C   0  0  0  0  0  0  0  0  0  0  0  0
   -0.2722   -4.0892    2.7517 C   0  0  0  0  0  0  0  0  0  0  0  0
   -1.4783   -4.7531    3.0021 C   0  0  0  0  0  0  0  0  0  0  0  0
   -1.4953   -5.8947    3.8102 C   0  0  0  0  0  0  0  0  0  0  0  0
   -3.0377   -6.7531    4.1119 S   0  0  0  0  0  0  0  0  0  0  0  0
   -2.7575   -7.9535    2.7713 C   0  0  0  0  0  0  0  0  0  0  0  0
   -0.3080   -6.3705    4.3812 C   0  0  0  0  0  0  0  0  0  0  0  0
    0.9023   -5.7235    4.1130 C   0  0  0  0  0  0  0  0  0  0  0  0
    2.0776   -1.9644    4.5216 C   0  0  0  0  0  0  0  0  0  0  0  0
    0.5468   -1.8992    5.1922 S   0  0  0  0  0  0  0  0  0  0  0  0
    0.6552   -0.3270    5.8294 C   0  0  0  0  0  0  0  0  0  0  0  0
    1.9831    0.1185    5.6184 C   0  0  0  0  0  0  0  0  0  0  0  0
    2.6242    1.2397    6.2879 N   0  0  0  0  0  0  0  0  0  0  0  0
    4.0484    1.3807    6.1703 C   0  0  0  0  0  0  0  0  0  0  0  0
    4.8909    0.5239    6.8933 C   0  0  0  0  0  0  0  0  0  0  0  0
    6.2790    0.6084    6.7442 C   0  0  0  0  0  0  0  0  0  0  0  0
    6.8297    1.5657    5.8844 C   0  0  0  0  0  0  0  0  0  0  0  0
    8.6061    1.6667    5.6797 S   0  0  0  0  0  0  0  0  0  0  0  0
    8.6392    0.4543    4.3174 C   0  0  0  0  0  0  0  0  0  0  0  0
    5.9935    2.4373    5.1774 C   0  0  0  0  0  0  0  0  0  0  0  0
    4.6018    2.3434    5.3147 C   0  0  0  0  0  0  0  0  0  0  0  0
    2.0220    1.9091    7.4147 C   0  0  0  0  0  0  0  0  0  0  0  0
    2.0596    3.3145    7.4971 C   0  0  0  0  0  0  0  0  0  0  0  0
    1.3954    3.9760    8.5352 C   0  0  0  0  0  0  0  0  0  0  0  0
    0.7042    3.2491    9.5069 C   0  0  0  0  0  0  0  0  0  0  0  0
   -0.2345    4.1096   10.7685 S   0  0  0  0  0  0  0  0  0  0  0  0
    1.1269    4.1065   11.9754 C   0  0  0  0  0  0  0  0  0  0  0  0
    0.7135    1.8466    9.4650 C   0  0  0  0  0  0  0  0  0  0  0  0
    1.3791    1.1823    8.4327 C   0  0  0  0  0  0  0  0  0  0  0  0
    2.6810   -0.7598    4.7748 C   0  0  0  0  0  0  0  0  0  0  0  0
    3.5347   -0.3168    3.3930 S   0  0  0  0  0  0  0  0  0  0  0  0
   -0.5379    0.5595    5.8177 C   0  0  0  0  0  0  0  0  0  0  0  0
   -1.8127    0.1502    5.3952 C   0  0  0  0  0  0  0  0  0  0  0  0
   -2.6407    1.2113    4.9722 C   0  0  0  0  0  0  0  0  0  0  0  0
   -3.8676    1.0902    4.2838 C   0  0  0  0  0  0  0  0  0  0  0  0
   -4.4649   -0.2289    4.0038 C   0  0  0  0  0  0  0  0  0  0  0  0
   -4.6718   -0.8756    2.4631 S   0  0  0  0  0  0  0  0  0  0  0  0
   -5.3266   -2.3409    2.9711 C   0  0  0  0  0  0  0  0  0  0  0  0
   -5.8318   -3.4093    2.0503 C   0  0  0  0  0  0  0  0  0  0  0  0
   -7.3130   -3.2038    1.7468 C   0  0  0  0  0  0  0  0  0  0  0  0
   -5.4036   -2.3368    4.3639 C   0  0  0  0  0  0  0  0  0  0  0  0
   -6.0540   -3.6707    5.3069 Cl  0  0  0  0  0  0  0  0  0  0  0  0
   -4.9117   -1.1546    4.9426 C   0  0  0  0  0  0  0  0  0  0  0  0
   -4.9110   -0.8506    6.6734 Cl  0  0  0  0  0  0  0  0  0  0  0  0
   -4.4014    2.2683    3.7247 C   0  0  0  0  0  0  0  0  0  0  0  0
   -3.7791    3.5172    3.8530 C   0  0  0  0  0  0  0  0  0  0  0  0
   -2.5854    3.6404    4.5847 C   0  0  0  0  0  0  0  0  0  0  0  0
   -1.8715    4.9200    4.7165 C   0  0  0  0  0  0  0  0  0  0  0  0
   -1.0337    5.6854    3.4756 S   0  0  0  0  0  0  0  0  0  0  0  0
   -0.3522    6.8873    4.4363 C   0  0  0  0  0  0  0  0  0  0  0  0
    0.5455    7.9739    3.9337 C   0  0  0  0  0  0  0  0  0  0  0  0
   -0.2604    9.2143    3.5634 C   0  0  0  0  0  0  0  0  0  0  0  0
   -0.7826    6.7042    5.7527 C   0  0  0  0  0  0  0  0  0  0  0  0
   -1.6219    5.5922    5.9082 C   0  0  0  0  0  0  0  0  0  0  0  0
   -2.2817    5.0891    7.4587 Cl  0  0  0  0  0  0  0  0  0  0  0  0
   -0.2911    7.7372    7.0888 Cl  0  0  0  0  0  0  0  0  0  0  0  0
   -2.0363    2.4605    5.1075 C   0  0  0  0  0  0  0  0  0  0  0  0
   -0.4813    2.2416    5.6728 S   0  0  0  0  0  0  0  0  0  0  0  0
   -4.4087    4.5339    3.1192 C   0  0  0  0  0  0  0  0  0  0  0  0
   -5.4990    4.0700    2.3856 C   0  0  0  0  0  0  0  0  0  0  0  0
   -5.7370    2.4248    2.7107 S   0  0  0  0  0  0  0  0  0  0  0  0
   -6.2098    4.8633    1.3737 C   0  0  0  0  0  0  0  0  0  0  0  0
   -6.1960    4.5666    0.0539 C   0  0  0  0  0  0  0  0  0  0  0  0
   -5.3392    3.5502   -0.5781 C   0  0  0  0  0  0  0  0  0  0  0  0
   -4.6424    2.6770    0.0067 O   0  0  0  0  0  0  0  0  0  0  0  0
   -5.3345    3.7567   -2.0041 C   0  0  0  0  0  0  0  0  0  0  0  0
   -4.6100    3.0103   -2.9589 C   0  0  0  0  0  0  0  0  0  0  0  0
   -4.7840    3.4397   -4.2597 C   0  0  0  0  0  0  0  0  0  0  0  0
   -5.6013    4.5606   -4.6040 C   0  0  0  0  0  0  0  0  0  0  0  0
   -6.3045    5.3049   -3.6694 C   0  0  0  0  0  0  0  0  0  0  0  0
   -6.1567    4.8658   -2.3225 C   0  0  0  0  0  0  0  0  0  0  0  0
   -6.7813    5.3812   -1.0615 C   0  0  0  0  0  0  0  0  0  0  0  0
   -7.7659    6.3158   -0.9580 C   0  0  0  0  0  0  0  0  0  0  0  0
   -8.5280    6.5095    0.2468 C   0  0  0  0  0  0  0  0  0  0  0  0
   -9.1515    6.6627    1.2097 N   0  0  0  0  0  0  0  0  0  0  0  0
   -8.1848    7.1369   -2.0633 C   0  0  0  0  0  0  0  0  0  0  0  0
   -8.5253    7.8161   -2.9386 N   0  0  0  0  0  0  0  0  0  0  0  0
   -5.2628    4.3817   -6.0549 C   0  0  0  0  0  0  0  0  0  0  0  0
   -4.2428    5.3657   -6.7041 C   0  0  0  0  0  0  0  0  0  0  0  0
   -3.2453    5.8324   -5.6684 C   0  0  0  0  0  0  0  0  0  0  0  0
   -2.4968    4.7723   -5.3556 C   0  0  0  0  0  0  0  0  0  0  0  0
   -3.0116    3.6188   -6.1845 C   0  0  0  0  0  0  0  0  0  0  0  0
   -3.3660    4.3772   -7.4522 C   0  0  0  0  0  0  0  0  0  0  0  0
   -4.4405    3.2187   -5.7050 C   0  0  0  0  0  0  0  0  0  0  0  0
   -0.2206    0.5810   -7.1238 H   0  0  0  0  0  0  0  0  0  0  0  0
    4.1777   -3.7668   -8.1570 H   0  0  0  0  0  0  0  0  0  0  0  0
    0.4506   -2.7580  -11.4834 H   0  0  0  0  0  0  0  0  0  0  0  0
    2.6182   -5.2479  -12.6503 H   0  0  0  0  0  0  0  0  0  0  0  0
    0.2396   -6.2919  -11.6517 H   0  0  0  0  0  0  0  0  0  0  0  0
    1.5714   -8.3956  -12.5723 H   0  0  0  0  0  0  0  0  0  0  0  0
    3.5329   -8.9067  -10.9226 H   0  0  0  0  0  0  0  0  0  0  0  0
    3.4575   -7.1340   -8.9549 H   0  0  0  0  0  0  0  0  0  0  0  0
    0.8755   -7.5818   -9.4069 H   0  0  0  0  0  0  0  0  0  0  0  0
    1.1385   -5.8079   -9.1724 H   0  0  0  0  0  0  0  0  0  0  0  0
    4.4122   -5.6910  -11.1214 H   0  0  0  0  0  0  0  0  0  0  0  0
    0.1021   -1.8752   -5.0365 H   0  0  0  0  0  0  0  0  0  0  0  0
   -2.3314   -6.8535   -3.0905 H   0  0  0  0  0  0  0  0  0  0  0  0
   -0.9089   -6.9455   -4.1801 H   0  0  0  0  0  0  0  0  0  0  0  0
   -2.9783   -6.6882   -5.5044 H   0  0  0  0  0  0  0  0  0  0  0  0
   -3.4054   -5.1800   -4.6115 H   0  0  0  0  0  0  0  0  0  0  0  0
   -1.9520   -5.2141   -5.6880 H   0  0  0  0  0  0  0  0  0  0  0  0
    3.9250    5.4796   -0.1193 H   0  0  0  0  0  0  0  0  0  0  0  0
    5.1642    5.8551   -1.3660 H   0  0  0  0  0  0  0  0  0  0  0  0
    6.2315    5.9799    0.8142 H   0  0  0  0  0  0  0  0  0  0  0  0
    6.8526    4.4834    0.0143 H   0  0  0  0  0  0  0  0  0  0  0  0
    5.5849    4.3662    1.3006 H   0  0  0  0  0  0  0  0  0  0  0  0
    4.0708    0.1936    0.5263 H   0  0  0  0  0  0  0  0  0  0  0  0
    4.6783   -3.9997    4.0262 H   0  0  0  0  0  0  0  0  0  0  0  0
    6.5395   -5.4406    3.3123 H   0  0  0  0  0  0  0  0  0  0  0  0
    8.3995   -6.5486   -0.4088 H   0  0  0  0  0  0  0  0  0  0  0  0
    7.7393   -5.2406    0.6539 H   0  0  0  0  0  0  0  0  0  0  0  0
    6.7395   -5.8934   -0.7221 H   0  0  0  0  0  0  0  0  0  0  0  0
    4.0516   -7.1408    0.2325 H   0  0  0  0  0  0  0  0  0  0  0  0
    2.1675   -5.7346    0.9830 H   0  0  0  0  0  0  0  0  0  0  0  0
   -0.2668   -3.2062    2.1273 H   0  0  0  0  0  0  0  0  0  0  0  0
   -2.3949   -4.3789    2.5629 H   0  0  0  0  0  0  0  0  0  0  0  0
   -1.8160   -8.5120    2.9544 H   0  0  0  0  0  0  0  0  0  0  0  0
   -3.6016   -8.6747    2.7448 H   0  0  0  0  0  0  0  0  0  0  0  0
   -2.7004   -7.4243    1.7980 H   0  0  0  0  0  0  0  0  0  0  0  0
   -0.3130   -7.2527    5.0076 H   0  0  0  0  0  0  0  0  0  0  0  0
    1.8194   -6.1140    4.5376 H   0  0  0  0  0  0  0  0  0  0  0  0
    4.4689   -0.2238    7.5554 H   0  0  0  0  0  0  0  0  0  0  0  0
    6.9233   -0.0607    7.3005 H   0  0  0  0  0  0  0  0  0  0  0  0
    7.9716    0.7836    3.4946 H   0  0  0  0  0  0  0  0  0  0  0  0
    8.3195   -0.5391    4.6873 H   0  0  0  0  0  0  0  0  0  0  0  0
    9.6794    0.3736    3.9298 H   0  0  0  0  0  0  0  0  0  0  0  0
    6.4144    3.1808    4.5116 H   0  0  0  0  0  0  0  0  0  0  0  0
    3.9595    2.9976    4.7402 H   0  0  0  0  0  0  0  0  0  0  0  0
    2.5523    3.8964    6.7316 H   0  0  0  0  0  0  0  0  0  0  0  0
    1.3926    5.0582    8.5661 H   0  0  0  0  0  0  0  0  0  0  0  0
    2.0186    4.6275   11.5673 H   0  0  0  0  0  0  0  0  0  0  0  0
    1.3939    3.0608   12.2404 H   0  0  0  0  0  0  0  0  0  0  0  0
    0.7858    4.6318   12.8919 H   0  0  0  0  0  0  0  0  0  0  0  0
    0.1855    1.2753   10.2180 H   0  0  0  0  0  0  0  0  0  0  0  0
    1.3776    0.0990    8.4137 H   0  0  0  0  0  0  0  0  0  0  0  0
   -2.0804   -0.8897    5.2663 H   0  0  0  0  0  0  0  0  0  0  0  0
   -5.2548   -3.3763    1.0999 H   0  0  0  0  0  0  0  0  0  0  0  0
   -5.6762   -4.4089    2.5079 H   0  0  0  0  0  0  0  0  0  0  0  0
   -7.6721   -4.0234    1.0913 H   0  0  0  0  0  0  0  0  0  0  0  0
   -7.4680   -2.2368    1.2248 H   0  0  0  0  0  0  0  0  0  0  0  0
   -7.9037   -3.2130    2.6870 H   0  0  0  0  0  0  0  0  0  0  0  0
    1.0963    7.6097    3.0400 H   0  0  0  0  0  0  0  0  0  0  0  0
    1.2910    8.2340    4.7121 H   0  0  0  0  0  0  0  0  0  0  0  0
   -0.8219    9.5941    4.4434 H   0  0  0  0  0  0  0  0  0  0  0  0
    0.4287   10.0054    3.2105 H   0  0  0  0  0  0  0  0  0  0  0  0
   -0.9740    8.9775    2.7490 H   0  0  0  0  0  0  0  0  0  0  0  0
   -4.0507    5.5529    3.0566 H   0  0  0  0  0  0  0  0  0  0  0  0
   -6.6287    5.7958    1.7179 H   0  0  0  0  0  0  0  0  0  0  0  0
   -3.9843    2.1642   -2.7031 H   0  0  0  0  0  0  0  0  0  0  0  0
   -6.8935    6.1414   -3.9892 H   0  0  0  0  0  0  0  0  0  0  0  0
   -6.1410    4.1296   -6.6962 H   0  0  0  0  0  0  0  0  0  0  0  0
   -4.6930    6.1668   -7.3203 H   0  0  0  0  0  0  0  0  0  0  0  0
   -3.0841    6.8482   -5.3145 H   0  0  0  0  0  0  0  0  0  0  0  0
   -1.6318    4.7801   -4.7049 H   0  0  0  0  0  0  0  0  0  0  0  0
   -2.2960    2.7814   -6.3144 H   0  0  0  0  0  0  0  0  0  0  0  0
   -2.4845    4.8518   -7.9476 H   0  0  0  0  0  0  0  0  0  0  0  0
   -3.9225    3.7633   -8.1986 H   0  0  0  0  0  0  0  0  0  0  0  0
   -4.8198    2.2571   -6.1179 H   0  0  0  0  0  0  0  0  0  0  0  0
  1  2  2  3
  2  3  1  0
  3  4  2  0
  3  5  1  0
  5  6  2  0
  6  7  1  0
  7  8  2  0
  8  9  1  0
  9 10  2  0
 10 11  1  0
 11 12  2  3
 12 13  1  0
 13 14  3  0
 12 15  1  0
 15 16  3  0
  8 17  1  0
 17 18  1  0
 18 19  1  0
 19 20  2  0
 20 21  1  0
 21 22  1  0
 21 23  1  0
  1 24  1  0
 24 25  2  0
 25 26  1  0
 26 27  2  0
 27 28  1  0
 28 29  1  0
 29 30  1  0
 30 31  1  0
 31 32  1  0
 30 33  2  0
 33 34  1  0
 33 35  1  0
 35 36  1  0
 27 37  1  0
 37 38  2  0
 38 39  1  0
 39 40  1  0
 40 41  1  0
 41 42  1  0
 42 43  1  0
 43 44  1  0
 42 45  2  0
 45 46  1  0
 46 47  1  0
 45 48  1  0
 39 49  2  0
 49 50  1  0
 38 51  1  0
 51 52  2  0
 52 53  1  0
 52 54  1  0
 54 55  2  0
 55 56  1  0
 56 57  1  0
 57 58  2  0
 58 59  1  0
 59 60  2  0
 60 61  1  0
 61 62  1  0
 60 63  1  0
 63 64  2  0
 56 65  1  0
 65 66  2  0
 66 67  1  0
 67 68  2  0
 68 69  1  0
 69 70  1  0
 68 71  1  0
 71 72  2  0
 55 73  1  0
 73 74  1  0
 74 75  1  0
 75 76  2  0
 76 77  1  0
 77 78  1  0
 78 79  2  0
 79 80  1  0
 80 81  2  0
 81 82  1  0
 82 83  1  0
 81 84  1  0
 84 85  2  0
 77 86  1  0
 86 87  2  0
 87 88  1  0
 88 89  2  0
 89 90  1  0
 90 91  1  0
 89 92  1  0
 92 93  2  0
 76 94  1  0
 94 95  1  0
 75 96  1  0
 96 97  2  0
 97 98  1  0
 98 99  2  0
 99100  1  0
100101  1  0
101102  1  0
102103  1  0
103104  1  0
102105  2  0
105106  1  0
105107  1  0
107108  1  0
 99109  1  0
109110  2  0
110111  1  0
111112  1  0
112113  1  0
113114  1  0
114115  1  0
115116  1  0
114117  2  0
117118  1  0
118119  1  0
117120  1  0
111121  2  0
121122  1  0
110123  1  0
123124  2  0
124125  1  0
124126  1  0
126127  2  3
127128  1  0
128129  2  0
128130  1  0
130131  2  0
131132  1  0
132133  2  0
133134  1  0
134135  2  0
135136  1  0
136137  2  3
137138  1  0
138139  3  0
137140  1  0
140141  3  0
133142  1  0
142143  1  0
143144  1  0
144145  2  0
145146  1  0
146147  1  0
146148  1  0
 11  2  1  0
 23 17  1  0
 50 24  1  0
 95 54  1  0
122 96  1  0
136127  1  0
148142  1  0
 10  5  1  0
 22 18  1  0
 49 26  1  0
 64 57  1  0
 72 65  1  0
 94 73  2  0
121 98  1  0
135130  1  0
147143  1  0
 23  7  1  0
 35 28  2  0
 53 37  1  0
 85 78  1  0
 93 86  1  0
107100  2  0
125109  1  0
148132  1  0
 46 40  2  0
118112  2  0
  1149  1  0
  6150  1  0
  9151  1  0
 17152  1  0
 18153  1  0
 19154  1  0
 20155  1  0
 21156  1  0
 22157  1  0
 22158  1  0
 23159  1  0
 25160  1  0
 31161  1  0
 31162  1  0
 32163  1  0
 32164  1  0
 32165  1  0
 43166  1  0
 43167  1  0
 44168  1  0
 44169  1  0
 44170  1  0
 51171  1  0
 58172  1  0
 59173  1  0
 62174  1  0
 62175  1  0
 62176  1  0
 63177  1  0
 64178  1  0
 66179  1  0
 67180  1  0
 70181  1  0
 70182  1  0
 70183  1  0
 71184  1  0
 72185  1  0
 79186  1  0
 80187  1  0
 83188  1  0
 83189  1  0
 83190  1  0
 84191  1  0
 85192  1  0
 87193  1  0
 88194  1  0
 91195  1  0
 91196  1  0
 91197  1  0
 92198  1  0
 93199  1  0
 97200  1  0
103201  1  0
103202  1  0
104203  1  0
104204  1  0
104205  1  0
115206  1  0
115207  1  0
116208  1  0
116209  1  0
116210  1  0
123211  1  0
126212  1  0
131213  1  0
134214  1  0
142215  1  0
143216  1  0
144217  1  0
145218  1  0
146219  1  0
147220  1  0
147221  1  0
148222  1  0
M  END

