
     RDKit          3D

182201  0  0  0  0  0  0  0  0999 V2000
   -3.1575   -5.1942   -2.5296 C   0  0  0  0  0  0  0  0  0  0  0  0
   -3.1819   -6.3532   -3.2138 C   0  0  0  0  0  0  0  0  0  0  0  0
   -2.1520   -6.7794   -4.1746 C   0  0  0  0  0  0  0  0  0  0  0  0
   -1.1764   -6.0937   -4.5859 O   0  0  0  0  0  0  0  0  0  0  0  0
   -2.4509   -8.1199   -4.6079 C   0  0  0  0  0  0  0  0  0  0  0  0
   -1.6274   -8.9572   -5.3951 C   0  0  0  0  0  0  0  0  0  0  0  0
   -2.0673  -10.2652   -5.4598 C   0  0  0  0  0  0  0  0  0  0  0  0
   -3.2410  -10.7291   -4.7797 C   0  0  0  0  0  0  0  0  0  0  0  0
   -4.0629   -9.9069   -4.0336 C   0  0  0  0  0  0  0  0  0  0  0  0
   -3.6554   -8.5471   -3.9935 C   0  0  0  0  0  0  0  0  0  0  0  0
   -4.2254   -7.4311   -3.1883 C   0  0  0  0  0  0  0  0  0  0  0  0
   -5.4794   -7.3946   -2.6498 C   0  0  0  0  0  0  0  0  0  0  0  0
   -5.9583   -6.3340   -1.7974 C   0  0  0  0  0  0  0  0  0  0  0  0
   -6.3647   -5.4904   -1.1093 N   0  0  0  0  0  0  0  0  0  0  0  0
   -6.4789   -8.3689   -3.0071 C   0  0  0  0  0  0  0  0  0  0  0  0
   -7.2846   -9.1457   -3.2882 N   0  0  0  0  0  0  0  0  0  0  0  0
   -2.9424  -12.1385   -5.1802 C   0  0  0  0  0  0  0  0  0  0  0  0
   -2.3575  -13.0903   -4.0913 C   0  0  0  0  0  0  0  0  0  0  0  0
   -1.5284  -12.3028   -3.0997 C   0  0  0  0  0  0  0  0  0  0  0  0
   -0.4436  -11.8869   -3.7553 C   0  0  0  0  0  0  0  0  0  0  0  0
   -0.5733  -12.3955   -5.1697 C   0  0  0  0  0  0  0  0  0  0  0  0
   -1.2320  -13.7342   -4.8821 C   0  0  0  0  0  0  0  0  0  0  0  0
   -1.7480  -11.6635   -5.8964 C   0  0  0  0  0  0  0  0  0  0  0  0
   -1.9889   -4.2966   -2.4590 C   0  0  0  0  0  0  0  0  0  0  0  0
   -0.7708   -4.7742   -2.0576 N   0  0  0  0  0  0  0  0  0  0  0  0
    0.2336   -3.9552   -1.7119 N   0  0  0  0  0  0  0  0  0  0  0  0
    0.1123   -2.5988   -1.7748 C   0  0  0  0  0  0  0  0  0  0  0  0
   -1.1103   -2.0770   -2.2075 C   0  0  0  0  0  0  0  0  0  0  0  0
   -1.6582   -0.7212   -2.1654 C   0  0  0  0  0  0  0  0  0  0  0  0
   -1.1078    0.2758   -1.6403 O   0  0  0  0  0  0  0  0  0  0  0  0
   -3.0013   -0.7160   -2.6467 N   0  0  0  0  0  0  0  0  0  0  0  0
   -3.9378    0.4059   -2.5865 C   0  0  0  0  0  0  0  0  0  0  0  0
   -4.7155    0.3843   -1.2720 C   0  0  0  0  0  0  0  0  0  0  0  0
   -3.3176   -2.0872   -2.8321 C   0  0  0  0  0  0  0  0  0  0  0  0
   -4.4474   -2.5145   -3.1870 O   0  0  0  0  0  0  0  0  0  0  0  0
   -2.1383   -2.9135   -2.5613 C   0  0  0  0  0  0  0  0  0  0  0  0
    1.0957   -1.7575   -1.0899 C   0  0  0  0  0  0  0  0  0  0  0  0
    1.7795   -0.6255   -1.5864 C   0  0  0  0  0  0  0  0  0  0  0  0
    1.9893   -0.3583   -2.9912 N   0  0  0  0  0  0  0  0  0  0  0  0
    1.7603    0.9484   -3.5971 C   0  0  0  0  0  0  0  0  0  0  0  0
    2.2379    1.2333   -4.8927 C   0  0  0  0  0  0  0  0  0  0  0  0
    1.9531    2.4544   -5.5134 C   0  0  0  0  0  0  0  0  0  0  0  0
    1.1984    3.4178   -4.8496 C   0  0  0  0  0  0  0  0  0  0  0  0
    0.7452    4.9346   -5.6988 S   0  0  0  0  0  0  0  0  0  0  0  0
    2.1631    5.8727   -5.0433 C   0  0  0  0  0  0  0  0  0  0  0  0
    0.7607    3.1818   -3.5494 C   0  0  0  0  0  0  0  0  0  0  0  0
    1.0503    1.9652   -2.9227 C   0  0  0  0  0  0  0  0  0  0  0  0
    2.4780   -1.4703   -3.7666 C   0  0  0  0  0  0  0  0  0  0  0  0
    1.7816   -1.9201   -4.9014 C   0  0  0  0  0  0  0  0  0  0  0  0
    2.2473   -3.0332   -5.6128 C   0  0  0  0  0  0  0  0  0  0  0  0
    3.3970   -3.7112   -5.1902 C   0  0  0  0  0  0  0  0  0  0  0  0
    3.9590   -5.1659   -6.0775 S   0  0  0  0  0  0  0  0  0  0  0  0
    5.2095   -4.2522   -7.0424 C   0  0  0  0  0  0  0  0  0  0  0  0
    4.0928   -3.2647   -4.0594 C   0  0  0  0  0  0  0  0  0  0  0  0
    3.6409   -2.1542   -3.3501 C   0  0  0  0  0  0  0  0  0  0  0  0
    2.3442    0.1138   -0.5384 C   0  0  0  0  0  0  0  0  0  0  0  0
    3.0559    1.6104   -0.3841 S   0  0  0  0  0  0  0  0  0  0  0  0
    2.9835    1.7082    1.3343 C   0  0  0  0  0  0  0  0  0  0  0  0
    2.4084    0.4763    1.7703 C   0  0  0  0  0  0  0  0  0  0  0  0
    2.0237    0.1097    3.1104 N   0  0  0  0  0  0  0  0  0  0  0  0
    3.0452   -0.2860    4.0748 C   0  0  0  0  0  0  0  0  0  0  0  0
    4.4194   -0.0407    3.8251 C   0  0  0  0  0  0  0  0  0  0  0  0
    5.4010   -0.4456    4.7353 C   0  0  0  0  0  0  0  0  0  0  0  0
    5.0375   -1.1379    5.8971 C   0  0  0  0  0  0  0  0  0  0  0  0
    6.3006   -1.7714    6.9917 S   0  0  0  0  0  0  0  0  0  0  0  0
    6.0680   -0.4481    8.2236 C   0  0  0  0  0  0  0  0  0  0  0  0
    3.6824   -1.3578    6.1731 C   0  0  0  0  0  0  0  0  0  0  0  0
    2.7017   -0.8823    5.3054 C   0  0  0  0  0  0  0  0  0  0  0  0
    0.6072   -0.1204    3.3188 C   0  0  0  0  0  0  0  0  0  0  0  0
   -0.3160    0.8891    2.9817 C   0  0  0  0  0  0  0  0  0  0  0  0
   -1.6836    0.6066    2.8949 C   0  0  0  0  0  0  0  0  0  0  0  0
   -2.1525   -0.6892    3.1338 C   0  0  0  0  0  0  0  0  0  0  0  0
   -3.8794   -1.1035    2.8366 S   0  0  0  0  0  0  0  0  0  0  0  0
   -4.4235   -0.6160    4.5010 C   0  0  0  0  0  0  0  0  0  0  0  0
   -1.2500   -1.6943    3.5029 C   0  0  0  0  0  0  0  0  0  0  0  0
    0.1202   -1.4178    3.5829 C   0  0  0  0  0  0  0  0  0  0  0  0
    2.0918   -0.3581    0.6981 C   0  0  0  0  0  0  0  0  0  0  0  0
    1.2076   -1.7744    0.5959 S   0  0  0  0  0  0  0  0  0  0  0  0
    3.0989    3.0375    2.0560 C   0  0  0  0  0  0  0  0  0  0  0  0
    2.4596    3.2917    3.2950 C   0  0  0  0  0  0  0  0  0  0  0  0
    2.1889    2.3301    4.1923 F   0  0  0  0  0  0  0  0  0  0  0  0
    2.0515    4.5781    3.6425 C   0  0  0  0  0  0  0  0  0  0  0  0
    1.3868    4.7637    4.8098 F   0  0  0  0  0  0  0  0  0  0  0  0
    2.2869    5.6580    2.7786 C   0  0  0  0  0  0  0  0  0  0  0  0
    3.1792    5.4748    1.7104 C   0  0  0  0  0  0  0  0  0  0  0  0
    3.6049    6.5300    0.9698 N   0  0  0  0  0  0  0  0  0  0  0  0
    4.4509    6.3854   -0.0846 C   0  0  0  0  0  0  0  0  0  0  0  0
    4.8150    7.6270   -0.8591 C   0  0  0  0  0  0  0  0  0  0  0  0
    3.7149    7.9717   -1.8545 C   0  0  0  0  0  0  0  0  0  0  0  0
    4.8881    5.0882   -0.4355 C   0  0  0  0  0  0  0  0  0  0  0  0
    4.4576    4.0358    0.3087 N   0  0  0  0  0  0  0  0  0  0  0  0
    3.6099    4.1725    1.3655 C   0  0  0  0  0  0  0  0  0  0  0  0
    5.8255    4.8159   -1.5805 C   0  0  0  0  0  0  0  0  0  0  0  0
    7.2772    4.9899   -1.1378 C   0  0  0  0  0  0  0  0  0  0  0  0
    1.5909    6.9535    2.9839 C   0  0  0  0  0  0  0  0  0  0  0  0
    0.3953    7.0218    3.5892 C   0  0  0  0  0  0  0  0  0  0  0  0
    0.1305    8.0452    4.6059 C   0  0  0  0  0  0  0  0  0  0  0  0
    1.0177    8.6187    5.3000 O   0  0  0  0  0  0  0  0  0  0  0  0
   -1.2927    8.2419    4.7489 C   0  0  0  0  0  0  0  0  0  0  0  0
   -1.9662    8.9474    5.7782 C   0  0  0  0  0  0  0  0  0  0  0  0
   -3.3444    8.8149    5.7418 C   0  0  0  0  0  0  0  0  0  0  0  0
   -4.0205    8.0250    4.7580 C   0  0  0  0  0  0  0  0  0  0  0  0
   -3.3715    7.3258    3.7574 C   0  0  0  0  0  0  0  0  0  0  0  0
   -1.9513    7.4603    3.7675 C   0  0  0  0  0  0  0  0  0  0  0  0
   -0.9399    6.7521    2.9428 C   0  0  0  0  0  0  0  0  0  0  0  0
   -1.1915    6.0808    1.7854 C   0  0  0  0  0  0  0  0  0  0  0  0
   -2.4476    6.1840    1.0966 C   0  0  0  0  0  0  0  0  0  0  0  0
   -3.4540    6.2595    0.5273 N   0  0  0  0  0  0  0  0  0  0  0  0
   -0.2672    5.1542    1.1956 C   0  0  0  0  0  0  0  0  0  0  0  0
    0.4236    4.3591    0.7243 N   0  0  0  0  0  0  0  0  0  0  0  0
   -5.3429    8.3111    5.4039 C   0  0  0  0  0  0  0  0  0  0  0  0
   -5.9710    7.1523    6.2348 C   0  0  0  0  0  0  0  0  0  0  0  0
   -7.0495    7.7861    7.0788 C   0  0  0  0  0  0  0  0  0  0  0  0
   -6.4276    8.5347    7.9980 C   0  0  0  0  0  0  0  0  0  0  0  0
   -4.9427    8.3684    7.7442 C   0  0  0  0  0  0  0  0  0  0  0  0
   -4.9403    6.9083    7.3248 C   0  0  0  0  0  0  0  0  0  0  0  0
   -4.6523    9.1205    6.4144 C   0  0  0  0  0  0  0  0  0  0  0  0
   -3.9837   -4.8888   -1.9205 H   0  0  0  0  0  0  0  0  0  0  0  0
   -0.6918   -8.6347   -5.8303 H   0  0  0  0  0  0  0  0  0  0  0  0
   -4.8825  -10.3157   -3.4701 H   0  0  0  0  0  0  0  0  0  0  0  0
   -3.7083  -12.5914   -5.8435 H   0  0  0  0  0  0  0  0  0  0  0  0
   -3.0887  -13.7930   -3.6335 H   0  0  0  0  0  0  0  0  0  0  0  0
   -1.7456  -12.1302   -2.0485 H   0  0  0  0  0  0  0  0  0  0  0  0
    0.3779  -11.3126   -3.3347 H   0  0  0  0  0  0  0  0  0  0  0  0
    0.3798  -12.4409   -5.7352 H   0  0  0  0  0  0  0  0  0  0  0  0
   -1.5775  -14.2694   -5.8006 H   0  0  0  0  0  0  0  0  0  0  0  0
   -0.5880  -14.4159   -4.2714 H   0  0  0  0  0  0  0  0  0  0  0  0
   -1.7849  -11.8194   -6.9966 H   0  0  0  0  0  0  0  0  0  0  0  0
   -4.6413    0.3517   -3.4407 H   0  0  0  0  0  0  0  0  0  0  0  0
   -3.3797    1.3665   -2.6660 H   0  0  0  0  0  0  0  0  0  0  0  0
   -4.0168    0.3997   -0.4106 H   0  0  0  0  0  0  0  0  0  0  0  0
   -5.3723    1.2763   -1.2195 H   0  0  0  0  0  0  0  0  0  0  0  0
   -5.3469   -0.5256   -1.2222 H   0  0  0  0  0  0  0  0  0  0  0  0
    2.8525    0.5210   -5.4366 H   0  0  0  0  0  0  0  0  0  0  0  0
    2.3246    2.6411   -6.5175 H   0  0  0  0  0  0  0  0  0  0  0  0
    3.1066    5.3266   -5.2304 H   0  0  0  0  0  0  0  0  0  0  0  0
    2.2054    6.8544   -5.5600 H   0  0  0  0  0  0  0  0  0  0  0  0
    2.0249    6.0369   -3.9596 H   0  0  0  0  0  0  0  0  0  0  0  0
    0.1811    3.9330   -3.0252 H   0  0  0  0  0  0  0  0  0  0  0  0
    0.6929    1.8226   -1.9135 H   0  0  0  0  0  0  0  0  0  0  0  0
    0.8716   -1.4308   -5.2157 H   0  0  0  0  0  0  0  0  0  0  0  0
    1.6948   -3.3836   -6.4712 H   0  0  0  0  0  0  0  0  0  0  0  0
    5.8822   -4.9910   -7.5296 H   0  0  0  0  0  0  0  0  0  0  0  0
    5.8224   -3.6110   -6.3695 H   0  0  0  0  0  0  0  0  0  0  0  0
    4.7197   -3.6397   -7.8321 H   0  0  0  0  0  0  0  0  0  0  0  0
    4.9742   -3.7915   -3.7125 H   0  0  0  0  0  0  0  0  0  0  0  0
    4.1746   -1.8320   -2.4690 H   0  0  0  0  0  0  0  0  0  0  0  0
    4.7486    0.4504    2.9227 H   0  0  0  0  0  0  0  0  0  0  0  0
    6.4457   -0.2637    4.5175 H   0  0  0  0  0  0  0  0  0  0  0  0
    6.0881    0.5522    7.7364 H   0  0  0  0  0  0  0  0  0  0  0  0
    6.8852   -0.4953    8.9755 H   0  0  0  0  0  0  0  0  0  0  0  0
    5.0969   -0.5901    8.7426 H   0  0  0  0  0  0  0  0  0  0  0  0
    3.3895   -1.8902    7.0707 H   0  0  0  0  0  0  0  0  0  0  0  0
    1.6715   -1.0091    5.6066 H   0  0  0  0  0  0  0  0  0  0  0  0
    0.0276    1.8820    2.7249 H   0  0  0  0  0  0  0  0  0  0  0  0
   -2.3701    1.3871    2.5912 H   0  0  0  0  0  0  0  0  0  0  0  0
   -5.5058   -0.8240    4.5999 H   0  0  0  0  0  0  0  0  0  0  0  0
   -3.8766   -1.2063    5.2639 H   0  0  0  0  0  0  0  0  0  0  0  0
   -4.2471    0.4657    4.6599 H   0  0  0  0  0  0  0  0  0  0  0  0
   -1.6038   -2.7035    3.6688 H   0  0  0  0  0  0  0  0  0  0  0  0
    0.8022   -2.2371    3.7588 H   0  0  0  0  0  0  0  0  0  0  0  0
    4.9271    8.4708   -0.1445 H   0  0  0  0  0  0  0  0  0  0  0  0
    5.7793    7.5223   -1.3908 H   0  0  0  0  0  0  0  0  0  0  0  0
    3.6029    7.1519   -2.5989 H   0  0  0  0  0  0  0  0  0  0  0  0
    2.7495    8.1048   -1.3180 H   0  0  0  0  0  0  0  0  0  0  0  0
    3.9694    8.9154   -2.3785 H   0  0  0  0  0  0  0  0  0  0  0  0
    5.6897    3.7771   -1.9391 H   0  0  0  0  0  0  0  0  0  0  0  0
    5.5991    5.4791   -2.4429 H   0  0  0  0  0  0  0  0  0  0  0  0
    7.9395    4.9558   -2.0351 H   0  0  0  0  0  0  0  0  0  0  0  0
    7.5691    4.1670   -0.4574 H   0  0  0  0  0  0  0  0  0  0  0  0
    7.4225    5.9611   -0.6152 H   0  0  0  0  0  0  0  0  0  0  0  0
    1.9264    7.8473    2.4472 H   0  0  0  0  0  0  0  0  0  0  0  0
   -1.4489    9.4891    6.5572 H   0  0  0  0  0  0  0  0  0  0  0  0
   -3.9268    6.6777    3.0970 H   0  0  0  0  0  0  0  0  0  0  0  0
   -6.0440    8.8679    4.7447 H   0  0  0  0  0  0  0  0  0  0  0  0
   -6.2936    6.2574    5.6572 H   0  0  0  0  0  0  0  0  0  0  0  0
   -8.1251    7.6080    7.0271 H   0  0  0  0  0  0  0  0  0  0  0  0
   -6.8992    9.0623    8.8167 H   0  0  0  0  0  0  0  0  0  0  0  0
   -4.2849    8.6283    8.6002 H   0  0  0  0  0  0  0  0  0  0  0  0
   -5.2995    6.2112    8.1241 H   0  0  0  0  0  0  0  0  0  0  0  0
   -3.9601    6.5421    6.9548 H   0  0  0  0  0  0  0  0  0  0  0  0
   -4.9164   10.1991    6.3973 H   0  0  0  0  0  0  0  0  0  0  0  0
  1  2  2  3
  2  3  1  0
  3  4  2  0
  3  5  1  0
  5  6  2  0
  6  7  1  0
  7  8  2  0
  8  9  1  0
  9 10  2  0
 10 11  1  0
 11 12  2  3
 12 13  1  0
 13 14  3  0
 12 15  1  0
 15 16  3  0
  8 17  1  0
 17 18  1  0
 18 19  1  0
 19 20  2  0
 20 21  1  0
 21 22  1  0
 21 23  1  0
  1 24  1  0
 24 25  2  0
 25 26  1  0
 26 27  2  0
 27 28  1  0
 28 29  1  0
 29 30  2  0
 29 31  1  0
 31 32  1  0
 32 33  1  0
 31 34  1  0
 34 35  2  0
 34 36  1  0
 27 37  1  0
 37 38  2  0
 38 39  1  0
 39 40  1  0
 40 41  2  0
 41 42  1  0
 42 43  2  0
 43 44  1  0
 44 45  1  0
 43 46  1  0
 46 47  2  0
 39 48  1  0
 48 49  2  0
 49 50  1  0
 50 51  2  0
 51 52  1  0
 52 53  1  0
 51 54  1  0
 54 55  2  0
 38 56  1  0
 56 57  1  0
 57 58  1  0
 58 59  2  0
 59 60  1  0
 60 61  1  0
 61 62  2  0
 62 63  1  0
 63 64  2  0
 64 65  1  0
 65 66  1  0
 64 67  1  0
 67 68  2  0
 60 69  1  0
 69 70  2  0
 70 71  1  0
 71 72  2  0
 72 73  1  0
 73 74  1  0
 72 75  1  0
 75 76  2  0
 59 77  1  0
 77 78  1  0
 58 79  1  0
 79 80  2  0
 80 81  1  0
 80 82  1  0
 82 83  1  0
 82 84  2  0
 84 85  1  0
 85 86  2  0
 86 87  1  0
 87 88  1  0
 88 89  1  0
 87 90  2  0
 90 91  1  0
 91 92  2  0
 90 93  1  0
 93 94  1  0
 84 95  1  0
 95 96  2  3
 96 97  1  0
 97 98  2  0
 97 99  1  0
 99100  2  0
100101  1  0
101102  2  0
102103  1  0
103104  2  0
104105  1  0
105106  2  3
106107  1  0
107108  3  0
106109  1  0
109110  3  0
102111  1  0
111112  1  0
112113  1  0
113114  2  0
114115  1  0
115116  1  0
115117  1  0
 11  2  1  0
 23 17  1  0
 36 24  1  0
 78 37  1  0
 92 79  1  0
105 96  1  0
117111  1  0
 10  5  1  0
 22 18  1  0
 36 28  2  0
 47 40  1  0
 55 48  1  0
 77 56  2  0
 92 85  1  0
104 99  1  0
116112  1  0
 23  7  1  0
 68 61  1  0
 76 69  1  0
117101  1  0
  1118  1  0
  6119  1  0
  9120  1  0
 17121  1  0
 18122  1  0
 19123  1  0
 20124  1  0
 21125  1  0
 22126  1  0
 22127  1  0
 23128  1  0
 32129  1  0
 32130  1  0
 33131  1  0
 33132  1  0
 33133  1  0
 41134  1  0
 42135  1  0
 45136  1  0
 45137  1  0
 45138  1  0
 46139  1  0
 47140  1  0
 49141  1  0
 50142  1  0
 53143  1  0
 53144  1  0
 53145  1  0
 54146  1  0
 55147  1  0
 62148  1  0
 63149  1  0
 66150  1  0
 66151  1  0
 66152  1  0
 67153  1  0
 68154  1  0
 70155  1  0
 71156  1  0
 74157  1  0
 74158  1  0
 74159  1  0
 75160  1  0
 76161  1  0
 88162  1  0
 88163  1  0
 89164  1  0
 89165  1  0
 89166  1  0
 93167  1  0
 93168  1  0
 94169  1  0
 94170  1  0
 94171  1  0
 95172  1  0
100173  1  0
103174  1  0
111175  1  0
112176  1  0
113177  1  0
114178  1  0
115179  1  0
116180  1  0
116181  1  0
117182  1  0
M  END

