
     RDKit          3D

209231  0  0  0  0  0  0  0  0999 V2000
   -6.9320    6.2995   -1.8718 C   0  0  0  0  0  0  0  0  0  0  0  0
   -7.5267    5.6454   -2.8921 C   0  0  0  0  0  0  0  0  0  0  0  0
   -6.8857    5.3150   -4.1641 C   0  0  0  0  0  0  0  0  0  0  0  0
   -6.1707    6.0943   -4.8459 O   0  0  0  0  0  0  0  0  0  0  0  0
   -7.3088    3.9931   -4.5749 C   0  0  0  0  0  0  0  0  0  0  0  0
   -6.8225    3.2304   -5.6660 C   0  0  0  0  0  0  0  0  0  0  0  0
   -7.3224    1.9439   -5.7193 C   0  0  0  0  0  0  0  0  0  0  0  0
   -8.2531    1.4254   -4.7582 C   0  0  0  0  0  0  0  0  0  0  0  0
   -8.7466    2.1709   -3.6993 C   0  0  0  0  0  0  0  0  0  0  0  0
   -8.2686    3.5082   -3.6475 C   0  0  0  0  0  0  0  0  0  0  0  0
   -8.5675    4.5936   -2.6782 C   0  0  0  0  0  0  0  0  0  0  0  0
   -9.6682    4.7071   -1.8901 C   0  0  0  0  0  0  0  0  0  0  0  0
  -10.6780    3.6837   -1.8326 C   0  0  0  0  0  0  0  0  0  0  0  0
  -11.4956    2.8633   -1.7832 N   0  0  0  0  0  0  0  0  0  0  0  0
   -9.9895    5.9465   -1.2233 C   0  0  0  0  0  0  0  0  0  0  0  0
  -10.2507    6.9513   -0.7209 N   0  0  0  0  0  0  0  0  0  0  0  0
   -8.2584    0.0976   -5.4598 C   0  0  0  0  0  0  0  0  0  0  0  0
   -7.4801   -1.0898   -4.8183 C   0  0  0  0  0  0  0  0  0  0  0  0
   -6.2974   -0.5744   -4.0287 C   0  0  0  0  0  0  0  0  0  0  0  0
   -5.4336   -0.0808   -4.9149 C   0  0  0  0  0  0  0  0  0  0  0  0
   -6.0543   -0.2782   -6.2797 C   0  0  0  0  0  0  0  0  0  0  0  0
   -6.7388   -1.6085   -6.0403 C   0  0  0  0  0  0  0  0  0  0  0  0
   -7.3072    0.6349   -6.4411 C   0  0  0  0  0  0  0  0  0  0  0  0
   -5.4662    6.2935   -1.6924 C   0  0  0  0  0  0  0  0  0  0  0  0
   -4.8622    5.5308   -0.7049 C   0  0  0  0  0  0  0  0  0  0  0  0
   -3.4781    5.3958   -0.8692 C   0  0  0  0  0  0  0  0  0  0  0  0
   -2.6385    4.6069   -0.0621 C   0  0  0  0  0  0  0  0  0  0  0  0
   -3.0647    4.0634    1.2516 C   0  0  0  0  0  0  0  0  0  0  0  0
   -2.4690    4.5772    2.4183 C   0  0  0  0  0  0  0  0  0  0  0  0
   -2.8278    4.0778    3.6673 C   0  0  0  0  0  0  0  0  0  0  0  0
   -3.7972    3.0781    3.7705 C   0  0  0  0  0  0  0  0  0  0  0  0
   -4.3905    2.5482    2.6136 C   0  0  0  0  0  0  0  0  0  0  0  0
   -5.6576    1.2896    2.7757 S   0  0  0  0  0  0  0  0  0  0  0  0
   -4.5006   -0.1057    3.0268 C   0  0  0  0  0  0  0  0  0  0  0  0
   -4.1007   -0.7106    1.6895 C   0  0  0  0  0  0  0  0  0  0  0  0
   -4.0226    3.0388    1.3542 C   0  0  0  0  0  0  0  0  0  0  0  0
   -1.3165    4.4634   -0.4936 C   0  0  0  0  0  0  0  0  0  0  0  0
   -0.7869    5.1271   -1.6070 C   0  0  0  0  0  0  0  0  0  0  0  0
   -1.5894    6.0604   -2.3245 C   0  0  0  0  0  0  0  0  0  0  0  0
   -0.9659    7.0418   -3.2614 C   0  0  0  0  0  0  0  0  0  0  0  0
   -1.5267    7.3503   -4.5156 C   0  0  0  0  0  0  0  0  0  0  0  0
   -0.8751    8.2223   -5.3878 C   0  0  0  0  0  0  0  0  0  0  0  0
    0.3187    8.8375   -5.0072 C   0  0  0  0  0  0  0  0  0  0  0  0
    0.8341    8.6201   -3.7320 C   0  0  0  0  0  0  0  0  0  0  0  0
    2.2950    9.5143   -3.1817 S   0  0  0  0  0  0  0  0  0  0  0  0
    3.4821    8.2356   -3.7029 C   0  0  0  0  0  0  0  0  0  0  0  0
    4.8983    8.7336   -3.4722 C   0  0  0  0  0  0  0  0  0  0  0  0
    0.2090    7.7115   -2.8717 C   0  0  0  0  0  0  0  0  0  0  0  0
   -2.9640    6.1029   -1.9666 C   0  0  0  0  0  0  0  0  0  0  0  0
   -4.2571    6.8894   -2.7226 S   0  0  0  0  0  0  0  0  0  0  0  0
    0.5485    4.7392   -1.8777 C   0  0  0  0  0  0  0  0  0  0  0  0
    1.0334    3.7928   -0.9666 C   0  0  0  0  0  0  0  0  0  0  0  0
   -0.1675    3.4478    0.1623 S   0  0  0  0  0  0  0  0  0  0  0  0
    2.2951    3.0263   -0.9760 C   0  0  0  0  0  0  0  0  0  0  0  0
    2.7482    2.1505   -1.9971 C   0  0  0  0  0  0  0  0  0  0  0  0
    2.4506    2.2551   -3.4034 N   0  0  0  0  0  0  0  0  0  0  0  0
    1.1075    2.4316   -3.9044 C   0  0  0  0  0  0  0  0  0  0  0  0
    0.9002    3.1464   -5.0975 C   0  0  0  0  0  0  0  0  0  0  0  0
   -0.3617    3.1861   -5.6847 C   0  0  0  0  0  0  0  0  0  0  0  0
   -1.4372    2.5440   -5.0730 C   0  0  0  0  0  0  0  0  0  0  0  0
   -3.0466    2.5922   -5.8422 S   0  0  0  0  0  0  0  0  0  0  0  0
   -3.5066    4.1218   -4.9790 C   0  0  0  0  0  0  0  0  0  0  0  0
   -1.2620    1.9079   -3.8383 C   0  0  0  0  0  0  0  0  0  0  0  0
    0.0106    1.8208   -3.2712 C   0  0  0  0  0  0  0  0  0  0  0  0
    3.5137    2.0057   -4.3444 C   0  0  0  0  0  0  0  0  0  0  0  0
    3.3173    1.1152   -5.4174 C   0  0  0  0  0  0  0  0  0  0  0  0
    4.3442    0.8768   -6.3348 C   0  0  0  0  0  0  0  0  0  0  0  0
    5.5838    1.5005   -6.1735 C   0  0  0  0  0  0  0  0  0  0  0  0
    6.9129    1.1406   -7.3224 S   0  0  0  0  0  0  0  0  0  0  0  0
    7.5109   -0.2818   -6.3535 C   0  0  0  0  0  0  0  0  0  0  0  0
    5.7942    2.3787   -5.1000 C   0  0  0  0  0  0  0  0  0  0  0  0
    4.7621    2.6346   -4.1958 C   0  0  0  0  0  0  0  0  0  0  0  0
    3.5134    1.1007   -1.4693 C   0  0  0  0  0  0  0  0  0  0  0  0
    3.7625   -0.4744   -2.0187 S   0  0  0  0  0  0  0  0  0  0  0  0
    4.1401   -1.1087   -0.4826 C   0  0  0  0  0  0  0  0  0  0  0  0
    4.0297   -0.0825    0.4697 C   0  0  0  0  0  0  0  0  0  0  0  0
    3.8344   -0.3244    1.8743 N   0  0  0  0  0  0  0  0  0  0  0  0
    4.9232   -0.0130    2.7577 C   0  0  0  0  0  0  0  0  0  0  0  0
    5.8907   -0.9827    3.0419 C   0  0  0  0  0  0  0  0  0  0  0  0
    7.0143   -0.6685    3.7999 C   0  0  0  0  0  0  0  0  0  0  0  0
    7.2061    0.6415    4.2545 C   0  0  0  0  0  0  0  0  0  0  0  0
    8.7133    1.0654    5.1289 S   0  0  0  0  0  0  0  0  0  0  0  0
    9.6593    1.3486    3.5984 C   0  0  0  0  0  0  0  0  0  0  0  0
    6.2256    1.6113    4.0171 C   0  0  0  0  0  0  0  0  0  0  0  0
    5.0858    1.2871    3.2651 C   0  0  0  0  0  0  0  0  0  0  0  0
    2.5806   -0.8562    2.3678 C   0  0  0  0  0  0  0  0  0  0  0  0
    2.5445   -1.6947    3.4993 C   0  0  0  0  0  0  0  0  0  0  0  0
    1.3351   -2.2345    3.9430 C   0  0  0  0  0  0  0  0  0  0  0  0
    0.1354   -1.9070    3.2952 C   0  0  0  0  0  0  0  0  0  0  0  0
   -1.4287   -2.5414    3.9080 S   0  0  0  0  0  0  0  0  0  0  0  0
   -1.5446   -3.8470    2.6490 C   0  0  0  0  0  0  0  0  0  0  0  0
    0.1591   -1.0724    2.1756 C   0  0  0  0  0  0  0  0  0  0  0  0
    1.3696   -0.5664    1.7037 C   0  0  0  0  0  0  0  0  0  0  0  0
    3.7092    1.1369   -0.1249 C   0  0  0  0  0  0  0  0  0  0  0  0
    2.9223    2.4661    0.5029 S   0  0  0  0  0  0  0  0  0  0  0  0
    4.1211   -2.5482   -0.1331 C   0  0  0  0  0  0  0  0  0  0  0  0
    5.2872   -3.1687    0.3434 C   0  0  0  0  0  0  0  0  0  0  0  0
    6.4912   -2.5475    0.2280 F   0  0  0  0  0  0  0  0  0  0  0  0
    5.2095   -4.3997    1.0135 C   0  0  0  0  0  0  0  0  0  0  0  0
    3.9650   -5.0014    1.2655 C   0  0  0  0  0  0  0  0  0  0  0  0
    2.8239   -4.4694    0.6373 C   0  0  0  0  0  0  0  0  0  0  0  0
    1.6271   -5.1099    0.7132 N   0  0  0  0  0  0  0  0  0  0  0  0
    0.5201   -4.6205    0.0992 C   0  0  0  0  0  0  0  0  0  0  0  0
    0.5934   -3.4213   -0.5972 C   0  0  0  0  0  0  0  0  0  0  0  0
   -0.5470   -2.9463   -1.2483 O   0  0  0  0  0  0  0  0  0  0  0  0
   -0.5788   -1.7355   -1.9908 C   0  0  0  0  0  0  0  0  0  0  0  0
   -1.9373   -1.6095   -2.6602 C   0  0  0  0  0  0  0  0  0  0  0  0
    1.7755   -2.7465   -0.6533 N   0  0  0  0  0  0  0  0  0  0  0  0
    2.9005   -3.2452   -0.0657 C   0  0  0  0  0  0  0  0  0  0  0  0
    3.8275   -6.1997    2.1372 C   0  0  0  0  0  0  0  0  0  0  0  0
    4.1195   -6.2319    3.4624 C   0  0  0  0  0  0  0  0  0  0  0  0
    4.7671   -5.1476    4.2131 C   0  0  0  0  0  0  0  0  0  0  0  0
    5.3184   -4.1234    3.7338 O   0  0  0  0  0  0  0  0  0  0  0  0
    4.7190   -5.4278    5.6160 C   0  0  0  0  0  0  0  0  0  0  0  0
    5.1543   -4.5677    6.6469 C   0  0  0  0  0  0  0  0  0  0  0  0
    4.8724   -5.0286    7.9133 C   0  0  0  0  0  0  0  0  0  0  0  0
    4.2145   -6.2710    8.1642 C   0  0  0  0  0  0  0  0  0  0  0  0
    3.8051   -7.1290    7.1541 C   0  0  0  0  0  0  0  0  0  0  0  0
    4.0717   -6.6692    5.8260 C   0  0  0  0  0  0  0  0  0  0  0  0
    3.6964   -7.2542    4.4936 C   0  0  0  0  0  0  0  0  0  0  0  0
    3.0725   -8.4544    4.2922 C   0  0  0  0  0  0  0  0  0  0  0  0
    2.7333   -8.9693    2.9916 C   0  0  0  0  0  0  0  0  0  0  0  0
    2.4428   -9.3955    1.9558 N   0  0  0  0  0  0  0  0  0  0  0  0
    2.6902   -9.3288    5.3636 C   0  0  0  0  0  0  0  0  0  0  0  0
    2.3509  -10.0554    6.2043 N   0  0  0  0  0  0  0  0  0  0  0  0
    4.2160   -5.9953    9.6374 C   0  0  0  0  0  0  0  0  0  0  0  0
    2.8496   -5.5694   10.2562 C   0  0  0  0  0  0  0  0  0  0  0  0
    3.1681   -4.9492   11.5960 C   0  0  0  0  0  0  0  0  0  0  0  0
    3.7725   -3.7805   11.3407 C   0  0  0  0  0  0  0  0  0  0  0  0
    3.8400   -3.6562    9.8411 C   0  0  0  0  0  0  0  0  0  0  0  0
    2.5084   -4.3031    9.4938 C   0  0  0  0  0  0  0  0  0  0  0  0
    4.8856   -4.7140    9.3740 C   0  0  0  0  0  0  0  0  0  0  0  0
   -7.4659    6.3449   -0.9327 H   0  0  0  0  0  0  0  0  0  0  0  0
   -6.1057    3.6094   -6.3812 H   0  0  0  0  0  0  0  0  0  0  0  0
   -9.4129    1.7352   -2.9748 H   0  0  0  0  0  0  0  0  0  0  0  0
   -9.2434   -0.1724   -5.8991 H   0  0  0  0  0  0  0  0  0  0  0  0
   -8.1061   -1.8387   -4.2892 H   0  0  0  0  0  0  0  0  0  0  0  0
   -6.1187   -0.6858   -2.9676 H   0  0  0  0  0  0  0  0  0  0  0  0
   -4.4301    0.2581   -4.6922 H   0  0  0  0  0  0  0  0  0  0  0  0
   -5.3404   -0.2524   -7.1270 H   0  0  0  0  0  0  0  0  0  0  0  0
   -6.0228   -2.4369   -5.8124 H   0  0  0  0  0  0  0  0  0  0  0  0
   -7.4097   -1.9197   -6.8704 H   0  0  0  0  0  0  0  0  0  0  0  0
   -7.7159    0.6953   -7.4717 H   0  0  0  0  0  0  0  0  0  0  0  0
   -5.4333    5.0188    0.0658 H   0  0  0  0  0  0  0  0  0  0  0  0
   -1.7212    5.3620    2.3451 H   0  0  0  0  0  0  0  0  0  0  0  0
   -2.3582    4.4763    4.5552 H   0  0  0  0  0  0  0  0  0  0  0  0
   -4.0802    2.7116    4.7516 H   0  0  0  0  0  0  0  0  0  0  0  0
   -3.6007    0.2106    3.5930 H   0  0  0  0  0  0  0  0  0  0  0  0
   -5.0247   -0.8797    3.6280 H   0  0  0  0  0  0  0  0  0  0  0  0
   -3.5576    0.0394    1.0805 H   0  0  0  0  0  0  0  0  0  0  0  0
   -5.0085   -1.0535    1.1455 H   0  0  0  0  0  0  0  0  0  0  0  0
   -3.4409   -1.5871    1.8570 H   0  0  0  0  0  0  0  0  0  0  0  0
   -4.4847    2.6307    0.4630 H   0  0  0  0  0  0  0  0  0  0  0  0
   -2.4623    6.9231   -4.8399 H   0  0  0  0  0  0  0  0  0  0  0  0
   -1.2923    8.4131   -6.3676 H   0  0  0  0  0  0  0  0  0  0  0  0
    0.8124    9.5131   -5.6883 H   0  0  0  0  0  0  0  0  0  0  0  0
    3.3168    7.3123   -3.1122 H   0  0  0  0  0  0  0  0  0  0  0  0
    3.3421    8.0087   -4.7810 H   0  0  0  0  0  0  0  0  0  0  0  0
    5.0679    9.6859   -4.0200 H   0  0  0  0  0  0  0  0  0  0  0  0
    5.6286    7.9783   -3.8323 H   0  0  0  0  0  0  0  0  0  0  0  0
    5.0714    8.9063   -2.3881 H   0  0  0  0  0  0  0  0  0  0  0  0
    0.6330    7.5367   -1.8872 H   0  0  0  0  0  0  0  0  0  0  0  0
    1.1283    5.0888   -2.7168 H   0  0  0  0  0  0  0  0  0  0  0  0
    1.7185    3.6540   -5.5863 H   0  0  0  0  0  0  0  0  0  0  0  0
   -0.4998    3.7154   -6.6184 H   0  0  0  0  0  0  0  0  0  0  0  0
   -2.6146    4.7535   -4.8108 H   0  0  0  0  0  0  0  0  0  0  0  0
   -3.9845    3.8773   -4.0078 H   0  0  0  0  0  0  0  0  0  0  0  0
   -4.2081    4.6957   -5.6146 H   0  0  0  0  0  0  0  0  0  0  0  0
   -2.1167    1.4809   -3.3297 H   0  0  0  0  0  0  0  0  0  0  0  0
    0.1430    1.2769   -2.3445 H   0  0  0  0  0  0  0  0  0  0  0  0
    2.3718    0.6078   -5.5438 H   0  0  0  0  0  0  0  0  0  0  0  0
    4.1802    0.1947   -7.1565 H   0  0  0  0  0  0  0  0  0  0  0  0
    7.9726    0.0873   -5.4170 H   0  0  0  0  0  0  0  0  0  0  0  0
    6.6758   -0.9760   -6.1238 H   0  0  0  0  0  0  0  0  0  0  0  0
    8.2792   -0.8254   -6.9431 H   0  0  0  0  0  0  0  0  0  0  0  0
    6.7549    2.8573   -4.9662 H   0  0  0  0  0  0  0  0  0  0  0  0
    4.9304    3.3232   -3.3795 H   0  0  0  0  0  0  0  0  0  0  0  0
    5.7731   -1.9808    2.6641 H   0  0  0  0  0  0  0  0  0  0  0  0
    7.7633   -1.4255    3.9912 H   0  0  0  0  0  0  0  0  0  0  0  0
    9.6373    0.4421    2.9593 H   0  0  0  0  0  0  0  0  0  0  0  0
   10.7152    1.5696    3.8575 H   0  0  0  0  0  0  0  0  0  0  0  0
    9.2315    2.2095    3.0441 H   0  0  0  0  0  0  0  0  0  0  0  0
    6.3620    2.6212    4.3803 H   0  0  0  0  0  0  0  0  0  0  0  0
    4.3459    2.0520    3.0695 H   0  0  0  0  0  0  0  0  0  0  0  0
    3.4561   -1.9547    4.0239 H   0  0  0  0  0  0  0  0  0  0  0  0
    1.3248   -2.8873    4.8061 H   0  0  0  0  0  0  0  0  0  0  0  0
   -0.6963   -4.5549    2.7543 H   0  0  0  0  0  0  0  0  0  0  0  0
   -2.4973   -4.3978    2.7759 H   0  0  0  0  0  0  0  0  0  0  0  0
   -1.5368   -3.3930    1.6370 H   0  0  0  0  0  0  0  0  0  0  0  0
   -0.7607   -0.8215    1.6603 H   0  0  0  0  0  0  0  0  0  0  0  0
    1.3513    0.0538    0.8177 H   0  0  0  0  0  0  0  0  0  0  0  0
    6.1143   -4.8541    1.4016 H   0  0  0  0  0  0  0  0  0  0  0  0
   -0.4113   -5.1653    0.1543 H   0  0  0  0  0  0  0  0  0  0  0  0
   -0.4061   -0.8756   -1.3051 H   0  0  0  0  0  0  0  0  0  0  0  0
    0.2158   -1.7534   -2.7681 H   0  0  0  0  0  0  0  0  0  0  0  0
   -1.9403   -0.7245   -3.3179 H   0  0  0  0  0  0  0  0  0  0  0  0
   -2.7319   -1.5014   -1.8955 H   0  0  0  0  0  0  0  0  0  0  0  0
   -2.1458   -2.4968   -3.2874 H   0  0  0  0  0  0  0  0  0  0  0  0
    3.2550   -6.9870    1.6896 H   0  0  0  0  0  0  0  0  0  0  0  0
    5.6049   -3.5994    6.4646 H   0  0  0  0  0  0  0  0  0  0  0  0
    3.2856   -8.0305    7.4076 H   0  0  0  0  0  0  0  0  0  0  0  0
    4.8177   -6.7137   10.2333 H   0  0  0  0  0  0  0  0  0  0  0  0
    2.0648   -6.3537   10.2711 H   0  0  0  0  0  0  0  0  0  0  0  0
    2.8861   -5.3130   12.5784 H   0  0  0  0  0  0  0  0  0  0  0  0
    4.0592   -3.0377   12.0802 H   0  0  0  0  0  0  0  0  0  0  0  0
    3.9872   -2.6279    9.4522 H   0  0  0  0  0  0  0  0  0  0  0  0
    2.3396   -4.4488    8.4061 H   0  0  0  0  0  0  0  0  0  0  0  0
    1.6256   -3.7599    9.9084 H   0  0  0  0  0  0  0  0  0  0  0  0
    5.9023   -4.6220    9.8108 H   0  0  0  0  0  0  0  0  0  0  0  0
  1  2  2  3
  2  3  1  0
  3  4  2  0
  3  5  1  0
  5  6  2  0
  6  7  1  0
  7  8  2  0
  8  9  1  0
  9 10  2  0
 10 11  1  0
 11 12  2  3
 12 13  1  0
 13 14  3  0
 12 15  1  0
 15 16  3  0
  8 17  1  0
 17 18  1  0
 18 19  1  0
 19 20  2  0
 20 21  1  0
 21 22  1  0
 21 23  1  0
  1 24  1  0
 24 25  2  0
 25 26  1  0
 26 27  2  0
 27 28  1  0
 28 29  2  0
 29 30  1  0
 30 31  2  0
 31 32  1  0
 32 33  1  0
 33 34  1  0
 34 35  1  0
 32 36  2  0
 27 37  1  0
 37 38  2  0
 38 39  1  0
 39 40  1  0
 40 41  2  0
 41 42  1  0
 42 43  2  0
 43 44  1  0
 44 45  1  0
 45 46  1  0
 46 47  1  0
 44 48  2  0
 39 49  2  0
 49 50  1  0
 38 51  1  0
 51 52  2  0
 52 53  1  0
 52 54  1  0
 54 55  2  0
 55 56  1  0
 56 57  1  0
 57 58  2  0
 58 59  1  0
 59 60  2  0
 60 61  1  0
 61 62  1  0
 60 63  1  0
 63 64  2  0
 56 65  1  0
 65 66  2  0
 66 67  1  0
 67 68  2  0
 68 69  1  0
 69 70  1  0
 68 71  1  0
 71 72  2  0
 55 73  1  0
 73 74  1  0
 74 75  1  0
 75 76  2  0
 76 77  1  0
 77 78  1  0
 78 79  2  0
 79 80  1  0
 80 81  2  0
 81 82  1  0
 82 83  1  0
 81 84  1  0
 84 85  2  0
 77 86  1  0
 86 87  2  0
 87 88  1  0
 88 89  2  0
 89 90  1  0
 90 91  1  0
 89 92  1  0
 92 93  2  0
 76 94  1  0
 94 95  1  0
 75 96  1  0
 96 97  2  0
 97 98  1  0
 97 99  1  0
 99100  2  0
100101  1  0
101102  2  0
102103  1  0
103104  2  0
104105  1  0
105106  1  0
106107  1  0
104108  1  0
108109  2  0
100110  1  0
110111  2  3
111112  1  0
112113  2  0
112114  1  0
114115  2  0
115116  1  0
116117  2  0
117118  1  0
118119  2  0
119120  1  0
120121  2  3
121122  1  0
122123  3  0
121124  1  0
124125  3  0
117126  1  0
126127  1  0
127128  1  0
128129  2  0
129130  1  0
130131  1  0
130132  1  0
 11  2  1  0
 23 17  1  0
 50 24  1  0
 95 54  1  0
109 96  1  0
120111  1  0
132126  1  0
 10  5  1  0
 22 18  1  0
 49 26  1  0
 64 57  1  0
 72 65  1  0
 94 73  2  0
109101  1  0
119114  1  0
131127  1  0
 23  7  1  0
 36 28  1  0
 53 37  1  0
 85 78  1  0
 93 86  1  0
132116  1  0
 48 40  1  0
  1133  1  0
  6134  1  0
  9135  1  0
 17136  1  0
 18137  1  0
 19138  1  0
 20139  1  0
 21140  1  0
 22141  1  0
 22142  1  0
 23143  1  0
 25144  1  0
 29145  1  0
 30146  1  0
 31147  1  0
 34148  1  0
 34149  1  0
 35150  1  0
 35151  1  0
 35152  1  0
 36153  1  0
 41154  1  0
 42155  1  0
 43156  1  0
 46157  1  0
 46158  1  0
 47159  1  0
 47160  1  0
 47161  1  0
 48162  1  0
 51163  1  0
 58164  1  0
 59165  1  0
 62166  1  0
 62167  1  0
 62168  1  0
 63169  1  0
 64170  1  0
 66171  1  0
 67172  1  0
 70173  1  0
 70174  1  0
 70175  1  0
 71176  1  0
 72177  1  0
 79178  1  0
 80179  1  0
 83180  1  0
 83181  1  0
 83182  1  0
 84183  1  0
 85184  1  0
 87185  1  0
 88186  1  0
 91187  1  0
 91188  1  0
 91189  1  0
 92190  1  0
 93191  1  0
 99192  1  0
103193  1  0
106194  1  0
106195  1  0
107196  1  0
107197  1  0
107198  1  0
110199  1  0
115200  1  0
118201  1  0
126202  1  0
127203  1  0
128204  1  0
129205  1  0
130206  1  0
131207  1  0
131208  1  0
132209  1  0
M  END

