
     RDKit          3D

250276  0  0  0  0  0  0  0  0999 V2000
   10.1674   -1.2221   -7.4510 C   0  0  0  0  0  0  0  0  0  0  0  0
   10.2119    0.1146   -7.6360 C   0  0  0  0  0  0  0  0  0  0  0  0
    9.1761    1.0704   -7.2031 C   0  0  0  0  0  0  0  0  0  0  0  0
    7.9439    0.8511   -7.0908 O   0  0  0  0  0  0  0  0  0  0  0  0
    9.8008    2.3368   -6.9212 C   0  0  0  0  0  0  0  0  0  0  0  0
    9.1983    3.4523   -6.2957 C   0  0  0  0  0  0  0  0  0  0  0  0
   10.0869    4.4594   -5.9824 C   0  0  0  0  0  0  0  0  0  0  0  0
   11.4937    4.3807   -6.2522 C   0  0  0  0  0  0  0  0  0  0  0  0
   12.0872    3.2861   -6.8687 C   0  0  0  0  0  0  0  0  0  0  0  0
   11.1814    2.2504   -7.2331 C   0  0  0  0  0  0  0  0  0  0  0  0
   11.4558    0.9123   -7.8266 C   0  0  0  0  0  0  0  0  0  0  0  0
   12.5100    0.5617   -8.6008 C   0  0  0  0  0  0  0  0  0  0  0  0
   13.6257    1.4463   -8.8297 C   0  0  0  0  0  0  0  0  0  0  0  0
   14.5272    2.1452   -9.0143 N   0  0  0  0  0  0  0  0  0  0  0  0
   12.4790   -0.6310   -9.4089 C   0  0  0  0  0  0  0  0  0  0  0  0
   12.4360   -1.5697  -10.0769 N   0  0  0  0  0  0  0  0  0  0  0  0
   11.7125    5.7017   -5.5720 C   0  0  0  0  0  0  0  0  0  0  0  0
   12.3340    5.6949   -4.1422 C   0  0  0  0  0  0  0  0  0  0  0  0
   11.9377    4.4347   -3.4109 C   0  0  0  0  0  0  0  0  0  0  0  0
   10.6293    4.5178   -3.1792 C   0  0  0  0  0  0  0  0  0  0  0  0
   10.1754    5.8361   -3.7629 C   0  0  0  0  0  0  0  0  0  0  0  0
   11.3993    6.6742   -3.4523 C   0  0  0  0  0  0  0  0  0  0  0  0
   10.2708    5.7885   -5.3151 C   0  0  0  0  0  0  0  0  0  0  0  0
    9.0698   -1.8457   -6.6970 C   0  0  0  0  0  0  0  0  0  0  0  0
    7.7563   -1.9518   -7.1561 C   0  0  0  0  0  0  0  0  0  0  0  0
    6.8130   -1.9400   -6.1116 C   0  0  0  0  0  0  0  0  0  0  0  0
    5.4100   -1.8231   -6.2451 C   0  0  0  0  0  0  0  0  0  0  0  0
    4.7194   -1.9516   -7.5408 C   0  0  0  0  0  0  0  0  0  0  0  0
    3.7540   -2.9101   -7.8407 C   0  0  0  0  0  0  0  0  0  0  0  0
    3.2552   -2.8067   -9.1484 C   0  0  0  0  0  0  0  0  0  0  0  0
    2.2045   -3.7372   -9.6895 C   0  0  0  0  0  0  0  0  0  0  0  0
    0.8135   -3.2749   -9.2777 C   0  0  0  0  0  0  0  0  0  0  0  0
    3.7993   -1.7341   -9.8535 C   0  0  0  0  0  0  0  0  0  0  0  0
    3.3940   -1.2526  -11.4938 Cl  0  0  0  0  0  0  0  0  0  0  0  0
    4.9303   -0.9507   -8.8822 S   0  0  0  0  0  0  0  0  0  0  0  0
    4.6811   -1.5716   -5.0737 C   0  0  0  0  0  0  0  0  0  0  0  0
    5.2845   -1.4949   -3.8121 C   0  0  0  0  0  0  0  0  0  0  0  0
    6.6668   -1.7034   -3.6664 C   0  0  0  0  0  0  0  0  0  0  0  0
    7.3324   -1.6756   -2.3518 C   0  0  0  0  0  0  0  0  0  0  0  0
    7.9959   -2.7461   -1.7702 C   0  0  0  0  0  0  0  0  0  0  0  0
    8.4508   -2.4725   -0.4696 C   0  0  0  0  0  0  0  0  0  0  0  0
    9.0943   -3.5154    0.3999 C   0  0  0  0  0  0  0  0  0  0  0  0
    8.0334   -4.3401    1.1241 C   0  0  0  0  0  0  0  0  0  0  0  0
    8.1401   -1.1819   -0.0376 C   0  0  0  0  0  0  0  0  0  0  0  0
    7.3198   -0.3840   -1.2679 S   0  0  0  0  0  0  0  0  0  0  0  0
    8.4639   -0.4932    1.5451 Cl  0  0  0  0  0  0  0  0  0  0  0  0
    7.4039   -1.8997   -4.8430 C   0  0  0  0  0  0  0  0  0  0  0  0
    9.0710   -1.8375   -5.0124 S   0  0  0  0  0  0  0  0  0  0  0  0
    4.3844   -1.1767   -2.7894 C   0  0  0  0  0  0  0  0  0  0  0  0
    3.0888   -0.9714   -3.2505 C   0  0  0  0  0  0  0  0  0  0  0  0
    3.0344   -1.2393   -4.9189 S   0  0  0  0  0  0  0  0  0  0  0  0
    1.9340   -0.6633   -2.3981 C   0  0  0  0  0  0  0  0  0  0  0  0
    1.9789   -0.1283   -1.1023 C   0  0  0  0  0  0  0  0  0  0  0  0
    3.0440    0.7191   -0.6317 N   0  0  0  0  0  0  0  0  0  0  0  0
    3.4450    1.8652   -1.4171 C   0  0  0  0  0  0  0  0  0  0  0  0
    2.5138    2.5580   -2.2156 C   0  0  0  0  0  0  0  0  0  0  0  0
    2.9098    3.6855   -2.9441 C   0  0  0  0  0  0  0  0  0  0  0  0
    4.2279    4.1383   -2.8791 C   0  0  0  0  0  0  0  0  0  0  0  0
    4.7218    5.6154   -3.7678 S   0  0  0  0  0  0  0  0  0  0  0  0
    4.2568    6.7331   -2.4072 C   0  0  0  0  0  0  0  0  0  0  0  0
    5.1610    3.4491   -2.1003 C   0  0  0  0  0  0  0  0  0  0  0  0
    4.7702    2.3261   -1.3664 C   0  0  0  0  0  0  0  0  0  0  0  0
    3.4897    0.6282    0.7338 C   0  0  0  0  0  0  0  0  0  0  0  0
    3.2602    1.6889    1.6230 C   0  0  0  0  0  0  0  0  0  0  0  0
    3.7200    1.6137    2.9396 C   0  0  0  0  0  0  0  0  0  0  0  0
    4.4249    0.4858    3.3747 C   0  0  0  0  0  0  0  0  0  0  0  0
    4.9837    0.3791    5.0780 S   0  0  0  0  0  0  0  0  0  0  0  0
    3.4595   -0.4362    5.6400 C   0  0  0  0  0  0  0  0  0  0  0  0
    4.6864   -0.5554    2.4822 C   0  0  0  0  0  0  0  0  0  0  0  0
    4.1989   -0.4990    1.1752 C   0  0  0  0  0  0  0  0  0  0  0  0
    0.7044   -0.1200   -0.5306 C   0  0  0  0  0  0  0  0  0  0  0  0
    0.1022    0.3060    0.9721 S   0  0  0  0  0  0  0  0  0  0  0  0
   -1.5118   -0.0544    0.5661 C   0  0  0  0  0  0  0  0  0  0  0  0
   -1.6044   -0.4341   -0.7929 C   0  0  0  0  0  0  0  0  0  0  0  0
   -2.8290   -0.4968   -1.5773 N   0  0  0  0  0  0  0  0  0  0  0  0
   -4.0999   -0.0709   -1.0572 C   0  0  0  0  0  0  0  0  0  0  0  0
   -5.2447   -0.8382   -1.3136 C   0  0  0  0  0  0  0  0  0  0  0  0
   -6.4995   -0.4064   -0.8753 C   0  0  0  0  0  0  0  0  0  0  0  0
   -6.6233    0.8069   -0.1885 C   0  0  0  0  0  0  0  0  0  0  0  0
   -8.2267    1.3401    0.4141 S   0  0  0  0  0  0  0  0  0  0  0  0
   -8.5973    2.3107   -1.0773 C   0  0  0  0  0  0  0  0  0  0  0  0
   -5.4942    1.6084    0.0140 C   0  0  0  0  0  0  0  0  0  0  0  0
   -4.2462    1.1889   -0.4506 C   0  0  0  0  0  0  0  0  0  0  0  0
   -2.7402   -0.4762   -3.0089 C   0  0  0  0  0  0  0  0  0  0  0  0
   -2.5835    0.7541   -3.6695 C   0  0  0  0  0  0  0  0  0  0  0  0
   -2.4622    0.7949   -5.0598 C   0  0  0  0  0  0  0  0  0  0  0  0
   -2.5019   -0.3899   -5.7996 C   0  0  0  0  0  0  0  0  0  0  0  0
   -2.2937   -0.3272   -7.5789 S   0  0  0  0  0  0  0  0  0  0  0  0
   -0.4819   -0.4422   -7.4806 C   0  0  0  0  0  0  0  0  0  0  0  0
   -2.6704   -1.6189   -5.1483 C   0  0  0  0  0  0  0  0  0  0  0  0
   -2.7928   -1.6614   -3.7548 C   0  0  0  0  0  0  0  0  0  0  0  0
   -0.3136   -0.5240   -1.3396 C   0  0  0  0  0  0  0  0  0  0  0  0
    0.3280   -1.0150   -2.8121 S   0  0  0  0  0  0  0  0  0  0  0  0
   -2.5198   -0.2568    1.6064 C   0  0  0  0  0  0  0  0  0  0  0  0
   -2.9749   -1.5054    2.0532 C   0  0  0  0  0  0  0  0  0  0  0  0
   -2.6376   -2.7758    1.4745 N   0  0  0  0  0  0  0  0  0  0  0  0
   -3.6954   -3.7008    1.0953 C   0  0  0  0  0  0  0  0  0  0  0  0
   -3.4639   -5.0907    0.9951 C   0  0  0  0  0  0  0  0  0  0  0  0
   -4.5026   -5.9652    0.6593 C   0  0  0  0  0  0  0  0  0  0  0  0
   -5.7831   -5.4638    0.3912 C   0  0  0  0  0  0  0  0  0  0  0  0
   -7.1224   -6.5789   -0.0376 S   0  0  0  0  0  0  0  0  0  0  0  0
   -6.6567   -6.6730   -1.7982 C   0  0  0  0  0  0  0  0  0  0  0  0
   -6.0263   -4.0940    0.4960 C   0  0  0  0  0  0  0  0  0  0  0  0
   -5.0000   -3.2257    0.8619 C   0  0  0  0  0  0  0  0  0  0  0  0
   -1.2835   -3.2366    1.6340 C   0  0  0  0  0  0  0  0  0  0  0  0
   -0.5524   -3.6801    0.5220 C   0  0  0  0  0  0  0  0  0  0  0  0
    0.6916   -4.2923    0.6990 C   0  0  0  0  0  0  0  0  0  0  0  0
    1.2150   -4.4570    1.9873 C   0  0  0  0  0  0  0  0  0  0  0  0
    2.7269   -5.3874    2.2398 S   0  0  0  0  0  0  0  0  0  0  0  0
    3.7925   -3.9270    2.0974 C   0  0  0  0  0  0  0  0  0  0  0  0
    0.5169   -3.9598    3.0920 C   0  0  0  0  0  0  0  0  0  0  0  0
   -0.7251   -3.3488    2.9194 C   0  0  0  0  0  0  0  0  0  0  0  0
   -3.7041   -1.3790    3.2264 C   0  0  0  0  0  0  0  0  0  0  0  0
   -4.3155   -2.4777    4.3166 S   0  0  0  0  0  0  0  0  0  0  0  0
   -4.8781   -1.3133    5.4237 C   0  0  0  0  0  0  0  0  0  0  0  0
   -4.4981   -0.0308    4.9506 C   0  0  0  0  0  0  0  0  0  0  0  0
   -4.6705    1.2124    5.6719 N   0  0  0  0  0  0  0  0  0  0  0  0
   -3.6212    2.1977    5.6241 C   0  0  0  0  0  0  0  0  0  0  0  0
   -2.2862    1.8152    5.8254 C   0  0  0  0  0  0  0  0  0  0  0  0
   -1.2448    2.7104    5.5652 C   0  0  0  0  0  0  0  0  0  0  0  0
   -1.5316    3.9940    5.0903 C   0  0  0  0  0  0  0  0  0  0  0  0
   -0.1863    5.0796    4.6144 S   0  0  0  0  0  0  0  0  0  0  0  0
   -0.1414    4.4723    2.8951 C   0  0  0  0  0  0  0  0  0  0  0  0
   -2.8608    4.4101    4.9580 C   0  0  0  0  0  0  0  0  0  0  0  0
   -3.9034    3.5155    5.2289 C   0  0  0  0  0  0  0  0  0  0  0  0
   -5.8905    1.4849    6.3938 C   0  0  0  0  0  0  0  0  0  0  0  0
   -5.8384    2.0275    7.6874 C   0  0  0  0  0  0  0  0  0  0  0  0
   -6.9966    2.1076    8.4663 C   0  0  0  0  0  0  0  0  0  0  0  0
   -8.2134    1.6491    7.9557 C   0  0  0  0  0  0  0  0  0  0  0  0
   -9.6719    1.6279    9.0022 S   0  0  0  0  0  0  0  0  0  0  0  0
  -10.2169    3.2921    8.5176 C   0  0  0  0  0  0  0  0  0  0  0  0
   -8.2862    1.1649    6.6457 C   0  0  0  0  0  0  0  0  0  0  0  0
   -7.1310    1.0846    5.8657 C   0  0  0  0  0  0  0  0  0  0  0  0
   -3.8480   -0.1244    3.7096 C   0  0  0  0  0  0  0  0  0  0  0  0
   -3.0244    0.9472    2.7025 S   0  0  0  0  0  0  0  0  0  0  0  0
   -5.4975   -1.5984    6.7453 C   0  0  0  0  0  0  0  0  0  0  0  0
   -6.3312   -2.6221    7.0607 C   0  0  0  0  0  0  0  0  0  0  0  0
   -6.8144   -3.7052    6.1830 C   0  0  0  0  0  0  0  0  0  0  0  0
   -6.2025   -4.2474    5.2280 O   0  0  0  0  0  0  0  0  0  0  0  0
   -8.0643   -4.1995    6.6867 C   0  0  0  0  0  0  0  0  0  0  0  0
   -8.9061   -5.1501    6.0677 C   0  0  0  0  0  0  0  0  0  0  0  0
  -10.0918   -5.3641    6.7448 C   0  0  0  0  0  0  0  0  0  0  0  0
  -10.4406   -4.6801    7.9492 C   0  0  0  0  0  0  0  0  0  0  0  0
   -9.6103   -3.7540    8.5682 C   0  0  0  0  0  0  0  0  0  0  0  0
   -8.3648   -3.5452    7.9071 C   0  0  0  0  0  0  0  0  0  0  0  0
   -7.2307   -2.6466    8.2621 C   0  0  0  0  0  0  0  0  0  0  0  0
   -6.9543   -2.1504    9.4973 C   0  0  0  0  0  0  0  0  0  0  0  0
   -5.7083   -1.5046    9.8079 C   0  0  0  0  0  0  0  0  0  0  0  0
   -4.7060   -0.9843   10.0566 N   0  0  0  0  0  0  0  0  0  0  0  0
   -7.8225   -2.3659   10.6276 C   0  0  0  0  0  0  0  0  0  0  0  0
   -8.5088   -2.5427   11.5425 N   0  0  0  0  0  0  0  0  0  0  0  0
  -11.7652   -5.3805    7.9816 C   0  0  0  0  0  0  0  0  0  0  0  0
  -13.0064   -4.5446    7.5588 C   0  0  0  0  0  0  0  0  0  0  0  0
  -14.1083   -5.5416    7.2915 C   0  0  0  0  0  0  0  0  0  0  0  0
  -13.7697   -6.1915    6.1711 C   0  0  0  0  0  0  0  0  0  0  0  0
  -12.4557   -5.6066    5.7189 C   0  0  0  0  0  0  0  0  0  0  0  0
  -12.6928   -4.1628    6.1196 C   0  0  0  0  0  0  0  0  0  0  0  0
  -11.4004   -6.0901    6.7508 C   0  0  0  0  0  0  0  0  0  0  0  0
   11.0625   -1.8085   -7.5556 H   0  0  0  0  0  0  0  0  0  0  0  0
    8.1516    3.4902   -6.0172 H   0  0  0  0  0  0  0  0  0  0  0  0
   13.1573    3.2286   -6.9841 H   0  0  0  0  0  0  0  0  0  0  0  0
   12.0951    6.4970   -6.2501 H   0  0  0  0  0  0  0  0  0  0  0  0
   13.4147    5.9474   -4.0953 H   0  0  0  0  0  0  0  0  0  0  0  0
   12.5891    3.6384   -3.0640 H   0  0  0  0  0  0  0  0  0  0  0  0
   10.0360    3.8079   -2.6087 H   0  0  0  0  0  0  0  0  0  0  0  0
    9.2171    6.2212   -3.3579 H   0  0  0  0  0  0  0  0  0  0  0  0
   11.5988    6.7840   -2.3598 H   0  0  0  0  0  0  0  0  0  0  0  0
   11.3822    7.6817   -3.9302 H   0  0  0  0  0  0  0  0  0  0  0  0
    9.7738    6.6350   -5.8404 H   0  0  0  0  0  0  0  0  0  0  0  0
    7.4967   -1.8725   -8.2071 H   0  0  0  0  0  0  0  0  0  0  0  0
    3.4384   -3.6685   -7.1343 H   0  0  0  0  0  0  0  0  0  0  0  0
    2.3727   -4.7654   -9.2973 H   0  0  0  0  0  0  0  0  0  0  0  0
    2.2599   -3.7775  -10.7941 H   0  0  0  0  0  0  0  0  0  0  0  0
    0.7241   -3.2751   -8.1725 H   0  0  0  0  0  0  0  0  0  0  0  0
    0.6154   -2.2587   -9.6713 H   0  0  0  0  0  0  0  0  0  0  0  0
    0.0452   -3.9617   -9.6906 H   0  0  0  0  0  0  0  0  0  0  0  0
    8.1059   -3.7105   -2.2506 H   0  0  0  0  0  0  0  0  0  0  0  0
    9.7651   -3.0406    1.1456 H   0  0  0  0  0  0  0  0  0  0  0  0
    9.7152   -4.1937   -0.2269 H   0  0  0  0  0  0  0  0  0  0  0  0
    8.5257   -5.0993    1.7675 H   0  0  0  0  0  0  0  0  0  0  0  0
    7.4049   -3.6856    1.7613 H   0  0  0  0  0  0  0  0  0  0  0  0
    7.3929   -4.8698    0.3884 H   0  0  0  0  0  0  0  0  0  0  0  0
    4.6600   -1.1069   -1.7549 H   0  0  0  0  0  0  0  0  0  0  0  0
    1.4786    2.2421   -2.2624 H   0  0  0  0  0  0  0  0  0  0  0  0
    2.1808    4.2174   -3.5395 H   0  0  0  0  0  0  0  0  0  0  0  0
    4.7815    6.4389   -1.4724 H   0  0  0  0  0  0  0  0  0  0  0  0
    3.1571    6.6914   -2.2464 H   0  0  0  0  0  0  0  0  0  0  0  0
    4.5445    7.7707   -2.6709 H   0  0  0  0  0  0  0  0  0  0  0  0
    6.1934    3.7878   -2.0544 H   0  0  0  0  0  0  0  0  0  0  0  0
    5.5036    1.8231   -0.7508 H   0  0  0  0  0  0  0  0  0  0  0  0
    2.7249    2.5698    1.2967 H   0  0  0  0  0  0  0  0  0  0  0  0
    3.5218    2.4268    3.6265 H   0  0  0  0  0  0  0  0  0  0  0  0
    2.5759    0.2025    5.4153 H   0  0  0  0  0  0  0  0  0  0  0  0
    3.3442   -1.4184    5.1313 H   0  0  0  0  0  0  0  0  0  0  0  0
    3.5178   -0.5974    6.7316 H   0  0  0  0  0  0  0  0  0  0  0  0
    5.2586   -1.4155    2.8031 H   0  0  0  0  0  0  0  0  0  0  0  0
    4.4074   -1.3128    0.4968 H   0  0  0  0  0  0  0  0  0  0  0  0
   -5.1611   -1.7858   -1.8288 H   0  0  0  0  0  0  0  0  0  0  0  0
   -7.3741   -1.0219   -1.0580 H   0  0  0  0  0  0  0  0  0  0  0  0
   -7.8574    3.1239   -1.1881 H   0  0  0  0  0  0  0  0  0  0  0  0
   -9.6122    2.7555   -0.9769 H   0  0  0  0  0  0  0  0  0  0  0  0
   -8.5771    1.6564   -1.9736 H   0  0  0  0  0  0  0  0  0  0  0  0
   -5.5873    2.5622    0.5206 H   0  0  0  0  0  0  0  0  0  0  0  0
   -3.3900    1.8399   -0.3208 H   0  0  0  0  0  0  0  0  0  0  0  0
   -2.5275    1.6716   -3.0989 H   0  0  0  0  0  0  0  0  0  0  0  0
   -2.3126    1.7467   -5.5540 H   0  0  0  0  0  0  0  0  0  0  0  0
   -0.1944   -1.4199   -7.0387 H   0  0  0  0  0  0  0  0  0  0  0  0
   -0.0600   -0.3575   -8.4987 H   0  0  0  0  0  0  0  0  0  0  0  0
   -0.0647    0.3766   -6.8585 H   0  0  0  0  0  0  0  0  0  0  0  0
   -2.6941   -2.5377   -5.7210 H   0  0  0  0  0  0  0  0  0  0  0  0
   -2.9095   -2.6114   -3.2558 H   0  0  0  0  0  0  0  0  0  0  0  0
   -2.4902   -5.5125    1.1949 H   0  0  0  0  0  0  0  0  0  0  0  0
   -4.3150   -7.0291    0.6074 H   0  0  0  0  0  0  0  0  0  0  0  0
   -6.5741   -5.6559   -2.2381 H   0  0  0  0  0  0  0  0  0  0  0  0
   -7.4310   -7.2439   -2.3514 H   0  0  0  0  0  0  0  0  0  0  0  0
   -5.6873   -7.2028   -1.9018 H   0  0  0  0  0  0  0  0  0  0  0  0
   -7.0165   -3.7006    0.3068 H   0  0  0  0  0  0  0  0  0  0  0  0
   -5.2353   -2.1786    0.9802 H   0  0  0  0  0  0  0  0  0  0  0  0
   -0.9715   -3.5887   -0.4704 H   0  0  0  0  0  0  0  0  0  0  0  0
    1.2241   -4.6785   -0.1582 H   0  0  0  0  0  0  0  0  0  0  0  0
    4.8417   -4.2200    2.3035 H   0  0  0  0  0  0  0  0  0  0  0  0
    3.4764   -3.1586    2.8340 H   0  0  0  0  0  0  0  0  0  0  0  0
    3.7246   -3.5181    1.0682 H   0  0  0  0  0  0  0  0  0  0  0  0
    0.9181   -4.0843    4.0923 H   0  0  0  0  0  0  0  0  0  0  0  0
   -1.2819   -3.0273    3.7901 H   0  0  0  0  0  0  0  0  0  0  0  0
   -2.0536    0.8057    6.1315 H   0  0  0  0  0  0  0  0  0  0  0  0
   -0.2190    2.3855    5.6788 H   0  0  0  0  0  0  0  0  0  0  0  0
   -1.0315    4.8433    2.3438 H   0  0  0  0  0  0  0  0  0  0  0  0
   -0.1263    3.3630    2.8641 H   0  0  0  0  0  0  0  0  0  0  0  0
    0.7721    4.8589    2.4023 H   0  0  0  0  0  0  0  0  0  0  0  0
   -3.0860    5.4024    4.5923 H   0  0  0  0  0  0  0  0  0  0  0  0
   -4.9295    3.8292    5.0663 H   0  0  0  0  0  0  0  0  0  0  0  0
   -4.8894    2.3289    8.1145 H   0  0  0  0  0  0  0  0  0  0  0  0
   -6.9335    2.4833    9.4773 H   0  0  0  0  0  0  0  0  0  0  0  0
  -10.4617    3.3091    7.4350 H   0  0  0  0  0  0  0  0  0  0  0  0
   -9.4163    4.0300    8.7341 H   0  0  0  0  0  0  0  0  0  0  0  0
  -11.1228    3.5610    9.0981 H   0  0  0  0  0  0  0  0  0  0  0  0
   -9.2281    0.8167    6.2455 H   0  0  0  0  0  0  0  0  0  0  0  0
   -7.1955    0.6677    4.8692 H   0  0  0  0  0  0  0  0  0  0  0  0
   -5.3856   -0.8061    7.4570 H   0  0  0  0  0  0  0  0  0  0  0  0
   -8.6663   -5.6365    5.1314 H   0  0  0  0  0  0  0  0  0  0  0  0
   -9.9310   -3.2275    9.4523 H   0  0  0  0  0  0  0  0  0  0  0  0
  -11.8977   -6.0398    8.8711 H   0  0  0  0  0  0  0  0  0  0  0  0
  -13.2855   -3.7048    8.2301 H   0  0  0  0  0  0  0  0  0  0  0  0
  -15.0484   -5.6421    7.8190 H   0  0  0  0  0  0  0  0  0  0  0  0
  -14.3934   -6.9009    5.6415 H   0  0  0  0  0  0  0  0  0  0  0  0
  -12.2037   -5.7766    4.6506 H   0  0  0  0  0  0  0  0  0  0  0  0
  -13.5550   -3.6938    5.5861 H   0  0  0  0  0  0  0  0  0  0  0  0
  -11.7964   -3.5082    6.0108 H   0  0  0  0  0  0  0  0  0  0  0  0
  -11.2960   -7.1911    6.8634 H   0  0  0  0  0  0  0  0  0  0  0  0
  1  2  2  3
  2  3  1  0
  3  4  2  0
  3  5  1  0
  5  6  2  0
  6  7  1  0
  7  8  2  0
  8  9  1  0
  9 10  2  0
 10 11  1  0
 11 12  2  3
 12 13  1  0
 13 14  3  0
 12 15  1  0
 15 16  3  0
  8 17  1  0
 17 18  1  0
 18 19  1  0
 19 20  2  0
 20 21  1  0
 21 22  1  0
 21 23  1  0
  1 24  1  0
 24 25  2  0
 25 26  1  0
 26 27  2  0
 27 28  1  0
 28 29  2  0
 29 30  1  0
 30 31  1  0
 31 32  1  0
 30 33  2  0
 33 34  1  0
 33 35  1  0
 27 36  1  0
 36 37  2  0
 37 38  1  0
 38 39  1  0
 39 40  2  0
 40 41  1  0
 41 42  1  0
 42 43  1  0
 41 44  2  0
 44 45  1  0
 44 46  1  0
 38 47  2  0
 47 48  1  0
 37 49  1  0
 49 50  2  0
 50 51  1  0
 50 52  1  0
 52 53  2  0
 53 54  1  0
 54 55  1  0
 55 56  2  0
 56 57  1  0
 57 58  2  0
 58 59  1  0
 59 60  1  0
 58 61  1  0
 61 62  2  0
 54 63  1  0
 63 64  2  0
 64 65  1  0
 65 66  2  0
 66 67  1  0
 67 68  1  0
 66 69  1  0
 69 70  2  0
 53 71  1  0
 71 72  1  0
 72 73  1  0
 73 74  2  0
 74 75  1  0
 75 76  1  0
 76 77  2  0
 77 78  1  0
 78 79  2  0
 79 80  1  0
 80 81  1  0
 79 82  1  0
 82 83  2  0
 75 84  1  0
 84 85  2  0
 85 86  1  0
 86 87  2  0
 87 88  1  0
 88 89  1  0
 87 90  1  0
 90 91  2  0
 74 92  1  0
 92 93  1  0
 73 94  1  0
 94 95  2  0
 95 96  1  0
 96 97  1  0
 97 98  2  0
 98 99  1  0
 99100  2  0
100101  1  0
101102  1  0
100103  1  0
103104  2  0
 96105  1  0
105106  2  0
106107  1  0
107108  2  0
108109  1  0
109110  1  0
108111  1  0
111112  2  0
 95113  1  0
113114  1  0
114115  1  0
115116  2  0
116117  1  0
117118  1  0
118119  2  0
119120  1  0
120121  2  0
121122  1  0
122123  1  0
121124  1  0
124125  2  0
117126  1  0
126127  2  0
127128  1  0
128129  2  0
129130  1  0
130131  1  0
129132  1  0
132133  2  0
116134  1  0
134135  1  0
115136  1  0
136137  2  3
137138  1  0
138139  2  0
138140  1  0
140141  2  0
141142  1  0
142143  2  0
143144  1  0
144145  2  0
145146  1  0
146147  2  3
147148  1  0
148149  3  0
147150  1  0
150151  3  0
143152  1  0
152153  1  0
153154  1  0
154155  2  0
155156  1  0
156157  1  0
156158  1  0
 11  2  1  0
 23 17  1  0
 48 24  1  0
 93 52  1  0
135 94  1  0
146137  1  0
158152  1  0
 10  5  1  0
 22 18  1  0
 47 26  1  0
 62 55  1  0
 70 63  1  0
 92 71  2  0
104 97  1  0
112105  1  0
134113  2  0
145140  1  0
157153  1  0
 23  7  1  0
 35 28  1  0
 51 36  1  0
 83 76  1  0
 91 84  1  0
125118  1  0
133126  1  0
158142  1  0
 45 39  1  0
  1159  1  0
  6160  1  0
  9161  1  0
 17162  1  0
 18163  1  0
 19164  1  0
 20165  1  0
 21166  1  0
 22167  1  0
 22168  1  0
 23169  1  0
 25170  1  0
 29171  1  0
 31172  1  0
 31173  1  0
 32174  1  0
 32175  1  0
 32176  1  0
 40177  1  0
 42178  1  0
 42179  1  0
 43180  1  0
 43181  1  0
 43182  1  0
 49183  1  0
 56184  1  0
 57185  1  0
 60186  1  0
 60187  1  0
 60188  1  0
 61189  1  0
 62190  1  0
 64191  1  0
 65192  1  0
 68193  1  0
 68194  1  0
 68195  1  0
 69196  1  0
 70197  1  0
 77198  1  0
 78199  1  0
 81200  1  0
 81201  1  0
 81202  1  0
 82203  1  0
 83204  1  0
 85205  1  0
 86206  1  0
 89207  1  0
 89208  1  0
 89209  1  0
 90210  1  0
 91211  1  0
 98212  1  0
 99213  1  0
102214  1  0
102215  1  0
102216  1  0
103217  1  0
104218  1  0
106219  1  0
107220  1  0
110221  1  0
110222  1  0
110223  1  0
111224  1  0
112225  1  0
119226  1  0
120227  1  0
123228  1  0
123229  1  0
123230  1  0
124231  1  0
125232  1  0
127233  1  0
128234  1  0
131235  1  0
131236  1  0
131237  1  0
132238  1  0
133239  1  0
136240  1  0
141241  1  0
144242  1  0
152243  1  0
153244  1  0
154245  1  0
155246  1  0
156247  1  0
157248  1  0
157249  1  0
158250  1  0
M  END

