
     RDKit          3D

224245  0  0  0  0  0  0  0  0999 V2000
   -3.0418    4.5297   -8.5175 C   0  0  0  0  0  0  0  0  0  0  0  0
   -3.2619    4.6466   -9.8313 C   0  0  0  0  0  0  0  0  0  0  0  0
   -2.6895    3.8081  -10.9397 C   0  0  0  0  0  0  0  0  0  0  0  0
   -2.0498    2.7275  -10.7607 O   0  0  0  0  0  0  0  0  0  0  0  0
   -2.9766    4.4517  -12.2328 C   0  0  0  0  0  0  0  0  0  0  0  0
   -2.6401    3.9638  -13.5640 C   0  0  0  0  0  0  0  0  0  0  0  0
   -3.2075    4.8136  -14.5186 C   0  0  0  0  0  0  0  0  0  0  0  0
   -3.9190    6.0562  -14.2151 C   0  0  0  0  0  0  0  0  0  0  0  0
   -4.2143    6.5122  -12.9893 C   0  0  0  0  0  0  0  0  0  0  0  0
   -3.6703    5.6983  -11.9561 C   0  0  0  0  0  0  0  0  0  0  0  0
   -3.8719    5.8446  -10.4678 C   0  0  0  0  0  0  0  0  0  0  0  0
   -4.3370    7.0579   -9.9962 C   0  0  0  0  0  0  0  0  0  0  0  0
   -5.1602    7.3043   -8.8672 C   0  0  0  0  0  0  0  0  0  0  0  0
   -5.8333    7.5748   -7.9612 N   0  0  0  0  0  0  0  0  0  0  0  0
   -3.9554    8.2838  -10.6965 C   0  0  0  0  0  0  0  0  0  0  0  0
   -3.5491    9.2295  -11.2397 N   0  0  0  0  0  0  0  0  0  0  0  0
   -4.4947    6.1295  -15.5681 C   0  0  0  0  0  0  0  0  0  0  0  0
   -6.0240    5.7137  -15.8061 C   0  0  0  0  0  0  0  0  0  0  0  0
   -6.5095    4.5997  -14.8774 C   0  0  0  0  0  0  0  0  0  0  0  0
   -5.8013    3.4965  -15.2163 C   0  0  0  0  0  0  0  0  0  0  0  0
   -4.8929    3.9085  -16.3480 C   0  0  0  0  0  0  0  0  0  0  0  0
   -5.8761    4.8547  -17.0604 C   0  0  0  0  0  0  0  0  0  0  0  0
   -3.7592    4.9167  -15.9112 C   0  0  0  0  0  0  0  0  0  0  0  0
   -2.1438    3.5287   -7.8408 C   0  0  0  0  0  0  0  0  0  0  0  0
   -1.1974    3.8908   -6.8247 C   0  0  0  0  0  0  0  0  0  0  0  0
   -0.8827    2.8308   -5.9419 C   0  0  0  0  0  0  0  0  0  0  0  0
   -0.0442    2.9389   -4.8100 C   0  0  0  0  0  0  0  0  0  0  0  0
    0.7872    4.1306   -4.5797 C   0  0  0  0  0  0  0  0  0  0  0  0
    0.2524    5.3100   -3.9809 C   0  0  0  0  0  0  0  0  0  0  0  0
    1.0239    6.4788   -3.9441 C   0  0  0  0  0  0  0  0  0  0  0  0
    2.3241    6.4805   -4.5158 C   0  0  0  0  0  0  0  0  0  0  0  0
    2.8465    5.3471   -5.1513 C   0  0  0  0  0  0  0  0  0  0  0  0
    4.5733    5.3086   -5.7273 S   0  0  0  0  0  0  0  0  0  0  0  0
    4.2306    5.8301   -7.4458 C   0  0  0  0  0  0  0  0  0  0  0  0
    3.7129    4.6617   -8.2823 C   0  0  0  0  0  0  0  0  0  0  0  0
    2.0619    4.1660   -5.1826 C   0  0  0  0  0  0  0  0  0  0  0  0
    0.0371    1.8265   -3.9752 C   0  0  0  0  0  0  0  0  0  0  0  0
   -0.5467    0.6012   -4.2984 C   0  0  0  0  0  0  0  0  0  0  0  0
   -1.2729    0.4547   -5.5211 C   0  0  0  0  0  0  0  0  0  0  0  0
   -1.7815   -0.8444   -5.9558 C   0  0  0  0  0  0  0  0  0  0  0  0
   -3.1845   -1.0800   -5.9790 C   0  0  0  0  0  0  0  0  0  0  0  0
   -3.6320   -2.3462   -6.3590 C   0  0  0  0  0  0  0  0  0  0  0  0
   -2.6804   -3.3707   -6.6896 C   0  0  0  0  0  0  0  0  0  0  0  0
   -1.2781   -3.1517   -6.6696 C   0  0  0  0  0  0  0  0  0  0  0  0
   -0.1063   -4.5319   -6.7802 S   0  0  0  0  0  0  0  0  0  0  0  0
    0.2660   -4.4357   -8.5570 C   0  0  0  0  0  0  0  0  0  0  0  0
   -0.9162   -4.7540   -9.4809 C   0  0  0  0  0  0  0  0  0  0  0  0
   -0.8399   -1.8793   -6.2848 C   0  0  0  0  0  0  0  0  0  0  0  0
   -1.4760    1.6006   -6.3036 C   0  0  0  0  0  0  0  0  0  0  0  0
   -2.4885    1.8445   -7.6646 S   0  0  0  0  0  0  0  0  0  0  0  0
   -0.3834   -0.3867   -3.2790 C   0  0  0  0  0  0  0  0  0  0  0  0
    0.3091    0.0773   -2.1123 C   0  0  0  0  0  0  0  0  0  0  0  0
    0.7094    1.7066   -2.4243 S   0  0  0  0  0  0  0  0  0  0  0  0
    0.3535   -0.5268   -0.7233 C   0  0  0  0  0  0  0  0  0  0  0  0
    0.7837   -1.8241   -0.2965 C   0  0  0  0  0  0  0  0  0  0  0  0
    0.8275   -2.9521   -1.1592 N   0  0  0  0  0  0  0  0  0  0  0  0
   -0.4256   -3.6721   -1.4119 C   0  0  0  0  0  0  0  0  0  0  0  0
   -1.2735   -3.9411   -0.3182 C   0  0  0  0  0  0  0  0  0  0  0  0
   -2.6076   -4.3856   -0.5197 C   0  0  0  0  0  0  0  0  0  0  0  0
   -3.1548   -4.5383   -1.8021 C   0  0  0  0  0  0  0  0  0  0  0  0
   -4.9331   -4.7237   -1.9954 S   0  0  0  0  0  0  0  0  0  0  0  0
   -4.9069   -6.0672   -3.2450 C   0  0  0  0  0  0  0  0  0  0  0  0
   -2.3178   -4.2821   -2.9054 C   0  0  0  0  0  0  0  0  0  0  0  0
   -0.9677   -3.8558   -2.7095 C   0  0  0  0  0  0  0  0  0  0  0  0
    2.1151   -3.4621   -1.6464 C   0  0  0  0  0  0  0  0  0  0  0  0
    3.1991   -3.5415   -0.7456 C   0  0  0  0  0  0  0  0  0  0  0  0
    4.4758   -4.0397   -1.1743 C   0  0  0  0  0  0  0  0  0  0  0  0
    4.6613   -4.4159   -2.5244 C   0  0  0  0  0  0  0  0  0  0  0  0
    6.3169   -4.7937   -3.1472 S   0  0  0  0  0  0  0  0  0  0  0  0
    6.1071   -6.6206   -3.2295 C   0  0  0  0  0  0  0  0  0  0  0  0
    3.6078   -4.2441   -3.4202 C   0  0  0  0  0  0  0  0  0  0  0  0
    2.3473   -3.7694   -2.9717 C   0  0  0  0  0  0  0  0  0  0  0  0
    0.8810   -1.8341    1.1521 C   0  0  0  0  0  0  0  0  0  0  0  0
    1.1546   -2.9559    2.4602 S   0  0  0  0  0  0  0  0  0  0  0  0
    0.7549   -1.8699    3.7243 C   0  0  0  0  0  0  0  0  0  0  0  0
    0.3242   -0.6332    3.1486 C   0  0  0  0  0  0  0  0  0  0  0  0
   -0.6793    0.1988    3.6854 N   0  0  0  0  0  0  0  0  0  0  0  0
   -0.6432    0.8295    5.0528 C   0  0  0  0  0  0  0  0  0  0  0  0
   -1.6815    0.5129    5.9202 C   0  0  0  0  0  0  0  0  0  0  0  0
   -1.9509    1.3741    7.0282 C   0  0  0  0  0  0  0  0  0  0  0  0
   -1.1511    2.4820    7.2789 C   0  0  0  0  0  0  0  0  0  0  0  0
   -1.3676    3.3248    8.8898 S   0  0  0  0  0  0  0  0  0  0  0  0
   -2.7891    4.3776    8.4376 C   0  0  0  0  0  0  0  0  0  0  0  0
   -0.0409    2.7371    6.4489 C   0  0  0  0  0  0  0  0  0  0  0  0
    0.2020    1.9106    5.3056 C   0  0  0  0  0  0  0  0  0  0  0  0
   -1.9200    0.3642    3.0363 C   0  0  0  0  0  0  0  0  0  0  0  0
   -2.6094   -0.7757    2.4971 C   0  0  0  0  0  0  0  0  0  0  0  0
   -3.7896   -0.6067    1.7626 C   0  0  0  0  0  0  0  0  0  0  0  0
   -4.3099    0.7016    1.5438 C   0  0  0  0  0  0  0  0  0  0  0  0
   -5.9664    1.0803    0.9275 S   0  0  0  0  0  0  0  0  0  0  0  0
   -6.2371   -0.2838   -0.2704 C   0  0  0  0  0  0  0  0  0  0  0  0
   -3.6217    1.8062    2.1098 C   0  0  0  0  0  0  0  0  0  0  0  0
   -2.4508    1.6243    2.8314 C   0  0  0  0  0  0  0  0  0  0  0  0
    0.4741   -0.6748    1.7537 C   0  0  0  0  0  0  0  0  0  0  0  0
    0.0146    0.4488    0.6129 S   0  0  0  0  0  0  0  0  0  0  0  0
    1.1339   -1.9852    5.1889 C   0  0  0  0  0  0  0  0  0  0  0  0
    1.0806   -3.0869    6.0849 C   0  0  0  0  0  0  0  0  0  0  0  0
    1.5632   -2.7351    7.4007 C   0  0  0  0  0  0  0  0  0  0  0  0
    1.6630   -3.5599    8.5646 C   0  0  0  0  0  0  0  0  0  0  0  0
    1.0717   -4.8954    8.5844 C   0  0  0  0  0  0  0  0  0  0  0  0
    1.6683   -5.9481    7.9004 C   0  0  0  0  0  0  0  0  0  0  0  0
    1.1842   -7.2497    8.1181 C   0  0  0  0  0  0  0  0  0  0  0  0
    0.0926   -7.4613    9.0080 C   0  0  0  0  0  0  0  0  0  0  0  0
   -0.5408   -6.3664    9.6511 C   0  0  0  0  0  0  0  0  0  0  0  0
   -2.0759   -6.6225   10.5818 S   0  0  0  0  0  0  0  0  0  0  0  0
   -1.9709   -5.1722   11.7177 C   0  0  0  0  0  0  0  0  0  0  0  0
   -2.8322   -5.4752   12.9364 C   0  0  0  0  0  0  0  0  0  0  0  0
   -0.0489   -5.0896    9.4034 C   0  0  0  0  0  0  0  0  0  0  0  0
    2.1213   -2.9745    9.7737 C   0  0  0  0  0  0  0  0  0  0  0  0
    2.5110   -1.6428    9.8395 C   0  0  0  0  0  0  0  0  0  0  0  0
    2.4245   -0.8224    8.7005 C   0  0  0  0  0  0  0  0  0  0  0  0
    2.7028    0.6295    8.7780 C   0  0  0  0  0  0  0  0  0  0  0  0
    1.8048    1.4424    9.4709 C   0  0  0  0  0  0  0  0  0  0  0  0
    2.0040    2.8182    9.4576 C   0  0  0  0  0  0  0  0  0  0  0  0
    3.1111    3.3627    8.7844 C   0  0  0  0  0  0  0  0  0  0  0  0
    4.0797    2.5342    8.1304 C   0  0  0  0  0  0  0  0  0  0  0  0
    5.5528    3.1378    7.2313 S   0  0  0  0  0  0  0  0  0  0  0  0
    5.4868    4.9311    7.5720 C   0  0  0  0  0  0  0  0  0  0  0  0
    4.3853    5.6588    6.7840 C   0  0  0  0  0  0  0  0  0  0  0  0
    3.8526    1.1548    8.1596 C   0  0  0  0  0  0  0  0  0  0  0  0
    1.9688   -1.4103    7.5182 C   0  0  0  0  0  0  0  0  0  0  0  0
    1.8479   -0.7015    6.0162 S   0  0  0  0  0  0  0  0  0  0  0  0
    2.9251   -1.2389   11.1397 C   0  0  0  0  0  0  0  0  0  0  0  0
    2.8052   -2.2373   12.1324 C   0  0  0  0  0  0  0  0  0  0  0  0
    2.1422   -3.6092   11.3676 S   0  0  0  0  0  0  0  0  0  0  0  0
    3.5671   -2.2266   13.4809 C   0  0  0  0  0  0  0  0  0  0  0  0
    4.7989   -2.7806   13.6965 C   0  0  0  0  0  0  0  0  0  0  0  0
    6.0124   -2.6784   14.9542 S   0  0  0  0  0  0  0  0  0  0  0  0
    7.1846   -3.7610   14.3328 C   0  0  0  0  0  0  0  0  0  0  0  0
    8.4326   -4.0637   14.8186 C   0  0  0  0  0  0  0  0  0  0  0  0
    9.3350   -4.7792   13.8970 C   0  0  0  0  0  0  0  0  0  0  0  0
    9.9276   -5.3912   13.0489 N   0  0  0  0  0  0  0  0  0  0  0  0
    8.5470   -4.4778   16.1947 C   0  0  0  0  0  0  0  0  0  0  0  0
    8.7585   -4.8505   17.2557 N   0  0  0  0  0  0  0  0  0  0  0  0
    6.5343   -4.2888   13.1969 N   0  0  0  0  0  0  0  0  0  0  0  0
    6.7242   -5.5913   12.5643 C   0  0  0  0  0  0  0  0  0  0  0  0
    7.3692   -5.2741   11.1409 C   0  0  0  0  0  0  0  0  0  0  0  0
    5.3689   -3.7328   12.7508 C   0  0  0  0  0  0  0  0  0  0  0  0
    4.9450   -3.7773   11.5887 O   0  0  0  0  0  0  0  0  0  0  0  0
   -3.3449    5.3307   -7.8328 H   0  0  0  0  0  0  0  0  0  0  0  0
   -2.3544    2.9137  -13.7894 H   0  0  0  0  0  0  0  0  0  0  0  0
   -4.9321    7.3094  -12.8060 H   0  0  0  0  0  0  0  0  0  0  0  0
   -4.2041    7.0557  -16.1113 H   0  0  0  0  0  0  0  0  0  0  0  0
   -6.7462    6.5691  -15.9204 H   0  0  0  0  0  0  0  0  0  0  0  0
   -6.9912    4.7805  -13.9179 H   0  0  0  0  0  0  0  0  0  0  0  0
   -5.6156    2.6779  -14.5318 H   0  0  0  0  0  0  0  0  0  0  0  0
   -4.5388    3.0765  -16.9874 H   0  0  0  0  0  0  0  0  0  0  0  0
   -5.4502    5.3934  -17.9232 H   0  0  0  0  0  0  0  0  0  0  0  0
   -6.8551    4.3441  -17.4061 H   0  0  0  0  0  0  0  0  0  0  0  0
   -2.9582    5.0936  -16.6631 H   0  0  0  0  0  0  0  0  0  0  0  0
   -0.8909    4.9435   -6.6839 H   0  0  0  0  0  0  0  0  0  0  0  0
   -0.7843    5.3193   -3.6051 H   0  0  0  0  0  0  0  0  0  0  0  0
    0.6283    7.3762   -3.4348 H   0  0  0  0  0  0  0  0  0  0  0  0
    2.9255    7.3732   -4.3969 H   0  0  0  0  0  0  0  0  0  0  0  0
    3.5376    6.7040   -7.5219 H   0  0  0  0  0  0  0  0  0  0  0  0
    5.1870    6.1254   -7.8950 H   0  0  0  0  0  0  0  0  0  0  0  0
    4.4894    3.8699   -8.3956 H   0  0  0  0  0  0  0  0  0  0  0  0
    2.8056    4.2271   -7.8231 H   0  0  0  0  0  0  0  0  0  0  0  0
    3.4003    5.0063   -9.3038 H   0  0  0  0  0  0  0  0  0  0  0  0
    2.4481    3.2233   -5.6621 H   0  0  0  0  0  0  0  0  0  0  0  0
   -3.8856   -0.2587   -5.7211 H   0  0  0  0  0  0  0  0  0  0  0  0
   -4.7196   -2.5190   -6.3804 H   0  0  0  0  0  0  0  0  0  0  0  0
   -3.0972   -4.3441   -6.9065 H   0  0  0  0  0  0  0  0  0  0  0  0
    1.0282   -5.2234   -8.7257 H   0  0  0  0  0  0  0  0  0  0  0  0
    0.7382   -3.4952   -8.8777 H   0  0  0  0  0  0  0  0  0  0  0  0
   -0.6667   -5.5854  -10.1739 H   0  0  0  0  0  0  0  0  0  0  0  0
   -1.2018   -3.8419  -10.1064 H   0  0  0  0  0  0  0  0  0  0  0  0
   -1.8084   -5.0914   -8.9082 H   0  0  0  0  0  0  0  0  0  0  0  0
    0.2258   -1.6636   -6.1424 H   0  0  0  0  0  0  0  0  0  0  0  0
   -0.8689   -1.3545   -3.3355 H   0  0  0  0  0  0  0  0  0  0  0  0
   -0.9864   -3.7851    0.7234 H   0  0  0  0  0  0  0  0  0  0  0  0
   -3.2296   -4.5066    0.3707 H   0  0  0  0  0  0  0  0  0  0  0  0
   -4.2527   -6.9426   -3.0035 H   0  0  0  0  0  0  0  0  0  0  0  0
   -4.7256   -5.6838   -4.2683 H   0  0  0  0  0  0  0  0  0  0  0  0
   -5.9629   -6.4269   -3.2827 H   0  0  0  0  0  0  0  0  0  0  0  0
   -2.6330   -4.3005   -3.9536 H   0  0  0  0  0  0  0  0  0  0  0  0
   -0.4250   -3.6109   -3.6251 H   0  0  0  0  0  0  0  0  0  0  0  0
    3.0999   -3.3054    0.2891 H   0  0  0  0  0  0  0  0  0  0  0  0
    5.3471   -4.0671   -0.4686 H   0  0  0  0  0  0  0  0  0  0  0  0
    7.1154   -7.0670   -3.2694 H   0  0  0  0  0  0  0  0  0  0  0  0
    5.5987   -6.9622   -4.1488 H   0  0  0  0  0  0  0  0  0  0  0  0
    5.6066   -7.0453   -2.3425 H   0  0  0  0  0  0  0  0  0  0  0  0
    3.6942   -4.4277   -4.5100 H   0  0  0  0  0  0  0  0  0  0  0  0
    1.6234   -3.6058   -3.7591 H   0  0  0  0  0  0  0  0  0  0  0  0
   -2.4133   -0.2571    5.6703 H   0  0  0  0  0  0  0  0  0  0  0  0
   -2.8262    1.1074    7.6501 H   0  0  0  0  0  0  0  0  0  0  0  0
   -3.5709    3.8649    7.8035 H   0  0  0  0  0  0  0  0  0  0  0  0
   -2.4363    5.2586    7.8732 H   0  0  0  0  0  0  0  0  0  0  0  0
   -3.2711    4.7412    9.3756 H   0  0  0  0  0  0  0  0  0  0  0  0
    0.6487    3.5326    6.6786 H   0  0  0  0  0  0  0  0  0  0  0  0
    1.0129    2.1498    4.6412 H   0  0  0  0  0  0  0  0  0  0  0  0
   -2.1983   -1.8029    2.6381 H   0  0  0  0  0  0  0  0  0  0  0  0
   -4.2428   -1.5392    1.4009 H   0  0  0  0  0  0  0  0  0  0  0  0
   -7.2858   -0.5860   -0.0886 H   0  0  0  0  0  0  0  0  0  0  0  0
   -5.6300   -1.2171   -0.1961 H   0  0  0  0  0  0  0  0  0  0  0  0
   -6.2213    0.1049   -1.3125 H   0  0  0  0  0  0  0  0  0  0  0  0
   -3.9736    2.8147    2.0237 H   0  0  0  0  0  0  0  0  0  0  0  0
   -1.9120    2.4632    3.2905 H   0  0  0  0  0  0  0  0  0  0  0  0
    0.6993   -4.0765    5.8414 H   0  0  0  0  0  0  0  0  0  0  0  0
    2.5496   -5.7812    7.2527 H   0  0  0  0  0  0  0  0  0  0  0  0
    1.6652   -8.0981    7.6288 H   0  0  0  0  0  0  0  0  0  0  0  0
   -0.2878   -8.4518    9.1638 H   0  0  0  0  0  0  0  0  0  0  0  0
   -2.3496   -4.2601   11.1814 H   0  0  0  0  0  0  0  0  0  0  0  0
   -0.9300   -4.9947   12.0534 H   0  0  0  0  0  0  0  0  0  0  0  0
   -2.5517   -6.4917   13.3030 H   0  0  0  0  0  0  0  0  0  0  0  0
   -3.8918   -5.5069   12.6201 H   0  0  0  0  0  0  0  0  0  0  0  0
   -2.6292   -4.7213   13.7435 H   0  0  0  0  0  0  0  0  0  0  0  0
   -0.4491   -4.1504    9.8772 H   0  0  0  0  0  0  0  0  0  0  0  0
    0.9175    1.0110    9.9637 H   0  0  0  0  0  0  0  0  0  0  0  0
    1.2598    3.4853    9.9557 H   0  0  0  0  0  0  0  0  0  0  0  0
    3.1936    4.4222    8.8131 H   0  0  0  0  0  0  0  0  0  0  0  0
    6.4338    5.3329    7.1988 H   0  0  0  0  0  0  0  0  0  0  0  0
    5.4413    5.1721    8.6539 H   0  0  0  0  0  0  0  0  0  0  0  0
    3.8711    6.4077    7.4406 H   0  0  0  0  0  0  0  0  0  0  0  0
    3.6088    4.9596    6.4108 H   0  0  0  0  0  0  0  0  0  0  0  0
    4.7826    6.2203    5.8973 H   0  0  0  0  0  0  0  0  0  0  0  0
    4.5100    0.4660    7.6739 H   0  0  0  0  0  0  0  0  0  0  0  0
    3.3655   -0.2497   11.3472 H   0  0  0  0  0  0  0  0  0  0  0  0
    3.1070   -1.6208   14.2014 H   0  0  0  0  0  0  0  0  0  0  0  0
    7.2316   -6.3806   13.2353 H   0  0  0  0  0  0  0  0  0  0  0  0
    5.7405   -6.1685   12.4193 H   0  0  0  0  0  0  0  0  0  0  0  0
    6.5598   -5.1102   10.3726 H   0  0  0  0  0  0  0  0  0  0  0  0
    7.9633   -4.3211   11.2818 H   0  0  0  0  0  0  0  0  0  0  0  0
    8.0417   -6.0654   10.9304 H   0  0  0  0  0  0  0  0  0  0  0  0
  1  2  2  3
  2  3  1  0
  3  4  2  0
  3  5  1  0
  5  6  2  0
  6  7  1  0
  7  8  2  0
  8  9  1  0
  9 10  2  0
 10 11  1  0
 11 12  2  3
 12 13  1  0
 13 14  3  0
 12 15  1  0
 15 16  3  0
  8 17  1  0
 17 18  1  0
 18 19  1  0
 19 20  2  0
 20 21  1  0
 21 22  1  0
 21 23  1  0
  1 24  1  0
 24 25  2  0
 25 26  1  0
 26 27  2  0
 27 28  1  0
 28 29  2  0
 29 30  1  0
 30 31  2  0
 31 32  1  0
 32 33  1  0
 33 34  1  0
 34 35  1  0
 32 36  2  0
 27 37  1  0
 37 38  2  0
 38 39  1  0
 39 40  1  0
 40 41  2  0
 41 42  1  0
 42 43  2  0
 43 44  1  0
 44 45  1  0
 45 46  1  0
 46 47  1  0
 44 48  2  0
 39 49  2  0
 49 50  1  0
 38 51  1  0
 51 52  2  0
 52 53  1  0
 52 54  1  0
 54 55  2  0
 55 56  1  0
 56 57  1  0
 57 58  2  0
 58 59  1  0
 59 60  2  0
 60 61  1  0
 61 62  1  0
 60 63  1  0
 63 64  2  0
 56 65  1  0
 65 66  2  0
 66 67  1  0
 67 68  2  0
 68 69  1  0
 69 70  1  0
 68 71  1  0
 71 72  2  0
 55 73  1  0
 73 74  1  0
 74 75  1  0
 75 76  2  0
 76 77  1  0
 77 78  1  0
 78 79  2  0
 79 80  1  0
 80 81  2  0
 81 82  1  0
 82 83  1  0
 81 84  1  0
 84 85  2  0
 77 86  1  0
 86 87  2  0
 87 88  1  0
 88 89  2  0
 89 90  1  0
 90 91  1  0
 89 92  1  0
 92 93  2  0
 76 94  1  0
 94 95  1  0
 75 96  1  0
 96 97  2  0
 97 98  1  0
 98 99  2  0
 99100  1  0
100101  2  0
101102  1  0
102103  2  0
103104  1  0
104105  1  0
105106  1  0
106107  1  0
104108  2  0
 99109  1  0
109110  2  0
110111  1  0
111112  1  0
112113  2  0
113114  1  0
114115  2  0
115116  1  0
116117  1  0
117118  1  0
118119  1  0
116120  2  0
111121  2  0
121122  1  0
110123  1  0
123124  2  0
124125  1  0
124126  1  0
126127  2  3
127128  1  0
128129  1  0
129130  2  3
130131  1  0
131132  3  0
130133  1  0
133134  3  0
129135  1  0
135136  1  0
136137  1  0
135138  1  0
138139  2  0
 11  2  1  0
 23 17  1  0
 50 24  1  0
 95 54  1  0
122 96  1  0
138127  1  0
 10  5  1  0
 22 18  1  0
 49 26  1  0
 64 57  1  0
 72 65  1  0
 94 73  2  0
121 98  1  0
 23  7  1  0
 36 28  1  0
 53 37  1  0
 85 78  1  0
 93 86  1  0
108100  1  0
125109  1  0
 48 40  1  0
120112  1  0
  1140  1  0
  6141  1  0
  9142  1  0
 17143  1  0
 18144  1  0
 19145  1  0
 20146  1  0
 21147  1  0
 22148  1  0
 22149  1  0
 23150  1  0
 25151  1  0
 29152  1  0
 30153  1  0
 31154  1  0
 34155  1  0
 34156  1  0
 35157  1  0
 35158  1  0
 35159  1  0
 36160  1  0
 41161  1  0
 42162  1  0
 43163  1  0
 46164  1  0
 46165  1  0
 47166  1  0
 47167  1  0
 47168  1  0
 48169  1  0
 51170  1  0
 58171  1  0
 59172  1  0
 62173  1  0
 62174  1  0
 62175  1  0
 63176  1  0
 64177  1  0
 66178  1  0
 67179  1  0
 70180  1  0
 70181  1  0
 70182  1  0
 71183  1  0
 72184  1  0
 79185  1  0
 80186  1  0
 83187  1  0
 83188  1  0
 83189  1  0
 84190  1  0
 85191  1  0
 87192  1  0
 88193  1  0
 91194  1  0
 91195  1  0
 91196  1  0
 92197  1  0
 93198  1  0
 97199  1  0
101200  1  0
102201  1  0
103202  1  0
106203  1  0
106204  1  0
107205  1  0
107206  1  0
107207  1  0
108208  1  0
113209  1  0
114210  1  0
115211  1  0
118212  1  0
118213  1  0
119214  1  0
119215  1  0
119216  1  0
120217  1  0
123218  1  0
126219  1  0
136220  1  0
136221  1  0
137222  1  0
137223  1  0
137224  1  0
M  END

