
     RDKit          3D

225247  0  0  0  0  0  0  0  0999 V2000
    6.4797   -5.1425   -5.1807 C   0  0  0  0  0  0  0  0  0  0  0  0
    6.2995   -3.8039   -5.2906 C   0  0  0  0  0  0  0  0  0  0  0  0
    6.6688   -3.0200   -6.4685 C   0  0  0  0  0  0  0  0  0  0  0  0
    7.3885   -3.4216   -7.4275 O   0  0  0  0  0  0  0  0  0  0  0  0
    6.0334   -1.7184   -6.3733 C   0  0  0  0  0  0  0  0  0  0  0  0
    6.2418   -0.6026   -7.2165 C   0  0  0  0  0  0  0  0  0  0  0  0
    5.6584    0.5689   -6.7562 C   0  0  0  0  0  0  0  0  0  0  0  0
    4.8989    0.6364   -5.5450 C   0  0  0  0  0  0  0  0  0  0  0  0
    4.6883   -0.4472   -4.7164 C   0  0  0  0  0  0  0  0  0  0  0  0
    5.2916   -1.6536   -5.1625 C   0  0  0  0  0  0  0  0  0  0  0  0
    5.4829   -2.9158   -4.4060 C   0  0  0  0  0  0  0  0  0  0  0  0
    5.5001   -2.9475   -3.0593 C   0  0  0  0  0  0  0  0  0  0  0  0
    4.4319   -2.3806   -2.2714 C   0  0  0  0  0  0  0  0  0  0  0  0
    3.5780   -1.9384   -1.6251 N   0  0  0  0  0  0  0  0  0  0  0  0
    6.6990   -3.3316   -2.3664 C   0  0  0  0  0  0  0  0  0  0  0  0
    7.6685   -3.6271   -1.8094 N   0  0  0  0  0  0  0  0  0  0  0  0
    4.7387    2.1161   -5.6980 C   0  0  0  0  0  0  0  0  0  0  0  0
    5.6190    3.0012   -4.7594 C   0  0  0  0  0  0  0  0  0  0  0  0
    5.5901    4.3912   -5.3497 C   0  0  0  0  0  0  0  0  0  0  0  0
    6.2935    4.3277   -6.4882 C   0  0  0  0  0  0  0  0  0  0  0  0
    6.7738    2.9039   -6.6241 C   0  0  0  0  0  0  0  0  0  0  0  0
    7.0353    2.6149   -5.1549 C   0  0  0  0  0  0  0  0  0  0  0  0
    5.5070    2.0505   -6.9409 C   0  0  0  0  0  0  0  0  0  0  0  0
    5.7546   -5.9533   -4.1856 C   0  0  0  0  0  0  0  0  0  0  0  0
    4.3807   -5.8766   -4.0133 C   0  0  0  0  0  0  0  0  0  0  0  0
    3.9757   -6.1359   -2.7007 C   0  0  0  0  0  0  0  0  0  0  0  0
    2.6803   -5.9266   -2.2140 C   0  0  0  0  0  0  0  0  0  0  0  0
    1.5093   -5.8214   -3.1091 C   0  0  0  0  0  0  0  0  0  0  0  0
    1.0182   -6.9820   -3.7249 C   0  0  0  0  0  0  0  0  0  0  0  0
   -0.1124   -6.9244   -4.5415 C   0  0  0  0  0  0  0  0  0  0  0  0
   -0.7579   -5.7049   -4.7576 C   0  0  0  0  0  0  0  0  0  0  0  0
   -0.2776   -4.5384   -4.1481 C   0  0  0  0  0  0  0  0  0  0  0  0
   -1.1099   -2.9752   -4.4469 S   0  0  0  0  0  0  0  0  0  0  0  0
   -2.4013   -3.2010   -3.1676 C   0  0  0  0  0  0  0  0  0  0  0  0
   -3.7583   -3.4014   -3.8237 C   0  0  0  0  0  0  0  0  0  0  0  0
    0.8553   -4.5945   -3.3229 C   0  0  0  0  0  0  0  0  0  0  0  0
    2.5452   -5.8032   -0.8320 C   0  0  0  0  0  0  0  0  0  0  0  0
    3.6260   -5.9291    0.0457 C   0  0  0  0  0  0  0  0  0  0  0  0
    4.8842   -6.3841   -0.4220 C   0  0  0  0  0  0  0  0  0  0  0  0
    5.9434   -6.8337    0.5301 C   0  0  0  0  0  0  0  0  0  0  0  0
    5.5914   -7.7122    1.5719 C   0  0  0  0  0  0  0  0  0  0  0  0
    6.5591   -8.2063    2.4504 C   0  0  0  0  0  0  0  0  0  0  0  0
    7.9020   -7.8512    2.2836 C   0  0  0  0  0  0  0  0  0  0  0  0
    8.2746   -7.0022    1.2370 C   0  0  0  0  0  0  0  0  0  0  0  0
   10.0088   -6.5820    0.9984 S   0  0  0  0  0  0  0  0  0  0  0  0
   10.4454   -8.1641    0.1826 C   0  0  0  0  0  0  0  0  0  0  0  0
   10.0455   -8.1650   -1.2883 C   0  0  0  0  0  0  0  0  0  0  0  0
    7.2978   -6.4806    0.3774 C   0  0  0  0  0  0  0  0  0  0  0  0
    5.0335   -6.4337   -1.8289 C   0  0  0  0  0  0  0  0  0  0  0  0
    6.4506   -6.4694   -2.7361 S   0  0  0  0  0  0  0  0  0  0  0  0
    3.3480   -5.4046    1.3227 C   0  0  0  0  0  0  0  0  0  0  0  0
    2.0488   -4.9026    1.4402 C   0  0  0  0  0  0  0  0  0  0  0  0
    1.2446   -5.1496   -0.0177 S   0  0  0  0  0  0  0  0  0  0  0  0
    1.7080   -3.7107    2.2103 C   0  0  0  0  0  0  0  0  0  0  0  0
    0.5983   -3.6469    3.0598 C   0  0  0  0  0  0  0  0  0  0  0  0
    0.2774   -4.6694    4.0102 N   0  0  0  0  0  0  0  0  0  0  0  0
   -0.7074   -5.6985    3.7383 C   0  0  0  0  0  0  0  0  0  0  0  0
   -0.7695   -6.8607    4.5376 C   0  0  0  0  0  0  0  0  0  0  0  0
   -1.7415   -7.8335    4.3053 C   0  0  0  0  0  0  0  0  0  0  0  0
   -2.6572   -7.6793    3.2592 C   0  0  0  0  0  0  0  0  0  0  0  0
   -3.9718   -8.8858    3.0370 S   0  0  0  0  0  0  0  0  0  0  0  0
   -2.9582  -10.0133    2.0321 C   0  0  0  0  0  0  0  0  0  0  0  0
   -2.5765   -6.5556    2.4276 C   0  0  0  0  0  0  0  0  0  0  0  0
   -1.6092   -5.5736    2.6611 C   0  0  0  0  0  0  0  0  0  0  0  0
    0.9860   -4.6051    5.2601 C   0  0  0  0  0  0  0  0  0  0  0  0
    0.3120   -4.2386    6.4347 C   0  0  0  0  0  0  0  0  0  0  0  0
    1.0296   -3.9906    7.6081 C   0  0  0  0  0  0  0  0  0  0  0  0
    2.4228   -4.1259    7.6227 C   0  0  0  0  0  0  0  0  0  0  0  0
    3.3638   -3.7214    9.0934 S   0  0  0  0  0  0  0  0  0  0  0  0
    3.6674   -1.9977    8.5789 C   0  0  0  0  0  0  0  0  0  0  0  0
    3.0946   -4.5345    6.4635 C   0  0  0  0  0  0  0  0  0  0  0  0
    2.3819   -4.7716    5.2906 C   0  0  0  0  0  0  0  0  0  0  0  0
    0.0314   -2.3698    3.0719 C   0  0  0  0  0  0  0  0  0  0  0  0
   -1.3926   -1.7109    3.6811 S   0  0  0  0  0  0  0  0  0  0  0  0
   -1.2061   -0.2229    2.8603 C   0  0  0  0  0  0  0  0  0  0  0  0
   -0.0042   -0.2543    2.1236 C   0  0  0  0  0  0  0  0  0  0  0  0
    0.5362    0.8432    1.3624 N   0  0  0  0  0  0  0  0  0  0  0  0
    0.7438    0.6876   -0.0601 C   0  0  0  0  0  0  0  0  0  0  0  0
    1.8467    1.2810   -0.6976 C   0  0  0  0  0  0  0  0  0  0  0  0
    2.0047    1.1854   -2.0855 C   0  0  0  0  0  0  0  0  0  0  0  0
    1.0601    0.4919   -2.8522 C   0  0  0  0  0  0  0  0  0  0  0  0
    1.2748    0.3233   -4.6274 S   0  0  0  0  0  0  0  0  0  0  0  0
    0.2766    1.7905   -5.0260 C   0  0  0  0  0  0  0  0  0  0  0  0
   -0.0296   -0.1139   -2.2237 C   0  0  0  0  0  0  0  0  0  0  0  0
   -0.1869   -0.0250   -0.8418 C   0  0  0  0  0  0  0  0  0  0  0  0
    0.8057    2.0994    2.0345 C   0  0  0  0  0  0  0  0  0  0  0  0
    1.2113    2.1207    3.3836 C   0  0  0  0  0  0  0  0  0  0  0  0
    1.4188    3.3283    4.0473 C   0  0  0  0  0  0  0  0  0  0  0  0
    1.2153    4.5400    3.3790 C   0  0  0  0  0  0  0  0  0  0  0  0
    1.4793    6.0940    4.2365 S   0  0  0  0  0  0  0  0  0  0  0  0
   -0.1754    6.1021    4.9953 C   0  0  0  0  0  0  0  0  0  0  0  0
    0.8142    4.5349    2.0379 C   0  0  0  0  0  0  0  0  0  0  0  0
    0.6145    3.3258    1.3687 C   0  0  0  0  0  0  0  0  0  0  0  0
    0.6419   -1.4725    2.2639 C   0  0  0  0  0  0  0  0  0  0  0  0
    1.9431   -2.1781    1.4965 S   0  0  0  0  0  0  0  0  0  0  0  0
   -2.2530    0.8100    2.7413 C   0  0  0  0  0  0  0  0  0  0  0  0
   -2.4253    1.6417    1.6382 C   0  0  0  0  0  0  0  0  0  0  0  0
   -3.4682    2.5596    1.7938 C   0  0  0  0  0  0  0  0  0  0  0  0
   -3.7963    3.5783    0.8876 C   0  0  0  0  0  0  0  0  0  0  0  0
   -3.0532    3.7715   -0.3697 C   0  0  0  0  0  0  0  0  0  0  0  0
   -3.3476    2.9911   -1.4945 C   0  0  0  0  0  0  0  0  0  0  0  0
   -2.6348    3.1846   -2.6818 C   0  0  0  0  0  0  0  0  0  0  0  0
   -1.6124    4.1366   -2.7408 C   0  0  0  0  0  0  0  0  0  0  0  0
   -1.3049    4.9011   -1.6123 C   0  0  0  0  0  0  0  0  0  0  0  0
    0.0524    6.0755   -1.6544 S   0  0  0  0  0  0  0  0  0  0  0  0
   -1.0224    7.5067   -2.0049 C   0  0  0  0  0  0  0  0  0  0  0  0
   -0.2079    8.7919   -1.9489 C   0  0  0  0  0  0  0  0  0  0  0  0
   -2.0291    4.7242   -0.4295 C   0  0  0  0  0  0  0  0  0  0  0  0
   -4.7914    4.4839    1.2790 C   0  0  0  0  0  0  0  0  0  0  0  0
   -5.4670    4.3813    2.5011 C   0  0  0  0  0  0  0  0  0  0  0  0
   -5.1849    3.3117    3.3855 C   0  0  0  0  0  0  0  0  0  0  0  0
   -5.9364    3.1197    4.6354 C   0  0  0  0  0  0  0  0  0  0  0  0
   -5.7380    3.9885    5.7173 C   0  0  0  0  0  0  0  0  0  0  0  0
   -6.4846    3.8267    6.8882 C   0  0  0  0  0  0  0  0  0  0  0  0
   -7.4281    2.8011    6.9860 C   0  0  0  0  0  0  0  0  0  0  0  0
   -7.6301    1.9317    5.9106 C   0  0  0  0  0  0  0  0  0  0  0  0
   -8.8545    0.6251    6.0215 S   0  0  0  0  0  0  0  0  0  0  0  0
   -7.6506   -0.6285    6.5694 C   0  0  0  0  0  0  0  0  0  0  0  0
   -8.3006   -2.0042    6.5862 C   0  0  0  0  0  0  0  0  0  0  0  0
   -6.8833    2.0914    4.7340 C   0  0  0  0  0  0  0  0  0  0  0  0
   -4.1552    2.4266    3.0031 C   0  0  0  0  0  0  0  0  0  0  0  0
   -3.4561    1.1652    3.8828 S   0  0  0  0  0  0  0  0  0  0  0  0
   -6.3589    5.4440    2.7271 C   0  0  0  0  0  0  0  0  0  0  0  0
   -6.3865    6.3542    1.6667 C   0  0  0  0  0  0  0  0  0  0  0  0
   -5.2888    5.8703    0.4799 S   0  0  0  0  0  0  0  0  0  0  0  0
   -7.0184    7.6820    1.6810 C   0  0  0  0  0  0  0  0  0  0  0  0
   -7.5902    8.2068    0.5888 C   0  0  0  0  0  0  0  0  0  0  0  0
   -8.1579    7.4351   -0.5194 C   0  0  0  0  0  0  0  0  0  0  0  0
   -8.2007    6.1758   -0.6058 O   0  0  0  0  0  0  0  0  0  0  0  0
   -8.8297    8.3512   -1.4139 C   0  0  0  0  0  0  0  0  0  0  0  0
   -9.5975    8.0445   -2.5369 C   0  0  0  0  0  0  0  0  0  0  0  0
  -10.2553    9.0884   -3.2067 C   0  0  0  0  0  0  0  0  0  0  0  0
  -11.3001    8.6611   -4.7526 Br  0  0  0  0  0  0  0  0  0  0  0  0
  -10.1460   10.4172   -2.7246 C   0  0  0  0  0  0  0  0  0  0  0  0
  -11.0846   11.8593   -3.5582 Br  0  0  0  0  0  0  0  0  0  0  0  0
   -9.3788   10.6925   -1.5803 C   0  0  0  0  0  0  0  0  0  0  0  0
   -8.6940    9.6406   -0.9435 C   0  0  0  0  0  0  0  0  0  0  0  0
   -7.8412    9.6506    0.2783 C   0  0  0  0  0  0  0  0  0  0  0  0
   -7.1036   10.7085    0.7193 C   0  0  0  0  0  0  0  0  0  0  0  0
   -6.1256   10.5872    1.7718 C   0  0  0  0  0  0  0  0  0  0  0  0
   -5.3372   10.5012    2.6145 N   0  0  0  0  0  0  0  0  0  0  0  0
   -7.0706   11.9554   -0.0024 C   0  0  0  0  0  0  0  0  0  0  0  0
   -7.0017   12.9322   -0.6246 N   0  0  0  0  0  0  0  0  0  0  0  0
    7.1079   -5.6541   -5.8961 H   0  0  0  0  0  0  0  0  0  0  0  0
    6.8622   -0.6326   -8.1019 H   0  0  0  0  0  0  0  0  0  0  0  0
    4.1724   -0.3347   -3.7779 H   0  0  0  0  0  0  0  0  0  0  0  0
    3.6803    2.4438   -5.8183 H   0  0  0  0  0  0  0  0  0  0  0  0
    5.3841    2.9407   -3.6781 H   0  0  0  0  0  0  0  0  0  0  0  0
    5.1856    5.2902   -4.8984 H   0  0  0  0  0  0  0  0  0  0  0  0
    6.5641    5.1771   -7.1101 H   0  0  0  0  0  0  0  0  0  0  0  0
    7.6367    2.7667   -7.3089 H   0  0  0  0  0  0  0  0  0  0  0  0
    7.8172    3.2706   -4.7072 H   0  0  0  0  0  0  0  0  0  0  0  0
    7.2923    1.5515   -4.9404 H   0  0  0  0  0  0  0  0  0  0  0  0
    4.9484    2.3376   -7.8556 H   0  0  0  0  0  0  0  0  0  0  0  0
    3.7228   -5.4727   -4.7705 H   0  0  0  0  0  0  0  0  0  0  0  0
    1.5001   -7.9356   -3.5609 H   0  0  0  0  0  0  0  0  0  0  0  0
   -0.5033   -7.8274   -4.9951 H   0  0  0  0  0  0  0  0  0  0  0  0
   -1.6374   -5.6647   -5.3886 H   0  0  0  0  0  0  0  0  0  0  0  0
   -2.1772   -4.0576   -2.4981 H   0  0  0  0  0  0  0  0  0  0  0  0
   -2.4437   -2.2890   -2.5358 H   0  0  0  0  0  0  0  0  0  0  0  0
   -4.5362   -3.5586   -3.0468 H   0  0  0  0  0  0  0  0  0  0  0  0
   -4.0283   -2.5045   -4.4204 H   0  0  0  0  0  0  0  0  0  0  0  0
   -3.7392   -4.2862   -4.4949 H   0  0  0  0  0  0  0  0  0  0  0  0
    1.2302   -3.6939   -2.8560 H   0  0  0  0  0  0  0  0  0  0  0  0
    4.5586   -8.0255    1.6973 H   0  0  0  0  0  0  0  0  0  0  0  0
    6.2765   -8.8823    3.2449 H   0  0  0  0  0  0  0  0  0  0  0  0
    8.6453   -8.2561    2.9522 H   0  0  0  0  0  0  0  0  0  0  0  0
   11.5461   -8.3035    0.2567 H   0  0  0  0  0  0  0  0  0  0  0  0
    9.9644   -9.0180    0.7112 H   0  0  0  0  0  0  0  0  0  0  0  0
    8.9622   -7.9550   -1.3979 H   0  0  0  0  0  0  0  0  0  0  0  0
   10.6287   -7.3955   -1.8418 H   0  0  0  0  0  0  0  0  0  0  0  0
   10.2497   -9.1691   -1.7287 H   0  0  0  0  0  0  0  0  0  0  0  0
    7.6096   -5.7823   -0.3788 H   0  0  0  0  0  0  0  0  0  0  0  0
    4.1085   -5.2442    2.0773 H   0  0  0  0  0  0  0  0  0  0  0  0
   -0.0774   -7.0082    5.3565 H   0  0  0  0  0  0  0  0  0  0  0  0
   -1.7960   -8.7027    4.9456 H   0  0  0  0  0  0  0  0  0  0  0  0
   -2.5989   -9.4960    1.1158 H   0  0  0  0  0  0  0  0  0  0  0  0
   -3.5802  -10.8842    1.7376 H   0  0  0  0  0  0  0  0  0  0  0  0
   -2.0877  -10.3734    2.6248 H   0  0  0  0  0  0  0  0  0  0  0  0
   -3.2874   -6.4301    1.6156 H   0  0  0  0  0  0  0  0  0  0  0  0
   -1.5870   -4.7036    2.0154 H   0  0  0  0  0  0  0  0  0  0  0  0
   -0.7635   -4.0998    6.4252 H   0  0  0  0  0  0  0  0  0  0  0  0
    0.5052   -3.6767    8.5044 H   0  0  0  0  0  0  0  0  0  0  0  0
    4.4011   -1.5360    9.2690 H   0  0  0  0  0  0  0  0  0  0  0  0
    2.7183   -1.4216    8.6163 H   0  0  0  0  0  0  0  0  0  0  0  0
    4.0791   -1.9649    7.5472 H   0  0  0  0  0  0  0  0  0  0  0  0
    4.1725   -4.6373    6.4646 H   0  0  0  0  0  0  0  0  0  0  0  0
    2.9130   -5.0590    4.3957 H   0  0  0  0  0  0  0  0  0  0  0  0
    2.5881    1.8192   -0.1182 H   0  0  0  0  0  0  0  0  0  0  0  0
    2.8618    1.6532   -2.5629 H   0  0  0  0  0  0  0  0  0  0  0  0
    0.3234    1.9664   -6.1201 H   0  0  0  0  0  0  0  0  0  0  0  0
   -0.7803    1.6154   -4.7396 H   0  0  0  0  0  0  0  0  0  0  0  0
    0.6723    2.6847   -4.5021 H   0  0  0  0  0  0  0  0  0  0  0  0
   -0.7681   -0.6390   -2.8097 H   0  0  0  0  0  0  0  0  0  0  0  0
   -1.0461   -0.4919   -0.3783 H   0  0  0  0  0  0  0  0  0  0  0  0
    1.3661    1.1913    3.9220 H   0  0  0  0  0  0  0  0  0  0  0  0
    1.7275    3.3244    5.0854 H   0  0  0  0  0  0  0  0  0  0  0  0
   -0.2809    5.2376    5.6833 H   0  0  0  0  0  0  0  0  0  0  0  0
   -0.9594    6.0566    4.2116 H   0  0  0  0  0  0  0  0  0  0  0  0
   -0.3016    7.0368    5.5788 H   0  0  0  0  0  0  0  0  0  0  0  0
    0.6621    5.4723    1.5148 H   0  0  0  0  0  0  0  0  0  0  0  0
    0.2966    3.3451    0.3401 H   0  0  0  0  0  0  0  0  0  0  0  0
   -1.8144    1.6109    0.7508 H   0  0  0  0  0  0  0  0  0  0  0  0
   -4.1414    2.2502   -1.4599 H   0  0  0  0  0  0  0  0  0  0  0  0
   -2.8745    2.5950   -3.5570 H   0  0  0  0  0  0  0  0  0  0  0  0
   -1.0664    4.2816   -3.6602 H   0  0  0  0  0  0  0  0  0  0  0  0
   -1.4729    7.3952   -3.0148 H   0  0  0  0  0  0  0  0  0  0  0  0
   -1.8381    7.5633   -1.2497 H   0  0  0  0  0  0  0  0  0  0  0  0
    0.1914    8.9387   -0.9263 H   0  0  0  0  0  0  0  0  0  0  0  0
    0.6380    8.7425   -2.6678 H   0  0  0  0  0  0  0  0  0  0  0  0
   -0.8553    9.6531   -2.2094 H   0  0  0  0  0  0  0  0  0  0  0  0
   -1.7896    5.3157    0.4465 H   0  0  0  0  0  0  0  0  0  0  0  0
   -5.0135    4.7927    5.6495 H   0  0  0  0  0  0  0  0  0  0  0  0
   -6.3367    4.5042    7.7219 H   0  0  0  0  0  0  0  0  0  0  0  0
   -8.0086    2.6903    7.8943 H   0  0  0  0  0  0  0  0  0  0  0  0
   -6.7818   -0.6474    5.8775 H   0  0  0  0  0  0  0  0  0  0  0  0
   -7.2979   -0.3770    7.5904 H   0  0  0  0  0  0  0  0  0  0  0  0
   -8.6565   -2.2716    5.5665 H   0  0  0  0  0  0  0  0  0  0  0  0
   -9.1590   -2.0169    7.2927 H   0  0  0  0  0  0  0  0  0  0  0  0
   -7.5538   -2.7629    6.9115 H   0  0  0  0  0  0  0  0  0  0  0  0
   -7.0503    1.4206    3.8979 H   0  0  0  0  0  0  0  0  0  0  0  0
   -6.9412    5.5732    3.6304 H   0  0  0  0  0  0  0  0  0  0  0  0
   -6.8917    8.2804    2.5736 H   0  0  0  0  0  0  0  0  0  0  0  0
   -9.6999    7.0218   -2.8759 H   0  0  0  0  0  0  0  0  0  0  0  0
   -9.3538   11.6955   -1.1796 H   0  0  0  0  0  0  0  0  0  0  0  0
  1  2  2  3
  2  3  1  0
  3  4  2  0
  3  5  1  0
  5  6  2  0
  6  7  1  0
  7  8  2  0
  8  9  1  0
  9 10  2  0
 10 11  1  0
 11 12  2  3
 12 13  1  0
 13 14  3  0
 12 15  1  0
 15 16  3  0
  8 17  1  0
 17 18  1  0
 18 19  1  0
 19 20  2  0
 20 21  1  0
 21 22  1  0
 21 23  1  0
  1 24  1  0
 24 25  2  0
 25 26  1  0
 26 27  2  0
 27 28  1  0
 28 29  2  0
 29 30  1  0
 30 31  2  0
 31 32  1  0
 32 33  1  0
 33 34  1  0
 34 35  1  0
 32 36  2  0
 27 37  1  0
 37 38  2  0
 38 39  1  0
 39 40  1  0
 40 41  2  0
 41 42  1  0
 42 43  2  0
 43 44  1  0
 44 45  1  0
 45 46  1  0
 46 47  1  0
 44 48  2  0
 39 49  2  0
 49 50  1  0
 38 51  1  0
 51 52  2  0
 52 53  1  0
 52 54  1  0
 54 55  2  0
 55 56  1  0
 56 57  1  0
 57 58  2  0
 58 59  1  0
 59 60  2  0
 60 61  1  0
 61 62  1  0
 60 63  1  0
 63 64  2  0
 56 65  1  0
 65 66  2  0
 66 67  1  0
 67 68  2  0
 68 69  1  0
 69 70  1  0
 68 71  1  0
 71 72  2  0
 55 73  1  0
 73 74  1  0
 74 75  1  0
 75 76  2  0
 76 77  1  0
 77 78  1  0
 78 79  2  0
 79 80  1  0
 80 81  2  0
 81 82  1  0
 82 83  1  0
 81 84  1  0
 84 85  2  0
 77 86  1  0
 86 87  2  0
 87 88  1  0
 88 89  2  0
 89 90  1  0
 90 91  1  0
 89 92  1  0
 92 93  2  0
 76 94  1  0
 94 95  1  0
 75 96  1  0
 96 97  2  0
 97 98  1  0
 98 99  2  0
 99100  1  0
100101  2  0
101102  1  0
102103  2  0
103104  1  0
104105  1  0
105106  1  0
106107  1  0
104108  2  0
 99109  1  0
109110  2  0
110111  1  0
111112  1  0
112113  2  0
113114  1  0
114115  2  0
115116  1  0
116117  1  0
117118  1  0
118119  1  0
116120  2  0
111121  2  0
121122  1  0
110123  1  0
123124  2  0
124125  1  0
124126  1  0
126127  2  3
127128  1  0
128129  2  0
128130  1  0
130131  2  0
131132  1  0
132133  1  0
132134  2  0
134135  1  0
134136  1  0
136137  2  0
137138  1  0
138139  2  3
139140  1  0
140141  3  0
139142  1  0
142143  3  0
 11  2  1  0
 23 17  1  0
 50 24  1  0
 95 54  1  0
122 96  1  0
138127  1  0
 10  5  1  0
 22 18  1  0
 49 26  1  0
 64 57  1  0
 72 65  1  0
 94 73  2  0
121 98  1  0
137130  1  0
 23  7  1  0
 36 28  1  0
 53 37  1  0
 85 78  1  0
 93 86  1  0
108100  1  0
125109  1  0
 48 40  1  0
120112  1  0
  1144  1  0
  6145  1  0
  9146  1  0
 17147  1  0
 18148  1  0
 19149  1  0
 20150  1  0
 21151  1  0
 22152  1  0
 22153  1  0
 23154  1  0
 25155  1  0
 29156  1  0
 30157  1  0
 31158  1  0
 34159  1  0
 34160  1  0
 35161  1  0
 35162  1  0
 35163  1  0
 36164  1  0
 41165  1  0
 42166  1  0
 43167  1  0
 46168  1  0
 46169  1  0
 47170  1  0
 47171  1  0
 47172  1  0
 48173  1  0
 51174  1  0
 58175  1  0
 59176  1  0
 62177  1  0
 62178  1  0
 62179  1  0
 63180  1  0
 64181  1  0
 66182  1  0
 67183  1  0
 70184  1  0
 70185  1  0
 70186  1  0
 71187  1  0
 72188  1  0
 79189  1  0
 80190  1  0
 83191  1  0
 83192  1  0
 83193  1  0
 84194  1  0
 85195  1  0
 87196  1  0
 88197  1  0
 91198  1  0
 91199  1  0
 91200  1  0
 92201  1  0
 93202  1  0
 97203  1  0
101204  1  0
102205  1  0
103206  1  0
106207  1  0
106208  1  0
107209  1  0
107210  1  0
107211  1  0
108212  1  0
113213  1  0
114214  1  0
115215  1  0
118216  1  0
118217  1  0
119218  1  0
119219  1  0
119220  1  0
120221  1  0
123222  1  0
126223  1  0
131224  1  0
136225  1  0
M  END

