
     RDKit          3D

182203  0  0  0  0  0  0  0  0999 V2000
   -6.7680    0.3847    4.0299 C   0  0  0  0  0  0  0  0  0  0  0  0
   -5.9300   -0.4442    4.7013 C   0  0  0  0  0  0  0  0  0  0  0  0
   -5.5413   -1.7982    4.2839 C   0  0  0  0  0  0  0  0  0  0  0  0
   -6.0107   -2.4504    3.3200 O   0  0  0  0  0  0  0  0  0  0  0  0
   -4.6558   -2.3679    5.2583 C   0  0  0  0  0  0  0  0  0  0  0  0
   -4.0702   -3.6541    5.1927 C   0  0  0  0  0  0  0  0  0  0  0  0
   -3.2147   -3.9318    6.2396 C   0  0  0  0  0  0  0  0  0  0  0  0
   -2.9391   -2.9948    7.2881 C   0  0  0  0  0  0  0  0  0  0  0  0
   -3.5303   -1.7428    7.3642 C   0  0  0  0  0  0  0  0  0  0  0  0
   -4.4421   -1.4404    6.3061 C   0  0  0  0  0  0  0  0  0  0  0  0
   -5.2274   -0.1927    6.0190 C   0  0  0  0  0  0  0  0  0  0  0  0
   -5.1674    0.9741    6.7269 C   0  0  0  0  0  0  0  0  0  0  0  0
   -5.7645    2.2018    6.2717 C   0  0  0  0  0  0  0  0  0  0  0  0
   -6.2241    3.2016    5.9130 N   0  0  0  0  0  0  0  0  0  0  0  0
   -4.4506    1.1088    7.9678 C   0  0  0  0  0  0  0  0  0  0  0  0
   -3.8631    1.2394    8.9581 N   0  0  0  0  0  0  0  0  0  0  0  0
   -1.9594   -3.9533    7.9023 C   0  0  0  0  0  0  0  0  0  0  0  0
   -0.4448   -3.6509    7.6859 C   0  0  0  0  0  0  0  0  0  0  0  0
    0.2883   -4.9266    8.0343 C   0  0  0  0  0  0  0  0  0  0  0  0
    0.0052   -5.8039    7.0619 C   0  0  0  0  0  0  0  0  0  0  0  0
   -0.9061   -5.0917    6.0964 C   0  0  0  0  0  0  0  0  0  0  0  0
   -0.2915   -3.7053    6.1740 C   0  0  0  0  0  0  0  0  0  0  0  0
   -2.2634   -4.9176    6.8388 C   0  0  0  0  0  0  0  0  0  0  0  0
   -6.8040    0.5039    2.5550 C   0  0  0  0  0  0  0  0  0  0  0  0
   -7.0168   -0.4811    1.5861 C   0  0  0  0  0  0  0  0  0  0  0  0
   -6.6246   -0.0841    0.2934 C   0  0  0  0  0  0  0  0  0  0  0  0
   -6.5004   -0.9100   -0.8557 C   0  0  0  0  0  0  0  0  0  0  0  0
   -6.9620   -2.3222   -0.9135 C   0  0  0  0  0  0  0  0  0  0  0  0
   -7.7550   -2.7417   -1.9965 C   0  0  0  0  0  0  0  0  0  0  0  0
   -8.1773   -4.0696   -2.0956 C   0  0  0  0  0  0  0  0  0  0  0  0
   -7.8209   -4.9920   -1.1110 C   0  0  0  0  0  0  0  0  0  0  0  0
   -7.0581   -4.5856   -0.0110 C   0  0  0  0  0  0  0  0  0  0  0  0
   -6.6950   -5.7477    1.3101 S   0  0  0  0  0  0  0  0  0  0  0  0
   -8.3914   -5.7465    2.0044 C   0  0  0  0  0  0  0  0  0  0  0  0
   -8.6924   -4.4605    2.7629 C   0  0  0  0  0  0  0  0  0  0  0  0
   -6.5882   -3.2646    0.0632 C   0  0  0  0  0  0  0  0  0  0  0  0
   -5.8800   -0.3235   -1.9769 C   0  0  0  0  0  0  0  0  0  0  0  0
   -5.5302    1.0262   -2.0320 C   0  0  0  0  0  0  0  0  0  0  0  0
   -5.7706    1.8719   -0.9321 C   0  0  0  0  0  0  0  0  0  0  0  0
   -5.5179    3.3240   -1.0144 C   0  0  0  0  0  0  0  0  0  0  0  0
   -4.4634    3.9157   -0.3053 C   0  0  0  0  0  0  0  0  0  0  0  0
   -4.1961    5.2796   -0.4586 C   0  0  0  0  0  0  0  0  0  0  0  0
   -4.9899    6.0620   -1.3031 C   0  0  0  0  0  0  0  0  0  0  0  0
   -6.0753    5.4853   -1.9782 C   0  0  0  0  0  0  0  0  0  0  0  0
   -7.1704    6.5191   -2.9607 S   0  0  0  0  0  0  0  0  0  0  0  0
   -6.6291    5.9165   -4.6036 C   0  0  0  0  0  0  0  0  0  0  0  0
   -5.2400    6.4315   -4.9628 C   0  0  0  0  0  0  0  0  0  0  0  0
   -6.3362    4.1187   -1.8326 C   0  0  0  0  0  0  0  0  0  0  0  0
   -6.2426    1.2621    0.2405 C   0  0  0  0  0  0  0  0  0  0  0  0
   -6.3082    1.9176    1.7850 S   0  0  0  0  0  0  0  0  0  0  0  0
   -4.7639    1.3629   -3.1592 C   0  0  0  0  0  0  0  0  0  0  0  0
   -4.4405    0.2621   -3.9633 C   0  0  0  0  0  0  0  0  0  0  0  0
   -5.1900   -1.0996   -3.3021 S   0  0  0  0  0  0  0  0  0  0  0  0
   -3.3107    0.2622   -4.9233 C   0  0  0  0  0  0  0  0  0  0  0  0
   -2.5601   -0.8234   -5.3933 C   0  0  0  0  0  0  0  0  0  0  0  0
   -2.6442   -2.2821   -5.2710 C   0  0  0  0  0  0  0  0  0  0  0  0
   -3.6860   -2.9462   -5.0364 O   0  0  0  0  0  0  0  0  0  0  0  0
   -1.3693   -2.8702   -5.5334 N   0  0  0  0  0  0  0  0  0  0  0  0
   -1.0927   -4.2842   -5.7430 C   0  0  0  0  0  0  0  0  0  0  0  0
   -0.5221   -1.7759   -5.8910 C   0  0  0  0  0  0  0  0  0  0  0  0
    0.6847   -1.8983   -6.2362 O   0  0  0  0  0  0  0  0  0  0  0  0
   -1.2664   -0.5206   -5.8002 C   0  0  0  0  0  0  0  0  0  0  0  0
   -0.9088    0.8202   -5.7127 C   0  0  0  0  0  0  0  0  0  0  0  0
   -2.2875    1.5913   -5.1132 S   0  0  0  0  0  0  0  0  0  0  0  0
    0.4388    1.3964   -5.5945 C   0  0  0  0  0  0  0  0  0  0  0  0
    0.7596    2.3831   -4.6691 C   0  0  0  0  0  0  0  0  0  0  0  0
    2.1255    2.6727   -4.6151 C   0  0  0  0  0  0  0  0  0  0  0  0
    2.7394    3.5291   -3.6862 C   0  0  0  0  0  0  0  0  0  0  0  0
    1.9768    4.0649   -2.5466 C   0  0  0  0  0  0  0  0  0  0  0  0
    1.2451    5.2534   -2.6621 C   0  0  0  0  0  0  0  0  0  0  0  0
    0.3724    5.6281   -1.6305 C   0  0  0  0  0  0  0  0  0  0  0  0
    0.2239    4.8166   -0.5002 C   0  0  0  0  0  0  0  0  0  0  0  0
    0.9714    3.6404   -0.3782 C   0  0  0  0  0  0  0  0  0  0  0  0
    0.8071    2.6055    1.0778 S   0  0  0  0  0  0  0  0  0  0  0  0
   -0.1273    1.2719    0.2341 C   0  0  0  0  0  0  0  0  0  0  0  0
   -1.6033    1.6284    0.1142 C   0  0  0  0  0  0  0  0  0  0  0  0
    1.8694    3.2852   -1.3898 C   0  0  0  0  0  0  0  0  0  0  0  0
    4.1300    3.6445   -3.7544 C   0  0  0  0  0  0  0  0  0  0  0  0
    4.9026    2.9125   -4.6635 C   0  0  0  0  0  0  0  0  0  0  0  0
    4.2880    2.0267   -5.5727 C   0  0  0  0  0  0  0  0  0  0  0  0
    5.0786    1.1337   -6.4379 C   0  0  0  0  0  0  0  0  0  0  0  0
    5.7251    1.6349   -7.5780 C   0  0  0  0  0  0  0  0  0  0  0  0
    6.4892    0.7828   -8.3849 C   0  0  0  0  0  0  0  0  0  0  0  0
    6.6130   -0.5698   -8.0568 C   0  0  0  0  0  0  0  0  0  0  0  0
    5.9724   -1.0758   -6.9192 C   0  0  0  0  0  0  0  0  0  0  0  0
    6.1421   -2.8076   -6.4841 S   0  0  0  0  0  0  0  0  0  0  0  0
    7.6607   -2.5398   -5.5082 C   0  0  0  0  0  0  0  0  0  0  0  0
    8.1082   -3.8463   -4.8664 C   0  0  0  0  0  0  0  0  0  0  0  0
    5.1974   -0.2251   -6.1202 C   0  0  0  0  0  0  0  0  0  0  0  0
    2.8844    1.9370   -5.5269 C   0  0  0  0  0  0  0  0  0  0  0  0
    1.8570    0.8973   -6.3745 S   0  0  0  0  0  0  0  0  0  0  0  0
    6.2836    3.0599   -4.4542 C   0  0  0  0  0  0  0  0  0  0  0  0
    6.5695    3.9005   -3.3751 C   0  0  0  0  0  0  0  0  0  0  0  0
    5.1362    4.4607   -2.6896 S   0  0  0  0  0  0  0  0  0  0  0  0
    7.8809    4.0560   -2.7349 C   0  0  0  0  0  0  0  0  0  0  0  0
    8.4271    3.0858   -1.9774 C   0  0  0  0  0  0  0  0  0  0  0  0
    7.7721    1.8134   -1.6340 C   0  0  0  0  0  0  0  0  0  0  0  0
    6.7827    1.2909   -2.2132 O   0  0  0  0  0  0  0  0  0  0  0  0
    8.4147    1.2568   -0.4648 C   0  0  0  0  0  0  0  0  0  0  0  0
    7.9823    0.1425    0.2865 C   0  0  0  0  0  0  0  0  0  0  0  0
    8.6957   -0.0540    1.4534 C   0  0  0  0  0  0  0  0  0  0  0  0
    9.7750    0.7907    1.8653 C   0  0  0  0  0  0  0  0  0  0  0  0
   10.2022    1.8871    1.1304 C   0  0  0  0  0  0  0  0  0  0  0  0
    9.4905    2.1025   -0.0846 C   0  0  0  0  0  0  0  0  0  0  0  0
    9.6116    3.2145   -1.0769 C   0  0  0  0  0  0  0  0  0  0  0  0
   10.6787    4.0408   -1.2408 C   0  0  0  0  0  0  0  0  0  0  0  0
   11.8618    3.9396   -0.4270 C   0  0  0  0  0  0  0  0  0  0  0  0
   12.8243    3.8570    0.2066 N   0  0  0  0  0  0  0  0  0  0  0  0
   10.7734    4.9710   -2.3347 C   0  0  0  0  0  0  0  0  0  0  0  0
   10.8670    5.7189   -3.2144 N   0  0  0  0  0  0  0  0  0  0  0  0
    9.9321    0.0015    3.1304 C   0  0  0  0  0  0  0  0  0  0  0  0
    9.4221    0.6459    4.4550 C   0  0  0  0  0  0  0  0  0  0  0  0
    8.2639    1.5709    4.1658 C   0  0  0  0  0  0  0  0  0  0  0  0
    7.2471    0.7999    3.7792 C   0  0  0  0  0  0  0  0  0  0  0  0
    7.7470   -0.6266    3.8211 C   0  0  0  0  0  0  0  0  0  0  0  0
    8.6504   -0.5233    5.0380 C   0  0  0  0  0  0  0  0  0  0  0  0
    8.8197   -0.8557    2.7147 C   0  0  0  0  0  0  0  0  0  0  0  0
   -7.1584    1.2591    4.5220 H   0  0  0  0  0  0  0  0  0  0  0  0
   -4.2580   -4.3573    4.3891 H   0  0  0  0  0  0  0  0  0  0  0  0
   -3.2672   -1.0813    8.1700 H   0  0  0  0  0  0  0  0  0  0  0  0
   -2.2405   -4.2898    8.9290 H   0  0  0  0  0  0  0  0  0  0  0  0
   -0.0594   -2.7337    8.1779 H   0  0  0  0  0  0  0  0  0  0  0  0
    0.9922   -5.0779    8.8417 H   0  0  0  0  0  0  0  0  0  0  0  0
    0.4309   -6.7969    6.9588 H   0  0  0  0  0  0  0  0  0  0  0  0
   -0.9655   -5.5439    5.0830 H   0  0  0  0  0  0  0  0  0  0  0  0
   -0.8660   -2.9250    5.6290 H   0  0  0  0  0  0  0  0  0  0  0  0
    0.7711   -3.6689    5.8298 H   0  0  0  0  0  0  0  0  0  0  0  0
   -2.7462   -5.8578    7.1841 H   0  0  0  0  0  0  0  0  0  0  0  0
   -7.4512   -1.4409    1.8014 H   0  0  0  0  0  0  0  0  0  0  0  0
   -8.0508   -2.0378   -2.7632 H   0  0  0  0  0  0  0  0  0  0  0  0
   -8.7878   -4.3810   -2.9348 H   0  0  0  0  0  0  0  0  0  0  0  0
   -8.1636   -6.0152   -1.1876 H   0  0  0  0  0  0  0  0  0  0  0  0
   -8.4770   -6.6034    2.7024 H   0  0  0  0  0  0  0  0  0  0  0  0
   -9.1433   -5.8886    1.1960 H   0  0  0  0  0  0  0  0  0  0  0  0
   -7.9675   -4.3277    3.5910 H   0  0  0  0  0  0  0  0  0  0  0  0
   -8.6489   -3.5856    2.0823 H   0  0  0  0  0  0  0  0  0  0  0  0
   -9.7203   -4.5150    3.1880 H   0  0  0  0  0  0  0  0  0  0  0  0
   -5.9248   -2.9811    0.8649 H   0  0  0  0  0  0  0  0  0  0  0  0
   -3.8529    3.3235    0.3613 H   0  0  0  0  0  0  0  0  0  0  0  0
   -3.3733    5.7326    0.0770 H   0  0  0  0  0  0  0  0  0  0  0  0
   -4.7834    7.1204   -1.4020 H   0  0  0  0  0  0  0  0  0  0  0  0
   -7.3545    6.2901   -5.3558 H   0  0  0  0  0  0  0  0  0  0  0  0
   -6.6457    4.8052   -4.6353 H   0  0  0  0  0  0  0  0  0  0  0  0
   -4.4883    6.0371   -4.2522 H   0  0  0  0  0  0  0  0  0  0  0  0
   -4.9804    6.0793   -5.9864 H   0  0  0  0  0  0  0  0  0  0  0  0
   -5.2268    7.5416   -4.9465 H   0  0  0  0  0  0  0  0  0  0  0  0
   -7.1755    3.6748   -2.3539 H   0  0  0  0  0  0  0  0  0  0  0  0
   -4.3489    2.3507   -3.3117 H   0  0  0  0  0  0  0  0  0  0  0  0
   -0.0155   -4.4933   -5.5804 H   0  0  0  0  0  0  0  0  0  0  0  0
   -1.6838   -4.8930   -5.0236 H   0  0  0  0  0  0  0  0  0  0  0  0
   -1.3713   -4.5724   -6.7809 H   0  0  0  0  0  0  0  0  0  0  0  0
    0.0335    2.8302   -4.0013 H   0  0  0  0  0  0  0  0  0  0  0  0
    1.3203    5.8587   -3.5578 H   0  0  0  0  0  0  0  0  0  0  0  0
   -0.2142    6.5295   -1.7278 H   0  0  0  0  0  0  0  0  0  0  0  0
   -0.4767    5.0995    0.2797 H   0  0  0  0  0  0  0  0  0  0  0  0
   -0.0270    0.3431    0.8398 H   0  0  0  0  0  0  0  0  0  0  0  0
    0.2940    1.0602   -0.7708 H   0  0  0  0  0  0  0  0  0  0  0  0
   -1.7308    2.5276   -0.5168 H   0  0  0  0  0  0  0  0  0  0  0  0
   -2.1493    0.7770   -0.3541 H   0  0  0  0  0  0  0  0  0  0  0  0
   -2.0264    1.8114    1.1234 H   0  0  0  0  0  0  0  0  0  0  0  0
    2.4369    2.3635   -1.3020 H   0  0  0  0  0  0  0  0  0  0  0  0
    5.6351    2.6813   -7.8420 H   0  0  0  0  0  0  0  0  0  0  0  0
    6.9921    1.1756   -9.2562 H   0  0  0  0  0  0  0  0  0  0  0  0
    7.2112   -1.2232   -8.6800 H   0  0  0  0  0  0  0  0  0  0  0  0
    7.4786   -1.7842   -4.7180 H   0  0  0  0  0  0  0  0  0  0  0  0
    8.4661   -2.1703   -6.1798 H   0  0  0  0  0  0  0  0  0  0  0  0
    7.3195   -4.2185   -4.1773 H   0  0  0  0  0  0  0  0  0  0  0  0
    8.3048   -4.6101   -5.6471 H   0  0  0  0  0  0  0  0  0  0  0  0
    9.0377   -3.6726   -4.2819 H   0  0  0  0  0  0  0  0  0  0  0  0
    4.6966   -0.6194   -5.2432 H   0  0  0  0  0  0  0  0  0  0  0  0
    7.0449    2.5228   -5.0054 H   0  0  0  0  0  0  0  0  0  0  0  0
    8.2893    5.0531   -2.7246 H   0  0  0  0  0  0  0  0  0  0  0  0
    7.1316   -0.4688    0.0115 H   0  0  0  0  0  0  0  0  0  0  0  0
   10.9618    2.5514    1.5205 H   0  0  0  0  0  0  0  0  0  0  0  0
   10.9023   -0.5341    3.2084 H   0  0  0  0  0  0  0  0  0  0  0  0
   10.2104    1.0661    5.1126 H   0  0  0  0  0  0  0  0  0  0  0  0
    8.2303    2.6442    4.3090 H   0  0  0  0  0  0  0  0  0  0  0  0
    6.2388    1.1386    3.5681 H   0  0  0  0  0  0  0  0  0  0  0  0
    6.9534   -1.3989    3.8804 H   0  0  0  0  0  0  0  0  0  0  0  0
    8.1039   -0.2746    5.9751 H   0  0  0  0  0  0  0  0  0  0  0  0
    9.2736   -1.4314    5.2063 H   0  0  0  0  0  0  0  0  0  0  0  0
    9.1062   -1.9191    2.5474 H   0  0  0  0  0  0  0  0  0  0  0  0
  1  2  2  3
  2  3  1  0
  3  4  2  0
  3  5  1  0
  5  6  2  0
  6  7  1  0
  7  8  2  0
  8  9  1  0
  9 10  2  0
 10 11  1  0
 11 12  2  3
 12 13  1  0
 13 14  3  0
 12 15  1  0
 15 16  3  0
  8 17  1  0
 17 18  1  0
 18 19  1  0
 19 20  2  0
 20 21  1  0
 21 22  1  0
 21 23  1  0
  1 24  1  0
 24 25  2  0
 25 26  1  0
 26 27  2  0
 27 28  1  0
 28 29  2  0
 29 30  1  0
 30 31  2  0
 31 32  1  0
 32 33  1  0
 33 34  1  0
 34 35  1  0
 32 36  2  0
 27 37  1  0
 37 38  2  0
 38 39  1  0
 39 40  1  0
 40 41  2  0
 41 42  1  0
 42 43  2  0
 43 44  1  0
 44 45  1  0
 45 46  1  0
 46 47  1  0
 44 48  2  0
 39 49  2  0
 49 50  1  0
 38 51  1  0
 51 52  2  0
 52 53  1  0
 52 54  1  0
 54 55  2  0
 55 56  1  0
 56 57  2  0
 56 58  1  0
 58 59  1  0
 58 60  1  0
 60 61  2  0
 60 62  1  0
 62 63  2  0
 63 64  1  0
 63 65  1  0
 65 66  2  0
 66 67  1  0
 67 68  2  0
 68 69  1  0
 69 70  2  0
 70 71  1  0
 71 72  2  0
 72 73  1  0
 73 74  1  0
 74 75  1  0
 75 76  1  0
 73 77  2  0
 68 78  1  0
 78 79  2  0
 79 80  1  0
 80 81  1  0
 81 82  2  0
 82 83  1  0
 83 84  2  0
 84 85  1  0
 85 86  1  0
 86 87  1  0
 87 88  1  0
 85 89  2  0
 80 90  2  0
 90 91  1  0
 79 92  1  0
 92 93  2  0
 93 94  1  0
 93 95  1  0
 95 96  2  3
 96 97  1  0
 97 98  2  0
 97 99  1  0
 99100  2  0
100101  1  0
101102  2  0
102103  1  0
103104  2  0
104105  1  0
105106  2  3
106107  1  0
107108  3  0
106109  1  0
109110  3  0
102111  1  0
111112  1  0
112113  1  0
113114  2  0
114115  1  0
115116  1  0
115117  1  0
 11  2  1  0
 23 17  1  0
 50 24  1  0
 64 54  1  0
 91 65  1  0
105 96  1  0
117111  1  0
 10  5  1  0
 22 18  1  0
 49 26  1  0
 62 55  1  0
 90 67  1  0
104 99  1  0
116112  1  0
 23  7  1  0
 36 28  1  0
 53 37  1  0
 77 69  1  0
 94 78  1  0
117101  1  0
 48 40  1  0
 89 81  1  0
  1118  1  0
  6119  1  0
  9120  1  0
 17121  1  0
 18122  1  0
 19123  1  0
 20124  1  0
 21125  1  0
 22126  1  0
 22127  1  0
 23128  1  0
 25129  1  0
 29130  1  0
 30131  1  0
 31132  1  0
 34133  1  0
 34134  1  0
 35135  1  0
 35136  1  0
 35137  1  0
 36138  1  0
 41139  1  0
 42140  1  0
 43141  1  0
 46142  1  0
 46143  1  0
 47144  1  0
 47145  1  0
 47146  1  0
 48147  1  0
 51148  1  0
 59149  1  0
 59150  1  0
 59151  1  0
 66152  1  0
 70153  1  0
 71154  1  0
 72155  1  0
 75156  1  0
 75157  1  0
 76158  1  0
 76159  1  0
 76160  1  0
 77161  1  0
 82162  1  0
 83163  1  0
 84164  1  0
 87165  1  0
 87166  1  0
 88167  1  0
 88168  1  0
 88169  1  0
 89170  1  0
 92171  1  0
 95172  1  0
100173  1  0
103174  1  0
111175  1  0
112176  1  0
113177  1  0
114178  1  0
115179  1  0
116180  1  0
116181  1  0
117182  1  0
M  END

