
     RDKit          3D

198217  0  0  0  0  0  0  0  0999 V2000
    5.9058   -3.6370   -6.5475 C   0  0  0  0  0  0  0  0  0  0  0  0
    6.4899   -3.5306   -5.3326 C   0  0  0  0  0  0  0  0  0  0  0  0
    5.9299   -2.8311   -4.1633 C   0  0  0  0  0  0  0  0  0  0  0  0
    4.7230   -2.5228   -3.9736 O   0  0  0  0  0  0  0  0  0  0  0  0
    7.0035   -2.5293   -3.2449 C   0  0  0  0  0  0  0  0  0  0  0  0
    6.9122   -1.7958   -2.0427 C   0  0  0  0  0  0  0  0  0  0  0  0
    8.1249   -1.5949   -1.4203 C   0  0  0  0  0  0  0  0  0  0  0  0
    9.3669   -2.0619   -1.9526 C   0  0  0  0  0  0  0  0  0  0  0  0
    9.4654   -2.7964   -3.1263 C   0  0  0  0  0  0  0  0  0  0  0  0
    8.2168   -3.0480   -3.7651 C   0  0  0  0  0  0  0  0  0  0  0  0
    7.9178   -3.8260   -5.0022 C   0  0  0  0  0  0  0  0  0  0  0  0
    8.6511   -4.8457   -5.5109 C   0  0  0  0  0  0  0  0  0  0  0  0
    9.9643   -5.1753   -5.0208 C   0  0  0  0  0  0  0  0  0  0  0  0
   11.0197   -5.4484   -4.6332 N   0  0  0  0  0  0  0  0  0  0  0  0
    8.0746   -5.7942   -6.4332 C   0  0  0  0  0  0  0  0  0  0  0  0
    7.6032   -6.5626   -7.1544 N   0  0  0  0  0  0  0  0  0  0  0  0
   10.1070   -1.4353   -0.8072 C   0  0  0  0  0  0  0  0  0  0  0  0
   10.8621   -0.1048   -1.1049 C   0  0  0  0  0  0  0  0  0  0  0  0
   11.1804    0.5035    0.2383 C   0  0  0  0  0  0  0  0  0  0  0  0
   10.0139    0.9040    0.7555 C   0  0  0  0  0  0  0  0  0  0  0  0
    8.9528    0.5655   -0.2644 C   0  0  0  0  0  0  0  0  0  0  0  0
    9.7489    0.8396   -1.5276 C   0  0  0  0  0  0  0  0  0  0  0  0
    8.8295   -0.9828   -0.2513 C   0  0  0  0  0  0  0  0  0  0  0  0
    4.5465   -3.1434   -6.7860 C   0  0  0  0  0  0  0  0  0  0  0  0
    3.4176   -3.7973   -6.3027 C   0  0  0  0  0  0  0  0  0  0  0  0
    2.3437   -2.9261   -6.0638 C   0  0  0  0  0  0  0  0  0  0  0  0
    1.1867   -3.2495   -5.3319 C   0  0  0  0  0  0  0  0  0  0  0  0
    0.9421   -4.6207   -4.8560 C   0  0  0  0  0  0  0  0  0  0  0  0
    1.4789   -5.0524   -3.6333 C   0  0  0  0  0  0  0  0  0  0  0  0
    1.2543   -6.3625   -3.1935 C   0  0  0  0  0  0  0  0  0  0  0  0
    0.4901   -7.2414   -3.9693 C   0  0  0  0  0  0  0  0  0  0  0  0
   -0.0527   -6.8093   -5.1896 C   0  0  0  0  0  0  0  0  0  0  0  0
   -1.0651   -7.9245   -6.1659 S   0  0  0  0  0  0  0  0  0  0  0  0
   -2.6581   -7.2569   -5.5752 C   0  0  0  0  0  0  0  0  0  0  0  0
   -2.9611   -7.7131   -4.1526 C   0  0  0  0  0  0  0  0  0  0  0  0
    0.1911   -5.5064   -5.6410 C   0  0  0  0  0  0  0  0  0  0  0  0
    0.3952   -2.1780   -4.8871 C   0  0  0  0  0  0  0  0  0  0  0  0
    0.7015   -0.8437   -5.1704 C   0  0  0  0  0  0  0  0  0  0  0  0
    1.8047   -0.5293   -5.9868 C   0  0  0  0  0  0  0  0  0  0  0  0
    2.2201    0.8665   -6.2277 C   0  0  0  0  0  0  0  0  0  0  0  0
    1.8662    1.5100   -7.4208 C   0  0  0  0  0  0  0  0  0  0  0  0
    2.2724    2.8272   -7.6501 C   0  0  0  0  0  0  0  0  0  0  0  0
    3.0341    3.5014   -6.6895 C   0  0  0  0  0  0  0  0  0  0  0  0
    3.3940    2.8596   -5.4978 C   0  0  0  0  0  0  0  0  0  0  0  0
    4.3460    3.7384   -4.2529 S   0  0  0  0  0  0  0  0  0  0  0  0
    5.9801    3.2630   -4.9156 C   0  0  0  0  0  0  0  0  0  0  0  0
    6.3929    1.8793   -4.4260 C   0  0  0  0  0  0  0  0  0  0  0  0
    2.9798    1.5449   -5.2643 C   0  0  0  0  0  0  0  0  0  0  0  0
    2.6222   -1.5962   -6.3976 C   0  0  0  0  0  0  0  0  0  0  0  0
    4.1961   -1.4994   -6.9747 S   0  0  0  0  0  0  0  0  0  0  0  0
   -0.0317    0.0676   -4.3915 C   0  0  0  0  0  0  0  0  0  0  0  0
   -0.8850   -0.5544   -3.4828 C   0  0  0  0  0  0  0  0  0  0  0  0
   -0.7557   -2.2249   -3.6753 S   0  0  0  0  0  0  0  0  0  0  0  0
   -1.1760    0.0187   -2.1723 C   0  0  0  0  0  0  0  0  0  0  0  0
   -2.3170    0.7337   -1.7573 C   0  0  0  0  0  0  0  0  0  0  0  0
   -3.3958    1.1682   -2.6150 N   0  0  0  0  0  0  0  0  0  0  0  0
   -4.0099    2.4604   -2.4202 C   0  0  0  0  0  0  0  0  0  0  0  0
   -5.4012    2.6104   -2.5600 C   0  0  0  0  0  0  0  0  0  0  0  0
   -5.9994    3.8618   -2.3650 C   0  0  0  0  0  0  0  0  0  0  0  0
   -5.2144    4.9717   -2.0371 C   0  0  0  0  0  0  0  0  0  0  0  0
   -5.9909    6.5644   -1.7538 S   0  0  0  0  0  0  0  0  0  0  0  0
   -5.7645    7.1180   -3.4723 C   0  0  0  0  0  0  0  0  0  0  0  0
   -3.8285    4.8313   -1.9043 C   0  0  0  0  0  0  0  0  0  0  0  0
   -3.2262    3.5860   -2.1105 C   0  0  0  0  0  0  0  0  0  0  0  0
   -3.7667    0.3865   -3.7648 C   0  0  0  0  0  0  0  0  0  0  0  0
   -4.0935   -0.9762   -3.6250 C   0  0  0  0  0  0  0  0  0  0  0  0
   -4.3904   -1.7464   -4.7553 C   0  0  0  0  0  0  0  0  0  0  0  0
   -4.3487   -1.1696   -6.0296 C   0  0  0  0  0  0  0  0  0  0  0  0
   -4.6672   -2.1688   -7.4828 S   0  0  0  0  0  0  0  0  0  0  0  0
   -6.4156   -1.6796   -7.5991 C   0  0  0  0  0  0  0  0  0  0  0  0
   -4.0323    0.1884   -6.1733 C   0  0  0  0  0  0  0  0  0  0  0  0
   -3.7485    0.9628   -5.0463 C   0  0  0  0  0  0  0  0  0  0  0  0
   -2.2271    1.0203   -0.3876 C   0  0  0  0  0  0  0  0  0  0  0  0
   -3.2146    1.7641    0.7599 S   0  0  0  0  0  0  0  0  0  0  0  0
   -2.1166    1.5130    2.0445 C   0  0  0  0  0  0  0  0  0  0  0  0
   -0.9893    0.8353    1.5784 C   0  0  0  0  0  0  0  0  0  0  0  0
    0.1892    0.5824    2.3589 N   0  0  0  0  0  0  0  0  0  0  0  0
    1.3695    1.3941    2.1748 C   0  0  0  0  0  0  0  0  0  0  0  0
    1.2627    2.7205    1.7105 C   0  0  0  0  0  0  0  0  0  0  0  0
    2.4060    3.4950    1.4980 C   0  0  0  0  0  0  0  0  0  0  0  0
    3.6736    2.9479    1.7223 C   0  0  0  0  0  0  0  0  0  0  0  0
    5.1461    3.9381    1.4548 S   0  0  0  0  0  0  0  0  0  0  0  0
    5.2666    3.5210   -0.3145 C   0  0  0  0  0  0  0  0  0  0  0  0
    3.7939    1.6299    2.1790 C   0  0  0  0  0  0  0  0  0  0  0  0
    2.6512    0.8580    2.4160 C   0  0  0  0  0  0  0  0  0  0  0  0
    0.2160   -0.5634    3.2184 C   0  0  0  0  0  0  0  0  0  0  0  0
    0.2245   -1.8595    2.6728 C   0  0  0  0  0  0  0  0  0  0  0  0
    0.3997   -2.9720    3.5008 C   0  0  0  0  0  0  0  0  0  0  0  0
    0.5531   -2.7954    4.8832 C   0  0  0  0  0  0  0  0  0  0  0  0
    0.8843   -4.2091    5.9340 S   0  0  0  0  0  0  0  0  0  0  0  0
   -0.8732   -4.6007    6.1913 C   0  0  0  0  0  0  0  0  0  0  0  0
    0.4963   -1.5061    5.4363 C   0  0  0  0  0  0  0  0  0  0  0  0
    0.3472   -0.3934    4.6043 C   0  0  0  0  0  0  0  0  0  0  0  0
   -1.0886    0.5861    0.2209 C   0  0  0  0  0  0  0  0  0  0  0  0
   -0.1025   -0.1969   -0.8664 S   0  0  0  0  0  0  0  0  0  0  0  0
   -2.3567    1.8699    3.4380 C   0  0  0  0  0  0  0  0  0  0  0  0
   -2.0788    3.3800    4.1679 S   0  0  0  0  0  0  0  0  0  0  0  0
   -2.4290    2.9001    5.7560 C   0  0  0  0  0  0  0  0  0  0  0  0
   -2.7644    1.5606    5.6911 C   0  0  0  0  0  0  0  0  0  0  0  0
   -3.2301    0.4270    6.8387 S   0  0  0  0  0  0  0  0  0  0  0  0
   -3.3970   -0.8344    5.7030 C   0  0  0  0  0  0  0  0  0  0  0  0
   -3.8755   -2.1842    6.0084 C   0  0  0  0  0  0  0  0  0  0  0  0
   -3.9327   -2.5737    7.2084 O   0  0  0  0  0  0  0  0  0  0  0  0
   -4.2545   -3.0321    4.9606 O   0  0  0  0  0  0  0  0  0  0  0  0
   -4.7760   -4.3446    5.1543 C   0  0  0  0  0  0  0  0  0  0  0  0
   -6.2320   -4.2906    5.6086 C   0  0  0  0  0  0  0  0  0  0  0  0
   -3.0788   -0.3574    4.4226 C   0  0  0  0  0  0  0  0  0  0  0  0
   -2.7171    0.9892    4.4468 C   0  0  0  0  0  0  0  0  0  0  0  0
   -3.1264   -1.1060    3.2927 F   0  0  0  0  0  0  0  0  0  0  0  0
   -2.5468    3.7467    6.9488 C   0  0  0  0  0  0  0  0  0  0  0  0
   -3.6951    4.3794    7.2557 C   0  0  0  0  0  0  0  0  0  0  0  0
   -4.8928    4.4010    6.4108 C   0  0  0  0  0  0  0  0  0  0  0  0
   -4.9268    4.2902    5.1540 O   0  0  0  0  0  0  0  0  0  0  0  0
   -6.0394    4.6667    7.2513 C   0  0  0  0  0  0  0  0  0  0  0  0
   -7.3825    4.6946    6.8843 C   0  0  0  0  0  0  0  0  0  0  0  0
   -8.3509    4.9242    7.8838 C   0  0  0  0  0  0  0  0  0  0  0  0
   -9.7276    4.9712    7.6027 O   0  0  0  0  0  0  0  0  0  0  0  0
  -10.2867    4.8223    6.3020 C   0  0  0  0  0  0  0  0  0  0  0  0
   -7.9386    5.0996    9.2161 C   0  0  0  0  0  0  0  0  0  0  0  0
   -6.5806    5.0519    9.5670 C   0  0  0  0  0  0  0  0  0  0  0  0
   -5.6222    4.8542    8.5586 C   0  0  0  0  0  0  0  0  0  0  0  0
   -4.1309    4.7985    8.6171 C   0  0  0  0  0  0  0  0  0  0  0  0
   -3.3286    5.1584    9.6545 C   0  0  0  0  0  0  0  0  0  0  0  0
   -3.8372    5.3767   10.9819 C   0  0  0  0  0  0  0  0  0  0  0  0
   -4.2358    5.5137   12.0644 N   0  0  0  0  0  0  0  0  0  0  0  0
   -1.9266    5.4265    9.4848 C   0  0  0  0  0  0  0  0  0  0  0  0
   -0.7968    5.6744    9.3755 N   0  0  0  0  0  0  0  0  0  0  0  0
    6.4649   -3.9962   -7.3985 H   0  0  0  0  0  0  0  0  0  0  0  0
    5.9841   -1.4120   -1.6485 H   0  0  0  0  0  0  0  0  0  0  0  0
   10.4247   -3.1110   -3.5084 H   0  0  0  0  0  0  0  0  0  0  0  0
   10.6624   -2.1677   -0.1775 H   0  0  0  0  0  0  0  0  0  0  0  0
   11.7180   -0.1793   -1.8064 H   0  0  0  0  0  0  0  0  0  0  0  0
   12.1562    0.6714    0.6804 H   0  0  0  0  0  0  0  0  0  0  0  0
    9.8924    1.4631    1.6780 H   0  0  0  0  0  0  0  0  0  0  0  0
    8.0017    1.1211   -0.1595 H   0  0  0  0  0  0  0  0  0  0  0  0
    9.2317    0.5465   -2.4736 H   0  0  0  0  0  0  0  0  0  0  0  0
   10.0746    1.9037   -1.6203 H   0  0  0  0  0  0  0  0  0  0  0  0
    8.5581   -1.4451    0.7275 H   0  0  0  0  0  0  0  0  0  0  0  0
    3.4354   -4.8276   -5.9737 H   0  0  0  0  0  0  0  0  0  0  0  0
    2.0668   -4.3713   -3.0214 H   0  0  0  0  0  0  0  0  0  0  0  0
    1.6721   -6.6906   -2.2470 H   0  0  0  0  0  0  0  0  0  0  0  0
    0.3137   -8.2470   -3.6175 H   0  0  0  0  0  0  0  0  0  0  0  0
   -2.6600   -6.1467   -5.6283 H   0  0  0  0  0  0  0  0  0  0  0  0
   -3.4575   -7.6295   -6.2512 H   0  0  0  0  0  0  0  0  0  0  0  0
   -2.8994   -8.8173   -4.0787 H   0  0  0  0  0  0  0  0  0  0  0  0
   -2.2449   -7.2610   -3.4365 H   0  0  0  0  0  0  0  0  0  0  0  0
   -3.9863   -7.3901   -3.8689 H   0  0  0  0  0  0  0  0  0  0  0  0
   -0.2185   -5.1777   -6.5933 H   0  0  0  0  0  0  0  0  0  0  0  0
    1.2832    0.9898   -8.1722 H   0  0  0  0  0  0  0  0  0  0  0  0
    2.0017    3.3234   -8.5728 H   0  0  0  0  0  0  0  0  0  0  0  0
    3.3416    4.5236   -6.8742 H   0  0  0  0  0  0  0  0  0  0  0  0
    6.7251    4.0061   -4.5568 H   0  0  0  0  0  0  0  0  0  0  0  0
    5.9820    3.2933   -6.0286 H   0  0  0  0  0  0  0  0  0  0  0  0
    6.2813    1.8068   -3.3248 H   0  0  0  0  0  0  0  0  0  0  0  0
    7.4576    1.6932   -4.6888 H   0  0  0  0  0  0  0  0  0  0  0  0
    5.7729    1.0936   -4.9132 H   0  0  0  0  0  0  0  0  0  0  0  0
    3.2601    1.0440   -4.3445 H   0  0  0  0  0  0  0  0  0  0  0  0
    0.1789    1.1266   -4.3600 H   0  0  0  0  0  0  0  0  0  0  0  0
   -6.0218    1.7578   -2.8063 H   0  0  0  0  0  0  0  0  0  0  0  0
   -7.0745    3.9618   -2.4642 H   0  0  0  0  0  0  0  0  0  0  0  0
   -6.1866    8.1352   -3.5875 H   0  0  0  0  0  0  0  0  0  0  0  0
   -6.2887    6.4283   -4.1693 H   0  0  0  0  0  0  0  0  0  0  0  0
   -4.6812    7.1499   -3.7194 H   0  0  0  0  0  0  0  0  0  0  0  0
   -3.2186    5.6894   -1.6532 H   0  0  0  0  0  0  0  0  0  0  0  0
   -2.1498    3.5026   -2.0206 H   0  0  0  0  0  0  0  0  0  0  0  0
   -4.0971   -1.4372   -2.6437 H   0  0  0  0  0  0  0  0  0  0  0  0
   -4.6221   -2.7972   -4.6412 H   0  0  0  0  0  0  0  0  0  0  0  0
   -6.5009   -0.5723   -7.6020 H   0  0  0  0  0  0  0  0  0  0  0  0
   -6.8355   -2.0555   -8.5513 H   0  0  0  0  0  0  0  0  0  0  0  0
   -6.9847   -2.1047   -6.7456 H   0  0  0  0  0  0  0  0  0  0  0  0
   -3.9992    0.6416   -7.1563 H   0  0  0  0  0  0  0  0  0  0  0  0
   -3.4936    2.0079   -5.1682 H   0  0  0  0  0  0  0  0  0  0  0  0
    0.2942    3.1627    1.5120 H   0  0  0  0  0  0  0  0  0  0  0  0
    2.3002    4.5162    1.1523 H   0  0  0  0  0  0  0  0  0  0  0  0
    5.4886    2.4425   -0.4517 H   0  0  0  0  0  0  0  0  0  0  0  0
    6.0743    4.1224   -0.7755 H   0  0  0  0  0  0  0  0  0  0  0  0
    4.3142    3.7718   -0.8265 H   0  0  0  0  0  0  0  0  0  0  0  0
    4.7766    1.2022    2.3538 H   0  0  0  0  0  0  0  0  0  0  0  0
    2.7767   -0.1649    2.7618 H   0  0  0  0  0  0  0  0  0  0  0  0
    0.1396   -2.0017    1.6023 H   0  0  0  0  0  0  0  0  0  0  0  0
    0.4408   -3.9696    3.0676 H   0  0  0  0  0  0  0  0  0  0  0  0
   -1.3756   -3.7542    6.7048 H   0  0  0  0  0  0  0  0  0  0  0  0
   -1.3678   -4.8017    5.2156 H   0  0  0  0  0  0  0  0  0  0  0  0
   -0.9334   -5.5134    6.8168 H   0  0  0  0  0  0  0  0  0  0  0  0
    0.5908   -1.3671    6.5087 H   0  0  0  0  0  0  0  0  0  0  0  0
    0.3522    0.6051    5.0306 H   0  0  0  0  0  0  0  0  0  0  0  0
   -4.1604   -4.9063    5.8868 H   0  0  0  0  0  0  0  0  0  0  0  0
   -4.7179   -4.8845    4.1870 H   0  0  0  0  0  0  0  0  0  0  0  0
   -6.6321   -5.3244    5.7025 H   0  0  0  0  0  0  0  0  0  0  0  0
   -6.2973   -3.7901    6.5992 H   0  0  0  0  0  0  0  0  0  0  0  0
   -6.8371   -3.7419    4.8588 H   0  0  0  0  0  0  0  0  0  0  0  0
   -1.7978    3.5942    7.7108 H   0  0  0  0  0  0  0  0  0  0  0  0
   -7.6619    4.5281    5.8524 H   0  0  0  0  0  0  0  0  0  0  0  0
  -10.0044    3.8364    5.8748 H   0  0  0  0  0  0  0  0  0  0  0  0
  -11.3932    4.8900    6.3676 H   0  0  0  0  0  0  0  0  0  0  0  0
   -9.9251    5.6407    5.6398 H   0  0  0  0  0  0  0  0  0  0  0  0
   -8.6831    5.2631    9.9859 H   0  0  0  0  0  0  0  0  0  0  0  0
   -6.3265    5.1619   10.6085 H   0  0  0  0  0  0  0  0  0  0  0  0
  1  2  2  3
  2  3  1  0
  3  4  2  0
  3  5  1  0
  5  6  2  0
  6  7  1  0
  7  8  2  0
  8  9  1  0
  9 10  2  0
 10 11  1  0
 11 12  2  3
 12 13  1  0
 13 14  3  0
 12 15  1  0
 15 16  3  0
  8 17  1  0
 17 18  1  0
 18 19  1  0
 19 20  2  0
 20 21  1  0
 21 22  1  0
 21 23  1  0
  1 24  1  0
 24 25  2  0
 25 26  1  0
 26 27  2  0
 27 28  1  0
 28 29  2  0
 29 30  1  0
 30 31  2  0
 31 32  1  0
 32 33  1  0
 33 34  1  0
 34 35  1  0
 32 36  2  0
 27 37  1  0
 37 38  2  0
 38 39  1  0
 39 40  1  0
 40 41  2  0
 41 42  1  0
 42 43  2  0
 43 44  1  0
 44 45  1  0
 45 46  1  0
 46 47  1  0
 44 48  2  0
 39 49  2  0
 49 50  1  0
 38 51  1  0
 51 52  2  0
 52 53  1  0
 52 54  1  0
 54 55  2  0
 55 56  1  0
 56 57  1  0
 57 58  2  0
 58 59  1  0
 59 60  2  0
 60 61  1  0
 61 62  1  0
 60 63  1  0
 63 64  2  0
 56 65  1  0
 65 66  2  0
 66 67  1  0
 67 68  2  0
 68 69  1  0
 69 70  1  0
 68 71  1  0
 71 72  2  0
 55 73  1  0
 73 74  1  0
 74 75  1  0
 75 76  2  0
 76 77  1  0
 77 78  1  0
 78 79  2  0
 79 80  1  0
 80 81  2  0
 81 82  1  0
 82 83  1  0
 81 84  1  0
 84 85  2  0
 77 86  1  0
 86 87  2  0
 87 88  1  0
 88 89  2  0
 89 90  1  0
 90 91  1  0
 89 92  1  0
 92 93  2  0
 76 94  1  0
 94 95  1  0
 75 96  1  0
 96 97  1  0
 97 98  1  0
 98 99  2  0
 99100  1  0
100101  1  0
101102  1  0
102103  2  0
102104  1  0
104105  1  0
105106  1  0
101107  2  0
107108  1  0
107109  1  0
 98110  1  0
110111  2  3
111112  1  0
112113  2  0
112114  1  0
114115  2  0
115116  1  0
116117  1  0
117118  1  0
116119  2  0
119120  1  0
120121  2  0
121122  1  0
122123  2  3
123124  1  0
124125  3  0
123126  1  0
126127  3  0
 11  2  1  0
 23 17  1  0
 50 24  1  0
 95 54  1  0
108 96  2  0
122111  1  0
 10  5  1  0
 22 18  1  0
 49 26  1  0
 64 57  1  0
 72 65  1  0
 94 73  2  0
108 99  1  0
121114  1  0
 23  7  1  0
 36 28  1  0
 53 37  1  0
 85 78  1  0
 93 86  1  0
 48 40  1  0
  1128  1  0
  6129  1  0
  9130  1  0
 17131  1  0
 18132  1  0
 19133  1  0
 20134  1  0
 21135  1  0
 22136  1  0
 22137  1  0
 23138  1  0
 25139  1  0
 29140  1  0
 30141  1  0
 31142  1  0
 34143  1  0
 34144  1  0
 35145  1  0
 35146  1  0
 35147  1  0
 36148  1  0
 41149  1  0
 42150  1  0
 43151  1  0
 46152  1  0
 46153  1  0
 47154  1  0
 47155  1  0
 47156  1  0
 48157  1  0
 51158  1  0
 58159  1  0
 59160  1  0
 62161  1  0
 62162  1  0
 62163  1  0
 63164  1  0
 64165  1  0
 66166  1  0
 67167  1  0
 70168  1  0
 70169  1  0
 70170  1  0
 71171  1  0
 72172  1  0
 79173  1  0
 80174  1  0
 83175  1  0
 83176  1  0
 83177  1  0
 84178  1  0
 85179  1  0
 87180  1  0
 88181  1  0
 91182  1  0
 91183  1  0
 91184  1  0
 92185  1  0
 93186  1  0
105187  1  0
105188  1  0
106189  1  0
106190  1  0
106191  1  0
110192  1  0
115193  1  0
118194  1  0
118195  1  0
118196  1  0
119197  1  0
120198  1  0
M  END

