
     RDKit          3D

209230  0  0  0  0  0  0  0  0999 V2000
   -6.3867    5.1397   -4.6561 C   0  0  0  0  0  0  0  0  0  0  0  0
   -6.5651    4.0404   -5.4186 C   0  0  0  0  0  0  0  0  0  0  0  0
   -7.0382    4.1101   -6.8013 C   0  0  0  0  0  0  0  0  0  0  0  0
   -7.2213    5.1663   -7.4651 O   0  0  0  0  0  0  0  0  0  0  0  0
   -7.2175    2.7670   -7.3053 C   0  0  0  0  0  0  0  0  0  0  0  0
   -7.3839    2.3913   -8.6595 C   0  0  0  0  0  0  0  0  0  0  0  0
   -7.2502    1.0328   -8.8842 C   0  0  0  0  0  0  0  0  0  0  0  0
   -7.0075    0.0908   -7.8365 C   0  0  0  0  0  0  0  0  0  0  0  0
   -6.8488    0.4509   -6.5121 C   0  0  0  0  0  0  0  0  0  0  0  0
   -6.9364    1.8473   -6.2621 C   0  0  0  0  0  0  0  0  0  0  0  0
   -6.4625    2.5888   -5.0645 C   0  0  0  0  0  0  0  0  0  0  0  0
   -5.6146    2.0320   -4.1789 C   0  0  0  0  0  0  0  0  0  0  0  0
   -4.2744    2.5352   -4.0134 C   0  0  0  0  0  0  0  0  0  0  0  0
   -3.1895    2.9168   -3.8895 N   0  0  0  0  0  0  0  0  0  0  0  0
   -5.9328    0.7780   -3.5463 C   0  0  0  0  0  0  0  0  0  0  0  0
   -6.1993   -0.2240   -3.0314 N   0  0  0  0  0  0  0  0  0  0  0  0
   -6.8899   -1.0192   -8.8352 C   0  0  0  0  0  0  0  0  0  0  0  0
   -5.4423   -1.5327   -9.0977 C   0  0  0  0  0  0  0  0  0  0  0  0
   -5.5093   -2.3263  -10.3788 C   0  0  0  0  0  0  0  0  0  0  0  0
   -5.7104   -1.4406  -11.3627 C   0  0  0  0  0  0  0  0  0  0  0  0
   -5.7769   -0.0805  -10.7089 C   0  0  0  0  0  0  0  0  0  0  0  0
   -4.7319   -0.2988   -9.6251 C   0  0  0  0  0  0  0  0  0  0  0  0
   -7.1180   -0.0520   -9.9121 C   0  0  0  0  0  0  0  0  0  0  0  0
   -5.8437    5.1380   -3.2901 C   0  0  0  0  0  0  0  0  0  0  0  0
   -4.5859    5.6516   -2.9981 C   0  0  0  0  0  0  0  0  0  0  0  0
   -4.0547    5.1489   -1.8029 C   0  0  0  0  0  0  0  0  0  0  0  0
   -2.6927    5.2057   -1.4459 C   0  0  0  0  0  0  0  0  0  0  0  0
   -1.7387    6.0644   -2.1894 C   0  0  0  0  0  0  0  0  0  0  0  0
   -1.9397    7.4533   -2.2408 C   0  0  0  0  0  0  0  0  0  0  0  0
   -1.0606    8.2697   -2.9604 C   0  0  0  0  0  0  0  0  0  0  0  0
    0.0382    7.7092   -3.6146 C   0  0  0  0  0  0  0  0  0  0  0  0
    0.2547    6.3302   -3.5587 C   0  0  0  0  0  0  0  0  0  0  0  0
    1.7020    5.6096   -4.3318 S   0  0  0  0  0  0  0  0  0  0  0  0
    2.8634    6.0421   -2.9795 C   0  0  0  0  0  0  0  0  0  0  0  0
    2.4420    5.4704   -1.6261 C   0  0  0  0  0  0  0  0  0  0  0  0
   -0.6456    5.5060   -2.8723 C   0  0  0  0  0  0  0  0  0  0  0  0
   -2.2662    4.3082   -0.4506 C   0  0  0  0  0  0  0  0  0  0  0  0
   -3.1509    3.4671    0.2372 C   0  0  0  0  0  0  0  0  0  0  0  0
   -4.5283    3.4730   -0.0685 C   0  0  0  0  0  0  0  0  0  0  0  0
   -5.4633    2.4873    0.5114 C   0  0  0  0  0  0  0  0  0  0  0  0
   -5.3368    1.1253    0.2021 C   0  0  0  0  0  0  0  0  0  0  0  0
   -6.2562    0.2017    0.7027 C   0  0  0  0  0  0  0  0  0  0  0  0
   -7.3128    0.6365    1.5089 C   0  0  0  0  0  0  0  0  0  0  0  0
   -7.4482    1.9955    1.8210 C   0  0  0  0  0  0  0  0  0  0  0  0
   -8.8003    2.5543    2.8605 S   0  0  0  0  0  0  0  0  0  0  0  0
   -9.8735    3.0807    1.4776 C   0  0  0  0  0  0  0  0  0  0  0  0
  -10.6261    1.8983    0.8852 C   0  0  0  0  0  0  0  0  0  0  0  0
   -6.5205    2.9194    1.3225 C   0  0  0  0  0  0  0  0  0  0  0  0
   -4.9432    4.3119   -1.1158 C   0  0  0  0  0  0  0  0  0  0  0  0
   -6.3721    4.1794   -2.0041 S   0  0  0  0  0  0  0  0  0  0  0  0
   -2.4999    2.5466    1.0722 C   0  0  0  0  0  0  0  0  0  0  0  0
   -1.1153    2.6079    0.9677 C   0  0  0  0  0  0  0  0  0  0  0  0
   -0.6848    3.8585   -0.0759 S   0  0  0  0  0  0  0  0  0  0  0  0
   -0.2389    1.5024    1.3565 C   0  0  0  0  0  0  0  0  0  0  0  0
    0.5028    0.6992    0.4686 C   0  0  0  0  0  0  0  0  0  0  0  0
    0.6044    0.9027   -0.9519 N   0  0  0  0  0  0  0  0  0  0  0  0
   -0.2700    0.1093   -1.7717 C   0  0  0  0  0  0  0  0  0  0  0  0
    0.2447   -0.9618   -2.5236 C   0  0  0  0  0  0  0  0  0  0  0  0
   -0.6197   -1.8004   -3.2322 C   0  0  0  0  0  0  0  0  0  0  0  0
   -1.9999   -1.5800   -3.1915 C   0  0  0  0  0  0  0  0  0  0  0  0
   -3.1161   -2.7130   -4.0170 S   0  0  0  0  0  0  0  0  0  0  0  0
   -3.2281   -3.8166   -2.5726 C   0  0  0  0  0  0  0  0  0  0  0  0
   -2.5098   -0.4920   -2.4759 C   0  0  0  0  0  0  0  0  0  0  0  0
   -1.6495    0.3538   -1.7756 C   0  0  0  0  0  0  0  0  0  0  0  0
    1.7857    1.5079   -1.5330 C   0  0  0  0  0  0  0  0  0  0  0  0
    2.9749    1.6541   -0.7894 C   0  0  0  0  0  0  0  0  0  0  0  0
    4.1267    2.1727   -1.3845 C   0  0  0  0  0  0  0  0  0  0  0  0
    4.1109    2.5635   -2.7259 C   0  0  0  0  0  0  0  0  0  0  0  0
    5.5844    3.2591   -3.4789 S   0  0  0  0  0  0  0  0  0  0  0  0
    6.2252    1.6408   -4.0070 C   0  0  0  0  0  0  0  0  0  0  0  0
    2.9365    2.4355   -3.4718 C   0  0  0  0  0  0  0  0  0  0  0  0
    1.7802    1.9235   -2.8800 C   0  0  0  0  0  0  0  0  0  0  0  0
    0.9430   -0.4626    1.0956 C   0  0  0  0  0  0  0  0  0  0  0  0
    1.7315   -1.8511    0.5755 S   0  0  0  0  0  0  0  0  0  0  0  0
    1.6435   -2.6248    2.0930 C   0  0  0  0  0  0  0  0  0  0  0  0
    0.9938   -1.7766    3.0080 C   0  0  0  0  0  0  0  0  0  0  0  0
    0.6844   -2.1231    4.3659 N   0  0  0  0  0  0  0  0  0  0  0  0
    0.0541   -3.3891    4.6683 C   0  0  0  0  0  0  0  0  0  0  0  0
   -0.8406   -3.9789    3.7527 C   0  0  0  0  0  0  0  0  0  0  0  0
   -1.4871   -5.1762    4.0668 C   0  0  0  0  0  0  0  0  0  0  0  0
   -1.2529   -5.7978    5.2994 C   0  0  0  0  0  0  0  0  0  0  0  0
   -2.1415   -7.2920    5.7386 S   0  0  0  0  0  0  0  0  0  0  0  0
   -3.4941   -6.3833    6.5508 C   0  0  0  0  0  0  0  0  0  0  0  0
   -0.3408   -5.2355    6.2012 C   0  0  0  0  0  0  0  0  0  0  0  0
    0.3088   -4.0414    5.8897 C   0  0  0  0  0  0  0  0  0  0  0  0
    0.9185   -1.1540    5.4068 C   0  0  0  0  0  0  0  0  0  0  0  0
   -0.0886   -0.8575    6.3432 C   0  0  0  0  0  0  0  0  0  0  0  0
    0.1457    0.0757    7.3563 C   0  0  0  0  0  0  0  0  0  0  0  0
    1.3902    0.7107    7.4518 C   0  0  0  0  0  0  0  0  0  0  0  0
    1.6899    1.8799    8.7763 S   0  0  0  0  0  0  0  0  0  0  0  0
    2.1686    0.5946    9.9773 C   0  0  0  0  0  0  0  0  0  0  0  0
    2.3918    0.4342    6.5111 C   0  0  0  0  0  0  0  0  0  0  0  0
    2.1557   -0.4882    5.4880 C   0  0  0  0  0  0  0  0  0  0  0  0
    0.6129   -0.5803    2.4048 C   0  0  0  0  0  0  0  0  0  0  0  0
   -0.3169    0.7319    2.8773 S   0  0  0  0  0  0  0  0  0  0  0  0
    2.4224   -3.8185    2.4393 C   0  0  0  0  0  0  0  0  0  0  0  0
    2.7246   -4.8691    1.5776 C   0  0  0  0  0  0  0  0  0  0  0  0
    1.9484   -5.1527    0.4571 O   0  0  0  0  0  0  0  0  0  0  0  0
    0.8903   -6.1017    0.5297 C   0  0  0  0  0  0  0  0  0  0  0  0
    0.1018   -6.0881   -0.7670 C   0  0  0  0  0  0  0  0  0  0  0  0
    3.8717   -5.5967    1.9557 C   0  0  0  0  0  0  0  0  0  0  0  0
    4.4600   -6.6486    1.2332 O   0  0  0  0  0  0  0  0  0  0  0  0
    4.4237   -6.8022   -0.1825 C   0  0  0  0  0  0  0  0  0  0  0  0
    5.1939   -5.6792   -0.8664 C   0  0  0  0  0  0  0  0  0  0  0  0
    4.4446   -5.1298    3.1343 C   0  0  0  0  0  0  0  0  0  0  0  0
    3.5407   -3.8252    3.6883 S   0  0  0  0  0  0  0  0  0  0  0  0
    5.8694   -5.2761    3.4603 C   0  0  0  0  0  0  0  0  0  0  0  0
    6.7700   -4.3603    3.0458 C   0  0  0  0  0  0  0  0  0  0  0  0
    6.4463   -3.1545    2.2709 C   0  0  0  0  0  0  0  0  0  0  0  0
    5.5181   -3.0263    1.4281 O   0  0  0  0  0  0  0  0  0  0  0  0
    7.3838   -2.1161    2.6225 C   0  0  0  0  0  0  0  0  0  0  0  0
    7.2238   -0.7314    2.3914 C   0  0  0  0  0  0  0  0  0  0  0  0
    8.1217    0.0544    3.0830 C   0  0  0  0  0  0  0  0  0  0  0  0
    9.1391   -0.4802    3.9371 C   0  0  0  0  0  0  0  0  0  0  0  0
    9.3069   -1.8400    4.1594 C   0  0  0  0  0  0  0  0  0  0  0  0
    8.3810   -2.6690    3.4661 C   0  0  0  0  0  0  0  0  0  0  0  0
    8.1166   -4.1231    3.6362 C   0  0  0  0  0  0  0  0  0  0  0  0
    8.9990   -5.0700    4.0344 C   0  0  0  0  0  0  0  0  0  0  0  0
    8.6796   -6.4723    3.9819 C   0  0  0  0  0  0  0  0  0  0  0  0
    8.4250   -7.6029    3.9445 N   0  0  0  0  0  0  0  0  0  0  0  0
   10.3529   -4.7449    4.4001 C   0  0  0  0  0  0  0  0  0  0  0  0
   11.4457   -4.4981    4.6927 N   0  0  0  0  0  0  0  0  0  0  0  0
    9.5732    0.9065    4.3135 C   0  0  0  0  0  0  0  0  0  0  0  0
   10.8882    1.4652    3.6851 C   0  0  0  0  0  0  0  0  0  0  0  0
   11.1027    0.8633    2.3144 C   0  0  0  0  0  0  0  0  0  0  0  0
   10.1470    1.3587    1.5267 C   0  0  0  0  0  0  0  0  0  0  0  0
    9.3119    2.2793    2.3897 C   0  0  0  0  0  0  0  0  0  0  0  0
   10.4114    2.8440    3.2706 C   0  0  0  0  0  0  0  0  0  0  0  0
    8.5243    1.4511    3.4465 C   0  0  0  0  0  0  0  0  0  0  0  0
   -6.4945    6.1110   -5.1215 H   0  0  0  0  0  0  0  0  0  0  0  0
   -7.4961    3.1021   -9.4639 H   0  0  0  0  0  0  0  0  0  0  0  0
   -6.5655   -0.2852   -5.7794 H   0  0  0  0  0  0  0  0  0  0  0  0
   -7.6740   -1.8000   -8.7359 H   0  0  0  0  0  0  0  0  0  0  0  0
   -4.9513   -2.0464   -8.2453 H   0  0  0  0  0  0  0  0  0  0  0  0
   -5.3147   -3.3858  -10.5062 H   0  0  0  0  0  0  0  0  0  0  0  0
   -5.7073   -1.6619  -12.4246 H   0  0  0  0  0  0  0  0  0  0  0  0
   -5.5973    0.7794  -11.3878 H   0  0  0  0  0  0  0  0  0  0  0  0
   -4.6516    0.5345   -8.8927 H   0  0  0  0  0  0  0  0  0  0  0  0
   -3.7112   -0.5145  -10.0277 H   0  0  0  0  0  0  0  0  0  0  0  0
   -8.0420   -0.2208  -10.5094 H   0  0  0  0  0  0  0  0  0  0  0  0
   -4.0067    6.2081   -3.7252 H   0  0  0  0  0  0  0  0  0  0  0  0
   -2.7782    7.9038   -1.7251 H   0  0  0  0  0  0  0  0  0  0  0  0
   -1.2225    9.3405   -2.9971 H   0  0  0  0  0  0  0  0  0  0  0  0
    0.7273    8.3488   -4.1531 H   0  0  0  0  0  0  0  0  0  0  0  0
    3.8593    5.6365   -3.2499 H   0  0  0  0  0  0  0  0  0  0  0  0
    2.9569    7.1456   -2.9063 H   0  0  0  0  0  0  0  0  0  0  0  0
    2.0036    4.4618   -1.7377 H   0  0  0  0  0  0  0  0  0  0  0  0
    3.3196    5.4063   -0.9518 H   0  0  0  0  0  0  0  0  0  0  0  0
    1.6865    6.1325   -1.1521 H   0  0  0  0  0  0  0  0  0  0  0  0
   -0.4867    4.4340   -2.8683 H   0  0  0  0  0  0  0  0  0  0  0  0
   -4.5297    0.7815   -0.4317 H   0  0  0  0  0  0  0  0  0  0  0  0
   -6.1592   -0.8471    0.4575 H   0  0  0  0  0  0  0  0  0  0  0  0
   -8.0251   -0.0840    1.8939 H   0  0  0  0  0  0  0  0  0  0  0  0
   -9.2763    3.5886    0.6895 H   0  0  0  0  0  0  0  0  0  0  0  0
  -10.6065    3.8124    1.8733 H   0  0  0  0  0  0  0  0  0  0  0  0
  -11.2969    2.2568    0.0781 H   0  0  0  0  0  0  0  0  0  0  0  0
   -9.9180    1.1629    0.4522 H   0  0  0  0  0  0  0  0  0  0  0  0
  -11.2376    1.4046    1.6679 H   0  0  0  0  0  0  0  0  0  0  0  0
   -6.6282    3.9688    1.5597 H   0  0  0  0  0  0  0  0  0  0  0  0
   -3.0145    1.7624    1.6148 H   0  0  0  0  0  0  0  0  0  0  0  0
    1.3093   -1.1622   -2.5300 H   0  0  0  0  0  0  0  0  0  0  0  0
   -0.2165   -2.6413   -3.7842 H   0  0  0  0  0  0  0  0  0  0  0  0
   -3.6829   -3.2800   -1.7133 H   0  0  0  0  0  0  0  0  0  0  0  0
   -3.8606   -4.6881   -2.8337 H   0  0  0  0  0  0  0  0  0  0  0  0
   -2.2183   -4.1832   -2.2916 H   0  0  0  0  0  0  0  0  0  0  0  0
   -3.5739   -0.3167   -2.4420 H   0  0  0  0  0  0  0  0  0  0  0  0
   -2.0610    1.1890   -1.2317 H   0  0  0  0  0  0  0  0  0  0  0  0
    3.0266    1.3543    0.2497 H   0  0  0  0  0  0  0  0  0  0  0  0
    5.0329    2.2634   -0.8026 H   0  0  0  0  0  0  0  0  0  0  0  0
    7.1424    1.7981   -4.6087 H   0  0  0  0  0  0  0  0  0  0  0  0
    6.4779    1.0246   -3.1187 H   0  0  0  0  0  0  0  0  0  0  0  0
    5.4710    1.1142   -4.6277 H   0  0  0  0  0  0  0  0  0  0  0  0
    2.9130    2.7473   -4.5083 H   0  0  0  0  0  0  0  0  0  0  0  0
    0.8794    1.8515   -3.4754 H   0  0  0  0  0  0  0  0  0  0  0  0
   -1.0596   -3.5005    2.8054 H   0  0  0  0  0  0  0  0  0  0  0  0
   -2.1880   -5.6076    3.3629 H   0  0  0  0  0  0  0  0  0  0  0  0
   -3.9661   -5.6777    5.8358 H   0  0  0  0  0  0  0  0  0  0  0  0
   -3.1057   -5.8195    7.4242 H   0  0  0  0  0  0  0  0  0  0  0  0
   -4.2575   -7.1065    6.9016 H   0  0  0  0  0  0  0  0  0  0  0  0
   -0.1503   -5.7139    7.1548 H   0  0  0  0  0  0  0  0  0  0  0  0
    1.0056   -3.6160    6.6047 H   0  0  0  0  0  0  0  0  0  0  0  0
   -1.0531   -1.3486    6.2842 H   0  0  0  0  0  0  0  0  0  0  0  0
   -0.6343    0.2909    8.0782 H   0  0  0  0  0  0  0  0  0  0  0  0
    2.1246    1.0246   10.9974 H   0  0  0  0  0  0  0  0  0  0  0  0
    1.4768   -0.2722    9.9376 H   0  0  0  0  0  0  0  0  0  0  0  0
    3.2034    0.2510    9.7717 H   0  0  0  0  0  0  0  0  0  0  0  0
    3.3517    0.9313    6.5742 H   0  0  0  0  0  0  0  0  0  0  0  0
    2.9387   -0.7007    4.7684 H   0  0  0  0  0  0  0  0  0  0  0  0
    1.3086   -7.1173    0.7005 H   0  0  0  0  0  0  0  0  0  0  0  0
    0.2122   -5.8473    1.3741 H   0  0  0  0  0  0  0  0  0  0  0  0
   -0.7143   -6.8401   -0.7152 H   0  0  0  0  0  0  0  0  0  0  0  0
   -0.3440   -5.0822   -0.9254 H   0  0  0  0  0  0  0  0  0  0  0  0
    0.7691   -6.3329   -1.6211 H   0  0  0  0  0  0  0  0  0  0  0  0
    3.3852   -6.8514   -0.5652 H   0  0  0  0  0  0  0  0  0  0  0  0
    4.9110   -7.7665   -0.4347 H   0  0  0  0  0  0  0  0  0  0  0  0
    4.6637   -4.7141   -0.7325 H   0  0  0  0  0  0  0  0  0  0  0  0
    5.2753   -5.8945   -1.9516 H   0  0  0  0  0  0  0  0  0  0  0  0
    6.2152   -5.6036   -0.4322 H   0  0  0  0  0  0  0  0  0  0  0  0
    6.1377   -6.0312    4.1841 H   0  0  0  0  0  0  0  0  0  0  0  0
    6.4164   -0.3147    1.8054 H   0  0  0  0  0  0  0  0  0  0  0  0
   10.0231   -2.2007    4.8816 H   0  0  0  0  0  0  0  0  0  0  0  0
    9.4288    1.1493    5.3896 H   0  0  0  0  0  0  0  0  0  0  0  0
   11.7730    1.4488    4.3519 H   0  0  0  0  0  0  0  0  0  0  0  0
   11.9226    0.2274    1.9961 H   0  0  0  0  0  0  0  0  0  0  0  0
   10.0514    1.1923    0.4601 H   0  0  0  0  0  0  0  0  0  0  0  0
    8.7116    3.0299    1.8335 H   0  0  0  0  0  0  0  0  0  0  0  0
   11.1770    3.4278    2.7031 H   0  0  0  0  0  0  0  0  0  0  0  0
   10.0274    3.4590    4.1203 H   0  0  0  0  0  0  0  0  0  0  0  0
    7.7396    2.0158    3.9973 H   0  0  0  0  0  0  0  0  0  0  0  0
  1  2  2  3
  2  3  1  0
  3  4  2  0
  3  5  1  0
  5  6  2  0
  6  7  1  0
  7  8  2  0
  8  9  1  0
  9 10  2  0
 10 11  1  0
 11 12  2  3
 12 13  1  0
 13 14  3  0
 12 15  1  0
 15 16  3  0
  8 17  1  0
 17 18  1  0
 18 19  1  0
 19 20  2  0
 20 21  1  0
 21 22  1  0
 21 23  1  0
  1 24  1  0
 24 25  2  0
 25 26  1  0
 26 27  2  0
 27 28  1  0
 28 29  2  0
 29 30  1  0
 30 31  2  0
 31 32  1  0
 32 33  1  0
 33 34  1  0
 34 35  1  0
 32 36  2  0
 27 37  1  0
 37 38  2  0
 38 39  1  0
 39 40  1  0
 40 41  2  0
 41 42  1  0
 42 43  2  0
 43 44  1  0
 44 45  1  0
 45 46  1  0
 46 47  1  0
 44 48  2  0
 39 49  2  0
 49 50  1  0
 38 51  1  0
 51 52  2  0
 52 53  1  0
 52 54  1  0
 54 55  2  0
 55 56  1  0
 56 57  1  0
 57 58  2  0
 58 59  1  0
 59 60  2  0
 60 61  1  0
 61 62  1  0
 60 63  1  0
 63 64  2  0
 56 65  1  0
 65 66  2  0
 66 67  1  0
 67 68  2  0
 68 69  1  0
 69 70  1  0
 68 71  1  0
 71 72  2  0
 55 73  1  0
 73 74  1  0
 74 75  1  0
 75 76  2  0
 76 77  1  0
 77 78  1  0
 78 79  2  0
 79 80  1  0
 80 81  2  0
 81 82  1  0
 82 83  1  0
 81 84  1  0
 84 85  2  0
 77 86  1  0
 86 87  2  0
 87 88  1  0
 88 89  2  0
 89 90  1  0
 90 91  1  0
 89 92  1  0
 92 93  2  0
 76 94  1  0
 94 95  1  0
 75 96  1  0
 96 97  2  0
 97 98  1  0
 98 99  1  0
 99100  1  0
 97101  1  0
101102  1  0
102103  1  0
103104  1  0
101105  2  0
105106  1  0
105107  1  0
107108  2  3
108109  1  0
109110  2  0
109111  1  0
111112  2  0
112113  1  0
113114  2  0
114115  1  0
115116  2  0
116117  1  0
117118  2  3
118119  1  0
119120  3  0
118121  1  0
121122  3  0
114123  1  0
123124  1  0
124125  1  0
125126  2  0
126127  1  0
127128  1  0
127129  1  0
 11  2  1  0
 23 17  1  0
 50 24  1  0
 95 54  1  0
106 96  1  0
117108  1  0
129123  1  0
 10  5  1  0
 22 18  1  0
 49 26  1  0
 64 57  1  0
 72 65  1  0
 94 73  2  0
116111  1  0
128124  1  0
 23  7  1  0
 36 28  1  0
 53 37  1  0
 85 78  1  0
 93 86  1  0
129113  1  0
 48 40  1  0
  1130  1  0
  6131  1  0
  9132  1  0
 17133  1  0
 18134  1  0
 19135  1  0
 20136  1  0
 21137  1  0
 22138  1  0
 22139  1  0
 23140  1  0
 25141  1  0
 29142  1  0
 30143  1  0
 31144  1  0
 34145  1  0
 34146  1  0
 35147  1  0
 35148  1  0
 35149  1  0
 36150  1  0
 41151  1  0
 42152  1  0
 43153  1  0
 46154  1  0
 46155  1  0
 47156  1  0
 47157  1  0
 47158  1  0
 48159  1  0
 51160  1  0
 58161  1  0
 59162  1  0
 62163  1  0
 62164  1  0
 62165  1  0
 63166  1  0
 64167  1  0
 66168  1  0
 67169  1  0
 70170  1  0
 70171  1  0
 70172  1  0
 71173  1  0
 72174  1  0
 79175  1  0
 80176  1  0
 83177  1  0
 83178  1  0
 83179  1  0
 84180  1  0
 85181  1  0
 87182  1  0
 88183  1  0
 91184  1  0
 91185  1  0
 91186  1  0
 92187  1  0
 93188  1  0
 99189  1  0
 99190  1  0
100191  1  0
100192  1  0
100193  1  0
103194  1  0
103195  1  0
104196  1  0
104197  1  0
104198  1  0
107199  1  0
112200  1  0
115201  1  0
123202  1  0
124203  1  0
125204  1  0
126205  1  0
127206  1  0
128207  1  0
128208  1  0
129209  1  0
M  END

