
     RDKit          3D

152166  0  0  0  0  0  0  0  0999 V2000
    3.2693   -4.1892   -4.3323 C   0  0  0  0  0  0  0  0  0  0  0  0
    2.2451   -4.0457   -5.1948 C   0  0  0  0  0  0  0  0  0  0  0  0
    1.0525   -3.2127   -4.9682 C   0  0  0  0  0  0  0  0  0  0  0  0
    0.9449   -2.2458   -4.1670 O   0  0  0  0  0  0  0  0  0  0  0  0
   -0.0094   -3.6799   -5.8245 C   0  0  0  0  0  0  0  0  0  0  0  0
   -1.3574   -3.2603   -5.8004 C   0  0  0  0  0  0  0  0  0  0  0  0
   -2.1842   -3.9933   -6.6284 C   0  0  0  0  0  0  0  0  0  0  0  0
   -1.7254   -5.1071   -7.4035 C   0  0  0  0  0  0  0  0  0  0  0  0
   -0.4040   -5.5237   -7.4311 C   0  0  0  0  0  0  0  0  0  0  0  0
    0.4756   -4.7414   -6.6301 C   0  0  0  0  0  0  0  0  0  0  0  0
    1.9324   -4.9220   -6.3600 C   0  0  0  0  0  0  0  0  0  0  0  0
    2.8244   -5.5956   -7.1361 C   0  0  0  0  0  0  0  0  0  0  0  0
    2.4329   -6.2879   -8.3372 C   0  0  0  0  0  0  0  0  0  0  0  0
    2.1363   -6.8476   -9.3061 N   0  0  0  0  0  0  0  0  0  0  0  0
    4.2459   -5.5290   -6.9011 C   0  0  0  0  0  0  0  0  0  0  0  0
    5.3897   -5.4786   -6.7162 N   0  0  0  0  0  0  0  0  0  0  0  0
   -3.1285   -5.3912   -7.8543 C   0  0  0  0  0  0  0  0  0  0  0  0
   -3.8774   -6.5865   -7.1860 C   0  0  0  0  0  0  0  0  0  0  0  0
   -3.4095   -6.7677   -5.7558 C   0  0  0  0  0  0  0  0  0  0  0  0
   -3.8482   -5.7102   -5.0713 C   0  0  0  0  0  0  0  0  0  0  0  0
   -4.5933   -4.8421   -6.0580 C   0  0  0  0  0  0  0  0  0  0  0  0
   -5.2181   -5.9278   -6.9148 C   0  0  0  0  0  0  0  0  0  0  0  0
   -3.5953   -4.2294   -7.0868 C   0  0  0  0  0  0  0  0  0  0  0  0
    3.2616   -3.5307   -3.0225 C   0  0  0  0  0  0  0  0  0  0  0  0
    3.5749   -1.8860   -2.7679 S   0  0  0  0  0  0  0  0  0  0  0  0
    2.8229   -1.7352   -1.2603 C   0  0  0  0  0  0  0  0  0  0  0  0
    2.3040   -2.9881   -0.9808 C   0  0  0  0  0  0  0  0  0  0  0  0
    1.1987   -3.5299    0.1552 S   0  0  0  0  0  0  0  0  0  0  0  0
    1.0322   -5.0730   -0.5302 C   0  0  0  0  0  0  0  0  0  0  0  0
    0.1398   -6.1109    0.0106 C   0  0  0  0  0  0  0  0  0  0  0  0
   -0.0726   -7.1764   -0.6310 O   0  0  0  0  0  0  0  0  0  0  0  0
   -0.4765   -5.9015    1.2475 O   0  0  0  0  0  0  0  0  0  0  0  0
   -1.3426   -6.8654    1.8429 C   0  0  0  0  0  0  0  0  0  0  0  0
   -1.7164   -6.4150    3.2430 C   0  0  0  0  0  0  0  0  0  0  0  0
    1.8264   -5.1567   -1.6886 C   0  0  0  0  0  0  0  0  0  0  0  0
    2.5321   -3.9670   -1.9208 C   0  0  0  0  0  0  0  0  0  0  0  0
    1.9195   -6.5739   -2.7306 Cl  0  0  0  0  0  0  0  0  0  0  0  0
    2.3625   -0.4699   -0.6709 C   0  0  0  0  0  0  0  0  0  0  0  0
    2.2963   -0.1548    0.7029 C   0  0  0  0  0  0  0  0  0  0  0  0
    2.9356   -0.9034    1.7683 N   0  0  0  0  0  0  0  0  0  0  0  0
    4.1195   -1.6870    1.5106 C   0  0  0  0  0  0  0  0  0  0  0  0
    4.1645   -3.0376    1.8951 C   0  0  0  0  0  0  0  0  0  0  0  0
    5.1851   -3.8695    1.4290 C   0  0  0  0  0  0  0  0  0  0  0  0
    6.1832   -3.3569    0.5924 C   0  0  0  0  0  0  0  0  0  0  0  0
    7.3603   -4.4677   -0.1739 S   0  0  0  0  0  0  0  0  0  0  0  0
    6.3011   -4.7534   -1.6286 C   0  0  0  0  0  0  0  0  0  0  0  0
    6.2000   -1.9909    0.2876 C   0  0  0  0  0  0  0  0  0  0  0  0
    5.1713   -1.1586    0.7421 C   0  0  0  0  0  0  0  0  0  0  0  0
    2.3216   -0.9621    3.0628 C   0  0  0  0  0  0  0  0  0  0  0  0
    2.9678   -0.3922    4.1727 C   0  0  0  0  0  0  0  0  0  0  0  0
    2.3247   -0.3550    5.4161 C   0  0  0  0  0  0  0  0  0  0  0  0
    1.0389   -0.8955    5.5592 C   0  0  0  0  0  0  0  0  0  0  0  0
    0.2061   -0.8451    7.1432 S   0  0  0  0  0  0  0  0  0  0  0  0
    0.7698   -2.5099    7.6164 C   0  0  0  0  0  0  0  0  0  0  0  0
    0.4044   -1.4924    4.4583 C   0  0  0  0  0  0  0  0  0  0  0  0
    1.0370   -1.5083    3.2139 C   0  0  0  0  0  0  0  0  0  0  0  0
    1.4880    0.9718    0.9055 C   0  0  0  0  0  0  0  0  0  0  0  0
    0.9488    1.8052    2.2609 S   0  0  0  0  0  0  0  0  0  0  0  0
   -0.0331    2.8714    1.3705 C   0  0  0  0  0  0  0  0  0  0  0  0
    0.0449    2.5742    0.0025 C   0  0  0  0  0  0  0  0  0  0  0  0
   -0.6739    3.2759   -1.0359 N   0  0  0  0  0  0  0  0  0  0  0  0
   -0.7730    4.7066   -0.9494 C   0  0  0  0  0  0  0  0  0  0  0  0
   -2.0310    5.3205   -0.8376 C   0  0  0  0  0  0  0  0  0  0  0  0
   -2.1218    6.7153   -0.7374 C   0  0  0  0  0  0  0  0  0  0  0  0
   -0.9635    7.4999   -0.7618 C   0  0  0  0  0  0  0  0  0  0  0  0
   -1.0826    9.2858   -0.6591 S   0  0  0  0  0  0  0  0  0  0  0  0
   -0.8222    9.3220    1.1415 C   0  0  0  0  0  0  0  0  0  0  0  0
    0.2884    6.8903   -0.9019 C   0  0  0  0  0  0  0  0  0  0  0  0
    0.3860    5.4966   -0.9772 C   0  0  0  0  0  0  0  0  0  0  0  0
   -1.2327    2.5912   -2.1814 C   0  0  0  0  0  0  0  0  0  0  0  0
   -1.7539    1.2876   -2.0638 C   0  0  0  0  0  0  0  0  0  0  0  0
   -2.2617    0.6226   -3.1857 C   0  0  0  0  0  0  0  0  0  0  0  0
   -2.2893    1.2600   -4.4308 C   0  0  0  0  0  0  0  0  0  0  0  0
   -2.9854    0.4197   -5.8577 S   0  0  0  0  0  0  0  0  0  0  0  0
   -1.3697    0.0619   -6.6177 C   0  0  0  0  0  0  0  0  0  0  0  0
   -1.8095    2.5684   -4.5485 C   0  0  0  0  0  0  0  0  0  0  0  0
   -1.2740    3.2235   -3.4385 C   0  0  0  0  0  0  0  0  0  0  0  0
    0.9337    1.5145   -0.2146 C   0  0  0  0  0  0  0  0  0  0  0  0
    1.4431    0.6569   -1.5606 S   0  0  0  0  0  0  0  0  0  0  0  0
   -0.9345    3.8173    2.0219 C   0  0  0  0  0  0  0  0  0  0  0  0
   -2.1321    3.4463    2.6192 C   0  0  0  0  0  0  0  0  0  0  0  0
   -2.5706    4.3668    3.5905 C   0  0  0  0  0  0  0  0  0  0  0  0
   -3.7068    4.2003    4.3940 O   0  0  0  0  0  0  0  0  0  0  0  0
   -4.5139    3.0248    4.4373 C   0  0  0  0  0  0  0  0  0  0  0  0
   -3.8173    1.9161    5.2145 C   0  0  0  0  0  0  0  0  0  0  0  0
   -1.7242    5.4591    3.7395 C   0  0  0  0  0  0  0  0  0  0  0  0
   -0.4169    5.2625    2.7004 S   0  0  0  0  0  0  0  0  0  0  0  0
   -1.7143    6.3856    4.8776 C   0  0  0  0  0  0  0  0  0  0  0  0
   -1.1528    7.6561    4.8723 C   0  0  0  0  0  0  0  0  0  0  0  0
   -0.9770    8.1915    6.1550 C   0  0  0  0  0  0  0  0  0  0  0  0
   -1.3612    7.3226    7.1776 C   0  0  0  0  0  0  0  0  0  0  0  0
   -1.1059    7.4763    8.6294 C   0  0  0  0  0  0  0  0  0  0  0  0
    0.1078    7.8187    9.1186 C   0  0  0  0  0  0  0  0  0  0  0  0
    1.2419    8.0548    8.2586 C   0  0  0  0  0  0  0  0  0  0  0  0
    2.1582    8.2477    7.5801 N   0  0  0  0  0  0  0  0  0  0  0  0
    0.3763    7.8357   10.5382 C   0  0  0  0  0  0  0  0  0  0  0  0
    0.6042    7.8420   11.6769 N   0  0  0  0  0  0  0  0  0  0  0  0
   -2.1677    7.0681    9.5264 C   0  0  0  0  0  0  0  0  0  0  0  0
   -3.0143    6.7330   10.2433 N   0  0  0  0  0  0  0  0  0  0  0  0
   -1.9626    5.9177    6.4756 S   0  0  0  0  0  0  0  0  0  0  0  0
    3.9925   -4.9804   -4.4584 H   0  0  0  0  0  0  0  0  0  0  0  0
   -1.7298   -2.4909   -5.1370 H   0  0  0  0  0  0  0  0  0  0  0  0
   -0.1103   -6.4069   -7.9705 H   0  0  0  0  0  0  0  0  0  0  0  0
   -3.2793   -5.2949   -8.9501 H   0  0  0  0  0  0  0  0  0  0  0  0
   -3.9100   -7.5167   -7.7900 H   0  0  0  0  0  0  0  0  0  0  0  0
   -2.8871   -7.6192   -5.3377 H   0  0  0  0  0  0  0  0  0  0  0  0
   -3.7387   -5.5519   -4.0018 H   0  0  0  0  0  0  0  0  0  0  0  0
   -5.3072   -4.1265   -5.6043 H   0  0  0  0  0  0  0  0  0  0  0  0
   -5.7175   -5.5373   -7.8327 H   0  0  0  0  0  0  0  0  0  0  0  0
   -5.9283   -6.5862   -6.3546 H   0  0  0  0  0  0  0  0  0  0  0  0
   -4.0078   -3.4097   -7.7166 H   0  0  0  0  0  0  0  0  0  0  0  0
   -0.8270   -7.8484    1.9086 H   0  0  0  0  0  0  0  0  0  0  0  0
   -2.2622   -6.9752    1.2283 H   0  0  0  0  0  0  0  0  0  0  0  0
   -2.4247   -7.1428    3.6964 H   0  0  0  0  0  0  0  0  0  0  0  0
   -2.1959   -5.4139    3.2124 H   0  0  0  0  0  0  0  0  0  0  0  0
   -0.8021   -6.3631    3.8744 H   0  0  0  0  0  0  0  0  0  0  0  0
    3.3643   -3.4716    2.4828 H   0  0  0  0  0  0  0  0  0  0  0  0
    5.1634   -4.9272    1.6587 H   0  0  0  0  0  0  0  0  0  0  0  0
    5.3034   -5.1245   -1.3141 H   0  0  0  0  0  0  0  0  0  0  0  0
    6.7688   -5.5112   -2.2897 H   0  0  0  0  0  0  0  0  0  0  0  0
    6.1801   -3.8077   -2.1952 H   0  0  0  0  0  0  0  0  0  0  0  0
    6.9669   -1.5885   -0.3625 H   0  0  0  0  0  0  0  0  0  0  0  0
    5.1580   -0.1189    0.4396 H   0  0  0  0  0  0  0  0  0  0  0  0
    3.9492    0.0526    4.0621 H   0  0  0  0  0  0  0  0  0  0  0  0
    2.8145    0.1257    6.2553 H   0  0  0  0  0  0  0  0  0  0  0  0
    0.3404   -3.2731    6.9341 H   0  0  0  0  0  0  0  0  0  0  0  0
    0.4310   -2.7266    8.6481 H   0  0  0  0  0  0  0  0  0  0  0  0
    1.8777   -2.5654    7.5799 H   0  0  0  0  0  0  0  0  0  0  0  0
   -0.5882   -1.9112    4.5629 H   0  0  0  0  0  0  0  0  0  0  0  0
    0.5175   -1.9288    2.3675 H   0  0  0  0  0  0  0  0  0  0  0  0
   -2.9282    4.7217   -0.8074 H   0  0  0  0  0  0  0  0  0  0  0  0
   -3.0947    7.1810   -0.6370 H   0  0  0  0  0  0  0  0  0  0  0  0
   -1.6055    8.7250    1.6554 H   0  0  0  0  0  0  0  0  0  0  0  0
    0.1802    8.9152    1.3877 H   0  0  0  0  0  0  0  0  0  0  0  0
   -0.8806   10.3710    1.4970 H   0  0  0  0  0  0  0  0  0  0  0  0
    1.1921    7.4899   -0.9281 H   0  0  0  0  0  0  0  0  0  0  0  0
    1.3569    5.0303   -1.0752 H   0  0  0  0  0  0  0  0  0  0  0  0
   -1.7586    0.7866   -1.1051 H   0  0  0  0  0  0  0  0  0  0  0  0
   -2.6430   -0.3863   -3.0818 H   0  0  0  0  0  0  0  0  0  0  0  0
   -1.5163   -0.6575   -7.4493 H   0  0  0  0  0  0  0  0  0  0  0  0
   -0.9392    1.0006   -7.0292 H   0  0  0  0  0  0  0  0  0  0  0  0
   -0.6714   -0.3778   -5.8757 H   0  0  0  0  0  0  0  0  0  0  0  0
   -1.8329    3.0722   -5.5088 H   0  0  0  0  0  0  0  0  0  0  0  0
   -0.8800    4.2260   -3.5672 H   0  0  0  0  0  0  0  0  0  0  0  0
   -2.6136    2.4958    2.4249 H   0  0  0  0  0  0  0  0  0  0  0  0
   -5.4617    3.2758    4.9626 H   0  0  0  0  0  0  0  0  0  0  0  0
   -4.7802    2.6888    3.4071 H   0  0  0  0  0  0  0  0  0  0  0  0
   -3.5310    2.2826    6.2253 H   0  0  0  0  0  0  0  0  0  0  0  0
   -4.5075    1.0531    5.3258 H   0  0  0  0  0  0  0  0  0  0  0  0
   -2.9084    1.5688    4.6784 H   0  0  0  0  0  0  0  0  0  0  0  0
   -0.8235    8.1685    3.9786 H   0  0  0  0  0  0  0  0  0  0  0  0
   -0.5290    9.1581    6.3312 H   0  0  0  0  0  0  0  0  0  0  0  0
  1  2  2  3
  2  3  1  0
  3  4  2  0
  3  5  1  0
  5  6  2  0
  6  7  1  0
  7  8  2  0
  8  9  1  0
  9 10  2  0
 10 11  1  0
 11 12  2  3
 12 13  1  0
 13 14  3  0
 12 15  1  0
 15 16  3  0
  8 17  1  0
 17 18  1  0
 18 19  1  0
 19 20  2  0
 20 21  1  0
 21 22  1  0
 21 23  1  0
  1 24  1  0
 24 25  1  0
 25 26  1  0
 26 27  2  0
 27 28  1  0
 28 29  1  0
 29 30  1  0
 30 31  2  0
 30 32  1  0
 32 33  1  0
 33 34  1  0
 29 35  2  0
 35 36  1  0
 35 37  1  0
 26 38  1  0
 38 39  2  0
 39 40  1  0
 40 41  1  0
 41 42  2  0
 42 43  1  0
 43 44  2  0
 44 45  1  0
 45 46  1  0
 44 47  1  0
 47 48  2  0
 40 49  1  0
 49 50  2  0
 50 51  1  0
 51 52  2  0
 52 53  1  0
 53 54  1  0
 52 55  1  0
 55 56  2  0
 39 57  1  0
 57 58  1  0
 58 59  1  0
 59 60  2  0
 60 61  1  0
 61 62  1  0
 62 63  2  0
 63 64  1  0
 64 65  2  0
 65 66  1  0
 66 67  1  0
 65 68  1  0
 68 69  2  0
 61 70  1  0
 70 71  2  0
 71 72  1  0
 72 73  2  0
 73 74  1  0
 74 75  1  0
 73 76  1  0
 76 77  2  0
 60 78  1  0
 78 79  1  0
 59 80  1  0
 80 81  2  0
 81 82  1  0
 82 83  1  0
 83 84  1  0
 84 85  1  0
 82 86  2  0
 86 87  1  0
 86 88  1  0
 88 89  2  0
 89 90  1  0
 90 91  2  0
 91 92  1  0
 92 93  2  3
 93 94  1  0
 94 95  3  0
 93 96  1  0
 96 97  3  0
 92 98  1  0
 98 99  3  0
 91100  1  0
 11  2  1  0
 23 17  1  0
 36 24  2  0
 79 38  1  0
 87 80  1  0
100 88  1  0
 10  5  1  0
 22 18  1  0
 36 27  1  0
 48 41  1  0
 56 49  1  0
 78 57  2  0
 23  7  1  0
 69 62  1  0
 77 70  1  0
  1101  1  0
  6102  1  0
  9103  1  0
 17104  1  0
 18105  1  0
 19106  1  0
 20107  1  0
 21108  1  0
 22109  1  0
 22110  1  0
 23111  1  0
 33112  1  0
 33113  1  0
 34114  1  0
 34115  1  0
 34116  1  0
 42117  1  0
 43118  1  0
 46119  1  0
 46120  1  0
 46121  1  0
 47122  1  0
 48123  1  0
 50124  1  0
 51125  1  0
 54126  1  0
 54127  1  0
 54128  1  0
 55129  1  0
 56130  1  0
 63131  1  0
 64132  1  0
 67133  1  0
 67134  1  0
 67135  1  0
 68136  1  0
 69137  1  0
 71138  1  0
 72139  1  0
 75140  1  0
 75141  1  0
 75142  1  0
 76143  1  0
 77144  1  0
 81145  1  0
 84146  1  0
 84147  1  0
 85148  1  0
 85149  1  0
 85150  1  0
 89151  1  0
 90152  1  0
M  END

