
     RDKit          3D

187207  0  0  0  0  0  0  0  0999 V2000
    5.7280   -4.6049    5.0352 C   0  0  0  0  0  0  0  0  0  0  0  0
    5.8877   -3.2752    4.8514 C   0  0  0  0  0  0  0  0  0  0  0  0
    5.0582   -2.4313    3.9708 C   0  0  0  0  0  0  0  0  0  0  0  0
    4.3539   -2.8153    2.9998 O   0  0  0  0  0  0  0  0  0  0  0  0
    5.1675   -1.0585    4.3970 C   0  0  0  0  0  0  0  0  0  0  0  0
    4.3735    0.0272    3.9560 C   0  0  0  0  0  0  0  0  0  0  0  0
    4.5702    1.1893    4.6738 C   0  0  0  0  0  0  0  0  0  0  0  0
    5.5092    1.2915    5.7494 C   0  0  0  0  0  0  0  0  0  0  0  0
    6.2926    0.2332    6.1831 C   0  0  0  0  0  0  0  0  0  0  0  0
    6.1039   -0.9771    5.4549 C   0  0  0  0  0  0  0  0  0  0  0  0
    6.6811   -2.3348    5.6983 C   0  0  0  0  0  0  0  0  0  0  0  0
    7.8107   -2.6220    6.3957 C   0  0  0  0  0  0  0  0  0  0  0  0
    8.3679   -3.9435    6.4488 C   0  0  0  0  0  0  0  0  0  0  0  0
    8.8370   -5.0019    6.4949 N   0  0  0  0  0  0  0  0  0  0  0  0
    8.6123   -1.6014    7.0182 C   0  0  0  0  0  0  0  0  0  0  0  0
    9.2727   -0.7939    7.5173 N   0  0  0  0  0  0  0  0  0  0  0  0
    5.1124    2.7199    5.9785 C   0  0  0  0  0  0  0  0  0  0  0  0
    6.0753    3.8433    5.4853 C   0  0  0  0  0  0  0  0  0  0  0  0
    6.8310    3.3814    4.2559 C   0  0  0  0  0  0  0  0  0  0  0  0
    5.9366    3.2864    3.2728 C   0  0  0  0  0  0  0  0  0  0  0  0
    4.6041    3.6852    3.8623 C   0  0  0  0  0  0  0  0  0  0  0  0
    5.0732    4.7669    4.8148 C   0  0  0  0  0  0  0  0  0  0  0  0
    4.1382    2.6111    4.8900 C   0  0  0  0  0  0  0  0  0  0  0  0
    4.6416   -5.3376    4.3725 C   0  0  0  0  0  0  0  0  0  0  0  0
    4.6474   -5.6814    3.0186 C   0  0  0  0  0  0  0  0  0  0  0  0
    3.3557   -5.7280    2.4626 C   0  0  0  0  0  0  0  0  0  0  0  0
    3.0566   -5.7683    1.0863 C   0  0  0  0  0  0  0  0  0  0  0  0
    4.1090   -5.8918    0.0556 C   0  0  0  0  0  0  0  0  0  0  0  0
    4.2031   -7.0621   -0.7077 C   0  0  0  0  0  0  0  0  0  0  0  0
    5.1575   -7.1612   -1.7258 C   0  0  0  0  0  0  0  0  0  0  0  0
    5.9971   -6.0800   -2.0056 C   0  0  0  0  0  0  0  0  0  0  0  0
    5.8832   -4.8938   -1.2748 C   0  0  0  0  0  0  0  0  0  0  0  0
    6.9280   -3.4882   -1.6826 S   0  0  0  0  0  0  0  0  0  0  0  0
    5.9491   -2.9519   -3.1300 C   0  0  0  0  0  0  0  0  0  0  0  0
    5.1291   -1.7191   -2.7904 C   0  0  0  0  0  0  0  0  0  0  0  0
    4.9331   -4.7917   -0.2487 C   0  0  0  0  0  0  0  0  0  0  0  0
    1.7386   -5.4487    0.7140 C   0  0  0  0  0  0  0  0  0  0  0  0
    0.7577   -5.1073    1.6464 C   0  0  0  0  0  0  0  0  0  0  0  0
    1.0289   -5.1516    3.0273 C   0  0  0  0  0  0  0  0  0  0  0  0
    0.1025   -4.5683    4.0186 C   0  0  0  0  0  0  0  0  0  0  0  0
    0.2486   -3.2275    4.4011 C   0  0  0  0  0  0  0  0  0  0  0  0
   -0.5948   -2.6755    5.3652 C   0  0  0  0  0  0  0  0  0  0  0  0
   -1.5868   -3.4603    5.9533 C   0  0  0  0  0  0  0  0  0  0  0  0
   -1.7431   -4.7982    5.5795 C   0  0  0  0  0  0  0  0  0  0  0  0
   -2.9948   -5.8071    6.3838 S   0  0  0  0  0  0  0  0  0  0  0  0
   -4.2570   -5.5435    5.0953 C   0  0  0  0  0  0  0  0  0  0  0  0
   -4.9469   -4.1883    5.2678 C   0  0  0  0  0  0  0  0  0  0  0  0
   -0.9019   -5.3544    4.6034 C   0  0  0  0  0  0  0  0  0  0  0  0
    2.3471   -5.4616    3.3989 C   0  0  0  0  0  0  0  0  0  0  0  0
    3.0518   -5.1671    4.8928 S   0  0  0  0  0  0  0  0  0  0  0  0
   -0.3606   -4.4916    1.0695 C   0  0  0  0  0  0  0  0  0  0  0  0
   -0.2379   -4.2885   -0.3110 C   0  0  0  0  0  0  0  0  0  0  0  0
    1.2189   -4.9761   -0.8156 S   0  0  0  0  0  0  0  0  0  0  0  0
   -0.8729   -3.1864   -1.0601 C   0  0  0  0  0  0  0  0  0  0  0  0
   -1.5119   -2.0789   -0.4703 C   0  0  0  0  0  0  0  0  0  0  0  0
   -2.3584   -2.1511    0.6858 N   0  0  0  0  0  0  0  0  0  0  0  0
   -2.1145   -1.2465    1.7866 C   0  0  0  0  0  0  0  0  0  0  0  0
   -0.7956   -0.8837    2.1222 C   0  0  0  0  0  0  0  0  0  0  0  0
   -0.5510    0.0631    3.1188 C   0  0  0  0  0  0  0  0  0  0  0  0
   -1.6188    0.6572    3.8006 C   0  0  0  0  0  0  0  0  0  0  0  0
   -1.2993    1.8973    5.0672 S   0  0  0  0  0  0  0  0  0  0  0  0
   -1.4726    3.2876    3.9036 C   0  0  0  0  0  0  0  0  0  0  0  0
   -2.9349    0.2871    3.4891 C   0  0  0  0  0  0  0  0  0  0  0  0
   -3.1818   -0.6503    2.4840 C   0  0  0  0  0  0  0  0  0  0  0  0
   -3.5324   -2.9946    0.6059 C   0  0  0  0  0  0  0  0  0  0  0  0
   -3.9662   -3.7297    1.7221 C   0  0  0  0  0  0  0  0  0  0  0  0
   -5.0180   -4.6436    1.5956 C   0  0  0  0  0  0  0  0  0  0  0  0
   -5.6512   -4.8309    0.3646 C   0  0  0  0  0  0  0  0  0  0  0  0
   -6.9620   -6.0419    0.2046 S   0  0  0  0  0  0  0  0  0  0  0  0
   -8.2691   -4.8550    0.6342 C   0  0  0  0  0  0  0  0  0  0  0  0
   -5.2475   -4.0863   -0.7437 C   0  0  0  0  0  0  0  0  0  0  0  0
   -4.1997   -3.1727   -0.6255 C   0  0  0  0  0  0  0  0  0  0  0  0
   -1.5467   -0.9928   -1.3277 C   0  0  0  0  0  0  0  0  0  0  0  0
   -2.1617    0.5543   -1.2019 S   0  0  0  0  0  0  0  0  0  0  0  0
   -1.7871    0.9501   -2.8142 C   0  0  0  0  0  0  0  0  0  0  0  0
   -1.2151   -0.1586   -3.4591 C   0  0  0  0  0  0  0  0  0  0  0  0
   -1.1255   -0.3189   -4.8840 N   0  0  0  0  0  0  0  0  0  0  0  0
   -1.8682   -1.4046   -5.4905 C   0  0  0  0  0  0  0  0  0  0  0  0
   -3.1625   -1.7185   -5.0323 C   0  0  0  0  0  0  0  0  0  0  0  0
   -3.8416   -2.8300   -5.5349 C   0  0  0  0  0  0  0  0  0  0  0  0
   -3.2399   -3.6458   -6.4987 C   0  0  0  0  0  0  0  0  0  0  0  0
   -4.1213   -5.0766   -7.1308 S   0  0  0  0  0  0  0  0  0  0  0  0
   -3.4276   -6.2017   -5.8766 C   0  0  0  0  0  0  0  0  0  0  0  0
   -1.9574   -3.3406   -6.9662 C   0  0  0  0  0  0  0  0  0  0  0  0
   -1.2727   -2.2284   -6.4653 C   0  0  0  0  0  0  0  0  0  0  0  0
   -0.2297    0.5084   -5.6574 C   0  0  0  0  0  0  0  0  0  0  0  0
    1.0005    0.9247   -5.1161 C   0  0  0  0  0  0  0  0  0  0  0  0
    1.9000    1.6591   -5.8928 C   0  0  0  0  0  0  0  0  0  0  0  0
    1.5698    2.0095   -7.2068 C   0  0  0  0  0  0  0  0  0  0  0  0
    2.7391    2.9222   -8.2177 S   0  0  0  0  0  0  0  0  0  0  0  0
    2.1211    4.5468   -7.6801 C   0  0  0  0  0  0  0  0  0  0  0  0
    0.3374    1.6227   -7.7421 C   0  0  0  0  0  0  0  0  0  0  0  0
   -0.5575    0.8774   -6.9739 C   0  0  0  0  0  0  0  0  0  0  0  0
   -1.0639   -1.2175   -2.5692 C   0  0  0  0  0  0  0  0  0  0  0  0
   -0.4592   -2.7765   -2.6703 S   0  0  0  0  0  0  0  0  0  0  0  0
   -2.0715    2.2790   -3.3613 C   0  0  0  0  0  0  0  0  0  0  0  0
   -3.3131    2.5356   -3.9560 C   0  0  0  0  0  0  0  0  0  0  0  0
   -3.8538    3.8489   -3.9820 C   0  0  0  0  0  0  0  0  0  0  0  0
   -5.2158    3.9162   -4.4311 N   0  0  0  0  0  0  0  0  0  0  0  0
   -5.5076    2.3751   -4.7239 S   0  0  0  0  0  4  0  0  0  0  0  0
   -4.2140    1.5065   -4.3819 N   0  0  0  0  0  0  0  0  0  0  0  0
   -3.1488    4.9437   -3.4421 C   0  0  0  0  0  0  0  0  0  0  0  0
   -1.8554    4.7004   -2.9425 C   0  0  0  0  0  0  0  0  0  0  0  0
   -1.0915    5.6740   -2.3788 N   0  0  0  0  0  0  0  0  0  0  0  0
    0.2089    4.7874   -1.8705 S   0  0  0  0  0  0  0  0  0  0  0  0
   -0.1129    3.2245   -2.2957 N   0  0  0  0  0  0  0  0  0  0  0  0
   -1.3202    3.3722   -2.9034 C   0  0  0  0  0  0  0  0  0  0  0  0
   -3.8478    6.1945   -3.0732 C   0  0  0  0  0  0  0  0  0  0  0  0
   -4.7151    6.8501   -3.8585 C   0  0  0  0  0  0  0  0  0  0  0  0
   -4.7276    6.8318   -5.3251 C   0  0  0  0  0  0  0  0  0  0  0  0
   -4.0345    6.0839   -6.0639 O   0  0  0  0  0  0  0  0  0  0  0  0
   -5.5767    7.9230   -5.7840 C   0  0  0  0  0  0  0  0  0  0  0  0
   -6.1005    8.5808   -4.6821 C   0  0  0  0  0  0  0  0  0  0  0  0
   -6.8509    9.7536   -4.8497 C   0  0  0  0  0  0  0  0  0  0  0  0
   -7.1065   10.2113   -6.1472 C   0  0  0  0  0  0  0  0  0  0  0  0
   -6.6069    9.5218   -7.2671 C   0  0  0  0  0  0  0  0  0  0  0  0
   -7.0095   10.1993   -9.0144 Br  0  0  0  0  0  0  0  0  0  0  0  0
   -5.8254    8.3636   -7.0913 C   0  0  0  0  0  0  0  0  0  0  0  0
   -5.2053    7.4699   -8.4750 Cl  0  0  0  0  0  0  0  0  0  0  0  0
   -5.6825    7.8970   -3.4315 C   0  0  0  0  0  0  0  0  0  0  0  0
   -6.3257    7.9453   -2.2324 C   0  0  0  0  0  0  0  0  0  0  0  0
   -6.0138    7.0410   -1.1515 C   0  0  0  0  0  0  0  0  0  0  0  0
   -5.7672    6.3230   -0.2771 N   0  0  0  0  0  0  0  0  0  0  0  0
   -7.5102    8.7325   -2.0232 C   0  0  0  0  0  0  0  0  0  0  0  0
   -8.4876    9.3325   -1.8513 N   0  0  0  0  0  0  0  0  0  0  0  0
    6.2181   -5.1149    5.8459 H   0  0  0  0  0  0  0  0  0  0  0  0
    3.6304   -0.0604    3.1725 H   0  0  0  0  0  0  0  0  0  0  0  0
    6.9173    0.3311    7.0531 H   0  0  0  0  0  0  0  0  0  0  0  0
    4.6530    2.9110    6.9752 H   0  0  0  0  0  0  0  0  0  0  0  0
    6.7085    4.3100    6.2716 H   0  0  0  0  0  0  0  0  0  0  0  0
    7.9019    3.2541    4.1538 H   0  0  0  0  0  0  0  0  0  0  0  0
    6.1568    3.0836    2.2341 H   0  0  0  0  0  0  0  0  0  0  0  0
    3.8384    3.9971    3.1225 H   0  0  0  0  0  0  0  0  0  0  0  0
    4.2743    5.1322    5.5017 H   0  0  0  0  0  0  0  0  0  0  0  0
    5.5473    5.6361    4.3029 H   0  0  0  0  0  0  0  0  0  0  0  0
    3.0818    2.7090    5.2257 H   0  0  0  0  0  0  0  0  0  0  0  0
    5.5569   -5.7118    2.4237 H   0  0  0  0  0  0  0  0  0  0  0  0
    3.5431   -7.8963   -0.5200 H   0  0  0  0  0  0  0  0  0  0  0  0
    5.2178   -8.0585   -2.3236 H   0  0  0  0  0  0  0  0  0  0  0  0
    6.7207   -6.1543   -2.8070 H   0  0  0  0  0  0  0  0  0  0  0  0
    5.2682   -3.7572   -3.4930 H   0  0  0  0  0  0  0  0  0  0  0  0
    6.6497   -2.7092   -3.9576 H   0  0  0  0  0  0  0  0  0  0  0  0
    4.5383   -1.4050   -3.6775 H   0  0  0  0  0  0  0  0  0  0  0  0
    5.8007   -0.8814   -2.4987 H   0  0  0  0  0  0  0  0  0  0  0  0
    4.4283   -1.9389   -1.9574 H   0  0  0  0  0  0  0  0  0  0  0  0
    4.8322   -3.8667    0.3080 H   0  0  0  0  0  0  0  0  0  0  0  0
    1.0277   -2.6163    3.9573 H   0  0  0  0  0  0  0  0  0  0  0  0
   -0.4748   -1.6414    5.6610 H   0  0  0  0  0  0  0  0  0  0  0  0
   -2.2307   -3.0252    6.7085 H   0  0  0  0  0  0  0  0  0  0  0  0
   -3.7934   -5.6108    4.0938 H   0  0  0  0  0  0  0  0  0  0  0  0
   -5.0241   -6.3409    5.1817 H   0  0  0  0  0  0  0  0  0  0  0  0
   -5.7554   -4.0790    4.5131 H   0  0  0  0  0  0  0  0  0  0  0  0
   -5.3992   -4.1185    6.2768 H   0  0  0  0  0  0  0  0  0  0  0  0
   -4.2288   -3.3565    5.1226 H   0  0  0  0  0  0  0  0  0  0  0  0
   -1.0168   -6.3922    4.3191 H   0  0  0  0  0  0  0  0  0  0  0  0
   -1.1467   -4.0705    1.6695 H   0  0  0  0  0  0  0  0  0  0  0  0
    0.0443   -1.3243    1.6060 H   0  0  0  0  0  0  0  0  0  0  0  0
    0.4657    0.3395    3.3580 H   0  0  0  0  0  0  0  0  0  0  0  0
   -0.7395    3.1852    3.0758 H   0  0  0  0  0  0  0  0  0  0  0  0
   -1.2789    4.2478    4.4321 H   0  0  0  0  0  0  0  0  0  0  0  0
   -2.5098    3.3107    3.5035 H   0  0  0  0  0  0  0  0  0  0  0  0
   -3.7665    0.7495    3.9999 H   0  0  0  0  0  0  0  0  0  0  0  0
   -4.2084   -0.8874    2.2244 H   0  0  0  0  0  0  0  0  0  0  0  0
   -3.4665   -3.6162    2.6720 H   0  0  0  0  0  0  0  0  0  0  0  0
   -5.3416   -5.2251    2.4466 H   0  0  0  0  0  0  0  0  0  0  0  0
   -8.1695   -4.5452    1.6943 H   0  0  0  0  0  0  0  0  0  0  0  0
   -8.2064   -3.9622   -0.0226 H   0  0  0  0  0  0  0  0  0  0  0  0
   -9.2553   -5.3400    0.4840 H   0  0  0  0  0  0  0  0  0  0  0  0
   -5.7363   -4.2239   -1.7001 H   0  0  0  0  0  0  0  0  0  0  0  0
   -3.8988   -2.6130   -1.5028 H   0  0  0  0  0  0  0  0  0  0  0  0
   -3.6383   -1.1169   -4.2684 H   0  0  0  0  0  0  0  0  0  0  0  0
   -4.8341   -3.0613   -5.1686 H   0  0  0  0  0  0  0  0  0  0  0  0
   -3.8698   -7.2096   -6.0080 H   0  0  0  0  0  0  0  0  0  0  0  0
   -3.6612   -5.8369   -4.8572 H   0  0  0  0  0  0  0  0  0  0  0  0
   -2.3283   -6.2700   -6.0059 H   0  0  0  0  0  0  0  0  0  0  0  0
   -1.4859   -3.9683   -7.7057 H   0  0  0  0  0  0  0  0  0  0  0  0
   -0.2672   -2.0238   -6.8097 H   0  0  0  0  0  0  0  0  0  0  0  0
    1.2839    0.6487   -4.1073 H   0  0  0  0  0  0  0  0  0  0  0  0
    2.8547    1.9507   -5.4748 H   0  0  0  0  0  0  0  0  0  0  0  0
    2.3773    4.7105   -6.6129 H   0  0  0  0  0  0  0  0  0  0  0  0
    2.6024    5.3301   -8.2959 H   0  0  0  0  0  0  0  0  0  0  0  0
    1.0211    4.6092   -7.8136 H   0  0  0  0  0  0  0  0  0  0  0  0
    0.0694    1.9024   -8.7510 H   0  0  0  0  0  0  0  0  0  0  0  0
   -1.5067    0.5897   -7.4062 H   0  0  0  0  0  0  0  0  0  0  0  0
   -3.7003    6.5306   -2.0548 H   0  0  0  0  0  0  0  0  0  0  0  0
   -7.2015   10.3337   -4.0102 H   0  0  0  0  0  0  0  0  0  0  0  0
   -7.7065   11.1033   -6.2862 H   0  0  0  0  0  0  0  0  0  0  0  0
  1  2  2  3
  2  3  1  0
  3  4  2  0
  3  5  1  0
  5  6  2  0
  6  7  1  0
  7  8  2  0
  8  9  1  0
  9 10  2  0
 10 11  1  0
 11 12  2  3
 12 13  1  0
 13 14  3  0
 12 15  1  0
 15 16  3  0
  8 17  1  0
 17 18  1  0
 18 19  1  0
 19 20  2  0
 20 21  1  0
 21 22  1  0
 21 23  1  0
  1 24  1  0
 24 25  2  0
 25 26  1  0
 26 27  2  0
 27 28  1  0
 28 29  2  0
 29 30  1  0
 30 31  2  0
 31 32  1  0
 32 33  1  0
 33 34  1  0
 34 35  1  0
 32 36  2  0
 27 37  1  0
 37 38  2  0
 38 39  1  0
 39 40  1  0
 40 41  2  0
 41 42  1  0
 42 43  2  0
 43 44  1  0
 44 45  1  0
 45 46  1  0
 46 47  1  0
 44 48  2  0
 39 49  2  0
 49 50  1  0
 38 51  1  0
 51 52  2  0
 52 53  1  0
 52 54  1  0
 54 55  2  0
 55 56  1  0
 56 57  1  0
 57 58  2  0
 58 59  1  0
 59 60  2  0
 60 61  1  0
 61 62  1  0
 60 63  1  0
 63 64  2  0
 56 65  1  0
 65 66  2  0
 66 67  1  0
 67 68  2  0
 68 69  1  0
 69 70  1  0
 68 71  1  0
 71 72  2  0
 55 73  1  0
 73 74  1  0
 74 75  1  0
 75 76  2  0
 76 77  1  0
 77 78  1  0
 78 79  2  0
 79 80  1  0
 80 81  2  0
 81 82  1  0
 82 83  1  0
 81 84  1  0
 84 85  2  0
 77 86  1  0
 86 87  2  0
 87 88  1  0
 88 89  2  0
 89 90  1  0
 90 91  1  0
 89 92  1  0
 92 93  2  0
 76 94  1  0
 94 95  1  0
 75 96  1  0
 96 97  2  0
 97 98  1  0
 98 99  1  0
 99100  2  0
100101  2  0
 98102  2  0
102103  1  0
103104  2  0
104105  1  0
105106  1  0
106107  2  0
102108  1  0
108109  2  3
109110  1  0
110111  2  0
110112  1  0
112113  2  0
113114  1  0
114115  2  0
115116  1  0
116117  1  0
116118  2  0
118119  1  0
113120  1  0
120121  2  3
121122  1  0
122123  3  0
121124  1  0
124125  3  0
 11  2  1  0
 23 17  1  0
 50 24  1  0
 95 54  1  0
107 96  1  0
120109  1  0
 10  5  1  0
 22 18  1  0
 49 26  1  0
 64 57  1  0
 72 65  1  0
 94 73  2  0
101 97  1  0
107103  1  0
118112  1  0
 23  7  1  0
 36 28  1  0
 53 37  1  0
 85 78  1  0
 93 86  1  0
 48 40  1  0
  1126  1  0
  6127  1  0
  9128  1  0
 17129  1  0
 18130  1  0
 19131  1  0
 20132  1  0
 21133  1  0
 22134  1  0
 22135  1  0
 23136  1  0
 25137  1  0
 29138  1  0
 30139  1  0
 31140  1  0
 34141  1  0
 34142  1  0
 35143  1  0
 35144  1  0
 35145  1  0
 36146  1  0
 41147  1  0
 42148  1  0
 43149  1  0
 46150  1  0
 46151  1  0
 47152  1  0
 47153  1  0
 47154  1  0
 48155  1  0
 51156  1  0
 58157  1  0
 59158  1  0
 62159  1  0
 62160  1  0
 62161  1  0
 63162  1  0
 64163  1  0
 66164  1  0
 67165  1  0
 70166  1  0
 70167  1  0
 70168  1  0
 71169  1  0
 72170  1  0
 79171  1  0
 80172  1  0
 83173  1  0
 83174  1  0
 83175  1  0
 84176  1  0
 85177  1  0
 87178  1  0
 88179  1  0
 91180  1  0
 91181  1  0
 91182  1  0
 92183  1  0
 93184  1  0
108185  1  0
114186  1  0
115187  1  0
M  END

