
     RDKit          3D

207229  0  0  0  0  0  0  0  0999 V2000
   -0.4422   -6.4172    5.3497 C   0  0  0  0  0  0  0  0  0  0  0  0
   -1.7929   -6.3777    5.3344 C   0  0  0  0  0  0  0  0  0  0  0  0
   -2.5753   -6.7384    6.5172 C   0  0  0  0  0  0  0  0  0  0  0  0
   -2.1300   -7.3246    7.5406 O   0  0  0  0  0  0  0  0  0  0  0  0
   -3.9370   -6.2775    6.3455 C   0  0  0  0  0  0  0  0  0  0  0  0
   -5.0208   -6.5268    7.2201 C   0  0  0  0  0  0  0  0  0  0  0  0
   -6.2543   -6.2176    6.6842 C   0  0  0  0  0  0  0  0  0  0  0  0
   -6.4206   -5.6675    5.3746 C   0  0  0  0  0  0  0  0  0  0  0  0
   -5.3591   -5.3702    4.5327 C   0  0  0  0  0  0  0  0  0  0  0  0
   -4.0697   -5.6829    5.0626 C   0  0  0  0  0  0  0  0  0  0  0  0
   -2.7433   -5.7265    4.3721 C   0  0  0  0  0  0  0  0  0  0  0  0
   -2.5612   -5.5511    3.0462 C   0  0  0  0  0  0  0  0  0  0  0  0
   -3.3664   -4.6301    2.2867 C   0  0  0  0  0  0  0  0  0  0  0  0
   -4.0024   -3.8828    1.6701 N   0  0  0  0  0  0  0  0  0  0  0  0
   -1.7393   -6.4454    2.2855 C   0  0  0  0  0  0  0  0  0  0  0  0
   -1.1148   -7.1836    1.6474 N   0  0  0  0  0  0  0  0  0  0  0  0
   -7.9144   -5.7360    5.5136 C   0  0  0  0  0  0  0  0  0  0  0  0
   -8.6664   -4.3979    5.7630 C   0  0  0  0  0  0  0  0  0  0  0  0
  -10.0390   -4.7811    6.2708 C   0  0  0  0  0  0  0  0  0  0  0  0
   -9.8672   -5.2742    7.5036 C   0  0  0  0  0  0  0  0  0  0  0  0
   -8.3843   -5.2114    7.7829 C   0  0  0  0  0  0  0  0  0  0  0  0
   -8.0661   -3.9083    7.0661 C   0  0  0  0  0  0  0  0  0  0  0  0
   -7.7371   -6.2837    6.8642 C   0  0  0  0  0  0  0  0  0  0  0  0
    0.4434   -5.5845    4.5240 C   0  0  0  0  0  0  0  0  0  0  0  0
    1.2970   -6.0899    3.1561 S   0  0  0  0  0  0  0  0  0  0  0  0
    2.3798   -4.8037    2.9975 C   0  0  0  0  0  0  0  0  0  0  0  0
    2.1068   -4.0093    4.0933 C   0  0  0  0  0  0  0  0  0  0  0  0
    2.8085   -2.6032    4.6588 S   0  0  0  0  0  0  0  0  0  0  0  0
    1.8669   -2.5303    6.0585 C   0  0  0  0  0  0  0  0  0  0  0  0
    2.1761   -1.6027    7.1557 C   0  0  0  0  0  0  0  0  0  0  0  0
    1.3522   -1.4002    8.0881 O   0  0  0  0  0  0  0  0  0  0  0  0
    3.4367   -0.9951    7.1785 O   0  0  0  0  0  0  0  0  0  0  0  0
    4.0087   -0.4056    8.3372 C   0  0  0  0  0  0  0  0  0  0  0  0
    3.5581    1.0380    8.4915 C   0  0  0  0  0  0  0  0  0  0  0  0
    0.9495   -3.6058    6.0775 C   0  0  0  0  0  0  0  0  0  0  0  0
    1.0991   -4.4240    4.9437 C   0  0  0  0  0  0  0  0  0  0  0  0
   -0.1669   -3.9332    7.3977 Cl  0  0  0  0  0  0  0  0  0  0  0  0
    2.7694   -4.2197    1.7088 C   0  0  0  0  0  0  0  0  0  0  0  0
    3.8960   -3.3811    1.5240 C   0  0  0  0  0  0  0  0  0  0  0  0
    5.1270   -3.5226    2.2752 N   0  0  0  0  0  0  0  0  0  0  0  0
    6.1607   -2.5324    2.2310 C   0  0  0  0  0  0  0  0  0  0  0  0
    7.2315   -2.6860    1.3433 C   0  0  0  0  0  0  0  0  0  0  0  0
    8.2874   -1.7695    1.3487 C   0  0  0  0  0  0  0  0  0  0  0  0
    8.2823   -0.6972    2.2469 C   0  0  0  0  0  0  0  0  0  0  0  0
    9.6514    0.4639    2.2693 S   0  0  0  0  0  0  0  0  0  0  0  0
   10.6388   -0.5193    3.4372 C   0  0  0  0  0  0  0  0  0  0  0  0
    7.2087   -0.5377    3.1333 C   0  0  0  0  0  0  0  0  0  0  0  0
    6.1474   -1.4520    3.1240 C   0  0  0  0  0  0  0  0  0  0  0  0
    5.4348   -4.7715    2.9246 C   0  0  0  0  0  0  0  0  0  0  0  0
    5.3760   -5.9741    2.2063 C   0  0  0  0  0  0  0  0  0  0  0  0
    5.5609   -7.1943    2.8631 C   0  0  0  0  0  0  0  0  0  0  0  0
    5.8075   -7.2217    4.2395 C   0  0  0  0  0  0  0  0  0  0  0  0
    5.9476   -8.7909    5.0924 S   0  0  0  0  0  0  0  0  0  0  0  0
    4.1682   -8.8805    5.4674 C   0  0  0  0  0  0  0  0  0  0  0  0
    5.9139   -6.0205    4.9501 C   0  0  0  0  0  0  0  0  0  0  0  0
    5.7366   -4.7982    4.2944 C   0  0  0  0  0  0  0  0  0  0  0  0
    3.6036   -2.3416    0.6215 C   0  0  0  0  0  0  0  0  0  0  0  0
    4.2160   -0.7859    0.4000 S   0  0  0  0  0  0  0  0  0  0  0  0
    2.7916   -0.1584   -0.3143 C   0  0  0  0  0  0  0  0  0  0  0  0
    1.8337   -1.1913   -0.3770 C   0  0  0  0  0  0  0  0  0  0  0  0
    0.4156   -0.9932   -0.5147 N   0  0  0  0  0  0  0  0  0  0  0  0
   -0.1374   -1.2804   -1.8082 C   0  0  0  0  0  0  0  0  0  0  0  0
    0.0002   -0.3522   -2.8469 C   0  0  0  0  0  0  0  0  0  0  0  0
   -0.4455   -0.6648   -4.1352 C   0  0  0  0  0  0  0  0  0  0  0  0
   -1.0291   -1.9077   -4.3918 C   0  0  0  0  0  0  0  0  0  0  0  0
   -1.5698   -2.3148   -6.0549 S   0  0  0  0  0  0  0  0  0  0  0  0
    0.0619   -2.9434   -6.5619 C   0  0  0  0  0  0  0  0  0  0  0  0
   -1.1802   -2.8386   -3.3574 C   0  0  0  0  0  0  0  0  0  0  0  0
   -0.7353   -2.5274   -2.0690 C   0  0  0  0  0  0  0  0  0  0  0  0
   -0.4250   -0.8852    0.6730 C   0  0  0  0  0  0  0  0  0  0  0  0
   -1.8316   -0.9521    0.5896 C   0  0  0  0  0  0  0  0  0  0  0  0
   -2.6257   -0.8541    1.7387 C   0  0  0  0  0  0  0  0  0  0  0  0
   -2.0318   -0.6644    2.9871 C   0  0  0  0  0  0  0  0  0  0  0  0
   -3.0554   -0.4895    4.4533 S   0  0  0  0  0  0  0  0  0  0  0  0
   -2.7086   -2.1521    5.1174 C   0  0  0  0  0  0  0  0  0  0  0  0
   -0.6445   -0.5598    3.0889 C   0  0  0  0  0  0  0  0  0  0  0  0
    0.1537   -0.6717    1.9489 C   0  0  0  0  0  0  0  0  0  0  0  0
    2.3449   -2.3864    0.1049 C   0  0  0  0  0  0  0  0  0  0  0  0
    1.5129   -3.6979    0.7025 S   0  0  0  0  0  0  0  0  0  0  0  0
    2.5463    1.2770   -0.5494 C   0  0  0  0  0  0  0  0  0  0  0  0
    1.3202    1.9139   -0.3975 C   0  0  0  0  0  0  0  0  0  0  0  0
    1.3113    3.2232   -0.8776 C   0  0  0  0  0  0  0  0  0  0  0  0
    0.1732    4.0437   -0.9709 C   0  0  0  0  0  0  0  0  0  0  0  0
   -1.1574    3.5799   -0.5277 C   0  0  0  0  0  0  0  0  0  0  0  0
   -1.4154    3.3623    0.8354 C   0  0  0  0  0  0  0  0  0  0  0  0
   -2.6807    2.9353    1.2521 C   0  0  0  0  0  0  0  0  0  0  0  0
   -3.6926    2.7163    0.3092 C   0  0  0  0  0  0  0  0  0  0  0  0
   -5.3313    2.2387    0.8614 S   0  0  0  0  0  0  0  0  0  0  0  0
   -5.9309    3.9501    1.1097 C   0  0  0  0  0  0  0  0  0  0  0  0
   -6.3695    4.5834   -0.2080 C   0  0  0  0  0  0  0  0  0  0  0  0
   -3.4200    2.8656   -1.0572 C   0  0  0  0  0  0  0  0  0  0  0  0
   -4.3748    2.6016   -1.9804 F   0  0  0  0  0  0  0  0  0  0  0  0
   -2.1616    3.3120   -1.4700 C   0  0  0  0  0  0  0  0  0  0  0  0
    0.3330    5.2692   -1.6329 C   0  0  0  0  0  0  0  0  0  0  0  0
    1.5606    5.6913   -2.1558 C   0  0  0  0  0  0  0  0  0  0  0  0
    2.7179    4.8919   -2.0053 C   0  0  0  0  0  0  0  0  0  0  0  0
    4.0474    5.3550   -2.4571 C   0  0  0  0  0  0  0  0  0  0  0  0
    4.5969    6.5247   -1.9068 C   0  0  0  0  0  0  0  0  0  0  0  0
    5.8660    6.9555   -2.2915 C   0  0  0  0  0  0  0  0  0  0  0  0
    6.6020    6.2263   -3.2336 C   0  0  0  0  0  0  0  0  0  0  0  0
    8.2262    6.8156   -3.7259 S   0  0  0  0  0  0  0  0  0  0  0  0
    9.1182    6.0357   -2.3355 C   0  0  0  0  0  0  0  0  0  0  0  0
    9.6818    4.6894   -2.7626 C   0  0  0  0  0  0  0  0  0  0  0  0
    6.0554    5.0610   -3.7961 C   0  0  0  0  0  0  0  0  0  0  0  0
    4.7824    4.6278   -3.4038 C   0  0  0  0  0  0  0  0  0  0  0  0
    6.7466    4.3525   -4.7257 F   0  0  0  0  0  0  0  0  0  0  0  0
    2.5485    3.6427   -1.3760 C   0  0  0  0  0  0  0  0  0  0  0  0
    3.6493    2.3701   -1.2132 S   0  0  0  0  0  0  0  0  0  0  0  0
    1.4466    6.8476   -2.9531 C   0  0  0  0  0  0  0  0  0  0  0  0
    0.1308    7.3059   -3.0566 C   0  0  0  0  0  0  0  0  0  0  0  0
   -0.8738    6.3219   -2.1298 S   0  0  0  0  0  0  0  0  0  0  0  0
   -0.4159    8.0815   -4.1760 C   0  0  0  0  0  0  0  0  0  0  0  0
   -0.7325    7.4769   -5.3400 C   0  0  0  0  0  0  0  0  0  0  0  0
   -0.4274    6.0727   -5.6630 C   0  0  0  0  0  0  0  0  0  0  0  0
    0.5638    5.4076   -5.2648 O   0  0  0  0  0  0  0  0  0  0  0  0
   -1.4792    5.5546   -6.5024 C   0  0  0  0  0  0  0  0  0  0  0  0
   -1.7074    4.1949   -6.8167 C   0  0  0  0  0  0  0  0  0  0  0  0
   -2.9311    3.9623   -7.4120 C   0  0  0  0  0  0  0  0  0  0  0  0
   -3.8808    5.0000   -7.6945 C   0  0  0  0  0  0  0  0  0  0  0  0
   -3.6475    6.3396   -7.4073 C   0  0  0  0  0  0  0  0  0  0  0  0
   -2.3850    6.6022   -6.8077 C   0  0  0  0  0  0  0  0  0  0  0  0
   -1.8581    7.8690   -6.2303 C   0  0  0  0  0  0  0  0  0  0  0  0
   -2.2114    9.1300   -6.5805 C   0  0  0  0  0  0  0  0  0  0  0  0
   -3.2069    9.3965   -7.5856 C   0  0  0  0  0  0  0  0  0  0  0  0
   -4.0026    9.6213   -8.3964 N   0  0  0  0  0  0  0  0  0  0  0  0
   -1.5000   10.2824   -6.0828 C   0  0  0  0  0  0  0  0  0  0  0  0
   -0.9281   11.2060   -5.6885 N   0  0  0  0  0  0  0  0  0  0  0  0
   -4.8594    3.9828   -8.2076 C   0  0  0  0  0  0  0  0  0  0  0  0
   -5.0484    3.9132   -9.7470 C   0  0  0  0  0  0  0  0  0  0  0  0
   -5.7279    2.5895  -10.0224 C   0  0  0  0  0  0  0  0  0  0  0  0
   -4.8188    1.6350   -9.7841 C   0  0  0  0  0  0  0  0  0  0  0  0
   -3.5603    2.3487   -9.3481 C   0  0  0  0  0  0  0  0  0  0  0  0
   -3.6587    3.5662  -10.2570 C   0  0  0  0  0  0  0  0  0  0  0  0
   -3.8745    2.9269   -7.9382 C   0  0  0  0  0  0  0  0  0  0  0  0
    0.0418   -6.9097    6.1803 H   0  0  0  0  0  0  0  0  0  0  0  0
   -4.9108   -7.0022    8.1884 H   0  0  0  0  0  0  0  0  0  0  0  0
   -5.5467   -5.0127    3.5318 H   0  0  0  0  0  0  0  0  0  0  0  0
   -8.3975   -6.4334    4.7942 H   0  0  0  0  0  0  0  0  0  0  0  0
   -8.6639   -3.6754    4.9237 H   0  0  0  0  0  0  0  0  0  0  0  0
  -10.9946   -4.6038    5.7987 H   0  0  0  0  0  0  0  0  0  0  0  0
  -10.6496   -5.5528    8.2026 H   0  0  0  0  0  0  0  0  0  0  0  0
   -8.0943   -5.2520    8.8544 H   0  0  0  0  0  0  0  0  0  0  0  0
   -8.5953   -3.0171    7.4890 H   0  0  0  0  0  0  0  0  0  0  0  0
   -6.9835   -3.6695    7.0089 H   0  0  0  0  0  0  0  0  0  0  0  0
   -8.1216   -7.3217    6.9942 H   0  0  0  0  0  0  0  0  0  0  0  0
    3.7600   -0.9937    9.2455 H   0  0  0  0  0  0  0  0  0  0  0  0
    5.1157   -0.4084    8.2190 H   0  0  0  0  0  0  0  0  0  0  0  0
    4.0993    1.5152    9.3350 H   0  0  0  0  0  0  0  0  0  0  0  0
    3.7595    1.6111    7.5585 H   0  0  0  0  0  0  0  0  0  0  0  0
    2.4675    1.0710    8.7056 H   0  0  0  0  0  0  0  0  0  0  0  0
    7.2615   -3.5321    0.6674 H   0  0  0  0  0  0  0  0  0  0  0  0
    9.1208   -1.9035    0.6666 H   0  0  0  0  0  0  0  0  0  0  0  0
   10.9557   -1.4727    2.9619 H   0  0  0  0  0  0  0  0  0  0  0  0
   10.0554   -0.7334    4.3583 H   0  0  0  0  0  0  0  0  0  0  0  0
   11.5443    0.0578    3.7136 H   0  0  0  0  0  0  0  0  0  0  0  0
    7.1952    0.2954    3.8285 H   0  0  0  0  0  0  0  0  0  0  0  0
    5.3300   -1.3295    3.8222 H   0  0  0  0  0  0  0  0  0  0  0  0
    5.1593   -5.9661    1.1465 H   0  0  0  0  0  0  0  0  0  0  0  0
    5.4805   -8.1186    2.3030 H   0  0  0  0  0  0  0  0  0  0  0  0
    3.5709   -8.7447    4.5428 H   0  0  0  0  0  0  0  0  0  0  0  0
    3.8976   -8.0939    6.2022 H   0  0  0  0  0  0  0  0  0  0  0  0
    3.9367   -9.8741    5.8999 H   0  0  0  0  0  0  0  0  0  0  0  0
    6.1088   -6.0342    6.0138 H   0  0  0  0  0  0  0  0  0  0  0  0
    5.7978   -3.8763    4.8602 H   0  0  0  0  0  0  0  0  0  0  0  0
    0.4711    0.6045   -2.6711 H   0  0  0  0  0  0  0  0  0  0  0  0
   -0.3151    0.0576   -4.9333 H   0  0  0  0  0  0  0  0  0  0  0  0
    0.2503   -3.9298   -6.0833 H   0  0  0  0  0  0  0  0  0  0  0  0
    0.0733   -3.0700   -7.6616 H   0  0  0  0  0  0  0  0  0  0  0  0
    0.8757   -2.2462   -6.2624 H   0  0  0  0  0  0  0  0  0  0  0  0
   -1.6301   -3.8078   -3.5511 H   0  0  0  0  0  0  0  0  0  0  0  0
   -0.8358   -3.2596   -1.2780 H   0  0  0  0  0  0  0  0  0  0  0  0
   -2.3301   -1.0680   -0.3597 H   0  0  0  0  0  0  0  0  0  0  0  0
   -3.7064   -0.9102    1.6501 H   0  0  0  0  0  0  0  0  0  0  0  0
   -2.3800   -2.8651    4.3301 H   0  0  0  0  0  0  0  0  0  0  0  0
   -1.8991   -2.0659    5.8760 H   0  0  0  0  0  0  0  0  0  0  0  0
   -3.6200   -2.5472    5.6167 H   0  0  0  0  0  0  0  0  0  0  0  0
   -0.1795   -0.3904    4.0525 H   0  0  0  0  0  0  0  0  0  0  0  0
    1.2243   -0.5804    2.0727 H   0  0  0  0  0  0  0  0  0  0  0  0
    0.4400    1.4507    0.0020 H   0  0  0  0  0  0  0  0  0  0  0  0
   -0.6424    3.5442    1.5735 H   0  0  0  0  0  0  0  0  0  0  0  0
   -2.8718    2.7979    2.3106 H   0  0  0  0  0  0  0  0  0  0  0  0
   -5.1499    4.5793    1.5922 H   0  0  0  0  0  0  0  0  0  0  0  0
   -6.8102    3.9179    1.7892 H   0  0  0  0  0  0  0  0  0  0  0  0
   -5.5095    4.6976   -0.8993 H   0  0  0  0  0  0  0  0  0  0  0  0
   -7.1471    3.9553   -0.6946 H   0  0  0  0  0  0  0  0  0  0  0  0
   -6.7900    5.5923   -0.0207 H   0  0  0  0  0  0  0  0  0  0  0  0
   -1.9689    3.4474   -2.5267 H   0  0  0  0  0  0  0  0  0  0  0  0
    4.0501    7.0913   -1.1625 H   0  0  0  0  0  0  0  0  0  0  0  0
    6.2839    7.8524   -1.8509 H   0  0  0  0  0  0  0  0  0  0  0  0
    8.4663    5.9065   -1.4460 H   0  0  0  0  0  0  0  0  0  0  0  0
    9.9557    6.6999   -2.0428 H   0  0  0  0  0  0  0  0  0  0  0  0
   10.3191    4.8102   -3.6645 H   0  0  0  0  0  0  0  0  0  0  0  0
    8.8608    3.9801   -2.9907 H   0  0  0  0  0  0  0  0  0  0  0  0
   10.2998    4.2634   -1.9418 H   0  0  0  0  0  0  0  0  0  0  0  0
    4.3668    3.7296   -3.8426 H   0  0  0  0  0  0  0  0  0  0  0  0
    2.2545    7.2492   -3.5502 H   0  0  0  0  0  0  0  0  0  0  0  0
   -0.8845    9.0157   -3.9123 H   0  0  0  0  0  0  0  0  0  0  0  0
   -1.0286    3.3984   -6.5470 H   0  0  0  0  0  0  0  0  0  0  0  0
   -4.4117    7.0858   -7.5719 H   0  0  0  0  0  0  0  0  0  0  0  0
   -5.7913    3.9153   -7.5997 H   0  0  0  0  0  0  0  0  0  0  0  0
   -5.5325    4.7953  -10.2122 H   0  0  0  0  0  0  0  0  0  0  0  0
   -6.7191    2.4272  -10.4289 H   0  0  0  0  0  0  0  0  0  0  0  0
   -4.9450    0.5735   -9.9662 H   0  0  0  0  0  0  0  0  0  0  0  0
   -2.6237    1.7558   -9.4321 H   0  0  0  0  0  0  0  0  0  0  0  0
   -2.8935    4.3505  -10.0511 H   0  0  0  0  0  0  0  0  0  0  0  0
   -3.6361    3.3206  -11.3473 H   0  0  0  0  0  0  0  0  0  0  0  0
   -4.1932    2.1876   -7.1679 H   0  0  0  0  0  0  0  0  0  0  0  0
  1  2  2  3
  2  3  1  0
  3  4  2  0
  3  5  1  0
  5  6  2  0
  6  7  1  0
  7  8  2  0
  8  9  1  0
  9 10  2  0
 10 11  1  0
 11 12  2  3
 12 13  1  0
 13 14  3  0
 12 15  1  0
 15 16  3  0
  8 17  1  0
 17 18  1  0
 18 19  1  0
 19 20  2  0
 20 21  1  0
 21 22  1  0
 21 23  1  0
  1 24  1  0
 24 25  1  0
 25 26  1  0
 26 27  2  0
 27 28  1  0
 28 29  1  0
 29 30  1  0
 30 31  2  0
 30 32  1  0
 32 33  1  0
 33 34  1  0
 29 35  2  0
 35 36  1  0
 35 37  1  0
 26 38  1  0
 38 39  2  0
 39 40  1  0
 40 41  1  0
 41 42  2  0
 42 43  1  0
 43 44  2  0
 44 45  1  0
 45 46  1  0
 44 47  1  0
 47 48  2  0
 40 49  1  0
 49 50  2  0
 50 51  1  0
 51 52  2  0
 52 53  1  0
 53 54  1  0
 52 55  1  0
 55 56  2  0
 39 57  1  0
 57 58  1  0
 58 59  1  0
 59 60  2  0
 60 61  1  0
 61 62  1  0
 62 63  2  0
 63 64  1  0
 64 65  2  0
 65 66  1  0
 66 67  1  0
 65 68  1  0
 68 69  2  0
 61 70  1  0
 70 71  2  0
 71 72  1  0
 72 73  2  0
 73 74  1  0
 74 75  1  0
 73 76  1  0
 76 77  2  0
 60 78  1  0
 78 79  1  0
 59 80  1  0
 80 81  2  0
 81 82  1  0
 82 83  2  0
 83 84  1  0
 84 85  2  0
 85 86  1  0
 86 87  2  0
 87 88  1  0
 88 89  1  0
 89 90  1  0
 87 91  1  0
 91 92  1  0
 91 93  2  0
 83 94  1  0
 94 95  2  0
 95 96  1  0
 96 97  1  0
 97 98  2  0
 98 99  1  0
 99100  2  0
100101  1  0
101102  1  0
102103  1  0
100104  1  0
104105  2  0
104106  1  0
 96107  2  0
107108  1  0
 95109  1  0
109110  2  0
110111  1  0
110112  1  0
112113  2  3
113114  1  0
114115  2  0
114116  1  0
116117  2  0
117118  1  0
118119  2  0
119120  1  0
120121  2  0
121122  1  0
122123  2  3
123124  1  0
124125  3  0
123126  1  0
126127  3  0
119128  1  0
128129  1  0
129130  1  0
130131  2  0
131132  1  0
132133  1  0
132134  1  0
 11  2  1  0
 23 17  1  0
 36 24  2  0
 79 38  1  0
108 80  1  0
122113  1  0
134128  1  0
 10  5  1  0
 22 18  1  0
 36 27  1  0
 48 41  1  0
 56 49  1  0
 78 57  2  0
107 82  1  0
121116  1  0
133129  1  0
 23  7  1  0
 69 62  1  0
 77 70  1  0
 93 84  1  0
111 94  1  0
134118  1  0
105 97  1  0
  1135  1  0
  6136  1  0
  9137  1  0
 17138  1  0
 18139  1  0
 19140  1  0
 20141  1  0
 21142  1  0
 22143  1  0
 22144  1  0
 23145  1  0
 33146  1  0
 33147  1  0
 34148  1  0
 34149  1  0
 34150  1  0
 42151  1  0
 43152  1  0
 46153  1  0
 46154  1  0
 46155  1  0
 47156  1  0
 48157  1  0
 50158  1  0
 51159  1  0
 54160  1  0
 54161  1  0
 54162  1  0
 55163  1  0
 56164  1  0
 63165  1  0
 64166  1  0
 67167  1  0
 67168  1  0
 67169  1  0
 68170  1  0
 69171  1  0
 71172  1  0
 72173  1  0
 75174  1  0
 75175  1  0
 75176  1  0
 76177  1  0
 77178  1  0
 81179  1  0
 85180  1  0
 86181  1  0
 89182  1  0
 89183  1  0
 90184  1  0
 90185  1  0
 90186  1  0
 93187  1  0
 98188  1  0
 99189  1  0
102190  1  0
102191  1  0
103192  1  0
103193  1  0
103194  1  0
105195  1  0
109196  1  0
112197  1  0
117198  1  0
120199  1  0
128200  1  0
129201  1  0
130202  1  0
131203  1  0
132204  1  0
133205  1  0
133206  1  0
134207  1  0
M  END

