
     RDKit          3D

218242  0  0  0  0  0  0  0  0999 V2000
    6.7471    8.0757   -2.6145 C   0  0  0  0  0  0  0  0  0  0  0  0
    8.0691    7.8471   -2.6904 C   0  0  0  0  0  0  0  0  0  0  0  0
    9.0374    8.5069   -1.8105 C   0  0  0  0  0  0  0  0  0  0  0  0
    8.8251    9.5524   -1.1225 O   0  0  0  0  0  0  0  0  0  0  0  0
   10.2339    7.6980   -1.7424 C   0  0  0  0  0  0  0  0  0  0  0  0
   11.3569    7.8731   -0.8955 C   0  0  0  0  0  0  0  0  0  0  0  0
   12.2891    6.8525   -0.9897 C   0  0  0  0  0  0  0  0  0  0  0  0
   12.1257    5.7148   -1.8395 C   0  0  0  0  0  0  0  0  0  0  0  0
   11.0204    5.5209   -2.6528 C   0  0  0  0  0  0  0  0  0  0  0  0
   10.0731    6.5800   -2.6098 C   0  0  0  0  0  0  0  0  0  0  0  0
    8.7949    6.7290   -3.3505 C   0  0  0  0  0  0  0  0  0  0  0  0
    8.5383    6.2444   -4.5925 C   0  0  0  0  0  0  0  0  0  0  0  0
    7.4908    6.7901   -5.4154 C   0  0  0  0  0  0  0  0  0  0  0  0
    6.6519    7.2315   -6.0836 N   0  0  0  0  0  0  0  0  0  0  0  0
    9.3993    5.2908   -5.2382 C   0  0  0  0  0  0  0  0  0  0  0  0
   10.0802    4.5125   -5.7663 N   0  0  0  0  0  0  0  0  0  0  0  0
   13.4064    5.1277   -1.3282 C   0  0  0  0  0  0  0  0  0  0  0  0
   13.2808    3.9436   -0.3200 C   0  0  0  0  0  0  0  0  0  0  0  0
   14.6403    3.8080    0.3277 C   0  0  0  0  0  0  0  0  0  0  0  0
   14.7957    4.8785    1.1126 C   0  0  0  0  0  0  0  0  0  0  0  0
   13.5341    5.7021    0.9703 C   0  0  0  0  0  0  0  0  0  0  0  0
   12.5309    4.5668    0.8456 C   0  0  0  0  0  0  0  0  0  0  0  0
   13.5770    6.2996   -0.4649 C   0  0  0  0  0  0  0  0  0  0  0  0
    5.7081    7.1094   -3.0066 C   0  0  0  0  0  0  0  0  0  0  0  0
    5.7900    5.7194   -2.8850 C   0  0  0  0  0  0  0  0  0  0  0  0
    4.5975    5.0645   -3.2063 C   0  0  0  0  0  0  0  0  0  0  0  0
    4.3764    3.6689   -3.1668 C   0  0  0  0  0  0  0  0  0  0  0  0
    5.4000    2.7457   -2.6382 C   0  0  0  0  0  0  0  0  0  0  0  0
    5.8510    2.9024   -1.3125 C   0  0  0  0  0  0  0  0  0  0  0  0
    6.8809    2.0987   -0.8238 C   0  0  0  0  0  0  0  0  0  0  0  0
    7.4551    1.1235   -1.6390 C   0  0  0  0  0  0  0  0  0  0  0  0
    7.0040    0.9428   -2.9500 C   0  0  0  0  0  0  0  0  0  0  0  0
    7.7984   -0.2786   -3.9972 S   0  0  0  0  0  0  0  0  0  0  0  0
    6.7193   -1.6534   -3.4528 C   0  0  0  0  0  0  0  0  0  0  0  0
    7.2623   -2.9848   -3.9661 C   0  0  0  0  0  0  0  0  0  0  0  0
    5.9720    1.7526   -3.4514 C   0  0  0  0  0  0  0  0  0  0  0  0
    3.0906    3.2226   -3.5080 C   0  0  0  0  0  0  0  0  0  0  0  0
    2.0511    4.0984   -3.8388 C   0  0  0  0  0  0  0  0  0  0  0  0
    2.2668    5.4934   -3.8891 C   0  0  0  0  0  0  0  0  0  0  0  0
    1.1849    6.4428   -4.2547 C   0  0  0  0  0  0  0  0  0  0  0  0
    0.8354    7.4959   -3.3974 C   0  0  0  0  0  0  0  0  0  0  0  0
   -0.2140    8.3587   -3.7367 C   0  0  0  0  0  0  0  0  0  0  0  0
   -0.9232    8.1739   -4.9235 C   0  0  0  0  0  0  0  0  0  0  0  0
   -0.5784    7.1272   -5.7904 C   0  0  0  0  0  0  0  0  0  0  0  0
   -1.5366    6.8426   -7.2898 S   0  0  0  0  0  0  0  0  0  0  0  0
   -0.4931    7.8907   -8.3544 C   0  0  0  0  0  0  0  0  0  0  0  0
   -1.0457    9.3102   -8.4207 C   0  0  0  0  0  0  0  0  0  0  0  0
    0.4741    6.2700   -5.4595 C   0  0  0  0  0  0  0  0  0  0  0  0
    3.5607    5.9418   -3.5598 C   0  0  0  0  0  0  0  0  0  0  0  0
    4.1414    7.5243   -3.4768 S   0  0  0  0  0  0  0  0  0  0  0  0
    0.8118    3.4457   -3.9956 C   0  0  0  0  0  0  0  0  0  0  0  0
    0.9048    2.0716   -3.8340 C   0  0  0  0  0  0  0  0  0  0  0  0
    2.4870    1.6520   -3.4399 S   0  0  0  0  0  0  0  0  0  0  0  0
   -0.2425    1.1732   -3.7058 C   0  0  0  0  0  0  0  0  0  0  0  0
   -1.1419    1.1961   -2.6426 C   0  0  0  0  0  0  0  0  0  0  0  0
   -2.0121    0.0974   -2.6435 C   0  0  0  0  0  0  0  0  0  0  0  0
   -2.9509   -0.2201   -1.6478 C   0  0  0  0  0  0  0  0  0  0  0  0
   -3.0895    0.5759   -0.4154 C   0  0  0  0  0  0  0  0  0  0  0  0
   -3.7844    1.7934   -0.4150 C   0  0  0  0  0  0  0  0  0  0  0  0
   -4.0475    2.4460    0.7941 C   0  0  0  0  0  0  0  0  0  0  0  0
   -3.6223    1.8861    2.0039 C   0  0  0  0  0  0  0  0  0  0  0  0
   -2.9066    0.6814    2.0023 C   0  0  0  0  0  0  0  0  0  0  0  0
   -2.4362   -0.1000    3.5481 S   0  0  0  0  0  0  0  0  0  0  0  0
   -0.8030    0.7108    3.6752 C   0  0  0  0  0  0  0  0  0  0  0  0
    0.2992   -0.2755    3.3096 C   0  0  0  0  0  0  0  0  0  0  0  0
   -2.6242    0.0390    0.7948 C   0  0  0  0  0  0  0  0  0  0  0  0
   -3.6333   -1.4379   -1.7861 C   0  0  0  0  0  0  0  0  0  0  0  0
   -3.4074   -2.3199   -2.8426 C   0  0  0  0  0  0  0  0  0  0  0  0
   -2.5016   -1.9759   -3.8730 C   0  0  0  0  0  0  0  0  0  0  0  0
   -2.4814   -2.7307   -5.1322 C   0  0  0  0  0  0  0  0  0  0  0  0
   -2.0162   -4.0559   -5.1885 C   0  0  0  0  0  0  0  0  0  0  0  0
   -2.2562   -4.8324   -6.3283 C   0  0  0  0  0  0  0  0  0  0  0  0
   -2.9728   -4.2953   -7.4026 C   0  0  0  0  0  0  0  0  0  0  0  0
   -3.4213   -2.9685   -7.3536 C   0  0  0  0  0  0  0  0  0  0  0  0
   -4.4374   -2.3008   -8.6761 S   0  0  0  0  0  0  0  0  0  0  0  0
   -5.9964   -2.2749   -7.7040 C   0  0  0  0  0  0  0  0  0  0  0  0
   -6.4978   -0.8411   -7.5784 C   0  0  0  0  0  0  0  0  0  0  0  0
   -3.1241   -2.1748   -6.2456 C   0  0  0  0  0  0  0  0  0  0  0  0
   -1.8006   -0.7666   -3.7270 C   0  0  0  0  0  0  0  0  0  0  0  0
   -0.5249   -0.1890   -4.6640 S   0  0  0  0  0  0  0  0  0  0  0  0
   -4.0880   -3.5443   -2.6946 C   0  0  0  0  0  0  0  0  0  0  0  0
   -4.8515   -3.6068   -1.5215 C   0  0  0  0  0  0  0  0  0  0  0  0
   -4.6785   -2.1526   -0.6899 S   0  0  0  0  0  0  0  0  0  0  0  0
   -5.1508   -4.8376   -0.7882 C   0  0  0  0  0  0  0  0  0  0  0  0
   -4.1007   -5.5452   -0.2014 C   0  0  0  0  0  0  0  0  0  0  0  0
   -4.3835   -6.0165    1.0937 C   0  0  0  0  0  0  0  0  0  0  0  0
   -3.4488   -6.5164    2.0468 C   0  0  0  0  0  0  0  0  0  0  0  0
   -2.0788   -6.9345    1.6674 C   0  0  0  0  0  0  0  0  0  0  0  0
   -1.7117   -8.2816    1.8423 C   0  0  0  0  0  0  0  0  0  0  0  0
   -0.5495   -8.7759    1.2550 C   0  0  0  0  0  0  0  0  0  0  0  0
    0.2805   -7.9299    0.5075 C   0  0  0  0  0  0  0  0  0  0  0  0
   -0.0498   -6.5751    0.3676 C   0  0  0  0  0  0  0  0  0  0  0  0
    0.9362   -5.5250   -0.7112 S   0  0  0  0  0  0  0  0  0  0  0  0
    2.2288   -5.1455    0.5264 C   0  0  0  0  0  0  0  0  0  0  0  0
    2.0679   -3.7213    1.0406 C   0  0  0  0  0  0  0  0  0  0  0  0
   -1.1978   -6.0677    0.9897 C   0  0  0  0  0  0  0  0  0  0  0  0
   -3.9211   -6.6714    3.3670 C   0  0  0  0  0  0  0  0  0  0  0  0
   -5.2564   -6.4466    3.7000 C   0  0  0  0  0  0  0  0  0  0  0  0
   -6.1978   -6.0664    2.7350 C   0  0  0  0  0  0  0  0  0  0  0  0
   -7.6231   -5.9135    3.0865 C   0  0  0  0  0  0  0  0  0  0  0  0
   -8.2101   -4.6445    3.2074 C   0  0  0  0  0  0  0  0  0  0  0  0
   -9.5105   -4.5230    3.6981 C   0  0  0  0  0  0  0  0  0  0  0  0
  -10.2245   -5.6673    4.0878 C   0  0  0  0  0  0  0  0  0  0  0  0
   -9.6412   -6.9324    3.9796 C   0  0  0  0  0  0  0  0  0  0  0  0
  -10.5547   -8.4083    4.4441 S   0  0  0  0  0  0  0  0  0  0  0  0
   -9.8800   -8.5164    6.1406 C   0  0  0  0  0  0  0  0  0  0  0  0
   -8.4641   -9.0993    6.1477 C   0  0  0  0  0  0  0  0  0  0  0  0
   -8.3471   -7.0549    3.4509 C   0  0  0  0  0  0  0  0  0  0  0  0
   -5.7140   -5.7963    1.4531 C   0  0  0  0  0  0  0  0  0  0  0  0
   -6.4866   -4.9433    0.2313 S   0  0  0  0  0  0  0  0  0  0  0  0
   -5.5011   -6.4592    5.0769 C   0  0  0  0  0  0  0  0  0  0  0  0
   -4.3510   -6.6208    5.8433 C   0  0  0  0  0  0  0  0  0  0  0  0
   -3.0311   -6.8241    4.8016 S   0  0  0  0  0  0  0  0  0  0  0  0
   -4.3164   -6.1226    7.2279 C   0  0  0  0  0  0  0  0  0  0  0  0
   -4.6078   -4.8162    7.4363 C   0  0  0  0  0  0  0  0  0  0  0  0
   -4.2486   -3.7561    6.4697 C   0  0  0  0  0  0  0  0  0  0  0  0
   -3.3323   -3.8249    5.6040 O   0  0  0  0  0  0  0  0  0  0  0  0
   -5.0871   -2.6035    6.6821 C   0  0  0  0  0  0  0  0  0  0  0  0
   -5.1300   -1.4239    5.9109 C   0  0  0  0  0  0  0  0  0  0  0  0
   -6.0391   -0.4933    6.3699 C   0  0  0  0  0  0  0  0  0  0  0  0
   -6.8476   -0.6931    7.5327 C   0  0  0  0  0  0  0  0  0  0  0  0
   -6.8279   -1.8568    8.2808 C   0  0  0  0  0  0  0  0  0  0  0  0
   -5.9407   -2.8518    7.7802 C   0  0  0  0  0  0  0  0  0  0  0  0
   -5.7492   -4.2535    8.2470 C   0  0  0  0  0  0  0  0  0  0  0  0
   -6.7071   -4.9603    8.9049 C   0  0  0  0  0  0  0  0  0  0  0  0
   -6.4839   -6.2773    9.4300 C   0  0  0  0  0  0  0  0  0  0  0  0
   -6.3362   -7.3425    9.8711 N   0  0  0  0  0  0  0  0  0  0  0  0
   -8.0691   -4.4894    8.9853 C   0  0  0  0  0  0  0  0  0  0  0  0
   -9.1551   -4.0829    9.0776 N   0  0  0  0  0  0  0  0  0  0  0  0
   -7.4996    0.6507    7.3316 C   0  0  0  0  0  0  0  0  0  0  0  0
   -8.9533    0.6495    6.7670 C   0  0  0  0  0  0  0  0  0  0  0  0
   -9.2096    2.0491    6.2525 C   0  0  0  0  0  0  0  0  0  0  0  0
   -8.4519    2.1978    5.1519 C   0  0  0  0  0  0  0  0  0  0  0  0
   -7.7130    0.8985    4.9697 C   0  0  0  0  0  0  0  0  0  0  0  0
   -8.8001   -0.0623    5.4351 C   0  0  0  0  0  0  0  0  0  0  0  0
   -6.6740    0.8404    6.1293 C   0  0  0  0  0  0  0  0  0  0  0  0
    6.4056    8.9704   -2.1043 H   0  0  0  0  0  0  0  0  0  0  0  0
   11.4565    8.7030   -0.2069 H   0  0  0  0  0  0  0  0  0  0  0  0
   10.8894    4.6105   -3.2211 H   0  0  0  0  0  0  0  0  0  0  0  0
   14.1868    5.0055   -2.1128 H   0  0  0  0  0  0  0  0  0  0  0  0
   12.8492    3.0021   -0.7280 H   0  0  0  0  0  0  0  0  0  0  0  0
   15.3306    2.9708    0.2670 H   0  0  0  0  0  0  0  0  0  0  0  0
   15.6238    5.0382    1.7973 H   0  0  0  0  0  0  0  0  0  0  0  0
   13.3521    6.4297    1.7903 H   0  0  0  0  0  0  0  0  0  0  0  0
   11.5011    4.9000    0.6054 H   0  0  0  0  0  0  0  0  0  0  0  0
   12.4864    3.9123    1.7523 H   0  0  0  0  0  0  0  0  0  0  0  0
   14.4667    6.9271   -0.7022 H   0  0  0  0  0  0  0  0  0  0  0  0
    6.6842    5.2096   -2.5415 H   0  0  0  0  0  0  0  0  0  0  0  0
    5.4199    3.6649   -0.6732 H   0  0  0  0  0  0  0  0  0  0  0  0
    7.2386    2.2426    0.1860 H   0  0  0  0  0  0  0  0  0  0  0  0
    8.2627    0.5087   -1.2505 H   0  0  0  0  0  0  0  0  0  0  0  0
    6.6738   -1.6880   -2.3400 H   0  0  0  0  0  0  0  0  0  0  0  0
    5.6960   -1.4882   -3.8577 H   0  0  0  0  0  0  0  0  0  0  0  0
    8.0007   -3.4038   -3.2507 H   0  0  0  0  0  0  0  0  0  0  0  0
    6.4354   -3.7153   -4.0763 H   0  0  0  0  0  0  0  0  0  0  0  0
    7.7502   -2.8727   -4.9567 H   0  0  0  0  0  0  0  0  0  0  0  0
    5.6387    1.6383   -4.4768 H   0  0  0  0  0  0  0  0  0  0  0  0
    1.3576    7.6295   -2.4594 H   0  0  0  0  0  0  0  0  0  0  0  0
   -0.4783    9.1647   -3.0653 H   0  0  0  0  0  0  0  0  0  0  0  0
   -1.7378    8.8384   -5.1682 H   0  0  0  0  0  0  0  0  0  0  0  0
   -0.4930    7.4614   -9.3749 H   0  0  0  0  0  0  0  0  0  0  0  0
    0.5582    7.9177   -8.0004 H   0  0  0  0  0  0  0  0  0  0  0  0
   -0.4762    9.8999   -9.1709 H   0  0  0  0  0  0  0  0  0  0  0  0
   -2.1166    9.3010   -8.7160 H   0  0  0  0  0  0  0  0  0  0  0  0
   -0.9436    9.8072   -7.4344 H   0  0  0  0  0  0  0  0  0  0  0  0
    0.7264    5.4532   -6.1304 H   0  0  0  0  0  0  0  0  0  0  0  0
   -0.1307    3.9520   -4.1681 H   0  0  0  0  0  0  0  0  0  0  0  0
   -1.1187    1.9489   -1.8574 H   0  0  0  0  0  0  0  0  0  0  0  0
   -4.1686    2.2065   -1.3400 H   0  0  0  0  0  0  0  0  0  0  0  0
   -4.6148    3.3667    0.7942 H   0  0  0  0  0  0  0  0  0  0  0  0
   -3.8663    2.3783    2.9363 H   0  0  0  0  0  0  0  0  0  0  0  0
   -0.6628    1.0448    4.7285 H   0  0  0  0  0  0  0  0  0  0  0  0
   -0.7442    1.6168    3.0287 H   0  0  0  0  0  0  0  0  0  0  0  0
    0.2277   -1.1825    3.9398 H   0  0  0  0  0  0  0  0  0  0  0  0
    0.2372   -0.5390    2.2327 H   0  0  0  0  0  0  0  0  0  0  0  0
    1.2941    0.1879    3.4984 H   0  0  0  0  0  0  0  0  0  0  0  0
   -2.0832   -0.9042    0.8001 H   0  0  0  0  0  0  0  0  0  0  0  0
   -1.5241   -4.5004   -4.3286 H   0  0  0  0  0  0  0  0  0  0  0  0
   -1.9124   -5.8575   -6.3635 H   0  0  0  0  0  0  0  0  0  0  0  0
   -3.1931   -4.9093   -8.2613 H   0  0  0  0  0  0  0  0  0  0  0  0
   -6.7549   -2.8882   -8.2304 H   0  0  0  0  0  0  0  0  0  0  0  0
   -5.8717   -2.6980   -6.6835 H   0  0  0  0  0  0  0  0  0  0  0  0
   -5.7335   -0.2146   -7.0671 H   0  0  0  0  0  0  0  0  0  0  0  0
   -7.4288   -0.8103   -6.9722 H   0  0  0  0  0  0  0  0  0  0  0  0
   -6.7034   -0.4146   -8.5842 H   0  0  0  0  0  0  0  0  0  0  0  0
   -3.5059   -1.1603   -6.1985 H   0  0  0  0  0  0  0  0  0  0  0  0
   -3.9462   -4.4022   -3.3444 H   0  0  0  0  0  0  0  0  0  0  0  0
   -3.1145   -5.5335   -0.6502 H   0  0  0  0  0  0  0  0  0  0  0  0
   -2.3870   -8.9648    2.3412 H   0  0  0  0  0  0  0  0  0  0  0  0
   -0.3105   -9.8257    1.3431 H   0  0  0  0  0  0  0  0  0  0  0  0
    1.1557   -8.3323    0.0229 H   0  0  0  0  0  0  0  0  0  0  0  0
    3.2147   -5.2353    0.0213 H   0  0  0  0  0  0  0  0  0  0  0  0
    2.2205   -5.8729    1.3722 H   0  0  0  0  0  0  0  0  0  0  0  0
    2.9505   -3.4591    1.6625 H   0  0  0  0  0  0  0  0  0  0  0  0
    1.1470   -3.6385    1.6622 H   0  0  0  0  0  0  0  0  0  0  0  0
    2.0145   -3.0136    0.1901 H   0  0  0  0  0  0  0  0  0  0  0  0
   -1.4567   -5.0185    0.8593 H   0  0  0  0  0  0  0  0  0  0  0  0
   -7.6451   -3.7563    2.9456 H   0  0  0  0  0  0  0  0  0  0  0  0
   -9.9661   -3.5474    3.7855 H   0  0  0  0  0  0  0  0  0  0  0  0
  -11.2327   -5.5622    4.4668 H   0  0  0  0  0  0  0  0  0  0  0  0
   -9.8852   -7.5232    6.6374 H   0  0  0  0  0  0  0  0  0  0  0  0
  -10.5343   -9.1978    6.7234 H   0  0  0  0  0  0  0  0  0  0  0  0
   -8.2062   -9.4622    7.1675 H   0  0  0  0  0  0  0  0  0  0  0  0
   -8.3881   -9.9556    5.4406 H   0  0  0  0  0  0  0  0  0  0  0  0
   -7.7257   -8.3178    5.8652 H   0  0  0  0  0  0  0  0  0  0  0  0
   -7.8865   -8.0383    3.3786 H   0  0  0  0  0  0  0  0  0  0  0  0
   -6.4637   -6.1810    5.5074 H   0  0  0  0  0  0  0  0  0  0  0  0
   -4.5339   -6.8641    7.9713 H   0  0  0  0  0  0  0  0  0  0  0  0
   -4.5337   -1.2746    5.0216 H   0  0  0  0  0  0  0  0  0  0  0  0
   -7.4572   -1.9789    9.1522 H   0  0  0  0  0  0  0  0  0  0  0  0
   -7.2969    1.3773    8.1542 H   0  0  0  0  0  0  0  0  0  0  0  0
   -9.7359    0.2498    7.4396 H   0  0  0  0  0  0  0  0  0  0  0  0
   -9.9312    2.7626    6.6349 H   0  0  0  0  0  0  0  0  0  0  0  0
   -8.4728    3.0458    4.4696 H   0  0  0  0  0  0  0  0  0  0  0  0
   -7.3098    0.7233    3.9491 H   0  0  0  0  0  0  0  0  0  0  0  0
   -8.4755   -1.1245    5.5113 H   0  0  0  0  0  0  0  0  0  0  0  0
   -9.7177   -0.0237    4.8057 H   0  0  0  0  0  0  0  0  0  0  0  0
   -5.9694    1.7026    6.1866 H   0  0  0  0  0  0  0  0  0  0  0  0
  1  2  2  3
  2  3  1  0
  3  4  2  0
  3  5  1  0
  5  6  2  0
  6  7  1  0
  7  8  2  0
  8  9  1  0
  9 10  2  0
 10 11  1  0
 11 12  2  3
 12 13  1  0
 13 14  3  0
 12 15  1  0
 15 16  3  0
  8 17  1  0
 17 18  1  0
 18 19  1  0
 19 20  2  0
 20 21  1  0
 21 22  1  0
 21 23  1  0
  1 24  1  0
 24 25  2  0
 25 26  1  0
 26 27  2  0
 27 28  1  0
 28 29  2  0
 29 30  1  0
 30 31  2  0
 31 32  1  0
 32 33  1  0
 33 34  1  0
 34 35  1  0
 32 36  2  0
 27 37  1  0
 37 38  2  0
 38 39  1  0
 39 40  1  0
 40 41  2  0
 41 42  1  0
 42 43  2  0
 43 44  1  0
 44 45  1  0
 45 46  1  0
 46 47  1  0
 44 48  2  0
 39 49  2  0
 49 50  1  0
 38 51  1  0
 51 52  2  0
 52 53  1  0
 52 54  1  0
 54 55  2  0
 55 56  1  0
 56 57  2  0
 57 58  1  0
 58 59  2  0
 59 60  1  0
 60 61  2  0
 61 62  1  0
 62 63  1  0
 63 64  1  0
 64 65  1  0
 62 66  2  0
 57 67  1  0
 67 68  2  0
 68 69  1  0
 69 70  1  0
 70 71  2  0
 71 72  1  0
 72 73  2  0
 73 74  1  0
 74 75  1  0
 75 76  1  0
 76 77  1  0
 74 78  2  0
 69 79  2  0
 79 80  1  0
 68 81  1  0
 81 82  2  0
 82 83  1  0
 82 84  1  0
 84 85  2  0
 85 86  1  0
 86 87  2  0
 87 88  1  0
 88 89  2  0
 89 90  1  0
 90 91  2  0
 91 92  1  0
 92 93  1  0
 93 94  1  0
 94 95  1  0
 92 96  2  0
 87 97  1  0
 97 98  2  0
 98 99  1  0
 99100  1  0
100101  2  0
101102  1  0
102103  2  0
103104  1  0
104105  1  0
105106  1  0
106107  1  0
104108  2  0
 99109  2  0
109110  1  0
 98111  1  0
111112  2  0
112113  1  0
112114  1  0
114115  2  3
115116  1  0
116117  2  0
116118  1  0
118119  2  0
119120  1  0
120121  2  0
121122  1  0
122123  2  0
123124  1  0
124125  2  3
125126  1  0
126127  3  0
125128  1  0
128129  3  0
121130  1  0
130131  1  0
131132  1  0
132133  2  0
133134  1  0
134135  1  0
134136  1  0
 11  2  1  0
 23 17  1  0
 50 24  1  0
 80 54  1  0
110 84  1  0
124115  1  0
136130  1  0
 10  5  1  0
 22 18  1  0
 49 26  1  0
 79 56  1  0
109 86  1  0
123118  1  0
135131  1  0
 23  7  1  0
 36 28  1  0
 53 37  1  0
 66 58  1  0
 83 67  1  0
 96 88  1  0
113 97  1  0
136120  1  0
 48 40  1  0
 78 70  1  0
108100  1  0
  1137  1  0
  6138  1  0
  9139  1  0
 17140  1  0
 18141  1  0
 19142  1  0
 20143  1  0
 21144  1  0
 22145  1  0
 22146  1  0
 23147  1  0
 25148  1  0
 29149  1  0
 30150  1  0
 31151  1  0
 34152  1  0
 34153  1  0
 35154  1  0
 35155  1  0
 35156  1  0
 36157  1  0
 41158  1  0
 42159  1  0
 43160  1  0
 46161  1  0
 46162  1  0
 47163  1  0
 47164  1  0
 47165  1  0
 48166  1  0
 51167  1  0
 55168  1  0
 59169  1  0
 60170  1  0
 61171  1  0
 64172  1  0
 64173  1  0
 65174  1  0
 65175  1  0
 65176  1  0
 66177  1  0
 71178  1  0
 72179  1  0
 73180  1  0
 76181  1  0
 76182  1  0
 77183  1  0
 77184  1  0
 77185  1  0
 78186  1  0
 81187  1  0
 85188  1  0
 89189  1  0
 90190  1  0
 91191  1  0
 94192  1  0
 94193  1  0
 95194  1  0
 95195  1  0
 95196  1  0
 96197  1  0
101198  1  0
102199  1  0
103200  1  0
106201  1  0
106202  1  0
107203  1  0
107204  1  0
107205  1  0
108206  1  0
111207  1  0
114208  1  0
119209  1  0
122210  1  0
130211  1  0
131212  1  0
132213  1  0
133214  1  0
134215  1  0
135216  1  0
135217  1  0
136218  1  0
M  END

