
     RDKit          3D

151166  0  0  0  0  0  0  0  0999 V2000
    2.8154    4.3363   -1.0192 C   0  0  0  0  0  0  0  0  0  0  0  0
    3.6845    3.3932   -1.4392 C   0  0  0  0  0  0  0  0  0  0  0  0
    3.4100    1.9504   -1.4881 C   0  0  0  0  0  0  0  0  0  0  0  0
    2.5679    1.3234   -0.7911 O   0  0  0  0  0  0  0  0  0  0  0  0
    4.2347    1.3596   -2.5167 C   0  0  0  0  0  0  0  0  0  0  0  0
    4.1457    0.0444   -3.0248 C   0  0  0  0  0  0  0  0  0  0  0  0
    4.9306   -0.1762   -4.1406 C   0  0  0  0  0  0  0  0  0  0  0  0
    5.7603    0.8368   -4.7281 C   0  0  0  0  0  0  0  0  0  0  0  0
    5.8660    2.1220   -4.2252 C   0  0  0  0  0  0  0  0  0  0  0  0
    5.0792    2.3627   -3.0631 C   0  0  0  0  0  0  0  0  0  0  0  0
    4.8745    3.6282   -2.3001 C   0  0  0  0  0  0  0  0  0  0  0  0
    5.7285    4.6763   -2.2256 C   0  0  0  0  0  0  0  0  0  0  0  0
    6.9277    4.7515   -3.0176 C   0  0  0  0  0  0  0  0  0  0  0  0
    7.8943    4.8266   -3.6491 N   0  0  0  0  0  0  0  0  0  0  0  0
    5.5710    5.7124   -1.2361 C   0  0  0  0  0  0  0  0  0  0  0  0
    5.4487    6.5398   -0.4356 N   0  0  0  0  0  0  0  0  0  0  0  0
    6.1416   -0.0968   -5.8369 C   0  0  0  0  0  0  0  0  0  0  0  0
    5.4657    0.1501   -7.2205 C   0  0  0  0  0  0  0  0  0  0  0  0
    5.6981   -1.1054   -8.0222 C   0  0  0  0  0  0  0  0  0  0  0  0
    4.9415   -2.0578   -7.4668 C   0  0  0  0  0  0  0  0  0  0  0  0
    4.2182   -1.4121   -6.3089 C   0  0  0  0  0  0  0  0  0  0  0  0
    3.9877   -0.0416   -6.9180 C   0  0  0  0  0  0  0  0  0  0  0  0
    5.3055   -1.1400   -5.2271 C   0  0  0  0  0  0  0  0  0  0  0  0
    1.4838    3.9774   -0.5072 C   0  0  0  0  0  0  0  0  0  0  0  0
    1.3112    3.8710    0.8727 C   0  0  0  0  0  0  0  0  0  0  0  0
    0.2649    3.1043    1.3974 C   0  0  0  0  0  0  0  0  0  0  0  0
   -0.6654    2.4533    0.5555 C   0  0  0  0  0  0  0  0  0  0  0  0
   -0.6313    2.7996   -0.8269 C   0  0  0  0  0  0  0  0  0  0  0  0
   -1.3555    2.2167   -1.9805 C   0  0  0  0  0  0  0  0  0  0  0  0
   -2.6048    1.7363   -2.0779 C   0  0  0  0  0  0  0  0  0  0  0  0
   -3.6517    1.9342   -1.0725 C   0  0  0  0  0  0  0  0  0  0  0  0
   -4.0413    3.2046   -0.6269 C   0  0  0  0  0  0  0  0  0  0  0  0
   -5.2460    3.1978    0.0611 C   0  0  0  0  0  0  0  0  0  0  0  0
   -5.8026    1.6176    0.1451 S   0  0  0  0  0  0  0  0  0  0  0  0
   -4.5365    0.9238   -0.7176 C   0  0  0  0  0  0  0  0  0  0  0  0
   -0.5292    2.5148   -3.1413 C   0  0  0  0  0  0  0  0  0  0  0  0
   -0.7716    2.1431   -4.3197 O   0  0  0  0  0  0  0  0  0  0  0  0
    0.5730    3.3413   -2.7856 N   0  0  0  0  0  0  0  0  0  0  0  0
    1.1917    4.2786   -3.7307 C   0  0  0  0  0  0  0  0  0  0  0  0
    0.5077    5.6349   -3.6692 C   0  0  0  0  0  0  0  0  0  0  0  0
    0.4716    3.4866   -1.3552 C   0  0  0  0  0  0  0  0  0  0  0  0
   -1.2609    1.1635    1.0309 C   0  0  0  0  0  0  0  0  0  0  0  0
   -1.2769    0.6785    2.3743 C   0  0  0  0  0  0  0  0  0  0  0  0
   -1.4013    1.5067    3.5575 N   0  0  0  0  0  0  0  0  0  0  0  0
   -0.9956    1.0004    4.8379 C   0  0  0  0  0  0  0  0  0  0  0  0
    0.3668    0.8933    5.1579 C   0  0  0  0  0  0  0  0  0  0  0  0
    0.7583    0.2552    6.3394 C   0  0  0  0  0  0  0  0  0  0  0  0
   -0.2088   -0.2878    7.1975 C   0  0  0  0  0  0  0  0  0  0  0  0
    0.2848   -1.2236    8.6438 S   0  0  0  0  0  0  0  0  0  0  0  0
    0.4147   -2.8019    7.7369 C   0  0  0  0  0  0  0  0  0  0  0  0
   -1.5690   -0.1394    6.9007 C   0  0  0  0  0  0  0  0  0  0  0  0
   -1.9615    0.5147    5.7331 C   0  0  0  0  0  0  0  0  0  0  0  0
   -2.2515    2.6653    3.5420 C   0  0  0  0  0  0  0  0  0  0  0  0
   -1.7755    3.8979    4.0208 C   0  0  0  0  0  0  0  0  0  0  0  0
   -2.5944    5.0267    3.9952 C   0  0  0  0  0  0  0  0  0  0  0  0
   -3.9047    4.9302    3.5151 C   0  0  0  0  0  0  0  0  0  0  0  0
   -4.9248    6.3984    3.3720 S   0  0  0  0  0  0  0  0  0  0  0  0
   -4.2342    6.8521    1.7497 C   0  0  0  0  0  0  0  0  0  0  0  0
   -4.4089    3.6880    3.1134 C   0  0  0  0  0  0  0  0  0  0  0  0
   -3.5791    2.5650    3.0973 C   0  0  0  0  0  0  0  0  0  0  0  0
   -1.1915   -0.7290    2.4096 C   0  0  0  0  0  0  0  0  0  0  0  0
   -0.8470   -1.8796    3.5906 S   0  0  0  0  0  0  0  0  0  0  0  0
   -0.7046   -3.1766    2.4960 C   0  0  0  0  0  0  0  0  0  0  0  0
   -0.9291   -2.7079    1.1955 C   0  0  0  0  0  0  0  0  0  0  0  0
   -1.2229   -3.5578    0.0759 N   0  0  0  0  0  0  0  0  0  0  0  0
   -2.6030   -3.8766   -0.1540 C   0  0  0  0  0  0  0  0  0  0  0  0
   -3.3135   -4.6390    0.7844 C   0  0  0  0  0  0  0  0  0  0  0  0
   -4.6859   -4.8448    0.6244 C   0  0  0  0  0  0  0  0  0  0  0  0
   -5.3615   -4.2737   -0.4618 C   0  0  0  0  0  0  0  0  0  0  0  0
   -7.1336   -4.4905   -0.6337 S   0  0  0  0  0  0  0  0  0  0  0  0
   -7.5353   -3.0441    0.3942 C   0  0  0  0  0  0  0  0  0  0  0  0
   -4.6518   -3.5245   -1.4070 C   0  0  0  0  0  0  0  0  0  0  0  0
   -3.2804   -3.3229   -1.2535 C   0  0  0  0  0  0  0  0  0  0  0  0
   -0.2317   -3.8874   -0.9105 C   0  0  0  0  0  0  0  0  0  0  0  0
    0.4729   -2.8835   -1.5986 C   0  0  0  0  0  0  0  0  0  0  0  0
    1.4269   -3.2206   -2.5546 C   0  0  0  0  0  0  0  0  0  0  0  0
    1.7159   -4.5627   -2.8213 C   0  0  0  0  0  0  0  0  0  0  0  0
    2.9496   -4.9832   -4.0554 S   0  0  0  0  0  0  0  0  0  0  0  0
    4.3572   -4.7462   -2.9198 C   0  0  0  0  0  0  0  0  0  0  0  0
    1.0274   -5.5694   -2.1312 C   0  0  0  0  0  0  0  0  0  0  0  0
    0.0426   -5.2347   -1.1952 C   0  0  0  0  0  0  0  0  0  0  0  0
   -1.2037   -1.3450    1.2043 C   0  0  0  0  0  0  0  0  0  0  0  0
   -1.2616   -0.1997    0.0097 S   0  0  0  0  0  0  0  0  0  0  0  0
   -0.0821   -4.4605    2.8466 C   0  0  0  0  0  0  0  0  0  0  0  0
   -0.5714   -5.2662    3.8957 C   0  0  0  0  0  0  0  0  0  0  0  0
   -1.7329   -4.9401    4.5233 F   0  0  0  0  0  0  0  0  0  0  0  0
    0.1387   -6.4230    4.3072 C   0  0  0  0  0  0  0  0  0  0  0  0
   -0.3534   -7.1801    5.3214 F   0  0  0  0  0  0  0  0  0  0  0  0
    1.3773   -6.7597    3.7090 C   0  0  0  0  0  0  0  0  0  0  0  0
    1.8039   -5.9531    2.6496 C   0  0  0  0  0  0  0  0  0  0  0  0
    1.1178   -4.8552    2.2507 C   0  0  0  0  0  0  0  0  0  0  0  0
    1.8166   -4.2462    1.2809 N   0  0  0  0  0  0  0  0  0  0  0  0
    2.8717   -5.0050    1.1098 O   0  0  0  0  0  0  0  0  0  0  0  0
    2.9181   -6.0439    1.9023 N   0  0  0  0  0  0  0  0  0  0  0  0
    2.1555   -7.9285    4.1843 C   0  0  0  0  0  0  0  0  0  0  0  0
    3.4655   -7.8888    4.4790 C   0  0  0  0  0  0  0  0  0  0  0  0
    4.2191   -6.6576    4.4899 C   0  0  0  0  0  0  0  0  0  0  0  0
    4.8205   -5.6671    4.5054 N   0  0  0  0  0  0  0  0  0  0  0  0
    4.1407   -9.0857    4.9221 C   0  0  0  0  0  0  0  0  0  0  0  0
    4.6957  -10.0381    5.2817 N   0  0  0  0  0  0  0  0  0  0  0  0
    3.0129    5.3880   -1.1808 H   0  0  0  0  0  0  0  0  0  0  0  0
    3.4728   -0.6992   -2.6228 H   0  0  0  0  0  0  0  0  0  0  0  0
    6.4447    2.8792   -4.7343 H   0  0  0  0  0  0  0  0  0  0  0  0
    7.2303   -0.3363   -5.8655 H   0  0  0  0  0  0  0  0  0  0  0  0
    5.7386    1.0987   -7.7288 H   0  0  0  0  0  0  0  0  0  0  0  0
    6.2863   -1.2093   -8.9290 H   0  0  0  0  0  0  0  0  0  0  0  0
    4.8161   -3.0669   -7.8410 H   0  0  0  0  0  0  0  0  0  0  0  0
    3.3108   -1.9443   -5.9540 H   0  0  0  0  0  0  0  0  0  0  0  0
    3.5651    0.7103   -6.2122 H   0  0  0  0  0  0  0  0  0  0  0  0
    3.3441   -0.0640   -7.8344 H   0  0  0  0  0  0  0  0  0  0  0  0
    5.8617   -2.0324   -4.8649 H   0  0  0  0  0  0  0  0  0  0  0  0
    2.0763    4.2432    1.5445 H   0  0  0  0  0  0  0  0  0  0  0  0
    0.3271    2.8795    2.4478 H   0  0  0  0  0  0  0  0  0  0  0  0
   -2.9220    1.3051   -3.0199 H   0  0  0  0  0  0  0  0  0  0  0  0
   -3.5039    4.1152   -0.8661 H   0  0  0  0  0  0  0  0  0  0  0  0
   -5.7489    4.0740    0.4516 H   0  0  0  0  0  0  0  0  0  0  0  0
   -4.4598   -0.1191   -0.9893 H   0  0  0  0  0  0  0  0  0  0  0  0
    1.1185    3.8708   -4.7618 H   0  0  0  0  0  0  0  0  0  0  0  0
    2.2737    4.3933   -3.5231 H   0  0  0  0  0  0  0  0  0  0  0  0
    1.0186    6.3367   -4.3627 H   0  0  0  0  0  0  0  0  0  0  0  0
   -0.5552    5.5436   -3.9812 H   0  0  0  0  0  0  0  0  0  0  0  0
    0.5669    6.0487   -2.6424 H   0  0  0  0  0  0  0  0  0  0  0  0
    1.1179    1.2749    4.4796 H   0  0  0  0  0  0  0  0  0  0  0  0
    1.8112    0.1513    6.5762 H   0  0  0  0  0  0  0  0  0  0  0  0
    1.3866   -2.8316    7.2008 H   0  0  0  0  0  0  0  0  0  0  0  0
    0.3648   -3.6463    8.4507 H   0  0  0  0  0  0  0  0  0  0  0  0
   -0.4089   -2.9117    7.0015 H   0  0  0  0  0  0  0  0  0  0  0  0
   -2.3159   -0.5589    7.5599 H   0  0  0  0  0  0  0  0  0  0  0  0
   -3.0147    0.5958    5.4960 H   0  0  0  0  0  0  0  0  0  0  0  0
   -0.7603    3.9814    4.3910 H   0  0  0  0  0  0  0  0  0  0  0  0
   -2.2038    5.9805    4.3238 H   0  0  0  0  0  0  0  0  0  0  0  0
   -4.8227    7.6869    1.3196 H   0  0  0  0  0  0  0  0  0  0  0  0
   -3.1797    7.1810    1.8710 H   0  0  0  0  0  0  0  0  0  0  0  0
   -4.2696    5.9922    1.0544 H   0  0  0  0  0  0  0  0  0  0  0  0
   -5.4404    3.5963    2.7957 H   0  0  0  0  0  0  0  0  0  0  0  0
   -3.9743    1.6108    2.7688 H   0  0  0  0  0  0  0  0  0  0  0  0
   -2.8102   -5.0648    1.6422 H   0  0  0  0  0  0  0  0  0  0  0  0
   -5.2317   -5.4244    1.3601 H   0  0  0  0  0  0  0  0  0  0  0  0
   -7.0181   -2.1404    0.0042 H   0  0  0  0  0  0  0  0  0  0  0  0
   -7.2223   -3.2292    1.4430 H   0  0  0  0  0  0  0  0  0  0  0  0
   -8.6306   -2.8686    0.3650 H   0  0  0  0  0  0  0  0  0  0  0  0
   -5.1637   -3.0723   -2.2463 H   0  0  0  0  0  0  0  0  0  0  0  0
   -2.7383   -2.7128   -1.9679 H   0  0  0  0  0  0  0  0  0  0  0  0
    0.2884   -1.8433   -1.4001 H   0  0  0  0  0  0  0  0  0  0  0  0
    1.9572   -2.4402   -3.0807 H   0  0  0  0  0  0  0  0  0  0  0  0
    5.2993   -4.9642   -3.4649 H   0  0  0  0  0  0  0  0  0  0  0  0
    4.3893   -3.6878   -2.5741 H   0  0  0  0  0  0  0  0  0  0  0  0
    4.2751   -5.4254   -2.0478 H   0  0  0  0  0  0  0  0  0  0  0  0
    1.2469   -6.6113   -2.3284 H   0  0  0  0  0  0  0  0  0  0  0  0
   -0.4824   -6.0212   -0.6647 H   0  0  0  0  0  0  0  0  0  0  0  0
    1.6115   -8.8514    4.3516 H   0  0  0  0  0  0  0  0  0  0  0  0
  1  2  2  3
  2  3  1  0
  3  4  2  0
  3  5  1  0
  5  6  2  0
  6  7  1  0
  7  8  2  0
  8  9  1  0
  9 10  2  0
 10 11  1  0
 11 12  2  3
 12 13  1  0
 13 14  3  0
 12 15  1  0
 15 16  3  0
  8 17  1  0
 17 18  1  0
 18 19  1  0
 19 20  2  0
 20 21  1  0
 21 22  1  0
 21 23  1  0
  1 24  1  0
 24 25  2  0
 25 26  1  0
 26 27  2  0
 27 28  1  0
 28 29  1  0
 29 30  2  3
 30 31  1  0
 31 32  1  0
 32 33  2  0
 33 34  1  0
 34 35  1  0
 29 36  1  0
 36 37  2  0
 36 38  1  0
 38 39  1  0
 39 40  1  0
 38 41  1  0
 27 42  1  0
 42 43  2  0
 43 44  1  0
 44 45  1  0
 45 46  2  0
 46 47  1  0
 47 48  2  0
 48 49  1  0
 49 50  1  0
 48 51  1  0
 51 52  2  0
 44 53  1  0
 53 54  2  0
 54 55  1  0
 55 56  2  0
 56 57  1  0
 57 58  1  0
 56 59  1  0
 59 60  2  0
 43 61  1  0
 61 62  1  0
 62 63  1  0
 63 64  2  0
 64 65  1  0
 65 66  1  0
 66 67  2  0
 67 68  1  0
 68 69  2  0
 69 70  1  0
 70 71  1  0
 69 72  1  0
 72 73  2  0
 65 74  1  0
 74 75  2  0
 75 76  1  0
 76 77  2  0
 77 78  1  0
 78 79  1  0
 77 80  1  0
 80 81  2  0
 64 82  1  0
 82 83  1  0
 63 84  1  0
 84 85  2  0
 85 86  1  0
 85 87  1  0
 87 88  1  0
 87 89  2  0
 89 90  1  0
 90 91  1  0
 91 92  2  0
 92 93  1  0
 93 94  1  0
 89 95  1  0
 95 96  2  3
 96 97  1  0
 97 98  3  0
 96 99  1  0
 99100  3  0
 11  2  1  0
 23 17  1  0
 41 24  1  0
 83 42  1  0
 91 84  1  0
 10  5  1  0
 22 18  1  0
 41 28  2  0
 52 45  1  0
 60 53  1  0
 82 61  2  0
 94 90  2  0
 23  7  1  0
 35 31  2  0
 73 66  1  0
 81 74  1  0
  1101  1  0
  6102  1  0
  9103  1  0
 17104  1  0
 18105  1  0
 19106  1  0
 20107  1  0
 21108  1  0
 22109  1  0
 22110  1  0
 23111  1  0
 25112  1  0
 26113  1  0
 30114  1  0
 32115  1  0
 33116  1  0
 35117  1  0
 39118  1  0
 39119  1  0
 40120  1  0
 40121  1  0
 40122  1  0
 46123  1  0
 47124  1  0
 50125  1  0
 50126  1  0
 50127  1  0
 51128  1  0
 52129  1  0
 54130  1  0
 55131  1  0
 58132  1  0
 58133  1  0
 58134  1  0
 59135  1  0
 60136  1  0
 67137  1  0
 68138  1  0
 71139  1  0
 71140  1  0
 71141  1  0
 72142  1  0
 73143  1  0
 75144  1  0
 76145  1  0
 79146  1  0
 79147  1  0
 79148  1  0
 80149  1  0
 81150  1  0
 95151  1  0
M  END

