
     RDKit          3D

170188  0  0  0  0  0  0  0  0999 V2000
    2.2733    5.2296    2.1164 C   0  0  0  0  0  0  0  0  0  0  0  0
    3.3056    4.9744    2.9428 C   0  0  0  0  0  0  0  0  0  0  0  0
    3.4306    3.7691    3.7509 C   0  0  0  0  0  0  0  0  0  0  0  0
    2.4842    3.0002    4.0556 O   0  0  0  0  0  0  0  0  0  0  0  0
    4.8271    3.5274    4.0269 C   0  0  0  0  0  0  0  0  0  0  0  0
    5.3733    2.3431    4.5731 C   0  0  0  0  0  0  0  0  0  0  0  0
    6.7407    2.2470    4.4335 C   0  0  0  0  0  0  0  0  0  0  0  0
    7.5429    3.2671    3.8227 C   0  0  0  0  0  0  0  0  0  0  0  0
    7.0117    4.4488    3.3145 C   0  0  0  0  0  0  0  0  0  0  0  0
    5.5944    4.5635    3.4394 C   0  0  0  0  0  0  0  0  0  0  0  0
    4.6650    5.5872    2.8785 C   0  0  0  0  0  0  0  0  0  0  0  0
    4.9659    6.8558    2.5234 C   0  0  0  0  0  0  0  0  0  0  0  0
    6.3203    7.3438    2.4793 C   0  0  0  0  0  0  0  0  0  0  0  0
    7.4129    7.7447    2.4363 N   0  0  0  0  0  0  0  0  0  0  0  0
    3.9398    7.8354    2.2678 C   0  0  0  0  0  0  0  0  0  0  0  0
    3.1171    8.6252    2.0610 N   0  0  0  0  0  0  0  0  0  0  0  0
    8.7691    2.4093    3.9733 C   0  0  0  0  0  0  0  0  0  0  0  0
    9.3453    1.7220    2.6984 C   0  0  0  0  0  0  0  0  0  0  0  0
    8.2342    1.4528    1.7094 C   0  0  0  0  0  0  0  0  0  0  0  0
    7.4621    0.5091    2.2544 C   0  0  0  0  0  0  0  0  0  0  0  0
    8.0818    0.1619    3.5905 C   0  0  0  0  0  0  0  0  0  0  0  0
    9.5437    0.3090    3.2209 C   0  0  0  0  0  0  0  0  0  0  0  0
    7.9426    1.3632    4.5767 C   0  0  0  0  0  0  0  0  0  0  0  0
    1.2300    4.2171    1.8023 C   0  0  0  0  0  0  0  0  0  0  0  0
    1.4888    3.3483    0.7244 C   0  0  0  0  0  0  0  0  0  0  0  0
    3.1495    3.3438   -0.0442 S   0  0  0  0  0  0  0  0  0  0  0  0
    3.6351    1.5868    0.2107 C   0  0  0  0  0  0  0  0  0  0  0  0
    3.4752    1.0759    1.6357 C   0  0  0  0  0  0  0  0  0  0  0  0
    0.4493    2.5724    0.1799 C   0  0  0  0  0  0  0  0  0  0  0  0
    0.7171    1.8228   -1.4512 S   0  0  0  0  0  0  0  0  0  0  0  0
    0.4957    3.3869   -2.3922 C   0  0  0  0  0  0  0  0  0  0  0  0
   -0.9743    3.6993   -2.6326 C   0  0  0  0  0  0  0  0  0  0  0  0
   -0.7925    2.4503    0.8681 C   0  0  0  0  0  0  0  0  0  0  0  0
   -1.0828    3.3681    1.9155 C   0  0  0  0  0  0  0  0  0  0  0  0
   -0.0551    4.2409    2.4079 C   0  0  0  0  0  0  0  0  0  0  0  0
   -0.3587    5.1557    3.5594 C   0  0  0  0  0  0  0  0  0  0  0  0
    0.5328    5.8689    4.0899 O   0  0  0  0  0  0  0  0  0  0  0  0
   -1.7246    5.2021    4.1034 C   0  0  0  0  0  0  0  0  0  0  0  0
   -2.7419    4.4171    3.5704 C   0  0  0  0  0  0  0  0  0  0  0  0
   -2.4787    3.4975    2.4610 C   0  0  0  0  0  0  0  0  0  0  0  0
   -3.4463    2.8555    1.9614 O   0  0  0  0  0  0  0  0  0  0  0  0
   -3.9654    4.5692    4.2093 C   0  0  0  0  0  0  0  0  0  0  0  0
   -3.7666    5.7157    5.4278 S   0  0  0  0  0  0  0  0  0  0  0  0
   -2.1305    6.0069    5.1613 C   0  0  0  0  0  0  0  0  0  0  0  0
   -1.7459    1.3427    0.5083 C   0  0  0  0  0  0  0  0  0  0  0  0
   -2.0537    0.1738    1.2721 C   0  0  0  0  0  0  0  0  0  0  0  0
   -2.0645    0.0395    2.7160 N   0  0  0  0  0  0  0  0  0  0  0  0
   -1.1640    0.7131    3.6168 C   0  0  0  0  0  0  0  0  0  0  0  0
   -1.7004    1.4308    4.7039 C   0  0  0  0  0  0  0  0  0  0  0  0
   -0.9018    1.7844    5.7914 C   0  0  0  0  0  0  0  0  0  0  0  0
    0.4374    1.3819    5.8404 C   0  0  0  0  0  0  0  0  0  0  0  0
    1.3697    1.6022    7.3617 S   0  0  0  0  0  0  0  0  0  0  0  0
    1.8451    3.3353    7.0551 C   0  0  0  0  0  0  0  0  0  0  0  0
    0.9867    0.6853    4.7534 C   0  0  0  0  0  0  0  0  0  0  0  0
    0.1991    0.3678    3.6406 C   0  0  0  0  0  0  0  0  0  0  0  0
   -3.0380   -0.8352    3.3338 C   0  0  0  0  0  0  0  0  0  0  0  0
   -2.6284   -1.8028    4.2719 C   0  0  0  0  0  0  0  0  0  0  0  0
   -3.5640   -2.6434    4.8798 C   0  0  0  0  0  0  0  0  0  0  0  0
   -4.9222   -2.5101    4.5806 C   0  0  0  0  0  0  0  0  0  0  0  0
   -6.1147   -3.5717    5.3858 S   0  0  0  0  0  0  0  0  0  0  0  0
   -6.4376   -2.4188    6.7541 C   0  0  0  0  0  0  0  0  0  0  0  0
   -5.3467   -1.5424    3.6585 C   0  0  0  0  0  0  0  0  0  0  0  0
   -4.4006   -0.7086    3.0396 C   0  0  0  0  0  0  0  0  0  0  0  0
   -2.5484   -0.8410    0.4369 C   0  0  0  0  0  0  0  0  0  0  0  0
   -2.6066   -2.5102    0.5965 S   0  0  0  0  0  0  0  0  0  0  0  0
   -2.8088   -2.8220   -1.0691 C   0  0  0  0  0  0  0  0  0  0  0  0
   -2.8138   -1.5894   -1.7556 C   0  0  0  0  0  0  0  0  0  0  0  0
   -2.6515   -1.4386   -3.1783 N   0  0  0  0  0  0  0  0  0  0  0  0
   -3.8032   -1.5613   -4.0353 C   0  0  0  0  0  0  0  0  0  0  0  0
   -5.0660   -1.1019   -3.6184 C   0  0  0  0  0  0  0  0  0  0  0  0
   -6.1978   -1.3234   -4.4061 C   0  0  0  0  0  0  0  0  0  0  0  0
   -6.0826   -1.9869   -5.6332 C   0  0  0  0  0  0  0  0  0  0  0  0
   -7.5574   -2.3469   -6.5970 S   0  0  0  0  0  0  0  0  0  0  0  0
   -7.8208   -3.9708   -5.8128 C   0  0  0  0  0  0  0  0  0  0  0  0
   -4.8264   -2.4223   -6.0748 C   0  0  0  0  0  0  0  0  0  0  0  0
   -3.6893   -2.2008   -5.2827 C   0  0  0  0  0  0  0  0  0  0  0  0
   -1.3574   -1.0782   -3.7162 C   0  0  0  0  0  0  0  0  0  0  0  0
   -1.2450   -0.0568   -4.6770 C   0  0  0  0  0  0  0  0  0  0  0  0
    0.0069    0.2721   -5.2150 C   0  0  0  0  0  0  0  0  0  0  0  0
    1.1584   -0.4022   -4.7812 C   0  0  0  0  0  0  0  0  0  0  0  0
    2.7484   -0.0768   -5.5461 S   0  0  0  0  0  0  0  0  0  0  0  0
    3.2484    1.1785   -4.3272 C   0  0  0  0  0  0  0  0  0  0  0  0
    1.0514   -1.3977   -3.8028 C   0  0  0  0  0  0  0  0  0  0  0  0
   -0.1979   -1.7197   -3.2630 C   0  0  0  0  0  0  0  0  0  0  0  0
   -2.6812   -0.5244   -0.8709 C   0  0  0  0  0  0  0  0  0  0  0  0
   -2.2478    1.0590   -1.0976 S   0  0  0  0  0  0  0  0  0  0  0  0
   -2.5093   -4.1376   -1.6748 C   0  0  0  0  0  0  0  0  0  0  0  0
   -1.2952   -4.7915   -1.3864 C   0  0  0  0  0  0  0  0  0  0  0  0
   -0.9410   -6.0032   -2.0293 C   0  0  0  0  0  0  0  0  0  0  0  0
    0.3348   -6.5353   -1.6532 N   0  0  0  0  0  0  0  0  0  0  0  0
    0.8043   -5.4337   -0.5996 S   0  0  0  0  0  4  0  0  0  0  0  0
   -0.3107   -4.3020   -0.4637 N   0  0  0  0  0  0  0  0  0  0  0  0
   -1.7776   -6.5921   -2.9874 C   0  0  0  0  0  0  0  0  0  0  0  0
   -3.0233   -5.9879   -3.2287 C   0  0  0  0  0  0  0  0  0  0  0  0
   -3.9539   -6.5291   -4.0500 N   0  0  0  0  0  0  0  0  0  0  0  0
   -5.1707   -5.4201   -3.9095 S   0  0  0  0  0  0  0  0  0  0  0  0
   -4.6208   -4.2764   -2.8562 N   0  0  0  0  0  0  0  0  0  0  0  0
   -3.3848   -4.7620   -2.5799 C   0  0  0  0  0  0  0  0  0  0  0  0
   -1.3583   -7.8637   -3.6165 C   0  0  0  0  0  0  0  0  0  0  0  0
   -0.5816   -7.8728   -4.7065 C   0  0  0  0  0  0  0  0  0  0  0  0
    0.4245   -8.8839   -4.9742 C   0  0  0  0  0  0  0  0  0  0  0  0
    0.4261  -10.0570   -4.5179 O   0  0  0  0  0  0  0  0  0  0  0  0
    1.4084   -8.2930   -5.8557 C   0  0  0  0  0  0  0  0  0  0  0  0
    2.6213   -8.8319   -6.2896 C   0  0  0  0  0  0  0  0  0  0  0  0
    3.0949  -10.4724   -5.8421 Cl  0  0  0  0  0  0  0  0  0  0  0  0
    3.4428   -8.0490   -7.1243 C   0  0  0  0  0  0  0  0  0  0  0  0
    4.9483   -8.7229   -7.7464 Cl  0  0  0  0  0  0  0  0  0  0  0  0
    3.0619   -6.7248   -7.4588 C   0  0  0  0  0  0  0  0  0  0  0  0
    4.0799   -5.7678   -8.5376 Cl  0  0  0  0  0  0  0  0  0  0  0  0
    1.8533   -6.1859   -6.9664 C   0  0  0  0  0  0  0  0  0  0  0  0
    1.5349   -4.4602   -7.1790 Cl  0  0  0  0  0  0  0  0  0  0  0  0
    1.0042   -7.0044   -6.1863 C   0  0  0  0  0  0  0  0  0  0  0  0
   -0.3630   -6.7375   -5.6424 C   0  0  0  0  0  0  0  0  0  0  0  0
   -1.3716   -6.3611   -6.4625 C   0  0  0  0  0  0  0  0  0  0  0  0
   -1.4343   -5.0665   -7.0863 C   0  0  0  0  0  0  0  0  0  0  0  0
   -1.5703   -4.0190   -7.5705 N   0  0  0  0  0  0  0  0  0  0  0  0
   -2.5304   -7.2038   -6.6721 C   0  0  0  0  0  0  0  0  0  0  0  0
   -3.4572   -7.8838   -6.8518 N   0  0  0  0  0  0  0  0  0  0  0  0
    2.3255    6.0618    1.4296 H   0  0  0  0  0  0  0  0  0  0  0  0
    4.7725    1.5278    4.9464 H   0  0  0  0  0  0  0  0  0  0  0  0
    7.6364    5.1521    2.7907 H   0  0  0  0  0  0  0  0  0  0  0  0
    9.5335    2.8326    4.6609 H   0  0  0  0  0  0  0  0  0  0  0  0
   10.2516    2.2012    2.2688 H   0  0  0  0  0  0  0  0  0  0  0  0
    8.1267    1.8805    0.7177 H   0  0  0  0  0  0  0  0  0  0  0  0
    6.6179    0.0349    1.7753 H   0  0  0  0  0  0  0  0  0  0  0  0
    7.7816   -0.8222    3.9983 H   0  0  0  0  0  0  0  0  0  0  0  0
    9.8806   -0.4141    2.4429 H   0  0  0  0  0  0  0  0  0  0  0  0
   10.2330    0.2554    4.0975 H   0  0  0  0  0  0  0  0  0  0  0  0
    8.2105    1.1340    5.6315 H   0  0  0  0  0  0  0  0  0  0  0  0
    4.7116    1.4914   -0.0617 H   0  0  0  0  0  0  0  0  0  0  0  0
    3.0808    0.9221   -0.4871 H   0  0  0  0  0  0  0  0  0  0  0  0
    3.6659   -0.0161    1.6728 H   0  0  0  0  0  0  0  0  0  0  0  0
    2.4515    1.2581    2.0238 H   0  0  0  0  0  0  0  0  0  0  0  0
    4.2144    1.5642    2.2897 H   0  0  0  0  0  0  0  0  0  0  0  0
    0.9883    3.2745   -3.3691 H   0  0  0  0  0  0  0  0  0  0  0  0
    0.9772    4.2450   -1.8755 H   0  0  0  0  0  0  0  0  0  0  0  0
   -1.0596    4.6273   -3.2377 H   0  0  0  0  0  0  0  0  0  0  0  0
   -1.4491    2.8704   -3.1924 H   0  0  0  0  0  0  0  0  0  0  0  0
   -1.5016    3.8600   -1.6655 H   0  0  0  0  0  0  0  0  0  0  0  0
   -4.8842    4.0473    3.9726 H   0  0  0  0  0  0  0  0  0  0  0  0
   -1.5099    6.7013    5.7233 H   0  0  0  0  0  0  0  0  0  0  0  0
   -2.7595    1.6518    4.7310 H   0  0  0  0  0  0  0  0  0  0  0  0
   -1.3471    2.3100    6.6283 H   0  0  0  0  0  0  0  0  0  0  0  0
    2.8039    3.3646    6.5033 H   0  0  0  0  0  0  0  0  0  0  0  0
    2.0031    3.8340    8.0318 H   0  0  0  0  0  0  0  0  0  0  0  0
    1.0577    3.8896    6.5010 H   0  0  0  0  0  0  0  0  0  0  0  0
    2.0126    0.3428    4.7976 H   0  0  0  0  0  0  0  0  0  0  0  0
    0.6142   -0.2351    2.8407 H   0  0  0  0  0  0  0  0  0  0  0  0
   -1.5816   -1.9258    4.5060 H   0  0  0  0  0  0  0  0  0  0  0  0
   -3.2306   -3.3926    5.5957 H   0  0  0  0  0  0  0  0  0  0  0  0
   -5.4903   -2.1170    7.2441 H   0  0  0  0  0  0  0  0  0  0  0  0
   -6.9595   -1.5236    6.3643 H   0  0  0  0  0  0  0  0  0  0  0  0
   -7.0863   -2.9110    7.5085 H   0  0  0  0  0  0  0  0  0  0  0  0
   -6.4050   -1.4344    3.4313 H   0  0  0  0  0  0  0  0  0  0  0  0
   -4.7444    0.0330    2.3313 H   0  0  0  0  0  0  0  0  0  0  0  0
   -5.1837   -0.5957   -2.6641 H   0  0  0  0  0  0  0  0  0  0  0  0
   -7.1735   -0.9848   -4.0613 H   0  0  0  0  0  0  0  0  0  0  0  0
   -8.7784   -4.3979   -6.1721 H   0  0  0  0  0  0  0  0  0  0  0  0
   -6.9977   -4.6605   -6.0933 H   0  0  0  0  0  0  0  0  0  0  0  0
   -7.8650   -3.8717   -4.7079 H   0  0  0  0  0  0  0  0  0  0  0  0
   -4.7333   -2.9514   -7.0073 H   0  0  0  0  0  0  0  0  0  0  0  0
   -2.7346   -2.5753   -5.6107 H   0  0  0  0  0  0  0  0  0  0  0  0
   -2.1254    0.4704   -5.0244 H   0  0  0  0  0  0  0  0  0  0  0  0
    0.0868    1.0471   -5.9721 H   0  0  0  0  0  0  0  0  0  0  0  0
    3.1557    0.7892   -3.2868 H   0  0  0  0  0  0  0  0  0  0  0  0
    4.3093    1.4580   -4.5128 H   0  0  0  0  0  0  0  0  0  0  0  0
    2.6188    2.0856   -4.4562 H   0  0  0  0  0  0  0  0  0  0  0  0
    1.9332   -1.9214   -3.4712 H   0  0  0  0  0  0  0  0  0  0  0  0
   -0.2572   -2.5040   -2.5344 H   0  0  0  0  0  0  0  0  0  0  0  0
   -1.3548   -8.7315   -2.9729 H   0  0  0  0  0  0  0  0  0  0  0  0
  1  2  2  3
  2  3  1  0
  3  4  2  0
  3  5  1  0
  5  6  2  0
  6  7  1  0
  7  8  2  0
  8  9  1  0
  9 10  2  0
 10 11  1  0
 11 12  2  3
 12 13  1  0
 13 14  3  0
 12 15  1  0
 15 16  3  0
  8 17  1  0
 17 18  1  0
 18 19  1  0
 19 20  2  0
 20 21  1  0
 21 22  1  0
 21 23  1  0
  1 24  1  0
 24 25  2  0
 25 26  1  0
 26 27  1  0
 27 28  1  0
 25 29  1  0
 29 30  1  0
 30 31  1  0
 31 32  1  0
 29 33  2  0
 33 34  1  0
 34 35  2  0
 35 36  1  0
 36 37  2  0
 36 38  1  0
 38 39  1  0
 39 40  1  0
 40 41  2  0
 39 42  2  0
 42 43  1  0
 43 44  1  0
 33 45  1  0
 45 46  2  0
 46 47  1  0
 47 48  1  0
 48 49  2  0
 49 50  1  0
 50 51  2  0
 51 52  1  0
 52 53  1  0
 51 54  1  0
 54 55  2  0
 47 56  1  0
 56 57  2  0
 57 58  1  0
 58 59  2  0
 59 60  1  0
 60 61  1  0
 59 62  1  0
 62 63  2  0
 46 64  1  0
 64 65  1  0
 65 66  1  0
 66 67  2  0
 67 68  1  0
 68 69  1  0
 69 70  2  0
 70 71  1  0
 71 72  2  0
 72 73  1  0
 73 74  1  0
 72 75  1  0
 75 76  2  0
 68 77  1  0
 77 78  2  0
 78 79  1  0
 79 80  2  0
 80 81  1  0
 81 82  1  0
 80 83  1  0
 83 84  2  0
 67 85  1  0
 85 86  1  0
 66 87  1  0
 87 88  2  0
 88 89  1  0
 89 90  1  0
 90 91  2  0
 91 92  2  0
 89 93  2  0
 93 94  1  0
 94 95  2  0
 95 96  1  0
 96 97  1  0
 97 98  2  0
 93 99  1  0
 99100  2  3
100101  1  0
101102  2  0
101103  1  0
103104  2  0
104105  1  0
104106  1  0
106107  1  0
106108  2  0
108109  1  0
108110  1  0
110111  1  0
110112  2  0
112113  1  0
113114  2  3
114115  1  0
115116  3  0
114117  1  0
117118  3  0
 11  2  1  0
 23 17  1  0
 35 24  1  0
 44 38  2  0
 86 45  1  0
 98 87  1  0
113100  1  0
 10  5  1  0
 22 18  1  0
 40 34  1  0
 55 48  1  0
 63 56  1  0
 85 64  2  0
 92 88  1  0
 98 94  1  0
112103  1  0
 23  7  1  0
 76 69  1  0
 84 77  1  0
  1119  1  0
  6120  1  0
  9121  1  0
 17122  1  0
 18123  1  0
 19124  1  0
 20125  1  0
 21126  1  0
 22127  1  0
 22128  1  0
 23129  1  0
 27130  1  0
 27131  1  0
 28132  1  0
 28133  1  0
 28134  1  0
 31135  1  0
 31136  1  0
 32137  1  0
 32138  1  0
 32139  1  0
 42140  1  0
 44141  1  0
 49142  1  0
 50143  1  0
 53144  1  0
 53145  1  0
 53146  1  0
 54147  1  0
 55148  1  0
 57149  1  0
 58150  1  0
 61151  1  0
 61152  1  0
 61153  1  0
 62154  1  0
 63155  1  0
 70156  1  0
 71157  1  0
 74158  1  0
 74159  1  0
 74160  1  0
 75161  1  0
 76162  1  0
 78163  1  0
 79164  1  0
 82165  1  0
 82166  1  0
 82167  1  0
 83168  1  0
 84169  1  0
 99170  1  0
M  END

