
     RDKit          3D

187207  0  0  0  0  0  0  0  0999 V2000
    1.8487    5.1037   -4.8832 C   0  0  0  0  0  0  0  0  0  0  0  0
    2.6510    5.9400   -4.1891 C   0  0  0  0  0  0  0  0  0  0  0  0
    3.3640    5.5890   -2.9508 C   0  0  0  0  0  0  0  0  0  0  0  0
    3.2772    4.4830   -2.3052 O   0  0  0  0  0  0  0  0  0  0  0  0
    4.2184    6.6551   -2.5699 C   0  0  0  0  0  0  0  0  0  0  0  0
    5.0417    6.7245   -1.4300 C   0  0  0  0  0  0  0  0  0  0  0  0
    5.7312    7.8892   -1.3065 C   0  0  0  0  0  0  0  0  0  0  0  0
    5.6540    8.9741   -2.2139 C   0  0  0  0  0  0  0  0  0  0  0  0
    4.8448    8.9407   -3.3247 C   0  0  0  0  0  0  0  0  0  0  0  0
    4.1219    7.7196   -3.5135 C   0  0  0  0  0  0  0  0  0  0  0  0
    3.1208    7.3276   -4.5593 C   0  0  0  0  0  0  0  0  0  0  0  0
    2.6045    8.1262   -5.5318 C   0  0  0  0  0  0  0  0  0  0  0  0
    3.1168    9.4425   -5.8180 C   0  0  0  0  0  0  0  0  0  0  0  0
    3.4964   10.5183   -6.0948 N   0  0  0  0  0  0  0  0  0  0  0  0
    1.3907    7.7889   -6.2681 C   0  0  0  0  0  0  0  0  0  0  0  0
    0.4375    7.5253   -6.8829 N   0  0  0  0  0  0  0  0  0  0  0  0
    6.6810    9.7266   -1.4472 C   0  0  0  0  0  0  0  0  0  0  0  0
    8.1021    9.7874   -2.0721 C   0  0  0  0  0  0  0  0  0  0  0  0
    9.0255   10.2062   -0.9445 C   0  0  0  0  0  0  0  0  0  0  0  0
    9.1210    9.1648   -0.1199 C   0  0  0  0  0  0  0  0  0  0  0  0
    8.2427    8.0779   -0.7068 C   0  0  0  0  0  0  0  0  0  0  0  0
    8.5355    8.3380   -2.1844 C   0  0  0  0  0  0  0  0  0  0  0  0
    6.7903    8.6040   -0.5199 C   0  0  0  0  0  0  0  0  0  0  0  0
    1.3326    3.8707   -4.2751 C   0  0  0  0  0  0  0  0  0  0  0  0
    0.5041    3.9171   -3.1778 C   0  0  0  0  0  0  0  0  0  0  0  0
    0.5936    2.7781   -2.3893 C   0  0  0  0  0  0  0  0  0  0  0  0
   -0.0636    2.6242   -1.1306 C   0  0  0  0  0  0  0  0  0  0  0  0
   -1.0133    3.6195   -0.6098 C   0  0  0  0  0  0  0  0  0  0  0  0
   -2.1977    3.9184   -1.2946 C   0  0  0  0  0  0  0  0  0  0  0  0
   -3.0354    4.9283   -0.8470 C   0  0  0  0  0  0  0  0  0  0  0  0
   -2.6877    5.6754    0.2737 C   0  0  0  0  0  0  0  0  0  0  0  0
   -1.5381    5.3606    1.0017 C   0  0  0  0  0  0  0  0  0  0  0  0
   -1.1535    6.2296    2.5206 S   0  0  0  0  0  0  0  0  0  0  0  0
   -0.0209    7.4706    1.8103 C   0  0  0  0  0  0  0  0  0  0  0  0
    1.3556    6.8596    1.5624 C   0  0  0  0  0  0  0  0  0  0  0  0
   -0.7048    4.3207    0.5619 C   0  0  0  0  0  0  0  0  0  0  0  0
    0.2605    1.4667   -0.4083 C   0  0  0  0  0  0  0  0  0  0  0  0
    1.1628    0.4888   -0.8258 C   0  0  0  0  0  0  0  0  0  0  0  0
    1.8391    0.6510   -2.0925 C   0  0  0  0  0  0  0  0  0  0  0  0
    2.8127   -0.3359   -2.5903 C   0  0  0  0  0  0  0  0  0  0  0  0
    2.5121   -1.7194   -2.6680 C   0  0  0  0  0  0  0  0  0  0  0  0
    3.4013   -2.6320   -3.2461 C   0  0  0  0  0  0  0  0  0  0  0  0
    4.5431   -2.1656   -3.8872 C   0  0  0  0  0  0  0  0  0  0  0  0
    4.8075   -0.7934   -3.9021 C   0  0  0  0  0  0  0  0  0  0  0  0
    5.9642   -0.0990   -5.1100 S   0  0  0  0  0  0  0  0  0  0  0  0
    7.4589   -0.1217   -4.0990 C   0  0  0  0  0  0  0  0  0  0  0  0
    8.5938    0.6114   -4.8087 C   0  0  0  0  0  0  0  0  0  0  0  0
    4.0268    0.0864   -3.1727 C   0  0  0  0  0  0  0  0  0  0  0  0
    1.5022    1.8166   -2.8306 C   0  0  0  0  0  0  0  0  0  0  0  0
    2.1298    2.3839   -4.2869 S   0  0  0  0  0  0  0  0  0  0  0  0
    1.2640   -0.6029    0.0365 C   0  0  0  0  0  0  0  0  0  0  0  0
    0.3213   -0.5379    1.0805 C   0  0  0  0  0  0  0  0  0  0  0  0
   -0.5173    0.9290    1.0037 S   0  0  0  0  0  0  0  0  0  0  0  0
   -0.1210   -1.6952    1.8821 C   0  0  0  0  0  0  0  0  0  0  0  0
   -1.3550   -1.8213    2.5166 C   0  0  0  0  0  0  0  0  0  0  0  0
   -2.0096   -0.7245    3.2510 N   0  0  0  0  0  0  0  0  0  0  0  0
   -1.3060   -0.0867    4.3923 C   0  0  0  0  0  0  0  0  0  0  0  0
    0.0744    0.1069    4.4305 C   0  0  0  0  0  0  0  0  0  0  0  0
    0.7066    0.7705    5.4687 C   0  0  0  0  0  0  0  0  0  0  0  0
   -0.0453    1.3346    6.5154 C   0  0  0  0  0  0  0  0  0  0  0  0
    0.7894    2.0506    7.9699 S   0  0  0  0  0  0  0  0  0  0  0  0
    2.1448    2.9280    7.1148 C   0  0  0  0  0  0  0  0  0  0  0  0
   -1.4384    1.1757    6.5244 C   0  0  0  0  0  0  0  0  0  0  0  0
   -2.0380    0.4684    5.4703 C   0  0  0  0  0  0  0  0  0  0  0  0
   -3.2536   -0.0665    2.8133 C   0  0  0  0  0  0  0  0  0  0  0  0
   -4.4418   -0.7942    2.7444 C   0  0  0  0  0  0  0  0  0  0  0  0
   -5.6902   -0.1316    2.5864 C   0  0  0  0  0  0  0  0  0  0  0  0
   -5.7234    1.2549    2.5754 C   0  0  0  0  0  0  0  0  0  0  0  0
   -7.3269    2.1085    2.4553 S   0  0  0  0  0  0  0  0  0  0  0  0
   -7.7050    2.0231    4.2519 C   0  0  0  0  0  0  0  0  0  0  0  0
   -4.5603    2.0188    2.6356 C   0  0  0  0  0  0  0  0  0  0  0  0
   -3.3204    1.3477    2.7440 C   0  0  0  0  0  0  0  0  0  0  0  0
   -1.6653   -3.1792    2.7091 C   0  0  0  0  0  0  0  0  0  0  0  0
   -3.1254   -3.9728    2.3745 S   0  0  0  0  0  0  0  0  0  0  0  0
   -2.4998   -5.4310    1.8421 C   0  0  0  0  0  0  0  0  0  0  0  0
   -1.0981   -5.3427    1.9200 C   0  0  0  0  0  0  0  0  0  0  0  0
   -0.2811   -6.5210    2.1148 N   0  0  0  0  0  0  0  0  0  0  0  0
   -0.0914   -6.9602    3.5057 C   0  0  0  0  0  0  0  0  0  0  0  0
   -1.1718   -6.9812    4.3967 C   0  0  0  0  0  0  0  0  0  0  0  0
   -1.0018   -7.3662    5.7270 C   0  0  0  0  0  0  0  0  0  0  0  0
    0.2713   -7.7440    6.1936 C   0  0  0  0  0  0  0  0  0  0  0  0
    0.4716   -8.2976    7.8840 S   0  0  0  0  0  0  0  0  0  0  0  0
    0.7721   -6.6538    8.6017 C   0  0  0  0  0  0  0  0  0  0  0  0
    1.3619   -7.7378    5.3063 C   0  0  0  0  0  0  0  0  0  0  0  0
    1.1694   -7.3395    3.9849 C   0  0  0  0  0  0  0  0  0  0  0  0
    0.3561   -7.1781    0.9992 C   0  0  0  0  0  0  0  0  0  0  0  0
    0.8471   -6.4601   -0.0884 C   0  0  0  0  0  0  0  0  0  0  0  0
    1.4086   -7.0905   -1.2137 C   0  0  0  0  0  0  0  0  0  0  0  0
    1.3738   -8.4830   -1.2715 C   0  0  0  0  0  0  0  0  0  0  0  0
    1.9163   -9.3326   -2.7754 S   0  0  0  0  0  0  0  0  0  0  0  0
    3.5040   -9.9175   -2.0753 C   0  0  0  0  0  0  0  0  0  0  0  0
    0.8724   -9.2292   -0.2013 C   0  0  0  0  0  0  0  0  0  0  0  0
    0.4398   -8.5785    0.9497 C   0  0  0  0  0  0  0  0  0  0  0  0
   -0.6890   -4.0630    2.3519 C   0  0  0  0  0  0  0  0  0  0  0  0
    0.6010   -3.2122    1.7066 S   0  0  0  0  0  0  0  0  0  0  0  0
   -3.3256   -6.2586    0.9119 C   0  0  0  0  0  0  0  0  0  0  0  0
   -4.6559   -6.5518    1.2912 C   0  0  0  0  0  0  0  0  0  0  0  0
   -5.7114   -6.4771    0.3777 C   0  0  0  0  0  0  0  0  0  0  0  0
   -7.0119   -6.4917    0.9861 N   0  0  0  0  0  0  0  0  0  0  0  0
   -6.6655   -6.5636    2.5349 S   0  0  0  0  0  4  0  0  0  0  0  0
   -5.0748   -6.6339    2.6648 N   0  0  0  0  0  0  0  0  0  0  0  0
   -5.5319   -6.0750   -0.9423 C   0  0  0  0  0  0  0  0  0  0  0  0
   -4.2053   -5.9763   -1.4135 C   0  0  0  0  0  0  0  0  0  0  0  0
   -3.8822   -5.5174   -2.6218 N   0  0  0  0  0  0  0  0  0  0  0  0
   -2.2275   -5.4498   -2.5497 S   0  0  0  0  0  0  0  0  0  0  0  0
   -1.8785   -5.8647   -0.9912 N   0  0  0  0  0  0  0  0  0  0  0  0
   -3.1345   -6.0452   -0.4599 C   0  0  0  0  0  0  0  0  0  0  0  0
   -6.7090   -5.9815   -1.8610 C   0  0  0  0  0  0  0  0  0  0  0  0
   -7.0075   -4.9897   -2.7152 C   0  0  0  0  0  0  0  0  0  0  0  0
   -6.2658   -3.7793   -2.9933 C   0  0  0  0  0  0  0  0  0  0  0  0
   -5.2914   -3.3403   -2.3166 O   0  0  0  0  0  0  0  0  0  0  0  0
   -6.8886   -3.0544   -4.1217 C   0  0  0  0  0  0  0  0  0  0  0  0
   -6.3743   -1.9849   -4.8662 C   0  0  0  0  0  0  0  0  0  0  0  0
   -4.7341   -1.3415   -4.5735 Cl  0  0  0  0  0  0  0  0  0  0  0  0
   -7.1831   -1.4578   -5.9317 C   0  0  0  0  0  0  0  0  0  0  0  0
   -6.6152   -0.1483   -6.9242 Cl  0  0  0  0  0  0  0  0  0  0  0  0
   -8.4931   -1.9956   -6.0962 C   0  0  0  0  0  0  0  0  0  0  0  0
   -9.5636   -1.2669   -7.3417 Cl  0  0  0  0  0  0  0  0  0  0  0  0
   -8.9559   -3.0677   -5.3337 C   0  0  0  0  0  0  0  0  0  0  0  0
  -10.6961   -3.4563   -5.3398 Cl  0  0  0  0  0  0  0  0  0  0  0  0
   -8.0836   -3.6975   -4.4365 C   0  0  0  0  0  0  0  0  0  0  0  0
   -8.1746   -4.9576   -3.6183 C   0  0  0  0  0  0  0  0  0  0  0  0
   -8.9406   -6.0268   -3.8477 C   0  0  0  0  0  0  0  0  0  0  0  0
   -9.2685   -6.2908   -5.2028 C   0  0  0  0  0  0  0  0  0  0  0  0
   -9.5171   -6.5727   -6.3100 N   0  0  0  0  0  0  0  0  0  0  0  0
   -9.9774   -6.2387   -2.8849 C   0  0  0  0  0  0  0  0  0  0  0  0
  -10.8784   -6.3499   -2.1357 N   0  0  0  0  0  0  0  0  0  0  0  0
    1.4883    5.3243   -5.8712 H   0  0  0  0  0  0  0  0  0  0  0  0
    5.1452    5.8693   -0.7578 H   0  0  0  0  0  0  0  0  0  0  0  0
    4.8596    9.7868   -4.0319 H   0  0  0  0  0  0  0  0  0  0  0  0
    6.2919   10.6551   -0.9902 H   0  0  0  0  0  0  0  0  0  0  0  0
    8.2018   10.3823   -2.9916 H   0  0  0  0  0  0  0  0  0  0  0  0
    9.6245   11.1047   -0.8500 H   0  0  0  0  0  0  0  0  0  0  0  0
    9.7907    9.1155    0.7395 H   0  0  0  0  0  0  0  0  0  0  0  0
    8.4612    7.0583   -0.3416 H   0  0  0  0  0  0  0  0  0  0  0  0
    9.5977    8.1882   -2.4757 H   0  0  0  0  0  0  0  0  0  0  0  0
    7.9375    7.7175   -2.9081 H   0  0  0  0  0  0  0  0  0  0  0  0
    6.4842    8.8213    0.5198 H   0  0  0  0  0  0  0  0  0  0  0  0
   -0.0143    4.8139   -2.8851 H   0  0  0  0  0  0  0  0  0  0  0  0
   -2.4346    3.3859   -2.1983 H   0  0  0  0  0  0  0  0  0  0  0  0
   -3.9478    5.1379   -1.3836 H   0  0  0  0  0  0  0  0  0  0  0  0
   -3.3811    6.4281    0.6464 H   0  0  0  0  0  0  0  0  0  0  0  0
   -0.4517    7.8912    0.8813 H   0  0  0  0  0  0  0  0  0  0  0  0
    0.0848    8.2972    2.5391 H   0  0  0  0  0  0  0  0  0  0  0  0
    1.3477    6.2367    0.6509 H   0  0  0  0  0  0  0  0  0  0  0  0
    1.6938    6.2450    2.4276 H   0  0  0  0  0  0  0  0  0  0  0  0
    2.0939    7.6804    1.4341 H   0  0  0  0  0  0  0  0  0  0  0  0
    0.2043    4.0949    1.1034 H   0  0  0  0  0  0  0  0  0  0  0  0
    1.5857   -2.1016   -2.2672 H   0  0  0  0  0  0  0  0  0  0  0  0
    3.1620   -3.6845   -3.2604 H   0  0  0  0  0  0  0  0  0  0  0  0
    5.1517   -2.8386   -4.4512 H   0  0  0  0  0  0  0  0  0  0  0  0
    7.7334   -1.1654   -3.9122 H   0  0  0  0  0  0  0  0  0  0  0  0
    7.2566    0.3213   -3.1187 H   0  0  0  0  0  0  0  0  0  0  0  0
    9.5528    0.0883   -4.6524 H   0  0  0  0  0  0  0  0  0  0  0  0
    8.6554    1.6596   -4.4434 H   0  0  0  0  0  0  0  0  0  0  0  0
    8.4037    0.6408   -5.9069 H   0  0  0  0  0  0  0  0  0  0  0  0
    4.3090    1.1374   -3.1508 H   0  0  0  0  0  0  0  0  0  0  0  0
    1.9136   -1.4502   -0.0927 H   0  0  0  0  0  0  0  0  0  0  0  0
    0.7440   -0.1889    3.6529 H   0  0  0  0  0  0  0  0  0  0  0  0
    1.7815    0.8457    5.4470 H   0  0  0  0  0  0  0  0  0  0  0  0
    1.8087    3.3743    6.1623 H   0  0  0  0  0  0  0  0  0  0  0  0
    2.5153    3.7401    7.7682 H   0  0  0  0  0  0  0  0  0  0  0  0
    2.9964    2.2395    6.9414 H   0  0  0  0  0  0  0  0  0  0  0  0
   -2.0504    1.6029    7.3115 H   0  0  0  0  0  0  0  0  0  0  0  0
   -3.1064    0.3562    5.5059 H   0  0  0  0  0  0  0  0  0  0  0  0
   -4.4868   -1.8268    2.9046 H   0  0  0  0  0  0  0  0  0  0  0  0
   -6.5746   -0.7261    2.5358 H   0  0  0  0  0  0  0  0  0  0  0  0
   -8.4699    1.2400    4.4110 H   0  0  0  0  0  0  0  0  0  0  0  0
   -8.1253    2.9894    4.5370 H   0  0  0  0  0  0  0  0  0  0  0  0
   -6.8114    1.8105    4.8470 H   0  0  0  0  0  0  0  0  0  0  0  0
   -4.5998    3.0943    2.6506 H   0  0  0  0  0  0  0  0  0  0  0  0
   -2.4317    1.9716    2.8733 H   0  0  0  0  0  0  0  0  0  0  0  0
   -2.1875   -6.7315    4.0984 H   0  0  0  0  0  0  0  0  0  0  0  0
   -1.8494   -7.3701    6.4311 H   0  0  0  0  0  0  0  0  0  0  0  0
    0.4922   -5.8246    7.9136 H   0  0  0  0  0  0  0  0  0  0  0  0
    0.1903   -6.5672    9.5420 H   0  0  0  0  0  0  0  0  0  0  0  0
    1.8485   -6.5655    8.8406 H   0  0  0  0  0  0  0  0  0  0  0  0
    2.3470   -8.0522    5.6261 H   0  0  0  0  0  0  0  0  0  0  0  0
    2.0109   -7.3386    3.3086 H   0  0  0  0  0  0  0  0  0  0  0  0
    0.7734   -5.3885   -0.0766 H   0  0  0  0  0  0  0  0  0  0  0  0
    1.7765   -6.4776   -2.0510 H   0  0  0  0  0  0  0  0  0  0  0  0
    3.8733  -10.6890   -2.7628 H   0  0  0  0  0  0  0  0  0  0  0  0
    3.3652  -10.3466   -1.0483 H   0  0  0  0  0  0  0  0  0  0  0  0
    4.2390   -9.0802   -2.0390 H   0  0  0  0  0  0  0  0  0  0  0  0
    0.8339  -10.3104   -0.2650 H   0  0  0  0  0  0  0  0  0  0  0  0
    0.1244   -9.1951    1.7883 H   0  0  0  0  0  0  0  0  0  0  0  0
   -7.4718   -6.7760   -1.7103 H   0  0  0  0  0  0  0  0  0  0  0  0
  1  2  2  3
  2  3  1  0
  3  4  2  0
  3  5  1  0
  5  6  2  0
  6  7  1  0
  7  8  2  0
  8  9  1  0
  9 10  2  0
 10 11  1  0
 11 12  2  3
 12 13  1  0
 13 14  3  0
 12 15  1  0
 15 16  3  0
  8 17  1  0
 17 18  1  0
 18 19  1  0
 19 20  2  0
 20 21  1  0
 21 22  1  0
 21 23  1  0
  1 24  1  0
 24 25  2  0
 25 26  1  0
 26 27  2  0
 27 28  1  0
 28 29  2  0
 29 30  1  0
 30 31  2  0
 31 32  1  0
 32 33  1  0
 33 34  1  0
 34 35  1  0
 32 36  2  0
 27 37  1  0
 37 38  2  0
 38 39  1  0
 39 40  1  0
 40 41  2  0
 41 42  1  0
 42 43  2  0
 43 44  1  0
 44 45  1  0
 45 46  1  0
 46 47  1  0
 44 48  2  0
 39 49  2  0
 49 50  1  0
 38 51  1  0
 51 52  2  0
 52 53  1  0
 52 54  1  0
 54 55  2  0
 55 56  1  0
 56 57  1  0
 57 58  2  0
 58 59  1  0
 59 60  2  0
 60 61  1  0
 61 62  1  0
 60 63  1  0
 63 64  2  0
 56 65  1  0
 65 66  2  0
 66 67  1  0
 67 68  2  0
 68 69  1  0
 69 70  1  0
 68 71  1  0
 71 72  2  0
 55 73  1  0
 73 74  1  0
 74 75  1  0
 75 76  2  0
 76 77  1  0
 77 78  1  0
 78 79  2  0
 79 80  1  0
 80 81  2  0
 81 82  1  0
 82 83  1  0
 81 84  1  0
 84 85  2  0
 77 86  1  0
 86 87  2  0
 87 88  1  0
 88 89  2  0
 89 90  1  0
 90 91  1  0
 89 92  1  0
 92 93  2  0
 76 94  1  0
 94 95  1  0
 75 96  1  0
 96 97  2  0
 97 98  1  0
 98 99  1  0
 99100  2  0
100101  2  0
 98102  2  0
102103  1  0
103104  2  0
104105  1  0
105106  1  0
106107  2  0
102108  1  0
108109  2  3
109110  1  0
110111  2  0
110112  1  0
112113  2  0
113114  1  0
113115  1  0
115116  1  0
115117  2  0
117118  1  0
117119  1  0
119120  1  0
119121  2  0
121122  1  0
122123  2  3
123124  1  0
124125  3  0
123126  1  0
126127  3  0
 11  2  1  0
 23 17  1  0
 50 24  1  0
 95 54  1  0
107 96  1  0
122109  1  0
 10  5  1  0
 22 18  1  0
 49 26  1  0
 64 57  1  0
 72 65  1  0
 94 73  2  0
101 97  1  0
107103  1  0
121112  1  0
 23  7  1  0
 36 28  1  0
 53 37  1  0
 85 78  1  0
 93 86  1  0
 48 40  1  0
  1128  1  0
  6129  1  0
  9130  1  0
 17131  1  0
 18132  1  0
 19133  1  0
 20134  1  0
 21135  1  0
 22136  1  0
 22137  1  0
 23138  1  0
 25139  1  0
 29140  1  0
 30141  1  0
 31142  1  0
 34143  1  0
 34144  1  0
 35145  1  0
 35146  1  0
 35147  1  0
 36148  1  0
 41149  1  0
 42150  1  0
 43151  1  0
 46152  1  0
 46153  1  0
 47154  1  0
 47155  1  0
 47156  1  0
 48157  1  0
 51158  1  0
 58159  1  0
 59160  1  0
 62161  1  0
 62162  1  0
 62163  1  0
 63164  1  0
 64165  1  0
 66166  1  0
 67167  1  0
 70168  1  0
 70169  1  0
 70170  1  0
 71171  1  0
 72172  1  0
 79173  1  0
 80174  1  0
 83175  1  0
 83176  1  0
 83177  1  0
 84178  1  0
 85179  1  0
 87180  1  0
 88181  1  0
 91182  1  0
 91183  1  0
 91184  1  0
 92185  1  0
 93186  1  0
108187  1  0
M  END

