
     RDKit          3D

189209  0  0  0  0  0  0  0  0999 V2000
   -2.9177   -6.3272    1.5055 C   0  0  0  0  0  0  0  0  0  0  0  0
   -2.2287   -6.3697    2.6687 C   0  0  0  0  0  0  0  0  0  0  0  0
   -2.0363   -5.2455    3.5904 C   0  0  0  0  0  0  0  0  0  0  0  0
   -2.8519   -4.3061    3.7911 O   0  0  0  0  0  0  0  0  0  0  0  0
   -0.7445   -5.3787    4.2321 C   0  0  0  0  0  0  0  0  0  0  0  0
   -0.0627   -4.3930    4.9826 C   0  0  0  0  0  0  0  0  0  0  0  0
    1.2611   -4.7056    5.2400 C   0  0  0  0  0  0  0  0  0  0  0  0
    1.8820   -5.9162    4.7819 C   0  0  0  0  0  0  0  0  0  0  0  0
    1.2088   -6.8986    4.0708 C   0  0  0  0  0  0  0  0  0  0  0  0
   -0.1614   -6.6015    3.8185 C   0  0  0  0  0  0  0  0  0  0  0  0
   -1.1444   -7.3409    2.9813 C   0  0  0  0  0  0  0  0  0  0  0  0
   -1.1702   -8.6755    2.7584 C   0  0  0  0  0  0  0  0  0  0  0  0
   -0.1661   -9.5610    3.2927 C   0  0  0  0  0  0  0  0  0  0  0  0
    0.6242  -10.2916    3.7168 N   0  0  0  0  0  0  0  0  0  0  0  0
   -2.2945   -9.3124    2.1229 C   0  0  0  0  0  0  0  0  0  0  0  0
   -3.2001   -9.8155    1.6122 N   0  0  0  0  0  0  0  0  0  0  0  0
    3.1997   -5.4680    5.3378 C   0  0  0  0  0  0  0  0  0  0  0  0
    3.6810   -6.1631    6.6411 C   0  0  0  0  0  0  0  0  0  0  0  0
    4.7817   -5.2956    7.2001 C   0  0  0  0  0  0  0  0  0  0  0  0
    4.1919   -4.1793    7.6505 C   0  0  0  0  0  0  0  0  0  0  0  0
    2.7187   -4.3335    7.3731 C   0  0  0  0  0  0  0  0  0  0  0  0
    2.5898   -5.8230    7.6409 C   0  0  0  0  0  0  0  0  0  0  0  0
    2.5621   -4.2394    5.8266 C   0  0  0  0  0  0  0  0  0  0  0  0
   -3.3920   -5.0699    0.8824 C   0  0  0  0  0  0  0  0  0  0  0  0
   -2.5022   -3.9863    0.8203 C   0  0  0  0  0  0  0  0  0  0  0  0
   -2.7794   -2.8622    0.0545 C   0  0  0  0  0  0  0  0  0  0  0  0
   -3.9389   -2.7938   -0.7330 C   0  0  0  0  0  0  0  0  0  0  0  0
   -4.8701   -3.8530   -0.6475 C   0  0  0  0  0  0  0  0  0  0  0  0
   -6.1775   -4.0468   -1.3082 C   0  0  0  0  0  0  0  0  0  0  0  0
   -6.7918   -3.2278   -2.1785 C   0  0  0  0  0  0  0  0  0  0  0  0
   -8.1663   -3.4097   -2.6819 C   0  0  0  0  0  0  0  0  0  0  0  0
   -8.5191   -3.0991   -4.0030 C   0  0  0  0  0  0  0  0  0  0  0  0
   -9.8726   -3.2387   -4.2700 C   0  0  0  0  0  0  0  0  0  0  0  0
  -10.6362   -3.7078   -2.8482 S   0  0  0  0  0  0  0  0  0  0  0  0
   -9.2604   -3.7426   -1.8848 C   0  0  0  0  0  0  0  0  0  0  0  0
   -6.6202   -5.3633   -0.8289 C   0  0  0  0  0  0  0  0  0  0  0  0
   -7.6404   -5.9885   -1.2287 O   0  0  0  0  0  0  0  0  0  0  0  0
   -5.6802   -5.9202    0.0869 N   0  0  0  0  0  0  0  0  0  0  0  0
   -5.9074   -7.1428    0.8555 C   0  0  0  0  0  0  0  0  0  0  0  0
   -5.5995   -8.3661   -0.0028 C   0  0  0  0  0  0  0  0  0  0  0  0
   -4.6057   -4.9676    0.1577 C   0  0  0  0  0  0  0  0  0  0  0  0
   -4.0436   -1.6189   -1.6250 C   0  0  0  0  0  0  0  0  0  0  0  0
   -4.7673   -0.5005   -1.1838 C   0  0  0  0  0  0  0  0  0  0  0  0
   -5.7721   -0.6497   -0.2850 F   0  0  0  0  0  0  0  0  0  0  0  0
   -4.3056    0.7862   -1.4805 C   0  0  0  0  0  0  0  0  0  0  0  0
   -4.8959    1.8519   -0.8729 F   0  0  0  0  0  0  0  0  0  0  0  0
   -3.0939    0.9595   -2.1818 C   0  0  0  0  0  0  0  0  0  0  0  0
   -2.5186   -0.1517   -2.8337 C   0  0  0  0  0  0  0  0  0  0  0  0
   -1.3987   -0.0263   -3.5964 N   0  0  0  0  0  0  0  0  0  0  0  0
   -0.7578   -1.1075   -4.1243 C   0  0  0  0  0  0  0  0  0  0  0  0
    0.4687   -0.8554   -4.9592 C   0  0  0  0  0  0  0  0  0  0  0  0
    1.7200   -0.7870   -4.0886 C   0  0  0  0  0  0  0  0  0  0  0  0
   -1.2280   -2.4093   -3.8091 C   0  0  0  0  0  0  0  0  0  0  0  0
   -2.3446   -2.5201   -3.0439 N   0  0  0  0  0  0  0  0  0  0  0  0
   -3.0172   -1.4403   -2.5659 C   0  0  0  0  0  0  0  0  0  0  0  0
   -0.5408   -3.6848   -4.2460 C   0  0  0  0  0  0  0  0  0  0  0  0
   -0.2447   -4.5889   -3.0488 C   0  0  0  0  0  0  0  0  0  0  0  0
   -2.2067    2.0310   -1.6980 C   0  0  0  0  0  0  0  0  0  0  0  0
   -1.5782    3.0773   -2.4043 C   0  0  0  0  0  0  0  0  0  0  0  0
   -1.8926    3.4799   -3.7457 N   0  0  0  0  0  0  0  0  0  0  0  0
   -1.0182    3.0807   -4.8254 C   0  0  0  0  0  0  0  0  0  0  0  0
    0.3645    2.9158   -4.6185 C   0  0  0  0  0  0  0  0  0  0  0  0
    1.2135    2.5991   -5.6816 C   0  0  0  0  0  0  0  0  0  0  0  0
    0.6974    2.4263   -6.9731 C   0  0  0  0  0  0  0  0  0  0  0  0
    1.6091    2.0110   -8.0883 C   0  0  0  0  0  0  0  0  0  0  0  0
   -0.6839    2.5622   -7.1815 C   0  0  0  0  0  0  0  0  0  0  0  0
   -1.5320    2.8958   -6.1182 C   0  0  0  0  0  0  0  0  0  0  0  0
   -2.8081    4.5969   -3.8911 C   0  0  0  0  0  0  0  0  0  0  0  0
   -3.9253    4.7117   -3.0412 C   0  0  0  0  0  0  0  0  0  0  0  0
   -4.7145    5.8642   -3.0503 C   0  0  0  0  0  0  0  0  0  0  0  0
   -4.4029    6.9261   -3.9096 C   0  0  0  0  0  0  0  0  0  0  0  0
   -5.2316    8.1777   -3.8985 C   0  0  0  0  0  0  0  0  0  0  0  0
   -3.3272    6.7970   -4.7990 C   0  0  0  0  0  0  0  0  0  0  0  0
   -2.5302    5.6472   -4.7834 C   0  0  0  0  0  0  0  0  0  0  0  0
   -0.7975    3.8562   -1.5490 C   0  0  0  0  0  0  0  0  0  0  0  0
    0.1607    5.2333   -1.7297 S   0  0  0  0  0  0  0  0  0  0  0  0
    0.5887    5.2851   -0.0762 C   0  0  0  0  0  0  0  0  0  0  0  0
   -0.0214    4.2253    0.6018 C   0  0  0  0  0  0  0  0  0  0  0  0
   -0.0541    4.0865    2.0336 N   0  0  0  0  0  0  0  0  0  0  0  0
   -0.6877    5.1259    2.8082 C   0  0  0  0  0  0  0  0  0  0  0  0
   -0.1500    5.5200    4.0470 C   0  0  0  0  0  0  0  0  0  0  0  0
   -0.7689    6.5297    4.7942 C   0  0  0  0  0  0  0  0  0  0  0  0
   -1.9295    7.1574    4.3158 C   0  0  0  0  0  0  0  0  0  0  0  0
   -2.6246    8.2056    5.1375 C   0  0  0  0  0  0  0  0  0  0  0  0
   -2.4723    6.7580    3.0893 C   0  0  0  0  0  0  0  0  0  0  0  0
   -1.8523    5.7582    2.3371 C   0  0  0  0  0  0  0  0  0  0  0  0
    0.3189    2.8267    2.6341 C   0  0  0  0  0  0  0  0  0  0  0  0
   -0.4450    2.2685    3.6767 C   0  0  0  0  0  0  0  0  0  0  0  0
   -0.0946    1.0294    4.2272 C   0  0  0  0  0  0  0  0  0  0  0  0
    1.0200    0.3286    3.7412 C   0  0  0  0  0  0  0  0  0  0  0  0
    1.4137   -0.9906    4.3356 C   0  0  0  0  0  0  0  0  0  0  0  0
    1.7858    0.8846    2.7103 C   0  0  0  0  0  0  0  0  0  0  0  0
    1.4313    2.1138    2.1555 C   0  0  0  0  0  0  0  0  0  0  0  0
   -0.7753    3.4456   -0.2594 C   0  0  0  0  0  0  0  0  0  0  0  0
   -1.7483    2.1097   -0.0567 S   0  0  0  0  0  0  0  0  0  0  0  0
    1.6757    6.0863    0.4932 C   0  0  0  0  0  0  0  0  0  0  0  0
    2.9049    5.5649    0.6781 C   0  0  0  0  0  0  0  0  0  0  0  0
    3.4016    4.3647   -0.0095 C   0  0  0  0  0  0  0  0  0  0  0  0
    2.7949    3.7037   -0.8931 O   0  0  0  0  0  0  0  0  0  0  0  0
    4.7431    4.0821    0.4350 C   0  0  0  0  0  0  0  0  0  0  0  0
    5.5172    2.9420    0.1071 C   0  0  0  0  0  0  0  0  0  0  0  0
    6.7139    2.8646    0.7903 C   0  0  0  0  0  0  0  0  0  0  0  0
    7.1303    3.8419    1.7506 C   0  0  0  0  0  0  0  0  0  0  0  0
    6.3785    4.9627    2.0715 C   0  0  0  0  0  0  0  0  0  0  0  0
    5.1452    5.0791    1.3644 C   0  0  0  0  0  0  0  0  0  0  0  0
    4.0321    6.0686    1.5336 C   0  0  0  0  0  0  0  0  0  0  0  0
    4.0258    7.1488    2.3638 C   0  0  0  0  0  0  0  0  0  0  0  0
    2.8297    7.8868    2.6863 C   0  0  0  0  0  0  0  0  0  0  0  0
    1.8820    8.4885    2.9611 N   0  0  0  0  0  0  0  0  0  0  0  0
    5.2170    7.6443    2.9986 C   0  0  0  0  0  0  0  0  0  0  0  0
    6.1664    8.0612    3.5139 N   0  0  0  0  0  0  0  0  0  0  0  0
    8.3751    3.0557    2.0357 C   0  0  0  0  0  0  0  0  0  0  0  0
    8.4357    2.2494    3.3698 C   0  0  0  0  0  0  0  0  0  0  0  0
    7.0481    1.8075    3.7747 C   0  0  0  0  0  0  0  0  0  0  0  0
    6.6598    0.9016    2.8787 C   0  0  0  0  0  0  0  0  0  0  0  0
    7.7963    0.7511    1.8930 C   0  0  0  0  0  0  0  0  0  0  0  0
    8.9630    0.9246    2.8491 C   0  0  0  0  0  0  0  0  0  0  0  0
    7.9503    2.0539    1.0518 C   0  0  0  0  0  0  0  0  0  0  0  0
   -2.8959   -7.1840    0.8527 H   0  0  0  0  0  0  0  0  0  0  0  0
   -0.5105   -3.4498    5.2670 H   0  0  0  0  0  0  0  0  0  0  0  0
    1.7257   -7.7592    3.6808 H   0  0  0  0  0  0  0  0  0  0  0  0
    3.9794   -5.3020    4.5598 H   0  0  0  0  0  0  0  0  0  0  0  0
    3.9323   -7.2436    6.5406 H   0  0  0  0  0  0  0  0  0  0  0  0
    5.8315   -5.5596    7.3188 H   0  0  0  0  0  0  0  0  0  0  0  0
    4.6841   -3.3830    8.1945 H   0  0  0  0  0  0  0  0  0  0  0  0
    2.0524   -3.6705    7.9658 H   0  0  0  0  0  0  0  0  0  0  0  0
    1.5959   -6.2511    7.3916 H   0  0  0  0  0  0  0  0  0  0  0  0
    2.8477   -6.1077    8.6886 H   0  0  0  0  0  0  0  0  0  0  0  0
    2.9565   -3.3069    5.3644 H   0  0  0  0  0  0  0  0  0  0  0  0
   -1.5383   -4.0236    1.2996 H   0  0  0  0  0  0  0  0  0  0  0  0
   -2.0588   -2.0526    0.0347 H   0  0  0  0  0  0  0  0  0  0  0  0
   -6.2737   -2.3628   -2.5584 H   0  0  0  0  0  0  0  0  0  0  0  0
   -7.8086   -2.7701   -4.7497 H   0  0  0  0  0  0  0  0  0  0  0  0
  -10.3582   -3.0431   -5.2150 H   0  0  0  0  0  0  0  0  0  0  0  0
   -9.2421   -3.9411   -0.8203 H   0  0  0  0  0  0  0  0  0  0  0  0
   -5.3006   -7.1546    1.7827 H   0  0  0  0  0  0  0  0  0  0  0  0
   -6.9692   -7.1874    1.1703 H   0  0  0  0  0  0  0  0  0  0  0  0
   -6.2791   -8.4030   -0.8773 H   0  0  0  0  0  0  0  0  0  0  0  0
   -4.5517   -8.3310   -0.3644 H   0  0  0  0  0  0  0  0  0  0  0  0
   -5.7457   -9.2891    0.5959 H   0  0  0  0  0  0  0  0  0  0  0  0
    0.3423    0.1045   -5.4872 H   0  0  0  0  0  0  0  0  0  0  0  0
    0.5846   -1.6062   -5.7610 H   0  0  0  0  0  0  0  0  0  0  0  0
    1.8583   -1.7464   -3.5427 H   0  0  0  0  0  0  0  0  0  0  0  0
    2.6102   -0.6019   -4.7246 H   0  0  0  0  0  0  0  0  0  0  0  0
    1.6320    0.0425   -3.3604 H   0  0  0  0  0  0  0  0  0  0  0  0
   -1.2022   -4.2170   -4.9566 H   0  0  0  0  0  0  0  0  0  0  0  0
    0.4210   -3.5039   -4.7599 H   0  0  0  0  0  0  0  0  0  0  0  0
   -1.1904   -4.9440   -2.5738 H   0  0  0  0  0  0  0  0  0  0  0  0
    0.3686   -4.0387   -2.2945 H   0  0  0  0  0  0  0  0  0  0  0  0
    0.3324   -5.4833   -3.3911 H   0  0  0  0  0  0  0  0  0  0  0  0
    0.7987    3.0398   -3.6357 H   0  0  0  0  0  0  0  0  0  0  0  0
    2.2704    2.4572   -5.4891 H   0  0  0  0  0  0  0  0  0  0  0  0
    2.5807    2.5474   -8.0147 H   0  0  0  0  0  0  0  0  0  0  0  0
    1.1607    2.2380   -9.0789 H   0  0  0  0  0  0  0  0  0  0  0  0
    1.7952    0.9194   -8.0161 H   0  0  0  0  0  0  0  0  0  0  0  0
   -1.1032    2.4140   -8.1702 H   0  0  0  0  0  0  0  0  0  0  0  0
   -2.5923    3.0003   -6.3033 H   0  0  0  0  0  0  0  0  0  0  0  0
   -4.1690    3.9246   -2.3420 H   0  0  0  0  0  0  0  0  0  0  0  0
   -5.5537    5.9372   -2.3677 H   0  0  0  0  0  0  0  0  0  0  0  0
   -4.5768    9.0710   -4.0237 H   0  0  0  0  0  0  0  0  0  0  0  0
   -5.7793    8.2893   -2.9358 H   0  0  0  0  0  0  0  0  0  0  0  0
   -5.9668    8.1439   -4.7301 H   0  0  0  0  0  0  0  0  0  0  0  0
   -3.0838    7.6043   -5.4809 H   0  0  0  0  0  0  0  0  0  0  0  0
   -1.6710    5.6088   -5.4403 H   0  0  0  0  0  0  0  0  0  0  0  0
    0.7469    5.0522    4.4287 H   0  0  0  0  0  0  0  0  0  0  0  0
   -0.3499    6.8176    5.7504 H   0  0  0  0  0  0  0  0  0  0  0  0
   -1.9030    8.7371    5.7958 H   0  0  0  0  0  0  0  0  0  0  0  0
   -3.4097    7.7231    5.7606 H   0  0  0  0  0  0  0  0  0  0  0  0
   -3.1066    8.9611    4.4758 H   0  0  0  0  0  0  0  0  0  0  0  0
   -3.3753    7.2206    2.7140 H   0  0  0  0  0  0  0  0  0  0  0  0
   -2.2975    5.4555    1.3965 H   0  0  0  0  0  0  0  0  0  0  0  0
   -1.3229    2.7819    4.0493 H   0  0  0  0  0  0  0  0  0  0  0  0
   -0.6934    0.6244    5.0287 H   0  0  0  0  0  0  0  0  0  0  0  0
    1.6195   -1.7300    3.5292 H   0  0  0  0  0  0  0  0  0  0  0  0
    0.6083   -1.3915    4.9837 H   0  0  0  0  0  0  0  0  0  0  0  0
    2.3289   -0.8521    4.9484 H   0  0  0  0  0  0  0  0  0  0  0  0
    2.6593    0.3637    2.3316 H   0  0  0  0  0  0  0  0  0  0  0  0
    2.0322    2.5160    1.3552 H   0  0  0  0  0  0  0  0  0  0  0  0
    1.4048    7.0583    0.8500 H   0  0  0  0  0  0  0  0  0  0  0  0
    5.1843    2.1768   -0.5856 H   0  0  0  0  0  0  0  0  0  0  0  0
    6.7196    5.6335    2.8408 H   0  0  0  0  0  0  0  0  0  0  0  0
    9.3164    3.5815    1.7590 H   0  0  0  0  0  0  0  0  0  0  0  0
    9.0323    2.7200    4.1746 H   0  0  0  0  0  0  0  0  0  0  0  0
    6.4865    2.1169    4.6527 H   0  0  0  0  0  0  0  0  0  0  0  0
    5.7330    0.3396    2.9042 H   0  0  0  0  0  0  0  0  0  0  0  0
    7.7911   -0.1956    1.3103 H   0  0  0  0  0  0  0  0  0  0  0  0
    9.0179    0.1279    3.6303 H   0  0  0  0  0  0  0  0  0  0  0  0
    9.9529    1.0078    2.3381 H   0  0  0  0  0  0  0  0  0  0  0  0
    8.6328    1.9653    0.1746 H   0  0  0  0  0  0  0  0  0  0  0  0
  1  2  2  3
  2  3  1  0
  3  4  2  0
  3  5  1  0
  5  6  2  0
  6  7  1  0
  7  8  2  0
  8  9  1  0
  9 10  2  0
 10 11  1  0
 11 12  2  3
 12 13  1  0
 13 14  3  0
 12 15  1  0
 15 16  3  0
  8 17  1  0
 17 18  1  0
 18 19  1  0
 19 20  2  0
 20 21  1  0
 21 22  1  0
 21 23  1  0
  1 24  1  0
 24 25  2  0
 25 26  1  0
 26 27  2  0
 27 28  1  0
 28 29  1  0
 29 30  2  3
 30 31  1  0
 31 32  1  0
 32 33  2  0
 33 34  1  0
 34 35  1  0
 29 36  1  0
 36 37  2  0
 36 38  1  0
 38 39  1  0
 39 40  1  0
 38 41  1  0
 27 42  1  0
 42 43  2  0
 43 44  1  0
 43 45  1  0
 45 46  1  0
 45 47  2  0
 47 48  1  0
 48 49  2  0
 49 50  1  0
 50 51  1  0
 51 52  1  0
 50 53  2  0
 53 54  1  0
 54 55  2  0
 53 56  1  0
 56 57  1  0
 47 58  1  0
 58 59  2  0
 59 60  1  0
 60 61  1  0
 61 62  2  0
 62 63  1  0
 63 64  2  0
 64 65  1  0
 64 66  1  0
 66 67  2  0
 60 68  1  0
 68 69  2  0
 69 70  1  0
 70 71  2  0
 71 72  1  0
 71 73  1  0
 73 74  2  0
 59 75  1  0
 75 76  1  0
 76 77  1  0
 77 78  2  0
 78 79  1  0
 79 80  1  0
 80 81  2  0
 81 82  1  0
 82 83  2  0
 83 84  1  0
 83 85  1  0
 85 86  2  0
 79 87  1  0
 87 88  2  0
 88 89  1  0
 89 90  2  0
 90 91  1  0
 90 92  1  0
 92 93  2  0
 78 94  1  0
 94 95  1  0
 77 96  1  0
 96 97  2  3
 97 98  1  0
 98 99  2  0
 98100  1  0
100101  2  0
101102  1  0
102103  2  0
103104  1  0
104105  2  0
105106  1  0
106107  2  3
107108  1  0
108109  3  0
107110  1  0
110111  3  0
103112  1  0
112113  1  0
113114  1  0
114115  2  0
115116  1  0
116117  1  0
116118  1  0
 11  2  1  0
 23 17  1  0
 41 24  1  0
 55 42  1  0
 95 58  1  0
106 97  1  0
118112  1  0
 10  5  1  0
 22 18  1  0
 41 28  2  0
 55 48  1  0
 67 61  1  0
 74 68  1  0
 94 75  2  0
105100  1  0
117113  1  0
 23  7  1  0
 35 31  2  0
 86 80  1  0
 93 87  1  0
118102  1  0
  1119  1  0
  6120  1  0
  9121  1  0
 17122  1  0
 18123  1  0
 19124  1  0
 20125  1  0
 21126  1  0
 22127  1  0
 22128  1  0
 23129  1  0
 25130  1  0
 26131  1  0
 30132  1  0
 32133  1  0
 33134  1  0
 35135  1  0
 39136  1  0
 39137  1  0
 40138  1  0
 40139  1  0
 40140  1  0
 51141  1  0
 51142  1  0
 52143  1  0
 52144  1  0
 52145  1  0
 56146  1  0
 56147  1  0
 57148  1  0
 57149  1  0
 57150  1  0
 62151  1  0
 63152  1  0
 65153  1  0
 65154  1  0
 65155  1  0
 66156  1  0
 67157  1  0
 69158  1  0
 70159  1  0
 72160  1  0
 72161  1  0
 72162  1  0
 73163  1  0
 74164  1  0
 81165  1  0
 82166  1  0
 84167  1  0
 84168  1  0
 84169  1  0
 85170  1  0
 86171  1  0
 88172  1  0
 89173  1  0
 91174  1  0
 91175  1  0
 91176  1  0
 92177  1  0
 93178  1  0
 96179  1  0
101180  1  0
104181  1  0
112182  1  0
113183  1  0
114184  1  0
115185  1  0
116186  1  0
117187  1  0
117188  1  0
118189  1  0
M  END

