
     RDKit          3D

225247  0  0  0  0  0  0  0  0999 V2000
    0.1485   -6.7671   -5.0714 C   0  0  0  0  0  0  0  0  0  0  0  0
   -0.6715   -5.8419   -5.6287 C   0  0  0  0  0  0  0  0  0  0  0  0
   -1.3801   -6.1063   -6.8761 C   0  0  0  0  0  0  0  0  0  0  0  0
   -1.4274   -7.2130   -7.4783 O   0  0  0  0  0  0  0  0  0  0  0  0
   -2.0336   -4.8924   -7.3217 C   0  0  0  0  0  0  0  0  0  0  0  0
   -2.9580   -4.7744   -8.3939 C   0  0  0  0  0  0  0  0  0  0  0  0
   -3.5825   -3.5454   -8.4605 C   0  0  0  0  0  0  0  0  0  0  0  0
   -3.3068   -2.4868   -7.5460 C   0  0  0  0  0  0  0  0  0  0  0  0
   -2.4007   -2.5838   -6.5078 C   0  0  0  0  0  0  0  0  0  0  0  0
   -1.7530   -3.8484   -6.4002 C   0  0  0  0  0  0  0  0  0  0  0  0
   -0.9296   -4.4027   -5.2728 C   0  0  0  0  0  0  0  0  0  0  0  0
   -0.8354   -3.8292   -4.0479 C   0  0  0  0  0  0  0  0  0  0  0  0
   -0.8980   -4.6036   -2.8389 C   0  0  0  0  0  0  0  0  0  0  0  0
   -0.9817   -5.2118   -1.8585 N   0  0  0  0  0  0  0  0  0  0  0  0
   -0.8551   -2.4004   -3.8518 C   0  0  0  0  0  0  0  0  0  0  0  0
   -0.8614   -1.2511   -3.6797 N   0  0  0  0  0  0  0  0  0  0  0  0
   -4.3742   -1.6390   -8.1795 C   0  0  0  0  0  0  0  0  0  0  0  0
   -5.7095   -1.4560   -7.4001 C   0  0  0  0  0  0  0  0  0  0  0  0
   -5.9702   -2.6675   -6.5351 C   0  0  0  0  0  0  0  0  0  0  0  0
   -6.2337   -3.6706   -7.3709 C   0  0  0  0  0  0  0  0  0  0  0  0
   -6.1422   -3.1101   -8.7738 C   0  0  0  0  0  0  0  0  0  0  0  0
   -6.7062   -1.7310   -8.5106 C   0  0  0  0  0  0  0  0  0  0  0  0
   -4.6657   -2.7353   -9.1083 C   0  0  0  0  0  0  0  0  0  0  0  0
    1.1078   -6.5170   -3.9900 C   0  0  0  0  0  0  0  0  0  0  0  0
    2.0203   -5.4651   -3.9294 C   0  0  0  0  0  0  0  0  0  0  0  0
    2.6576   -5.3757   -2.6867 C   0  0  0  0  0  0  0  0  0  0  0  0
    3.5316   -4.3518   -2.2646 C   0  0  0  0  0  0  0  0  0  0  0  0
    3.9523   -3.2437   -3.1593 C   0  0  0  0  0  0  0  0  0  0  0  0
    3.0044   -2.4017   -3.7714 C   0  0  0  0  0  0  0  0  0  0  0  0
    3.4171   -1.3758   -4.6253 C   0  0  0  0  0  0  0  0  0  0  0  0
    4.7795   -1.1729   -4.8721 C   0  0  0  0  0  0  0  0  0  0  0  0
    5.7304   -1.9887   -4.2557 C   0  0  0  0  0  0  0  0  0  0  0  0
    7.4804   -1.7294   -4.5655 S   0  0  0  0  0  0  0  0  0  0  0  0
    7.5901   -2.9607   -5.9133 C   0  0  0  0  0  0  0  0  0  0  0  0
    7.1571   -2.3555   -7.2434 C   0  0  0  0  0  0  0  0  0  0  0  0
    5.3200   -3.0191   -3.3959 C   0  0  0  0  0  0  0  0  0  0  0  0
    3.8811   -4.3436   -0.9011 C   0  0  0  0  0  0  0  0  0  0  0  0
    3.3908   -5.2795    0.0136 C   0  0  0  0  0  0  0  0  0  0  0  0
    2.6404   -6.3808   -0.4345 C   0  0  0  0  0  0  0  0  0  0  0  0
    2.1853   -7.4285    0.4933 C   0  0  0  0  0  0  0  0  0  0  0  0
    0.8735   -7.4378    0.9850 C   0  0  0  0  0  0  0  0  0  0  0  0
    0.4699   -8.4260    1.8877 C   0  0  0  0  0  0  0  0  0  0  0  0
    1.3750   -9.4193    2.2935 C   0  0  0  0  0  0  0  0  0  0  0  0
    2.6913   -9.4014    1.8201 C   0  0  0  0  0  0  0  0  0  0  0  0
    3.8535  -10.6749    2.3204 S   0  0  0  0  0  0  0  0  0  0  0  0
    4.2880   -9.9064    3.9201 C   0  0  0  0  0  0  0  0  0  0  0  0
    5.1982   -8.6962    3.7337 C   0  0  0  0  0  0  0  0  0  0  0  0
    3.0917   -8.4115    0.9232 C   0  0  0  0  0  0  0  0  0  0  0  0
    2.2718   -6.3885   -1.7943 C   0  0  0  0  0  0  0  0  0  0  0  0
    1.1706   -7.4047   -2.5560 S   0  0  0  0  0  0  0  0  0  0  0  0
    3.5336   -4.8770    1.3554 C   0  0  0  0  0  0  0  0  0  0  0  0
    4.0910   -3.5998    1.5041 C   0  0  0  0  0  0  0  0  0  0  0  0
    4.4973   -3.0532   -0.0425 S   0  0  0  0  0  0  0  0  0  0  0  0
    3.6174   -2.6308    2.5117 C   0  0  0  0  0  0  0  0  0  0  0  0
    4.0730   -1.2980    2.4605 C   0  0  0  0  0  0  0  0  0  0  0  0
    5.3521   -0.9301    3.0021 N   0  0  0  0  0  0  0  0  0  0  0  0
    6.3067   -0.1209    2.2674 C   0  0  0  0  0  0  0  0  0  0  0  0
    7.3005    0.6226    2.9455 C   0  0  0  0  0  0  0  0  0  0  0  0
    8.2075    1.4165    2.2368 C   0  0  0  0  0  0  0  0  0  0  0  0
    8.1545    1.4656    0.8390 C   0  0  0  0  0  0  0  0  0  0  0  0
    9.3021    2.5026   -0.0824 S   0  0  0  0  0  0  0  0  0  0  0  0
   10.6697    1.2986   -0.0826 C   0  0  0  0  0  0  0  0  0  0  0  0
    7.1747    0.7410    0.1567 C   0  0  0  0  0  0  0  0  0  0  0  0
    6.2524   -0.0313    0.8620 C   0  0  0  0  0  0  0  0  0  0  0  0
    5.5591   -1.2682    4.3906 C   0  0  0  0  0  0  0  0  0  0  0  0
    6.5283   -2.2142    4.7577 C   0  0  0  0  0  0  0  0  0  0  0  0
    6.6078   -2.6649    6.0810 C   0  0  0  0  0  0  0  0  0  0  0  0
    5.7237   -2.1637    7.0427 C   0  0  0  0  0  0  0  0  0  0  0  0
    5.7791   -2.7932    8.7302 S   0  0  0  0  0  0  0  0  0  0  0  0
    6.9288   -1.5073    9.3136 C   0  0  0  0  0  0  0  0  0  0  0  0
    4.7716   -1.2020    6.6892 C   0  0  0  0  0  0  0  0  0  0  0  0
    4.6979   -0.7493    5.3726 C   0  0  0  0  0  0  0  0  0  0  0  0
    3.0078   -0.4055    2.5175 C   0  0  0  0  0  0  0  0  0  0  0  0
    2.8633    1.2457    2.2648 S   0  0  0  0  0  0  0  0  0  0  0  0
    1.1693    1.2518    2.4646 C   0  0  0  0  0  0  0  0  0  0  0  0
    0.7225   -0.0542    2.7419 C   0  0  0  0  0  0  0  0  0  0  0  0
   -0.6181   -0.3966    3.1286 N   0  0  0  0  0  0  0  0  0  0  0  0
   -1.1016   -0.0889    4.4672 C   0  0  0  0  0  0  0  0  0  0  0  0
   -2.3621   -0.5447    4.9074 C   0  0  0  0  0  0  0  0  0  0  0  0
   -2.7982   -0.2955    6.2171 C   0  0  0  0  0  0  0  0  0  0  0  0
   -1.9943    0.4349    7.0987 C   0  0  0  0  0  0  0  0  0  0  0  0
   -2.5149    0.6914    8.8042 S   0  0  0  0  0  0  0  0  0  0  0  0
   -3.3674    2.2610    8.4668 C   0  0  0  0  0  0  0  0  0  0  0  0
   -0.7615    0.9328    6.6689 C   0  0  0  0  0  0  0  0  0  0  0  0
   -0.3141    0.6723    5.3677 C   0  0  0  0  0  0  0  0  0  0  0  0
   -1.4150   -1.1637    2.2084 C   0  0  0  0  0  0  0  0  0  0  0  0
   -2.1786   -0.5118    1.2318 C   0  0  0  0  0  0  0  0  0  0  0  0
   -2.9840   -1.2531    0.3539 C   0  0  0  0  0  0  0  0  0  0  0  0
   -3.0381   -2.6453    0.4666 C   0  0  0  0  0  0  0  0  0  0  0  0
   -4.1032   -3.5884   -0.6315 S   0  0  0  0  0  0  0  0  0  0  0  0
   -5.5133   -3.5903    0.5281 C   0  0  0  0  0  0  0  0  0  0  0  0
   -2.2695   -3.3045    1.4386 C   0  0  0  0  0  0  0  0  0  0  0  0
   -1.4721   -2.5645    2.3214 C   0  0  0  0  0  0  0  0  0  0  0  0
    1.7885   -0.9479    2.7442 C   0  0  0  0  0  0  0  0  0  0  0  0
    1.9401   -2.5940    2.8457 S   0  0  0  0  0  0  0  0  0  0  0  0
    0.3177    2.2743    1.8788 C   0  0  0  0  0  0  0  0  0  0  0  0
   -0.1870    3.3980    2.5251 C   0  0  0  0  0  0  0  0  0  0  0  0
   -0.9435    4.2031    1.6555 C   0  0  0  0  0  0  0  0  0  0  0  0
   -1.5703    5.4202    1.9854 C   0  0  0  0  0  0  0  0  0  0  0  0
   -1.3082    6.0823    3.2807 C   0  0  0  0  0  0  0  0  0  0  0  0
   -0.2123    6.9510    3.3959 C   0  0  0  0  0  0  0  0  0  0  0  0
    0.1184    7.4991    4.6365 C   0  0  0  0  0  0  0  0  0  0  0  0
   -0.6566    7.2005    5.7634 C   0  0  0  0  0  0  0  0  0  0  0  0
   -1.7730    6.3573    5.6458 C   0  0  0  0  0  0  0  0  0  0  0  0
   -2.7361    5.9324    7.1031 S   0  0  0  0  0  0  0  0  0  0  0  0
   -3.9465    7.2935    6.9200 C   0  0  0  0  0  0  0  0  0  0  0  0
   -3.4192    8.5791    7.5533 C   0  0  0  0  0  0  0  0  0  0  0  0
   -2.0885    5.7870    4.4059 C   0  0  0  0  0  0  0  0  0  0  0  0
   -2.2952    6.0572    0.9680 C   0  0  0  0  0  0  0  0  0  0  0  0
   -2.3620    5.5548   -0.3397 C   0  0  0  0  0  0  0  0  0  0  0  0
   -1.7123    4.3517   -0.6759 C   0  0  0  0  0  0  0  0  0  0  0  0
   -1.7380    3.7958   -2.0428 C   0  0  0  0  0  0  0  0  0  0  0  0
   -2.8471    3.0731   -2.4975 C   0  0  0  0  0  0  0  0  0  0  0  0
   -2.8393    2.5078   -3.7793 C   0  0  0  0  0  0  0  0  0  0  0  0
   -1.7263    2.6728   -4.6113 C   0  0  0  0  0  0  0  0  0  0  0  0
   -0.6255    3.4169   -4.1699 C   0  0  0  0  0  0  0  0  0  0  0  0
    0.7804    3.6740   -5.2587 S   0  0  0  0  0  0  0  0  0  0  0  0
    1.7565    2.3246   -4.5107 C   0  0  0  0  0  0  0  0  0  0  0  0
    3.1528    2.3072   -5.1124 C   0  0  0  0  0  0  0  0  0  0  0  0
   -0.6341    3.9863   -2.8892 C   0  0  0  0  0  0  0  0  0  0  0  0
   -1.0159    3.7020    0.3484 C   0  0  0  0  0  0  0  0  0  0  0  0
   -0.1307    2.2835    0.2519 S   0  0  0  0  0  0  0  0  0  0  0  0
   -3.0754    6.3756   -1.2219 C   0  0  0  0  0  0  0  0  0  0  0  0
   -3.6395    7.4814   -0.5886 C   0  0  0  0  0  0  0  0  0  0  0  0
   -3.1550    7.5005    1.0361 S   0  0  0  0  0  0  0  0  0  0  0  0
   -4.3931    8.5731   -1.2339 C   0  0  0  0  0  0  0  0  0  0  0  0
   -5.2259    8.4347   -2.2827 C   0  0  0  0  0  0  0  0  0  0  0  0
   -5.8291    7.1870   -2.7807 C   0  0  0  0  0  0  0  0  0  0  0  0
   -5.6229    6.0274   -2.3369 O   0  0  0  0  0  0  0  0  0  0  0  0
   -6.8749    7.5255   -3.7318 C   0  0  0  0  0  0  0  0  0  0  0  0
   -7.7504    6.6752   -4.4232 C   0  0  0  0  0  0  0  0  0  0  0  0
   -7.5096    4.9279   -4.4100 Cl  0  0  0  0  0  0  0  0  0  0  0  0
   -8.8260    7.2528   -5.1348 C   0  0  0  0  0  0  0  0  0  0  0  0
   -9.9297    6.2187   -6.0392 Cl  0  0  0  0  0  0  0  0  0  0  0  0
   -9.0581    8.6470   -5.0557 C   0  0  0  0  0  0  0  0  0  0  0  0
  -10.4858    9.3419   -5.8285 Cl  0  0  0  0  0  0  0  0  0  0  0  0
   -8.1723    9.4826   -4.3332 C   0  0  0  0  0  0  0  0  0  0  0  0
   -8.6466   11.1403   -3.9491 Cl  0  0  0  0  0  0  0  0  0  0  0  0
   -7.0132    8.9072   -3.7793 C   0  0  0  0  0  0  0  0  0  0  0  0
   -5.8874    9.5361   -3.0299 C   0  0  0  0  0  0  0  0  0  0  0  0
   -5.2870   10.7126   -3.3748 C   0  0  0  0  0  0  0  0  0  0  0  0
   -5.6747   11.4553   -4.5420 C   0  0  0  0  0  0  0  0  0  0  0  0
   -5.9703   12.0478   -5.4912 N   0  0  0  0  0  0  0  0  0  0  0  0
   -4.0610   11.1589   -2.7606 C   0  0  0  0  0  0  0  0  0  0  0  0
   -3.0757   11.5304   -2.2796 N   0  0  0  0  0  0  0  0  0  0  0  0
    0.1423   -7.7777   -5.4688 H   0  0  0  0  0  0  0  0  0  0  0  0
   -3.2156   -5.5872   -9.0562 H   0  0  0  0  0  0  0  0  0  0  0  0
   -2.2974   -1.7708   -5.8142 H   0  0  0  0  0  0  0  0  0  0  0  0
   -3.9959   -0.7163   -8.6764 H   0  0  0  0  0  0  0  0  0  0  0  0
   -5.8204   -0.4854   -6.8751 H   0  0  0  0  0  0  0  0  0  0  0  0
   -6.0263   -2.7089   -5.4499 H   0  0  0  0  0  0  0  0  0  0  0  0
   -6.5234   -4.6769   -7.0848 H   0  0  0  0  0  0  0  0  0  0  0  0
   -6.6678   -3.7030   -9.5522 H   0  0  0  0  0  0  0  0  0  0  0  0
   -7.7661   -1.7338   -8.1578 H   0  0  0  0  0  0  0  0  0  0  0  0
   -6.6118   -1.0355   -9.3753 H   0  0  0  0  0  0  0  0  0  0  0  0
   -4.4729   -2.4745  -10.1769 H   0  0  0  0  0  0  0  0  0  0  0  0
    2.1631   -4.7675   -4.7477 H   0  0  0  0  0  0  0  0  0  0  0  0
    1.9426   -2.5339   -3.5755 H   0  0  0  0  0  0  0  0  0  0  0  0
    2.6829   -0.7453   -5.1106 H   0  0  0  0  0  0  0  0  0  0  0  0
    5.0906   -0.3789   -5.5339 H   0  0  0  0  0  0  0  0  0  0  0  0
    8.6468   -3.2909   -5.9971 H   0  0  0  0  0  0  0  0  0  0  0  0
    6.9770   -3.8576   -5.6880 H   0  0  0  0  0  0  0  0  0  0  0  0
    7.2883   -3.1018   -8.0569 H   0  0  0  0  0  0  0  0  0  0  0  0
    6.0866   -2.0640   -7.2105 H   0  0  0  0  0  0  0  0  0  0  0  0
    7.7730   -1.4599   -7.4725 H   0  0  0  0  0  0  0  0  0  0  0  0
    6.0609   -3.6452   -2.9114 H   0  0  0  0  0  0  0  0  0  0  0  0
    0.1685   -6.6679    0.6766 H   0  0  0  0  0  0  0  0  0  0  0  0
   -0.5419   -8.4247    2.2736 H   0  0  0  0  0  0  0  0  0  0  0  0
    1.0490  -10.1822    2.9907 H   0  0  0  0  0  0  0  0  0  0  0  0
    4.8222  -10.6669    4.5265 H   0  0  0  0  0  0  0  0  0  0  0  0
    3.3710   -9.6086    4.4778 H   0  0  0  0  0  0  0  0  0  0  0  0
    6.0693   -8.9613    3.0915 H   0  0  0  0  0  0  0  0  0  0  0  0
    5.5706   -8.3635    4.7297 H   0  0  0  0  0  0  0  0  0  0  0  0
    4.6367   -7.8582    3.2675 H   0  0  0  0  0  0  0  0  0  0  0  0
    4.1077   -8.3989    0.5519 H   0  0  0  0  0  0  0  0  0  0  0  0
    3.0529   -5.4048    2.1773 H   0  0  0  0  0  0  0  0  0  0  0  0
    7.3706    0.5987    4.0292 H   0  0  0  0  0  0  0  0  0  0  0  0
    8.9651    1.9836    2.7689 H   0  0  0  0  0  0  0  0  0  0  0  0
   11.3050    1.4782   -0.9738 H   0  0  0  0  0  0  0  0  0  0  0  0
   11.2826    1.4627    0.8279 H   0  0  0  0  0  0  0  0  0  0  0  0
   10.3061    0.2527   -0.1071 H   0  0  0  0  0  0  0  0  0  0  0  0
    7.1057    0.7904   -0.9241 H   0  0  0  0  0  0  0  0  0  0  0  0
    5.4978   -0.5602    0.3082 H   0  0  0  0  0  0  0  0  0  0  0  0
    7.1875   -2.6305    4.0069 H   0  0  0  0  0  0  0  0  0  0  0  0
    7.3393   -3.4196    6.3462 H   0  0  0  0  0  0  0  0  0  0  0  0
    7.8884   -1.5646    8.7550 H   0  0  0  0  0  0  0  0  0  0  0  0
    6.4793   -0.5037    9.1804 H   0  0  0  0  0  0  0  0  0  0  0  0
    7.1354   -1.6670   10.3892 H   0  0  0  0  0  0  0  0  0  0  0  0
    4.0885   -0.8110    7.4341 H   0  0  0  0  0  0  0  0  0  0  0  0
    3.9447   -0.0097    5.1093 H   0  0  0  0  0  0  0  0  0  0  0  0
   -3.0054   -1.1124    4.2549 H   0  0  0  0  0  0  0  0  0  0  0  0
   -3.7541   -0.6804    6.5494 H   0  0  0  0  0  0  0  0  0  0  0  0
   -3.6811    2.7122    9.4292 H   0  0  0  0  0  0  0  0  0  0  0  0
   -2.6761    2.9570    7.9512 H   0  0  0  0  0  0  0  0  0  0  0  0
   -4.2640    2.0867    7.8344 H   0  0  0  0  0  0  0  0  0  0  0  0
   -0.1408    1.5071    7.3440 H   0  0  0  0  0  0  0  0  0  0  0  0
    0.6546    1.0581    5.0855 H   0  0  0  0  0  0  0  0  0  0  0  0
   -2.1706    0.5605    1.1592 H   0  0  0  0  0  0  0  0  0  0  0  0
   -3.5442   -0.7423   -0.4135 H   0  0  0  0  0  0  0  0  0  0  0  0
   -6.4011   -4.0373    0.0289 H   0  0  0  0  0  0  0  0  0  0  0  0
   -5.2592   -4.1893    1.4285 H   0  0  0  0  0  0  0  0  0  0  0  0
   -5.7649   -2.5532    0.8336 H   0  0  0  0  0  0  0  0  0  0  0  0
   -2.3421   -4.3752    1.5447 H   0  0  0  0  0  0  0  0  0  0  0  0
   -0.9173   -3.0808    3.0870 H   0  0  0  0  0  0  0  0  0  0  0  0
   -0.0119    3.6167    3.5743 H   0  0  0  0  0  0  0  0  0  0  0  0
    0.4052    7.1723    2.5331 H   0  0  0  0  0  0  0  0  0  0  0  0
    0.9782    8.1499    4.7311 H   0  0  0  0  0  0  0  0  0  0  0  0
   -0.3807    7.6138    6.7249 H   0  0  0  0  0  0  0  0  0  0  0  0
   -4.8745    6.9933    7.4456 H   0  0  0  0  0  0  0  0  0  0  0  0
   -4.1964    7.4702    5.8503 H   0  0  0  0  0  0  0  0  0  0  0  0
   -4.2127    9.3536    7.5477 H   0  0  0  0  0  0  0  0  0  0  0  0
   -2.5471    8.9689    6.9817 H   0  0  0  0  0  0  0  0  0  0  0  0
   -3.1080    8.3933    8.6047 H   0  0  0  0  0  0  0  0  0  0  0  0
   -2.9238    5.1046    4.3237 H   0  0  0  0  0  0  0  0  0  0  0  0
   -3.7086    2.9254   -1.8550 H   0  0  0  0  0  0  0  0  0  0  0  0
   -3.6934    1.9410   -4.1268 H   0  0  0  0  0  0  0  0  0  0  0  0
   -1.7284    2.2382   -5.6022 H   0  0  0  0  0  0  0  0  0  0  0  0
    1.2528    1.3492   -4.6992 H   0  0  0  0  0  0  0  0  0  0  0  0
    1.8379    2.4871   -3.4147 H   0  0  0  0  0  0  0  0  0  0  0  0
    3.7771    1.5705   -4.5707 H   0  0  0  0  0  0  0  0  0  0  0  0
    3.1033    2.0216   -6.1861 H   0  0  0  0  0  0  0  0  0  0  0  0
    3.6219    3.3101   -5.0172 H   0  0  0  0  0  0  0  0  0  0  0  0
    0.2217    4.5578   -2.5512 H   0  0  0  0  0  0  0  0  0  0  0  0
   -3.1474    6.1937   -2.2855 H   0  0  0  0  0  0  0  0  0  0  0  0
   -4.2645    9.5490   -0.7916 H   0  0  0  0  0  0  0  0  0  0  0  0
  1  2  2  3
  2  3  1  0
  3  4  2  0
  3  5  1  0
  5  6  2  0
  6  7  1  0
  7  8  2  0
  8  9  1  0
  9 10  2  0
 10 11  1  0
 11 12  2  3
 12 13  1  0
 13 14  3  0
 12 15  1  0
 15 16  3  0
  8 17  1  0
 17 18  1  0
 18 19  1  0
 19 20  2  0
 20 21  1  0
 21 22  1  0
 21 23  1  0
  1 24  1  0
 24 25  2  0
 25 26  1  0
 26 27  2  0
 27 28  1  0
 28 29  2  0
 29 30  1  0
 30 31  2  0
 31 32  1  0
 32 33  1  0
 33 34  1  0
 34 35  1  0
 32 36  2  0
 27 37  1  0
 37 38  2  0
 38 39  1  0
 39 40  1  0
 40 41  2  0
 41 42  1  0
 42 43  2  0
 43 44  1  0
 44 45  1  0
 45 46  1  0
 46 47  1  0
 44 48  2  0
 39 49  2  0
 49 50  1  0
 38 51  1  0
 51 52  2  0
 52 53  1  0
 52 54  1  0
 54 55  2  0
 55 56  1  0
 56 57  1  0
 57 58  2  0
 58 59  1  0
 59 60  2  0
 60 61  1  0
 61 62  1  0
 60 63  1  0
 63 64  2  0
 56 65  1  0
 65 66  2  0
 66 67  1  0
 67 68  2  0
 68 69  1  0
 69 70  1  0
 68 71  1  0
 71 72  2  0
 55 73  1  0
 73 74  1  0
 74 75  1  0
 75 76  2  0
 76 77  1  0
 77 78  1  0
 78 79  2  0
 79 80  1  0
 80 81  2  0
 81 82  1  0
 82 83  1  0
 81 84  1  0
 84 85  2  0
 77 86  1  0
 86 87  2  0
 87 88  1  0
 88 89  2  0
 89 90  1  0
 90 91  1  0
 89 92  1  0
 92 93  2  0
 76 94  1  0
 94 95  1  0
 75 96  1  0
 96 97  2  0
 97 98  1  0
 98 99  2  0
 99100  1  0
100101  2  0
101102  1  0
102103  2  0
103104  1  0
104105  1  0
105106  1  0
106107  1  0
104108  2  0
 99109  1  0
109110  2  0
110111  1  0
111112  1  0
112113  2  0
113114  1  0
114115  2  0
115116  1  0
116117  1  0
117118  1  0
118119  1  0
116120  2  0
111121  2  0
121122  1  0
110123  1  0
123124  2  0
124125  1  0
124126  1  0
126127  2  3
127128  1  0
128129  2  0
128130  1  0
130131  2  0
131132  1  0
131133  1  0
133134  1  0
133135  2  0
135136  1  0
135137  1  0
137138  1  0
137139  2  0
139140  1  0
140141  2  3
141142  1  0
142143  3  0
141144  1  0
144145  3  0
 11  2  1  0
 23 17  1  0
 50 24  1  0
 95 54  1  0
122 96  1  0
140127  1  0
 10  5  1  0
 22 18  1  0
 49 26  1  0
 64 57  1  0
 72 65  1  0
 94 73  2  0
121 98  1  0
139130  1  0
 23  7  1  0
 36 28  1  0
 53 37  1  0
 85 78  1  0
 93 86  1  0
108100  1  0
125109  1  0
 48 40  1  0
120112  1  0
  1146  1  0
  6147  1  0
  9148  1  0
 17149  1  0
 18150  1  0
 19151  1  0
 20152  1  0
 21153  1  0
 22154  1  0
 22155  1  0
 23156  1  0
 25157  1  0
 29158  1  0
 30159  1  0
 31160  1  0
 34161  1  0
 34162  1  0
 35163  1  0
 35164  1  0
 35165  1  0
 36166  1  0
 41167  1  0
 42168  1  0
 43169  1  0
 46170  1  0
 46171  1  0
 47172  1  0
 47173  1  0
 47174  1  0
 48175  1  0
 51176  1  0
 58177  1  0
 59178  1  0
 62179  1  0
 62180  1  0
 62181  1  0
 63182  1  0
 64183  1  0
 66184  1  0
 67185  1  0
 70186  1  0
 70187  1  0
 70188  1  0
 71189  1  0
 72190  1  0
 79191  1  0
 80192  1  0
 83193  1  0
 83194  1  0
 83195  1  0
 84196  1  0
 85197  1  0
 87198  1  0
 88199  1  0
 91200  1  0
 91201  1  0
 91202  1  0
 92203  1  0
 93204  1  0
 97205  1  0
101206  1  0
102207  1  0
103208  1  0
106209  1  0
106210  1  0
107211  1  0
107212  1  0
107213  1  0
108214  1  0
113215  1  0
114216  1  0
115217  1  0
118218  1  0
118219  1  0
119220  1  0
119221  1  0
119222  1  0
120223  1  0
123224  1  0
126225  1  0
M  END

