
     RDKit          3D

193210  0  0  0  0  0  0  0  0999 V2000
   -3.9123   -5.3897   -3.3781 C   0  0  0  0  0  0  0  0  0  0  0  0
   -3.3951   -5.8419   -4.5328 C   0  0  0  0  0  0  0  0  0  0  0  0
   -4.2581   -6.1797   -5.6632 C   0  0  0  0  0  0  0  0  0  0  0  0
   -5.4480   -6.5863   -5.5896 O   0  0  0  0  0  0  0  0  0  0  0  0
   -3.5756   -5.8061   -6.8847 C   0  0  0  0  0  0  0  0  0  0  0  0
   -4.1505   -5.6453   -8.1640 C   0  0  0  0  0  0  0  0  0  0  0  0
   -3.3168   -5.0367   -9.0843 C   0  0  0  0  0  0  0  0  0  0  0  0
   -1.9835   -4.6134   -8.7709 C   0  0  0  0  0  0  0  0  0  0  0  0
   -1.4127   -4.7541   -7.5177 C   0  0  0  0  0  0  0  0  0  0  0  0
   -2.2588   -5.3807   -6.5610 C   0  0  0  0  0  0  0  0  0  0  0  0
   -2.0549   -5.5369   -5.0990 C   0  0  0  0  0  0  0  0  0  0  0  0
   -0.8750   -5.6453   -4.4485 C   0  0  0  0  0  0  0  0  0  0  0  0
    0.3882   -5.4359   -5.0996 C   0  0  0  0  0  0  0  0  0  0  0  0
    1.4152   -5.2610   -5.6063 N   0  0  0  0  0  0  0  0  0  0  0  0
   -0.8079   -6.1692   -3.1108 C   0  0  0  0  0  0  0  0  0  0  0  0
   -0.7374   -6.6077   -2.0420 N   0  0  0  0  0  0  0  0  0  0  0  0
   -1.8205   -4.0483  -10.1499 C   0  0  0  0  0  0  0  0  0  0  0  0
   -1.8693   -2.4965  -10.2725 C   0  0  0  0  0  0  0  0  0  0  0  0
   -2.0924   -2.2003  -11.7354 C   0  0  0  0  0  0  0  0  0  0  0  0
   -3.3460   -2.5716  -12.0097 C   0  0  0  0  0  0  0  0  0  0  0  0
   -3.9255   -3.1134  -10.7245 C   0  0  0  0  0  0  0  0  0  0  0  0
   -3.2559   -2.1577   -9.7518 C   0  0  0  0  0  0  0  0  0  0  0  0
   -3.1930   -4.4641  -10.4646 C   0  0  0  0  0  0  0  0  0  0  0  0
   -3.2813   -4.3442   -2.5314 C   0  0  0  0  0  0  0  0  0  0  0  0
   -2.9452   -3.0929   -3.1031 C   0  0  0  0  0  0  0  0  0  0  0  0
   -3.4016   -2.6774   -4.8101 S   0  0  0  0  0  0  0  0  0  0  0  0
   -4.9328   -1.7727   -4.3853 C   0  0  0  0  0  0  0  0  0  0  0  0
   -6.0588   -2.7242   -4.0032 C   0  0  0  0  0  0  0  0  0  0  0  0
   -2.3096   -2.1153   -2.3255 C   0  0  0  0  0  0  0  0  0  0  0  0
   -1.6531   -0.6298   -3.1389 S   0  0  0  0  0  0  0  0  0  0  0  0
   -0.0365   -1.3609   -3.5518 C   0  0  0  0  0  0  0  0  0  0  0  0
    0.9930   -0.2519   -3.7248 C   0  0  0  0  0  0  0  0  0  0  0  0
   -2.2442   -2.2585   -0.9217 C   0  0  0  0  0  0  0  0  0  0  0  0
   -2.7788   -3.4212   -0.3116 C   0  0  0  0  0  0  0  0  0  0  0  0
   -3.1770   -4.5213   -1.1244 C   0  0  0  0  0  0  0  0  0  0  0  0
   -3.4849   -5.8363   -0.4618 C   0  0  0  0  0  0  0  0  0  0  0  0
   -3.6880   -6.8852   -1.1317 O   0  0  0  0  0  0  0  0  0  0  0  0
   -3.4984   -5.9262    1.0021 C   0  0  0  0  0  0  0  0  0  0  0  0
   -3.3067   -4.7925    1.7861 C   0  0  0  0  0  0  0  0  0  0  0  0
   -3.0127   -3.4945    1.1680 C   0  0  0  0  0  0  0  0  0  0  0  0
   -3.0349   -2.4573    1.8809 O   0  0  0  0  0  0  0  0  0  0  0  0
   -3.3565   -5.0300    3.1553 C   0  0  0  0  0  0  0  0  0  0  0  0
   -3.5959   -6.6792    3.3661 S   0  0  0  0  0  0  0  0  0  0  0  0
   -3.6699   -7.0924    1.7367 C   0  0  0  0  0  0  0  0  0  0  0  0
   -1.6990   -1.1473   -0.1064 C   0  0  0  0  0  0  0  0  0  0  0  0
   -0.6072   -1.1956    0.7837 C   0  0  0  0  0  0  0  0  0  0  0  0
    0.2440   -2.3449    0.9646 N   0  0  0  0  0  0  0  0  0  0  0  0
    1.2307   -2.6393   -0.0372 C   0  0  0  0  0  0  0  0  0  0  0  0
    2.3651   -1.8229   -0.1644 C   0  0  0  0  0  0  0  0  0  0  0  0
    3.3837   -2.1594   -1.0631 C   0  0  0  0  0  0  0  0  0  0  0  0
    3.2804   -3.3227   -1.8293 C   0  0  0  0  0  0  0  0  0  0  0  0
    4.6221   -3.8080   -2.9182 S   0  0  0  0  0  0  0  0  0  0  0  0
    3.9116   -2.9860   -4.3745 C   0  0  0  0  0  0  0  0  0  0  0  0
    2.1353   -4.1191   -1.7387 C   0  0  0  0  0  0  0  0  0  0  0  0
    1.1113   -3.7730   -0.8534 C   0  0  0  0  0  0  0  0  0  0  0  0
    0.2199   -3.1236    2.1821 C   0  0  0  0  0  0  0  0  0  0  0  0
   -0.0141   -4.5120    2.1450 C   0  0  0  0  0  0  0  0  0  0  0  0
    0.0356   -5.2761    3.3166 C   0  0  0  0  0  0  0  0  0  0  0  0
    0.3202   -4.6670    4.5447 C   0  0  0  0  0  0  0  0  0  0  0  0
    0.3938   -5.6433    6.0482 S   0  0  0  0  0  0  0  0  0  0  0  0
   -1.3520   -5.3385    6.4678 C   0  0  0  0  0  0  0  0  0  0  0  0
    0.5537   -3.2905    4.5913 C   0  0  0  0  0  0  0  0  0  0  0  0
    0.4996   -2.5258    3.4246 C   0  0  0  0  0  0  0  0  0  0  0  0
   -0.3434    0.0797    1.3029 C   0  0  0  0  0  0  0  0  0  0  0  0
    0.9241    0.7680    2.1636 S   0  0  0  0  0  0  0  0  0  0  0  0
    0.3783    2.3632    1.9675 C   0  0  0  0  0  0  0  0  0  0  0  0
   -0.7977    2.3759    1.1940 C   0  0  0  0  0  0  0  0  0  0  0  0
   -1.2581    3.5300    0.4645 N   0  0  0  0  0  0  0  0  0  0  0  0
   -0.3390    4.1439   -0.4509 C   0  0  0  0  0  0  0  0  0  0  0  0
    0.2754    3.3792   -1.4570 C   0  0  0  0  0  0  0  0  0  0  0  0
    1.1782    3.9711   -2.3408 C   0  0  0  0  0  0  0  0  0  0  0  0
    1.4635    5.3374   -2.2378 C   0  0  0  0  0  0  0  0  0  0  0  0
    2.6337    6.0929   -3.3609 S   0  0  0  0  0  0  0  0  0  0  0  0
    4.0515    5.8594   -2.2396 C   0  0  0  0  0  0  0  0  0  0  0  0
    0.8321    6.1106   -1.2539 C   0  0  0  0  0  0  0  0  0  0  0  0
   -0.0717    5.5155   -0.3644 C   0  0  0  0  0  0  0  0  0  0  0  0
   -2.6641    3.7310    0.2407 C   0  0  0  0  0  0  0  0  0  0  0  0
   -3.2211    3.4930   -1.0286 C   0  0  0  0  0  0  0  0  0  0  0  0
   -4.5904    3.6741   -1.2448 C   0  0  0  0  0  0  0  0  0  0  0  0
   -5.4097    4.1293   -0.2064 C   0  0  0  0  0  0  0  0  0  0  0  0
   -7.1657    4.3731   -0.4877 S   0  0  0  0  0  0  0  0  0  0  0  0
   -6.9604    6.0650   -1.1242 C   0  0  0  0  0  0  0  0  0  0  0  0
   -4.8587    4.3905    1.0517 C   0  0  0  0  0  0  0  0  0  0  0  0
   -3.4919    4.1899    1.2732 C   0  0  0  0  0  0  0  0  0  0  0  0
   -1.1736    1.0714    0.8720 C   0  0  0  0  0  0  0  0  0  0  0  0
   -2.3082    0.4416   -0.1703 S   0  0  0  0  0  0  0  0  0  0  0  0
    0.9922    3.5108    2.6671 C   0  0  0  0  0  0  0  0  0  0  0  0
    0.2827    4.0889    3.7413 C   0  0  0  0  0  0  0  0  0  0  0  0
   -1.3646    3.4921    4.1945 S   0  0  0  0  0  0  0  0  0  0  0  0
   -0.7649    2.0745    5.1776 C   0  0  0  0  0  0  0  0  0  0  0  0
   -1.5626    1.9605    6.4666 C   0  0  0  0  0  0  0  0  0  0  0  0
    0.8993    5.0441    4.5597 C   0  0  0  0  0  0  0  0  0  0  0  0
   -0.0551    5.8623    5.8737 S   0  0  0  0  0  0  0  0  0  0  0  0
   -0.7210    7.1767    4.7940 C   0  0  0  0  0  0  0  0  0  0  0  0
    0.3217    8.2513    4.5133 C   0  0  0  0  0  0  0  0  0  0  0  0
    2.2784    5.3093    4.4205 C   0  0  0  0  0  0  0  0  0  0  0  0
    3.0069    4.7611    3.3288 C   0  0  0  0  0  0  0  0  0  0  0  0
    2.3425    3.8845    2.4192 C   0  0  0  0  0  0  0  0  0  0  0  0
    3.1041    3.3336    1.2496 C   0  0  0  0  0  0  0  0  0  0  0  0
    2.5278    2.6840    0.3351 O   0  0  0  0  0  0  0  0  0  0  0  0
    4.5507    3.5546    1.1485 C   0  0  0  0  0  0  0  0  0  0  0  0
    5.2125    4.3616    2.0678 C   0  0  0  0  0  0  0  0  0  0  0  0
    4.4752    5.0321    3.1462 C   0  0  0  0  0  0  0  0  0  0  0  0
    5.1068    5.8127    3.9088 O   0  0  0  0  0  0  0  0  0  0  0  0
    6.5827    4.4397    1.8627 C   0  0  0  0  0  0  0  0  0  0  0  0
    6.9456    3.4968    0.5194 S   0  0  0  0  0  0  0  0  0  0  0  0
    5.3816    2.9866    0.1903 C   0  0  0  0  0  0  0  0  0  0  0  0
    2.9532    6.0866    5.4897 C   0  0  0  0  0  0  0  0  0  0  0  0
    3.1353    5.6229    6.7479 C   0  0  0  0  0  0  0  0  0  0  0  0
    2.7239    4.2529    7.1458 C   0  0  0  0  0  0  0  0  0  0  0  0
    2.7489    3.3004    6.3208 O   0  0  0  0  0  0  0  0  0  0  0  0
    2.2976    4.0237    8.4981 N   0  0  0  0  0  0  0  0  0  0  0  0
    1.6420    2.7620    8.8665 C   0  0  0  0  0  0  0  0  0  0  0  0
    2.6740    1.7277    9.2974 C   0  0  0  0  0  0  0  0  0  0  0  0
    2.5828    5.0251    9.4868 C   0  0  0  0  0  0  0  0  0  0  0  0
    2.1955    4.8625   10.6804 O   0  0  0  0  0  0  0  0  0  0  0  0
    3.3380    6.2494    9.1239 C   0  0  0  0  0  0  0  0  0  0  0  0
    3.6579    6.5124    7.8298 C   0  0  0  0  0  0  0  0  0  0  0  0
    4.4846    7.7294    7.4659 C   0  0  0  0  0  0  0  0  0  0  0  0
    3.7171    7.1511   10.1939 C   0  0  0  0  0  0  0  0  0  0  0  0
    4.0278    7.8705   11.0442 N   0  0  0  0  0  0  0  0  0  0  0  0
   -4.9379   -5.6399   -3.1417 H   0  0  0  0  0  0  0  0  0  0  0  0
   -5.1798   -5.8880   -8.3864 H   0  0  0  0  0  0  0  0  0  0  0  0
   -0.4477   -4.3356   -7.3007 H   0  0  0  0  0  0  0  0  0  0  0  0
   -1.0289   -4.5540  -10.7490 H   0  0  0  0  0  0  0  0  0  0  0  0
   -1.0281   -1.9445   -9.8040 H   0  0  0  0  0  0  0  0  0  0  0  0
   -1.4143   -1.7021  -12.4172 H   0  0  0  0  0  0  0  0  0  0  0  0
   -3.8588   -2.4207  -12.9549 H   0  0  0  0  0  0  0  0  0  0  0  0
   -5.0369   -3.1494  -10.6887 H   0  0  0  0  0  0  0  0  0  0  0  0
   -3.4171   -2.4107   -8.6834 H   0  0  0  0  0  0  0  0  0  0  0  0
   -3.5398   -1.0869   -9.9048 H   0  0  0  0  0  0  0  0  0  0  0  0
   -3.2720   -5.2229  -11.2695 H   0  0  0  0  0  0  0  0  0  0  0  0
   -5.2417   -1.1965   -5.2831 H   0  0  0  0  0  0  0  0  0  0  0  0
   -4.7474   -1.0510   -3.5631 H   0  0  0  0  0  0  0  0  0  0  0  0
   -7.0119   -2.1580   -3.9334 H   0  0  0  0  0  0  0  0  0  0  0  0
   -6.1620   -3.5212   -4.7705 H   0  0  0  0  0  0  0  0  0  0  0  0
   -5.8521   -3.1813   -3.0130 H   0  0  0  0  0  0  0  0  0  0  0  0
   -0.1297   -1.9351   -4.5022 H   0  0  0  0  0  0  0  0  0  0  0  0
    0.3037   -2.0428   -2.7521 H   0  0  0  0  0  0  0  0  0  0  0  0
    1.1534    0.2819   -2.7641 H   0  0  0  0  0  0  0  0  0  0  0  0
    0.6551    0.4769   -4.4962 H   0  0  0  0  0  0  0  0  0  0  0  0
    1.9585   -0.6900   -4.0521 H   0  0  0  0  0  0  0  0  0  0  0  0
   -3.2014   -4.3000    3.9409 H   0  0  0  0  0  0  0  0  0  0  0  0
   -3.8079   -8.0881    1.3424 H   0  0  0  0  0  0  0  0  0  0  0  0
    2.4853   -0.9442    0.4547 H   0  0  0  0  0  0  0  0  0  0  0  0
    4.2654   -1.5358   -1.1338 H   0  0  0  0  0  0  0  0  0  0  0  0
    4.4460   -3.3395   -5.2812 H   0  0  0  0  0  0  0  0  0  0  0  0
    4.0375   -1.8883   -4.2823 H   0  0  0  0  0  0  0  0  0  0  0  0
    2.8368   -3.2403   -4.4719 H   0  0  0  0  0  0  0  0  0  0  0  0
    2.0424   -5.0180   -2.3365 H   0  0  0  0  0  0  0  0  0  0  0  0
    0.2223   -4.3807   -0.8175 H   0  0  0  0  0  0  0  0  0  0  0  0
   -0.2623   -5.0100    1.2244 H   0  0  0  0  0  0  0  0  0  0  0  0
   -0.1682   -6.3381    3.2697 H   0  0  0  0  0  0  0  0  0  0  0  0
   -1.5843   -5.8264    7.4376 H   0  0  0  0  0  0  0  0  0  0  0  0
   -2.0111   -5.7738    5.6884 H   0  0  0  0  0  0  0  0  0  0  0  0
   -1.5460   -4.2462    6.5569 H   0  0  0  0  0  0  0  0  0  0  0  0
    0.7793   -2.8075    5.5376 H   0  0  0  0  0  0  0  0  0  0  0  0
    0.7263   -1.4806    3.5009 H   0  0  0  0  0  0  0  0  0  0  0  0
    0.0608    2.3214   -1.5479 H   0  0  0  0  0  0  0  0  0  0  0  0
    1.6523    3.3696   -3.1085 H   0  0  0  0  0  0  0  0  0  0  0  0
    4.9621    6.2784   -2.7150 H   0  0  0  0  0  0  0  0  0  0  0  0
    4.2043    4.7798   -2.0453 H   0  0  0  0  0  0  0  0  0  0  0  0
    3.8723    6.3886   -1.2806 H   0  0  0  0  0  0  0  0  0  0  0  0
    1.0418    7.1708   -1.1771 H   0  0  0  0  0  0  0  0  0  0  0  0
   -0.5492    6.1180    0.3960 H   0  0  0  0  0  0  0  0  0  0  0  0
   -2.6047    3.1299   -1.8419 H   0  0  0  0  0  0  0  0  0  0  0  0
   -5.0151    3.4573   -2.2175 H   0  0  0  0  0  0  0  0  0  0  0  0
   -7.9562    6.4738   -1.3986 H   0  0  0  0  0  0  0  0  0  0  0  0
   -6.3122    6.0620   -2.0247 H   0  0  0  0  0  0  0  0  0  0  0  0
   -6.5110    6.7116   -0.3437 H   0  0  0  0  0  0  0  0  0  0  0  0
   -5.4885    4.7544    1.8537 H   0  0  0  0  0  0  0  0  0  0  0  0
   -3.0797    4.4215    2.2434 H   0  0  0  0  0  0  0  0  0  0  0  0
    0.3125    2.1733    5.4288 H   0  0  0  0  0  0  0  0  0  0  0  0
   -0.9010    1.1467    4.5810 H   0  0  0  0  0  0  0  0  0  0  0  0
   -2.6263    1.7183    6.2537 H   0  0  0  0  0  0  0  0  0  0  0  0
   -1.1350    1.1456    7.0865 H   0  0  0  0  0  0  0  0  0  0  0  0
   -1.5011    2.9073    7.0441 H   0  0  0  0  0  0  0  0  0  0  0  0
   -1.5807    7.6435    5.3195 H   0  0  0  0  0  0  0  0  0  0  0  0
   -1.0901    6.7486    3.8385 H   0  0  0  0  0  0  0  0  0  0  0  0
    0.7616    8.6168    5.4680 H   0  0  0  0  0  0  0  0  0  0  0  0
    1.1229    7.8466    3.8633 H   0  0  0  0  0  0  0  0  0  0  0  0
   -0.1533    9.1045    3.9876 H   0  0  0  0  0  0  0  0  0  0  0  0
    7.2922    4.9939    2.4608 H   0  0  0  0  0  0  0  0  0  0  0  0
    5.0780    2.3236   -0.6079 H   0  0  0  0  0  0  0  0  0  0  0  0
    3.2347    7.0975    5.2345 H   0  0  0  0  0  0  0  0  0  0  0  0
    0.9105    2.9247    9.6903 H   0  0  0  0  0  0  0  0  0  0  0  0
    1.0603    2.3586    8.0042 H   0  0  0  0  0  0  0  0  0  0  0  0
    3.3774    1.5155    8.4639 H   0  0  0  0  0  0  0  0  0  0  0  0
    2.1611    0.7860    9.5814 H   0  0  0  0  0  0  0  0  0  0  0  0
    3.2457    2.1049   10.1730 H   0  0  0  0  0  0  0  0  0  0  0  0
    5.0887    7.5286    6.5533 H   0  0  0  0  0  0  0  0  0  0  0  0
    3.8134    8.5958    7.2744 H   0  0  0  0  0  0  0  0  0  0  0  0
    5.2161    7.9948    8.2593 H   0  0  0  0  0  0  0  0  0  0  0  0
  1  2  2  3
  2  3  1  0
  3  4  2  0
  3  5  1  0
  5  6  2  0
  6  7  1  0
  7  8  2  0
  8  9  1  0
  9 10  2  0
 10 11  1  0
 11 12  2  3
 12 13  1  0
 13 14  3  0
 12 15  1  0
 15 16  3  0
  8 17  1  0
 17 18  1  0
 18 19  1  0
 19 20  2  0
 20 21  1  0
 21 22  1  0
 21 23  1  0
  1 24  1  0
 24 25  2  0
 25 26  1  0
 26 27  1  0
 27 28  1  0
 25 29  1  0
 29 30  1  0
 30 31  1  0
 31 32  1  0
 29 33  2  0
 33 34  1  0
 34 35  2  0
 35 36  1  0
 36 37  2  0
 36 38  1  0
 38 39  1  0
 39 40  1  0
 40 41  2  0
 39 42  2  0
 42 43  1  0
 43 44  1  0
 33 45  1  0
 45 46  2  0
 46 47  1  0
 47 48  1  0
 48 49  2  0
 49 50  1  0
 50 51  2  0
 51 52  1  0
 52 53  1  0
 51 54  1  0
 54 55  2  0
 47 56  1  0
 56 57  2  0
 57 58  1  0
 58 59  2  0
 59 60  1  0
 60 61  1  0
 59 62  1  0
 62 63  2  0
 46 64  1  0
 64 65  1  0
 65 66  1  0
 66 67  2  0
 67 68  1  0
 68 69  1  0
 69 70  2  0
 70 71  1  0
 71 72  2  0
 72 73  1  0
 73 74  1  0
 72 75  1  0
 75 76  2  0
 68 77  1  0
 77 78  2  0
 78 79  1  0
 79 80  2  0
 80 81  1  0
 81 82  1  0
 80 83  1  0
 83 84  2  0
 67 85  1  0
 85 86  1  0
 66 87  1  0
 87 88  2  0
 88 89  1  0
 89 90  1  0
 90 91  1  0
 88 92  1  0
 92 93  1  0
 93 94  1  0
 94 95  1  0
 92 96  2  0
 96 97  1  0
 97 98  2  0
 98 99  1  0
 99100  2  0
 99101  1  0
101102  1  0
102103  1  0
103104  2  0
102105  2  0
105106  1  0
106107  1  0
 96108  1  0
108109  2  3
109110  1  0
110111  2  0
110112  1  0
112113  1  0
113114  1  0
112115  1  0
115116  2  0
115117  1  0
117118  2  0
118119  1  0
117120  1  0
120121  3  0
 11  2  1  0
 23 17  1  0
 35 24  1  0
 44 38  2  0
 86 45  1  0
 98 87  1  0
107101  2  0
118109  1  0
 10  5  1  0
 22 18  1  0
 40 34  1  0
 55 48  1  0
 63 56  1  0
 85 64  2  0
103 97  1  0
 23  7  1  0
 76 69  1  0
 84 77  1  0
  1122  1  0
  6123  1  0
  9124  1  0
 17125  1  0
 18126  1  0
 19127  1  0
 20128  1  0
 21129  1  0
 22130  1  0
 22131  1  0
 23132  1  0
 27133  1  0
 27134  1  0
 28135  1  0
 28136  1  0
 28137  1  0
 31138  1  0
 31139  1  0
 32140  1  0
 32141  1  0
 32142  1  0
 42143  1  0
 44144  1  0
 49145  1  0
 50146  1  0
 53147  1  0
 53148  1  0
 53149  1  0
 54150  1  0
 55151  1  0
 57152  1  0
 58153  1  0
 61154  1  0
 61155  1  0
 61156  1  0
 62157  1  0
 63158  1  0
 70159  1  0
 71160  1  0
 74161  1  0
 74162  1  0
 74163  1  0
 75164  1  0
 76165  1  0
 78166  1  0
 79167  1  0
 82168  1  0
 82169  1  0
 82170  1  0
 83171  1  0
 84172  1  0
 90173  1  0
 90174  1  0
 91175  1  0
 91176  1  0
 91177  1  0
 94178  1  0
 94179  1  0
 95180  1  0
 95181  1  0
 95182  1  0
105183  1  0
107184  1  0
108185  1  0
113186  1  0
113187  1  0
114188  1  0
114189  1  0
114190  1  0
119191  1  0
119192  1  0
119193  1  0
M  END

