
     RDKit          3D

167183  0  0  0  0  0  0  0  0999 V2000
   -1.7754    6.7530    0.5417 C   0  0  0  0  0  0  0  0  0  0  0  0
   -1.0234    7.5289    1.3504 C   0  0  0  0  0  0  0  0  0  0  0  0
    0.4268    7.4240    1.5369 C   0  0  0  0  0  0  0  0  0  0  0  0
    1.2866    7.3156    0.6244 O   0  0  0  0  0  0  0  0  0  0  0  0
    0.7370    7.6485    2.9286 C   0  0  0  0  0  0  0  0  0  0  0  0
    1.9848    7.4528    3.5614 C   0  0  0  0  0  0  0  0  0  0  0  0
    1.9334    7.5656    4.9368 C   0  0  0  0  0  0  0  0  0  0  0  0
    0.7268    7.8442    5.6568 C   0  0  0  0  0  0  0  0  0  0  0  0
   -0.4938    8.0642    5.0384 C   0  0  0  0  0  0  0  0  0  0  0  0
   -0.4533    7.9859    3.6186 C   0  0  0  0  0  0  0  0  0  0  0  0
   -1.5551    8.0959    2.6280 C   0  0  0  0  0  0  0  0  0  0  0  0
   -2.7455    8.7213    2.8024 C   0  0  0  0  0  0  0  0  0  0  0  0
   -3.6195    9.0139    1.6922 C   0  0  0  0  0  0  0  0  0  0  0  0
   -4.3186    9.2512    0.8022 N   0  0  0  0  0  0  0  0  0  0  0  0
   -3.1744    9.2237    4.0818 C   0  0  0  0  0  0  0  0  0  0  0  0
   -3.5267    9.6134    5.1143 N   0  0  0  0  0  0  0  0  0  0  0  0
    1.4490    7.6897    6.9622 C   0  0  0  0  0  0  0  0  0  0  0  0
    1.2103    6.3581    7.7405 C   0  0  0  0  0  0  0  0  0  0  0  0
    2.3163    6.2751    8.7665 C   0  0  0  0  0  0  0  0  0  0  0  0
    3.4463    6.0395    8.0893 C   0  0  0  0  0  0  0  0  0  0  0  0
    3.0649    5.9722    6.6323 C   0  0  0  0  0  0  0  0  0  0  0  0
    1.7107    5.2936    6.7761 C   0  0  0  0  0  0  0  0  0  0  0  0
    2.6891    7.4275    6.2202 C   0  0  0  0  0  0  0  0  0  0  0  0
   -1.3682    5.4201    0.0274 C   0  0  0  0  0  0  0  0  0  0  0  0
    0.1694    4.9350   -0.5339 S   0  0  0  0  0  0  0  0  0  0  0  0
   -0.1587    3.2960   -0.7345 C   0  0  0  0  0  0  0  0  0  0  0  0
   -1.4756    3.1257   -0.3656 C   0  0  0  0  0  0  0  0  0  0  0  0
   -2.4341    1.7611   -0.2294 S   0  0  0  0  0  0  0  0  0  0  0  0
   -3.7680    2.6017    0.3871 C   0  0  0  0  0  0  0  0  0  0  0  0
   -5.0227    1.9318    0.7619 C   0  0  0  0  0  0  0  0  0  0  0  0
   -6.0107    2.6040    1.1640 O   0  0  0  0  0  0  0  0  0  0  0  0
   -5.1086    0.5360    0.6650 O   0  0  0  0  0  0  0  0  0  0  0  0
   -6.2336   -0.2116    1.1225 C   0  0  0  0  0  0  0  0  0  0  0  0
   -6.2171   -0.3207    2.6426 C   0  0  0  0  0  0  0  0  0  0  0  0
   -3.4582    3.9707    0.5076 C   0  0  0  0  0  0  0  0  0  0  0  0
   -2.1501    4.2528    0.0548 C   0  0  0  0  0  0  0  0  0  0  0  0
   -4.5564    5.1426    1.2465 Cl  0  0  0  0  0  0  0  0  0  0  0  0
    0.7837    2.2122   -1.0169 C   0  0  0  0  0  0  0  0  0  0  0  0
    0.9860    1.6864   -2.2995 C   0  0  0  0  0  0  0  0  0  0  0  0
    0.7558    2.4145   -3.5131 N   0  0  0  0  0  0  0  0  0  0  0  0
   -0.5794    2.6307   -4.0177 C   0  0  0  0  0  0  0  0  0  0  0  0
   -0.8705    3.7400   -4.8326 C   0  0  0  0  0  0  0  0  0  0  0  0
   -2.1693    3.9604   -5.2971 C   0  0  0  0  0  0  0  0  0  0  0  0
   -3.1937    3.0672   -4.9658 C   0  0  0  0  0  0  0  0  0  0  0  0
   -4.8535    3.3282   -5.5939 S   0  0  0  0  0  0  0  0  0  0  0  0
   -4.5305    2.4325   -7.1440 C   0  0  0  0  0  0  0  0  0  0  0  0
   -2.9208    1.9694   -4.1468 C   0  0  0  0  0  0  0  0  0  0  0  0
   -1.6250    1.7524   -3.6770 C   0  0  0  0  0  0  0  0  0  0  0  0
    1.9182    2.8719   -4.2223 C   0  0  0  0  0  0  0  0  0  0  0  0
    2.2158    2.3716   -5.5002 C   0  0  0  0  0  0  0  0  0  0  0  0
    3.4165    2.7188   -6.1294 C   0  0  0  0  0  0  0  0  0  0  0  0
    4.3273    3.5687   -5.4866 C   0  0  0  0  0  0  0  0  0  0  0  0
    5.8952    3.9641   -6.2600 S   0  0  0  0  0  0  0  0  0  0  0  0
    6.7773    2.6067   -5.4236 C   0  0  0  0  0  0  0  0  0  0  0  0
    4.0170    4.1005   -4.2298 C   0  0  0  0  0  0  0  0  0  0  0  0
    2.8230    3.7441   -3.5934 C   0  0  0  0  0  0  0  0  0  0  0  0
    1.3508    0.3460   -2.2545 C   0  0  0  0  0  0  0  0  0  0  0  0
    1.2555   -0.8995   -3.3741 S   0  0  0  0  0  0  0  0  0  0  0  0
    1.3362   -2.1383   -2.1989 C   0  0  0  0  0  0  0  0  0  0  0  0
    1.5114   -1.5572   -0.9325 C   0  0  0  0  0  0  0  0  0  0  0  0
    2.0075   -2.2576    0.2173 N   0  0  0  0  0  0  0  0  0  0  0  0
    1.1226   -2.9316    1.1388 C   0  0  0  0  0  0  0  0  0  0  0  0
   -0.2073   -2.5048    1.3147 C   0  0  0  0  0  0  0  0  0  0  0  0
   -1.0297   -3.1246    2.2574 C   0  0  0  0  0  0  0  0  0  0  0  0
   -0.5418   -4.1894    3.0273 C   0  0  0  0  0  0  0  0  0  0  0  0
   -1.5756   -4.9612    4.2745 S   0  0  0  0  0  0  0  0  0  0  0  0
   -2.3011   -6.1383    3.1078 C   0  0  0  0  0  0  0  0  0  0  0  0
    0.7620   -4.6505    2.8241 C   0  0  0  0  0  0  0  0  0  0  0  0
    1.5903   -4.0243    1.8932 C   0  0  0  0  0  0  0  0  0  0  0  0
    3.4149   -2.1112    0.4961 C   0  0  0  0  0  0  0  0  0  0  0  0
    3.8451   -1.6254    1.7416 C   0  0  0  0  0  0  0  0  0  0  0  0
    5.1949   -1.3286    1.9561 C   0  0  0  0  0  0  0  0  0  0  0  0
    6.1292   -1.5269    0.9300 C   0  0  0  0  0  0  0  0  0  0  0  0
    7.8413   -1.0447    1.1612 S   0  0  0  0  0  0  0  0  0  0  0  0
    7.5870    0.6105    0.4472 C   0  0  0  0  0  0  0  0  0  0  0  0
    5.7147   -2.0548   -0.2963 C   0  0  0  0  0  0  0  0  0  0  0  0
    4.3648   -2.3366   -0.5159 C   0  0  0  0  0  0  0  0  0  0  0  0
    1.4828   -0.1706   -1.0074 C   0  0  0  0  0  0  0  0  0  0  0  0
    1.1135    0.9951    0.1344 S   0  0  0  0  0  0  0  0  0  0  0  0
    1.0721   -3.5679   -2.4448 C   0  0  0  0  0  0  0  0  0  0  0  0
    1.8710   -4.8399   -1.6572 S   0  0  0  0  0  0  0  0  0  0  0  0
    0.9356   -6.1142   -2.2427 C   0  0  0  0  0  0  0  0  0  0  0  0
   -0.0098   -5.5280   -3.0707 C   0  0  0  0  0  0  0  0  0  0  0  0
   -1.3986   -6.1491   -3.7749 S   0  0  0  0  0  0  0  0  0  0  0  0
   -2.0371   -4.6316   -4.1733 C   0  0  0  0  0  0  0  0  0  0  0  0
   -3.3456   -4.4434   -4.8327 C   0  0  0  0  0  0  0  0  0  0  0  0
   -4.0857   -5.4396   -5.0519 O   0  0  0  0  0  0  0  0  0  0  0  0
   -3.7405   -3.1693   -5.2391 O   0  0  0  0  0  0  0  0  0  0  0  0
   -4.9861   -2.8977   -5.8728 C   0  0  0  0  0  0  0  0  0  0  0  0
   -5.0878   -1.4079   -6.1592 C   0  0  0  0  0  0  0  0  0  0  0  0
   -1.1750   -3.6181   -3.7145 C   0  0  0  0  0  0  0  0  0  0  0  0
    0.0031   -4.1480   -3.1430 C   0  0  0  0  0  0  0  0  0  0  0  0
   -1.6966   -1.9445   -3.5898 Cl  0  0  0  0  0  0  0  0  0  0  0  0
    0.7644   -7.4028   -1.5460 C   0  0  0  0  0  0  0  0  0  0  0  0
   -0.2725   -7.6307   -0.7111 C   0  0  0  0  0  0  0  0  0  0  0  0
   -1.3507   -6.6800   -0.4165 C   0  0  0  0  0  0  0  0  0  0  0  0
   -1.2615   -5.4218   -0.4283 O   0  0  0  0  0  0  0  0  0  0  0  0
   -2.5251   -7.4295   -0.0286 C   0  0  0  0  0  0  0  0  0  0  0  0
   -3.8234   -6.9550    0.1716 C   0  0  0  0  0  0  0  0  0  0  0  0
   -4.0797   -5.5800    0.0441 O   0  0  0  0  0  0  0  0  0  0  0  0
   -5.3449   -4.9729    0.2843 C   0  0  0  0  0  0  0  0  0  0  0  0
   -4.8251   -7.8916    0.4966 C   0  0  0  0  0  0  0  0  0  0  0  0
   -4.5058   -9.2581    0.6026 C   0  0  0  0  0  0  0  0  0  0  0  0
   -3.1935   -9.7086    0.3929 C   0  0  0  0  0  0  0  0  0  0  0  0
   -2.1963   -8.7697    0.0873 C   0  0  0  0  0  0  0  0  0  0  0  0
   -0.7442   -8.9518   -0.2041 C   0  0  0  0  0  0  0  0  0  0  0  0
    0.0381  -10.0006    0.1531 C   0  0  0  0  0  0  0  0  0  0  0  0
    1.4740   -9.9440    0.0581 C   0  0  0  0  0  0  0  0  0  0  0  0
    2.6282   -9.9030   -0.0046 N   0  0  0  0  0  0  0  0  0  0  0  0
   -0.4918  -11.1876    0.7789 C   0  0  0  0  0  0  0  0  0  0  0  0
   -0.9070  -12.1408    1.2883 N   0  0  0  0  0  0  0  0  0  0  0  0
   -2.8282    6.9308    0.5272 H   0  0  0  0  0  0  0  0  0  0  0  0
    2.8830    7.1742    3.0298 H   0  0  0  0  0  0  0  0  0  0  0  0
   -1.3897    8.2049    5.6246 H   0  0  0  0  0  0  0  0  0  0  0  0
    1.4642    8.6202    7.5786 H   0  0  0  0  0  0  0  0  0  0  0  0
    0.1832    6.2099    8.1333 H   0  0  0  0  0  0  0  0  0  0  0  0
    2.2186    6.2876    9.8473 H   0  0  0  0  0  0  0  0  0  0  0  0
    4.4155    5.8235    8.5297 H   0  0  0  0  0  0  0  0  0  0  0  0
    3.7990    5.4656    5.9709 H   0  0  0  0  0  0  0  0  0  0  0  0
    1.1333    5.2259    5.8275 H   0  0  0  0  0  0  0  0  0  0  0  0
    1.7797    4.2753    7.2302 H   0  0  0  0  0  0  0  0  0  0  0  0
    3.4877    8.1944    6.3544 H   0  0  0  0  0  0  0  0  0  0  0  0
   -6.1838   -1.2345    0.6875 H   0  0  0  0  0  0  0  0  0  0  0  0
   -7.1779    0.2634    0.7759 H   0  0  0  0  0  0  0  0  0  0  0  0
   -7.1065   -0.8912    2.9879 H   0  0  0  0  0  0  0  0  0  0  0  0
   -5.2993   -0.8552    2.9741 H   0  0  0  0  0  0  0  0  0  0  0  0
   -6.2401    0.6894    3.1048 H   0  0  0  0  0  0  0  0  0  0  0  0
   -0.0945    4.4461   -5.1025 H   0  0  0  0  0  0  0  0  0  0  0  0
   -2.3735    4.8192   -5.9216 H   0  0  0  0  0  0  0  0  0  0  0  0
   -3.8472    3.0222   -7.7867 H   0  0  0  0  0  0  0  0  0  0  0  0
   -4.0676    1.4461   -6.9318 H   0  0  0  0  0  0  0  0  0  0  0  0
   -5.4858    2.2715   -7.6786 H   0  0  0  0  0  0  0  0  0  0  0  0
   -3.7110    1.2810   -3.8781 H   0  0  0  0  0  0  0  0  0  0  0  0
   -1.4414    0.8897   -3.0523 H   0  0  0  0  0  0  0  0  0  0  0  0
    1.5387    1.6811   -5.9829 H   0  0  0  0  0  0  0  0  0  0  0  0
    3.6543    2.2998   -7.0990 H   0  0  0  0  0  0  0  0  0  0  0  0
    6.3575    1.6251   -5.7345 H   0  0  0  0  0  0  0  0  0  0  0  0
    7.8500    2.6394   -5.6994 H   0  0  0  0  0  0  0  0  0  0  0  0
    6.6907    2.7144   -4.3209 H   0  0  0  0  0  0  0  0  0  0  0  0
    4.7146    4.7580   -3.7286 H   0  0  0  0  0  0  0  0  0  0  0  0
    2.6141    4.1357   -2.6097 H   0  0  0  0  0  0  0  0  0  0  0  0
   -0.5956   -1.6661    0.7496 H   0  0  0  0  0  0  0  0  0  0  0  0
   -2.0442   -2.7693    2.4040 H   0  0  0  0  0  0  0  0  0  0  0  0
   -2.9797   -6.8290    3.6415 H   0  0  0  0  0  0  0  0  0  0  0  0
   -2.8808   -5.5711    2.3588 H   0  0  0  0  0  0  0  0  0  0  0  0
   -1.5052   -6.7247    2.6098 H   0  0  0  0  0  0  0  0  0  0  0  0
    1.1389   -5.4879    3.3994 H   0  0  0  0  0  0  0  0  0  0  0  0
    2.6009   -4.3895    1.7630 H   0  0  0  0  0  0  0  0  0  0  0  0
    3.1255   -1.4280    2.5229 H   0  0  0  0  0  0  0  0  0  0  0  0
    5.5089   -0.9155    2.9060 H   0  0  0  0  0  0  0  0  0  0  0  0
    7.2540    0.5270   -0.6091 H   0  0  0  0  0  0  0  0  0  0  0  0
    8.5424    1.1737    0.4742 H   0  0  0  0  0  0  0  0  0  0  0  0
    6.8266    1.1686    1.0339 H   0  0  0  0  0  0  0  0  0  0  0  0
    6.4309   -2.2129   -1.0939 H   0  0  0  0  0  0  0  0  0  0  0  0
    4.0595   -2.7044   -1.4843 H   0  0  0  0  0  0  0  0  0  0  0  0
   -5.0524   -3.4598   -6.8283 H   0  0  0  0  0  0  0  0  0  0  0  0
   -5.8257   -3.2051   -5.2091 H   0  0  0  0  0  0  0  0  0  0  0  0
   -4.2489   -1.0909   -6.8142 H   0  0  0  0  0  0  0  0  0  0  0  0
   -6.0461   -1.1836   -6.6717 H   0  0  0  0  0  0  0  0  0  0  0  0
   -5.0386   -0.8355   -5.2089 H   0  0  0  0  0  0  0  0  0  0  0  0
    1.4452   -8.1995   -1.8181 H   0  0  0  0  0  0  0  0  0  0  0  0
   -6.0953   -5.3507   -0.4441 H   0  0  0  0  0  0  0  0  0  0  0  0
   -5.6822   -5.1849    1.3245 H   0  0  0  0  0  0  0  0  0  0  0  0
   -5.2518   -3.8743    0.1605 H   0  0  0  0  0  0  0  0  0  0  0  0
   -5.8491   -7.5813    0.6590 H   0  0  0  0  0  0  0  0  0  0  0  0
   -5.2866   -9.9708    0.8336 H   0  0  0  0  0  0  0  0  0  0  0  0
   -2.9939  -10.7669    0.4386 H   0  0  0  0  0  0  0  0  0  0  0  0
  1  2  2  3
  2  3  1  0
  3  4  2  0
  3  5  1  0
  5  6  2  0
  6  7  1  0
  7  8  2  0
  8  9  1  0
  9 10  2  0
 10 11  1  0
 11 12  2  3
 12 13  1  0
 13 14  3  0
 12 15  1  0
 15 16  3  0
  8 17  1  0
 17 18  1  0
 18 19  1  0
 19 20  2  0
 20 21  1  0
 21 22  1  0
 21 23  1  0
  1 24  1  0
 24 25  1  0
 25 26  1  0
 26 27  2  0
 27 28  1  0
 28 29  1  0
 29 30  1  0
 30 31  2  0
 30 32  1  0
 32 33  1  0
 33 34  1  0
 29 35  2  0
 35 36  1  0
 35 37  1  0
 26 38  1  0
 38 39  2  0
 39 40  1  0
 40 41  1  0
 41 42  2  0
 42 43  1  0
 43 44  2  0
 44 45  1  0
 45 46  1  0
 44 47  1  0
 47 48  2  0
 40 49  1  0
 49 50  2  0
 50 51  1  0
 51 52  2  0
 52 53  1  0
 53 54  1  0
 52 55  1  0
 55 56  2  0
 39 57  1  0
 57 58  1  0
 58 59  1  0
 59 60  2  0
 60 61  1  0
 61 62  1  0
 62 63  2  0
 63 64  1  0
 64 65  2  0
 65 66  1  0
 66 67  1  0
 65 68  1  0
 68 69  2  0
 61 70  1  0
 70 71  2  0
 71 72  1  0
 72 73  2  0
 73 74  1  0
 74 75  1  0
 73 76  1  0
 76 77  2  0
 60 78  1  0
 78 79  1  0
 59 80  1  0
 80 81  1  0
 81 82  1  0
 82 83  2  0
 83 84  1  0
 84 85  1  0
 85 86  1  0
 86 87  2  0
 86 88  1  0
 88 89  1  0
 89 90  1  0
 85 91  2  0
 91 92  1  0
 91 93  1  0
 82 94  1  0
 94 95  2  3
 95 96  1  0
 96 97  2  0
 96 98  1  0
 98 99  2  0
 99100  1  0
100101  1  0
 99102  1  0
102103  2  0
103104  1  0
104105  2  0
105106  1  0
106107  2  3
107108  1  0
108109  3  0
107110  1  0
110111  3  0
 11  2  1  0
 23 17  1  0
 36 24  2  0
 79 38  1  0
 92 80  2  0
106 95  1  0
 10  5  1  0
 22 18  1  0
 36 27  1  0
 48 41  1  0
 56 49  1  0
 78 57  2  0
 92 83  1  0
105 98  1  0
 23  7  1  0
 69 62  1  0
 77 70  1  0
  1112  1  0
  6113  1  0
  9114  1  0
 17115  1  0
 18116  1  0
 19117  1  0
 20118  1  0
 21119  1  0
 22120  1  0
 22121  1  0
 23122  1  0
 33123  1  0
 33124  1  0
 34125  1  0
 34126  1  0
 34127  1  0
 42128  1  0
 43129  1  0
 46130  1  0
 46131  1  0
 46132  1  0
 47133  1  0
 48134  1  0
 50135  1  0
 51136  1  0
 54137  1  0
 54138  1  0
 54139  1  0
 55140  1  0
 56141  1  0
 63142  1  0
 64143  1  0
 67144  1  0
 67145  1  0
 67146  1  0
 68147  1  0
 69148  1  0
 71149  1  0
 72150  1  0
 75151  1  0
 75152  1  0
 75153  1  0
 76154  1  0
 77155  1  0
 89156  1  0
 89157  1  0
 90158  1  0
 90159  1  0
 90160  1  0
 94161  1  0
101162  1  0
101163  1  0
101164  1  0
102165  1  0
103166  1  0
104167  1  0
M  END

