
     RDKit          3D

172192  0  0  0  0  0  0  0  0999 V2000
    4.0084   -5.5195    7.4005 C   0  0  0  0  0  0  0  0  0  0  0  0
    4.7948   -5.1538    6.3686 C   0  0  0  0  0  0  0  0  0  0  0  0
    4.3990   -4.2492    5.2766 C   0  0  0  0  0  0  0  0  0  0  0  0
    3.3956   -3.4887    5.2548 O   0  0  0  0  0  0  0  0  0  0  0  0
    5.3471   -4.3804    4.1960 C   0  0  0  0  0  0  0  0  0  0  0  0
    5.2504   -3.8050    2.9088 C   0  0  0  0  0  0  0  0  0  0  0  0
    6.2526   -4.2006    2.0425 C   0  0  0  0  0  0  0  0  0  0  0  0
    7.2915   -5.1156    2.4132 C   0  0  0  0  0  0  0  0  0  0  0  0
    7.3822   -5.6900    3.6708 C   0  0  0  0  0  0  0  0  0  0  0  0
    6.3710   -5.2787    4.5864 C   0  0  0  0  0  0  0  0  0  0  0  0
    6.1302   -5.7138    5.9916 C   0  0  0  0  0  0  0  0  0  0  0  0
    7.0420   -6.2775    6.8251 C   0  0  0  0  0  0  0  0  0  0  0  0
    6.7853   -6.4897    8.2261 C   0  0  0  0  0  0  0  0  0  0  0  0
    6.5889   -6.6635    9.3548 N   0  0  0  0  0  0  0  0  0  0  0  0
    8.3943   -6.5607    6.4181 C   0  0  0  0  0  0  0  0  0  0  0  0
    9.4875   -6.7856    6.1073 N   0  0  0  0  0  0  0  0  0  0  0  0
    7.8653   -5.0500    1.0265 C   0  0  0  0  0  0  0  0  0  0  0  0
    7.6404   -6.2713    0.0841 C   0  0  0  0  0  0  0  0  0  0  0  0
    6.3368   -6.9571    0.4309 C   0  0  0  0  0  0  0  0  0  0  0  0
    5.3608   -6.1132    0.0882 C   0  0  0  0  0  0  0  0  0  0  0  0
    6.0341   -4.8840   -0.4806 C   0  0  0  0  0  0  0  0  0  0  0  0
    7.2028   -5.5538   -1.1780 C   0  0  0  0  0  0  0  0  0  0  0  0
    6.7946   -4.1197    0.6462 C   0  0  0  0  0  0  0  0  0  0  0  0
    2.7085   -4.8865    7.6559 C   0  0  0  0  0  0  0  0  0  0  0  0
    1.2799   -5.2718    6.8244 S   0  0  0  0  0  0  0  0  0  0  0  0
    0.4028   -3.8757    7.2054 C   0  0  0  0  0  0  0  0  0  0  0  0
    1.2510   -3.1128    7.9952 C   0  0  0  0  0  0  0  0  0  0  0  0
    1.1491   -1.5575    8.6079 S   0  0  0  0  0  0  0  0  0  0  0  0
    2.7370   -1.5402    9.2095 C   0  0  0  0  0  0  0  0  0  0  0  0
    3.3214   -0.3730    9.8903 C   0  0  0  0  0  0  0  0  0  0  0  0
    4.5496   -0.3441   10.1772 O   0  0  0  0  0  0  0  0  0  0  0  0
    2.4910    0.7065   10.2118 O   0  0  0  0  0  0  0  0  0  0  0  0
    2.9673    1.9297   10.7727 C   0  0  0  0  0  0  0  0  0  0  0  0
    3.5452    2.8228    9.6823 C   0  0  0  0  0  0  0  0  0  0  0  0
    3.3696   -2.7612    8.9090 C   0  0  0  0  0  0  0  0  0  0  0  0
    2.5040   -3.6366    8.2341 C   0  0  0  0  0  0  0  0  0  0  0  0
    5.0356   -3.1514    9.3233 Cl  0  0  0  0  0  0  0  0  0  0  0  0
   -0.7543   -3.3838    6.4396 C   0  0  0  0  0  0  0  0  0  0  0  0
   -0.8912   -1.7886    5.8821 S   0  0  0  0  0  0  0  0  0  0  0  0
   -2.1369   -2.1177    4.8160 C   0  0  0  0  0  0  0  0  0  0  0  0
   -2.6847   -1.3125    3.8387 C   0  0  0  0  0  0  0  0  0  0  0  0
   -3.5687   -1.8664    2.9324 C   0  0  0  0  0  0  0  0  0  0  0  0
   -3.9333   -3.1501    3.0192 O   0  0  0  0  0  0  0  0  0  0  0  0
   -3.4179   -3.9646    3.9533 C   0  0  0  0  0  0  0  0  0  0  0  0
   -3.7564   -5.1773    3.9817 O   0  0  0  0  0  0  0  0  0  0  0  0
   -2.4656   -3.4618    4.8653 C   0  0  0  0  0  0  0  0  0  0  0  0
   -1.6820   -4.1883    5.7728 C   0  0  0  0  0  0  0  0  0  0  0  0
   -3.9403   -0.9904    1.9083 C   0  0  0  0  0  0  0  0  0  0  0  0
   -3.2781    0.2400    2.0033 C   0  0  0  0  0  0  0  0  0  0  0  0
   -2.2789    0.2427    3.3699 S   0  0  0  0  0  0  0  0  0  0  0  0
   -3.1816    1.2301    0.9226 C   0  0  0  0  0  0  0  0  0  0  0  0
   -4.1469    1.4944   -0.0625 C   0  0  0  0  0  0  0  0  0  0  0  0
   -5.5270    1.1134    0.0226 N   0  0  0  0  0  0  0  0  0  0  0  0
   -6.1003    0.1419   -0.8870 C   0  0  0  0  0  0  0  0  0  0  0  0
   -5.2820   -0.5989   -1.7688 C   0  0  0  0  0  0  0  0  0  0  0  0
   -5.8348   -1.5512   -2.6279 C   0  0  0  0  0  0  0  0  0  0  0  0
   -7.2096   -1.7967   -2.6093 C   0  0  0  0  0  0  0  0  0  0  0  0
   -7.9117   -3.0359   -3.6993 S   0  0  0  0  0  0  0  0  0  0  0  0
   -7.7111   -4.3804   -2.4890 C   0  0  0  0  0  0  0  0  0  0  0  0
   -8.0350   -1.0758   -1.7441 C   0  0  0  0  0  0  0  0  0  0  0  0
   -7.4878   -0.1180   -0.8852 C   0  0  0  0  0  0  0  0  0  0  0  0
   -6.3496    1.9468    0.8548 C   0  0  0  0  0  0  0  0  0  0  0  0
   -6.4589    1.6862    2.2296 C   0  0  0  0  0  0  0  0  0  0  0  0
   -7.1782    2.5570    3.0531 C   0  0  0  0  0  0  0  0  0  0  0  0
   -7.7908    3.6937    2.5084 C   0  0  0  0  0  0  0  0  0  0  0  0
   -8.6680    4.8376    3.5747 S   0  0  0  0  0  0  0  0  0  0  0  0
   -7.2088    5.8954    3.8342 C   0  0  0  0  0  0  0  0  0  0  0  0
   -7.7080    3.9392    1.1324 C   0  0  0  0  0  0  0  0  0  0  0  0
   -6.9871    3.0691    0.3091 C   0  0  0  0  0  0  0  0  0  0  0  0
   -3.6236    2.2792   -1.0876 C   0  0  0  0  0  0  0  0  0  0  0  0
   -4.1856    2.7955   -2.5888 S   0  0  0  0  0  0  0  0  0  0  0  0
   -2.6804    3.4635   -3.0411 C   0  0  0  0  0  0  0  0  0  0  0  0
   -1.7532    3.2873   -2.0071 C   0  0  0  0  0  0  0  0  0  0  0  0
   -0.3844    3.7081   -2.0564 N   0  0  0  0  0  0  0  0  0  0  0  0
    0.6493    2.8681   -2.6172 C   0  0  0  0  0  0  0  0  0  0  0  0
    0.5088    1.4670   -2.6565 C   0  0  0  0  0  0  0  0  0  0  0  0
    1.5221    0.6669   -3.1929 C   0  0  0  0  0  0  0  0  0  0  0  0
    2.6949    1.2535   -3.6786 C   0  0  0  0  0  0  0  0  0  0  0  0
    4.0112    0.2241   -4.3306 S   0  0  0  0  0  0  0  0  0  0  0  0
    3.4458    0.3816   -6.0511 C   0  0  0  0  0  0  0  0  0  0  0  0
    2.8459    2.6433   -3.6473 C   0  0  0  0  0  0  0  0  0  0  0  0
    1.8294    3.4451   -3.1248 C   0  0  0  0  0  0  0  0  0  0  0  0
   -0.0464    4.9402   -1.4058 C   0  0  0  0  0  0  0  0  0  0  0  0
   -0.3798    6.1665   -1.9967 C   0  0  0  0  0  0  0  0  0  0  0  0
   -0.0183    7.3655   -1.3748 C   0  0  0  0  0  0  0  0  0  0  0  0
    0.6615    7.3424   -0.1491 C   0  0  0  0  0  0  0  0  0  0  0  0
    1.1545    8.8761    0.6357 S   0  0  0  0  0  0  0  0  0  0  0  0
    2.7541    8.9466   -0.2315 C   0  0  0  0  0  0  0  0  0  0  0  0
    0.9682    6.1169    0.4565 C   0  0  0  0  0  0  0  0  0  0  0  0
    0.6209    4.9189   -0.1721 C   0  0  0  0  0  0  0  0  0  0  0  0
   -2.3221    2.6245   -0.9313 C   0  0  0  0  0  0  0  0  0  0  0  0
   -1.7157    1.9887    0.4912 S   0  0  0  0  0  0  0  0  0  0  0  0
   -2.3406    3.9672   -4.3749 C   0  0  0  0  0  0  0  0  0  0  0  0
   -1.7628    3.1803   -5.3049 C   0  0  0  0  0  0  0  0  0  0  0  0
   -1.6524    1.7177   -5.1945 C   0  0  0  0  0  0  0  0  0  0  0  0
   -2.1791    0.9930   -4.3104 O   0  0  0  0  0  0  0  0  0  0  0  0
   -0.8837    1.2164   -6.3021 C   0  0  0  0  0  0  0  0  0  0  0  0
   -0.5674   -0.1360   -6.5588 C   0  0  0  0  0  0  0  0  0  0  0  0
    0.1588   -0.3283   -7.7156 C   0  0  0  0  0  0  0  0  0  0  0  0
    0.5499    0.7425   -8.5785 C   0  0  0  0  0  0  0  0  0  0  0  0
    0.2337    2.0686   -8.3373 C   0  0  0  0  0  0  0  0  0  0  0  0
   -0.5058    2.2983   -7.1394 C   0  0  0  0  0  0  0  0  0  0  0  0
   -1.0340    3.5779   -6.5626 C   0  0  0  0  0  0  0  0  0  0  0  0
   -0.8164    4.8359   -7.0401 C   0  0  0  0  0  0  0  0  0  0  0  0
   -1.3998    6.0190   -6.4661 C   0  0  0  0  0  0  0  0  0  0  0  0
   -1.8615    6.9839   -6.0235 N   0  0  0  0  0  0  0  0  0  0  0  0
    0.0415    5.1122   -8.1614 C   0  0  0  0  0  0  0  0  0  0  0  0
    0.7310    5.3617   -9.0580 N   0  0  0  0  0  0  0  0  0  0  0  0
    1.2167   -0.2281   -9.5075 C   0  0  0  0  0  0  0  0  0  0  0  0
    0.4700   -0.5421  -10.8371 C   0  0  0  0  0  0  0  0  0  0  0  0
    1.1115   -1.7941  -11.3867 C   0  0  0  0  0  0  0  0  0  0  0  0
    0.7453   -2.7947  -10.5775 C   0  0  0  0  0  0  0  0  0  0  0  0
   -0.1308   -2.1839   -9.5112 C   0  0  0  0  0  0  0  0  0  0  0  0
   -0.8412   -1.1447  -10.3610 C   0  0  0  0  0  0  0  0  0  0  0  0
    0.8152   -1.3246   -8.6220 C   0  0  0  0  0  0  0  0  0  0  0  0
    4.2897   -6.3194    8.0626 H   0  0  0  0  0  0  0  0  0  0  0  0
    4.4476   -3.1425    2.6085 H   0  0  0  0  0  0  0  0  0  0  0  0
    8.1383   -6.4291    3.8821 H   0  0  0  0  0  0  0  0  0  0  0  0
    8.8854   -4.6041    0.9805 H   0  0  0  0  0  0  0  0  0  0  0  0
    8.5138   -6.9469   -0.0267 H   0  0  0  0  0  0  0  0  0  0  0  0
    6.2082   -7.9693    0.8070 H   0  0  0  0  0  0  0  0  0  0  0  0
    4.2956   -6.3142    0.1394 H   0  0  0  0  0  0  0  0  0  0  0  0
    5.3877   -4.2526   -1.1273 H   0  0  0  0  0  0  0  0  0  0  0  0
    6.8916   -6.2468   -1.9970 H   0  0  0  0  0  0  0  0  0  0  0  0
    7.9584   -4.8303   -1.5644 H   0  0  0  0  0  0  0  0  0  0  0  0
    7.1621   -3.1071    0.3619 H   0  0  0  0  0  0  0  0  0  0  0  0
    2.1157    2.4547   11.2518 H   0  0  0  0  0  0  0  0  0  0  0  0
    3.7321    1.7330   11.5553 H   0  0  0  0  0  0  0  0  0  0  0  0
    4.4005    2.3198    9.1858 H   0  0  0  0  0  0  0  0  0  0  0  0
    2.7659    3.0518    8.9257 H   0  0  0  0  0  0  0  0  0  0  0  0
    3.9010    3.7757   10.1273 H   0  0  0  0  0  0  0  0  0  0  0  0
   -1.7294   -5.2641    5.8774 H   0  0  0  0  0  0  0  0  0  0  0  0
   -4.5730   -1.2815    1.0795 H   0  0  0  0  0  0  0  0  0  0  0  0
   -4.2098   -0.4598   -1.7841 H   0  0  0  0  0  0  0  0  0  0  0  0
   -5.1880   -2.1121   -3.2891 H   0  0  0  0  0  0  0  0  0  0  0  0
   -6.6400   -4.4949   -2.2200 H   0  0  0  0  0  0  0  0  0  0  0  0
   -8.0716   -5.3282   -2.9387 H   0  0  0  0  0  0  0  0  0  0  0  0
   -8.3081   -4.1641   -1.5784 H   0  0  0  0  0  0  0  0  0  0  0  0
   -9.1020   -1.2593   -1.7300 H   0  0  0  0  0  0  0  0  0  0  0  0
   -8.1537    0.4108   -0.2160 H   0  0  0  0  0  0  0  0  0  0  0  0
   -5.9782    0.8216    2.6649 H   0  0  0  0  0  0  0  0  0  0  0  0
   -7.2439    2.3600    4.1139 H   0  0  0  0  0  0  0  0  0  0  0  0
   -6.3548    5.2942    4.2120 H   0  0  0  0  0  0  0  0  0  0  0  0
   -7.4556    6.6781    4.5800 H   0  0  0  0  0  0  0  0  0  0  0  0
   -6.9241    6.3847    2.8796 H   0  0  0  0  0  0  0  0  0  0  0  0
   -8.1849    4.8114    0.7044 H   0  0  0  0  0  0  0  0  0  0  0  0
   -6.9103    3.2779   -0.7487 H   0  0  0  0  0  0  0  0  0  0  0  0
   -0.3760    0.9871   -2.2621 H   0  0  0  0  0  0  0  0  0  0  0  0
    1.4010   -0.4090   -3.2159 H   0  0  0  0  0  0  0  0  0  0  0  0
    3.5561    1.4325   -6.3870 H   0  0  0  0  0  0  0  0  0  0  0  0
    2.3869    0.0713   -6.1256 H   0  0  0  0  0  0  0  0  0  0  0  0
    4.0600   -0.2744   -6.7016 H   0  0  0  0  0  0  0  0  0  0  0  0
    3.7486    3.1030   -4.0286 H   0  0  0  0  0  0  0  0  0  0  0  0
    1.9655    4.5177   -3.1208 H   0  0  0  0  0  0  0  0  0  0  0  0
   -0.8959    6.1925   -2.9455 H   0  0  0  0  0  0  0  0  0  0  0  0
   -0.2546    8.3101   -1.8485 H   0  0  0  0  0  0  0  0  0  0  0  0
    2.5822    9.1540   -1.3065 H   0  0  0  0  0  0  0  0  0  0  0  0
    3.3090    7.9928   -0.1132 H   0  0  0  0  0  0  0  0  0  0  0  0
    3.3627    9.7684    0.1965 H   0  0  0  0  0  0  0  0  0  0  0  0
    1.4868    6.0923    1.4072 H   0  0  0  0  0  0  0  0  0  0  0  0
    0.8744    3.9759    0.2922 H   0  0  0  0  0  0  0  0  0  0  0  0
   -2.4423    5.0250   -4.4970 H   0  0  0  0  0  0  0  0  0  0  0  0
   -0.8721   -0.9505   -5.9143 H   0  0  0  0  0  0  0  0  0  0  0  0
    0.5277    2.8216   -9.0453 H   0  0  0  0  0  0  0  0  0  0  0  0
    2.3165   -0.0798   -9.5937 H   0  0  0  0  0  0  0  0  0  0  0  0
    0.3876    0.3012  -11.5554 H   0  0  0  0  0  0  0  0  0  0  0  0
    1.6782   -1.8968  -12.3066 H   0  0  0  0  0  0  0  0  0  0  0  0
    0.9644   -3.8462  -10.7283 H   0  0  0  0  0  0  0  0  0  0  0  0
   -0.7889   -2.8985   -8.9696 H   0  0  0  0  0  0  0  0  0  0  0  0
   -1.4848   -0.4415   -9.7844 H   0  0  0  0  0  0  0  0  0  0  0  0
   -1.4509   -1.5892  -11.1828 H   0  0  0  0  0  0  0  0  0  0  0  0
    1.6609   -1.8736   -8.1445 H   0  0  0  0  0  0  0  0  0  0  0  0
  1  2  2  3
  2  3  1  0
  3  4  2  0
  3  5  1  0
  5  6  2  0
  6  7  1  0
  7  8  2  0
  8  9  1  0
  9 10  2  0
 10 11  1  0
 11 12  2  3
 12 13  1  0
 13 14  3  0
 12 15  1  0
 15 16  3  0
  8 17  1  0
 17 18  1  0
 18 19  1  0
 19 20  2  0
 20 21  1  0
 21 22  1  0
 21 23  1  0
  1 24  1  0
 24 25  1  0
 25 26  1  0
 26 27  2  0
 27 28  1  0
 28 29  1  0
 29 30  1  0
 30 31  2  0
 30 32  1  0
 32 33  1  0
 33 34  1  0
 29 35  2  0
 35 36  1  0
 35 37  1  0
 26 38  1  0
 38 39  1  0
 39 40  1  0
 40 41  1  0
 41 42  2  0
 42 43  1  0
 43 44  1  0
 44 45  2  0
 44 46  1  0
 46 47  1  0
 42 48  1  0
 48 49  2  0
 49 50  1  0
 49 51  1  0
 51 52  2  0
 52 53  1  0
 53 54  1  0
 54 55  2  0
 55 56  1  0
 56 57  2  0
 57 58  1  0
 58 59  1  0
 57 60  1  0
 60 61  2  0
 53 62  1  0
 62 63  2  0
 63 64  1  0
 64 65  2  0
 65 66  1  0
 66 67  1  0
 65 68  1  0
 68 69  2  0
 52 70  1  0
 70 71  1  0
 71 72  1  0
 72 73  2  0
 73 74  1  0
 74 75  1  0
 75 76  2  0
 76 77  1  0
 77 78  2  0
 78 79  1  0
 79 80  1  0
 78 81  1  0
 81 82  2  0
 74 83  1  0
 83 84  2  0
 84 85  1  0
 85 86  2  0
 86 87  1  0
 87 88  1  0
 86 89  1  0
 89 90  2  0
 73 91  1  0
 91 92  1  0
 72 93  1  0
 93 94  2  3
 94 95  1  0
 95 96  2  0
 95 97  1  0
 97 98  2  0
 98 99  1  0
 99100  2  0
100101  1  0
101102  2  0
102103  1  0
103104  2  3
104105  1  0
105106  3  0
104107  1  0
107108  3  0
100109  1  0
109110  1  0
110111  1  0
111112  2  0
112113  1  0
113114  1  0
113115  1  0
 11  2  1  0
 23 17  1  0
 36 24  2  0
 47 38  2  0
 92 51  1  0
103 94  1  0
115109  1  0
 10  5  1  0
 22 18  1  0
 36 27  1  0
 46 40  2  0
 61 54  1  0
 69 62  1  0
 91 70  2  0
102 97  1  0
114110  1  0
 23  7  1  0
 50 41  1  0
 82 75  1  0
 90 83  1  0
115 99  1  0
  1116  1  0
  6117  1  0
  9118  1  0
 17119  1  0
 18120  1  0
 19121  1  0
 20122  1  0
 21123  1  0
 22124  1  0
 22125  1  0
 23126  1  0
 33127  1  0
 33128  1  0
 34129  1  0
 34130  1  0
 34131  1  0
 47132  1  0
 48133  1  0
 55134  1  0
 56135  1  0
 59136  1  0
 59137  1  0
 59138  1  0
 60139  1  0
 61140  1  0
 63141  1  0
 64142  1  0
 67143  1  0
 67144  1  0
 67145  1  0
 68146  1  0
 69147  1  0
 76148  1  0
 77149  1  0
 80150  1  0
 80151  1  0
 80152  1  0
 81153  1  0
 82154  1  0
 84155  1  0
 85156  1  0
 88157  1  0
 88158  1  0
 88159  1  0
 89160  1  0
 90161  1  0
 93162  1  0
 98163  1  0
101164  1  0
109165  1  0
110166  1  0
111167  1  0
112168  1  0
113169  1  0
114170  1  0
114171  1  0
115172  1  0
M  END

