
     RDKit          3D

212234  0  0  0  0  0  0  0  0999 V2000
   -7.8290    1.1510    0.6498 C   0  0  0  0  0  0  0  0  0  0  0  0
   -8.8990    1.2623   -0.1608 C   0  0  0  0  0  0  0  0  0  0  0  0
  -10.2417    1.4828    0.3751 C   0  0  0  0  0  0  0  0  0  0  0  0
  -10.5909    1.3226    1.5746 O   0  0  0  0  0  0  0  0  0  0  0  0
  -11.1074    1.9448   -0.6827 C   0  0  0  0  0  0  0  0  0  0  0  0
  -12.4975    2.1835   -0.5974 C   0  0  0  0  0  0  0  0  0  0  0  0
  -13.0930    2.4697   -1.8135 C   0  0  0  0  0  0  0  0  0  0  0  0
  -12.3646    2.5273   -3.0434 C   0  0  0  0  0  0  0  0  0  0  0  0
  -11.0005    2.2983   -3.1323 C   0  0  0  0  0  0  0  0  0  0  0  0
  -10.3647    2.0084   -1.8910 C   0  0  0  0  0  0  0  0  0  0  0  0
   -8.9745    1.5328   -1.6325 C   0  0  0  0  0  0  0  0  0  0  0  0
   -8.0800    1.1835   -2.5840 C   0  0  0  0  0  0  0  0  0  0  0  0
   -7.1709    0.0836   -2.4117 C   0  0  0  0  0  0  0  0  0  0  0  0
   -6.4442   -0.8130   -2.3125 N   0  0  0  0  0  0  0  0  0  0  0  0
   -8.0249    1.8486   -3.8582 C   0  0  0  0  0  0  0  0  0  0  0  0
   -7.9505    2.4000   -4.8697 N   0  0  0  0  0  0  0  0  0  0  0  0
  -13.6301    2.8135   -3.7993 C   0  0  0  0  0  0  0  0  0  0  0  0
  -13.8702    4.2703   -4.2939 C   0  0  0  0  0  0  0  0  0  0  0  0
  -13.2199    5.2539   -3.3484 C   0  0  0  0  0  0  0  0  0  0  0  0
  -13.9069    5.1957   -2.2052 C   0  0  0  0  0  0  0  0  0  0  0  0
  -14.9972    4.1734   -2.4118 C   0  0  0  0  0  0  0  0  0  0  0  0
  -15.3146    4.4511   -3.8702 C   0  0  0  0  0  0  0  0  0  0  0  0
  -14.3765    2.7503   -2.5392 C   0  0  0  0  0  0  0  0  0  0  0  0
   -6.4035    1.1999    0.2554 C   0  0  0  0  0  0  0  0  0  0  0  0
   -5.8190    2.4371   -0.1007 C   0  0  0  0  0  0  0  0  0  0  0  0
   -6.8645    3.8724   -0.4847 S   0  0  0  0  0  0  0  0  0  0  0  0
   -7.3073    4.3124    1.2315 C   0  0  0  0  0  0  0  0  0  0  0  0
   -7.1985    5.8181    1.4218 C   0  0  0  0  0  0  0  0  0  0  0  0
   -4.4139    2.5570   -0.1941 C   0  0  0  0  0  0  0  0  0  0  0  0
   -3.6866    4.2027   -0.3939 S   0  0  0  0  0  0  0  0  0  0  0  0
   -3.5919    4.6198    1.3866 C   0  0  0  0  0  0  0  0  0  0  0  0
   -2.2241    4.2909    1.9648 C   0  0  0  0  0  0  0  0  0  0  0  0
   -3.5990    1.3981   -0.1403 C   0  0  0  0  0  0  0  0  0  0  0  0
   -4.2122    0.1286    0.0345 C   0  0  0  0  0  0  0  0  0  0  0  0
   -5.5828    0.0492    0.4064 C   0  0  0  0  0  0  0  0  0  0  0  0
   -6.1261   -1.2733    0.8899 C   0  0  0  0  0  0  0  0  0  0  0  0
   -7.3108   -1.3950    1.3005 O   0  0  0  0  0  0  0  0  0  0  0  0
   -5.2501   -2.4539    0.9034 C   0  0  0  0  0  0  0  0  0  0  0  0
   -3.9637   -2.3915    0.3809 C   0  0  0  0  0  0  0  0  0  0  0  0
   -3.4495   -1.1423   -0.1798 C   0  0  0  0  0  0  0  0  0  0  0  0
   -2.4139   -1.1688   -0.9004 O   0  0  0  0  0  0  0  0  0  0  0  0
   -3.2692   -3.5916    0.4307 C   0  0  0  0  0  0  0  0  0  0  0  0
   -4.2824   -4.7312    1.1450 S   0  0  0  0  0  0  0  0  0  0  0  0
   -5.5999   -3.7110    1.3831 C   0  0  0  0  0  0  0  0  0  0  0  0
   -2.1094    1.4996   -0.0817 C   0  0  0  0  0  0  0  0  0  0  0  0
   -1.3302    0.8163    0.8491 C   0  0  0  0  0  0  0  0  0  0  0  0
    0.0423    1.0674    0.7335 C   0  0  0  0  0  0  0  0  0  0  0  0
    1.0565    0.4038    1.4404 C   0  0  0  0  0  0  0  0  0  0  0  0
    0.9145   -1.0270    1.7807 C   0  0  0  0  0  0  0  0  0  0  0  0
   -0.0378   -1.6375    2.6185 C   0  0  0  0  0  0  0  0  0  0  0  0
    0.0554   -3.0262    2.5232 C   0  0  0  0  0  0  0  0  0  0  0  0
   -0.7828   -4.3137    3.1947 S   0  0  0  0  0  0  0  0  0  0  0  0
    0.1434   -5.4954    2.3765 C   0  0  0  0  0  0  0  0  0  0  0  0
   -0.1331   -7.3177    2.5009 Si  0  0  0  0  0  4  0  0  0  0  0  0
   -1.6830   -7.7385    1.5289 C   0  0  0  0  0  0  0  0  0  0  0  0
   -1.5856   -7.2454    0.0888 C   0  0  0  0  0  0  0  0  0  0  0  0
    1.3703   -8.2525    1.8353 C   0  0  0  0  0  0  0  0  0  0  0  0
    1.0418   -9.6729    1.3862 C   0  0  0  0  0  0  0  0  0  0  0  0
   -0.3901   -7.6811    4.3276 C   0  0  0  0  0  0  0  0  0  0  0  0
   -0.6192   -9.1585    4.6128 C   0  0  0  0  0  0  0  0  0  0  0  0
    1.0974   -4.8763    1.5634 C   0  0  0  0  0  0  0  0  0  0  0  0
    1.0089   -3.5002    1.6816 C   0  0  0  0  0  0  0  0  0  0  0  0
    1.8164   -2.2318    0.9677 S   0  0  0  0  0  0  0  0  0  0  0  0
    2.3489    0.9153    1.2850 C   0  0  0  0  0  0  0  0  0  0  0  0
    2.6934    1.8353    0.2905 C   0  0  0  0  0  0  0  0  0  0  0  0
    1.6923    2.3583   -0.5656 C   0  0  0  0  0  0  0  0  0  0  0  0
    2.0410    3.0345   -1.8353 C   0  0  0  0  0  0  0  0  0  0  0  0
    3.1801    2.4059   -2.9436 S   0  0  0  0  0  0  0  0  0  0  0  0
    2.8178    3.5126   -4.1372 C   0  0  0  0  0  0  0  0  0  0  0  0
    3.2322    3.6751   -5.4496 C   0  0  0  0  0  0  0  0  0  0  0  0
    2.5190    4.7111   -6.0598 C   0  0  0  0  0  0  0  0  0  0  0  0
    2.6670    5.1829   -7.8356 Si  0  0  0  0  0  4  0  0  0  0  0  0
    1.3831    4.2368   -8.8312 C   0  0  0  0  0  0  0  0  0  0  0  0
    1.6347    2.7330   -8.7979 C   0  0  0  0  0  0  0  0  0  0  0  0
    2.3205    7.0196   -8.0257 C   0  0  0  0  0  0  0  0  0  0  0  0
    3.3416    7.8604   -7.2702 C   0  0  0  0  0  0  0  0  0  0  0  0
    4.4066    4.7763   -8.4374 C   0  0  0  0  0  0  0  0  0  0  0  0
    4.6351    5.2622   -9.8623 C   0  0  0  0  0  0  0  0  0  0  0  0
    1.3817    5.3665   -4.9634 S   0  0  0  0  0  0  0  0  0  0  0  0
    1.8350    4.3470   -3.7117 C   0  0  0  0  0  0  0  0  0  0  0  0
    1.3635    4.1186   -2.4212 C   0  0  0  0  0  0  0  0  0  0  0  0
    0.3569    1.9995   -0.2614 C   0  0  0  0  0  0  0  0  0  0  0  0
   -1.0767    2.4178   -1.0595 S   0  0  0  0  0  0  0  0  0  0  0  0
    4.0855    2.0655    0.2255 C   0  0  0  0  0  0  0  0  0  0  0  0
    4.8008    1.3398    1.1853 C   0  0  0  0  0  0  0  0  0  0  0  0
    3.7282    0.4092    2.0861 S   0  0  0  0  0  0  0  0  0  0  0  0
    6.2661    1.1853    1.3287 C   0  0  0  0  0  0  0  0  0  0  0  0
    6.7983   -0.0914    1.0519 C   0  0  0  0  0  0  0  0  0  0  0  0
    5.8880   -1.2466   -0.0112 S   0  0  0  0  0  0  0  0  0  0  0  0
    6.7993   -0.8311   -1.5376 C   0  0  0  0  0  0  0  0  0  0  0  0
    6.0697    0.2630   -2.3099 C   0  0  0  0  0  0  0  0  0  0  0  0
    7.9432   -0.5368    1.7276 C   0  0  0  0  0  0  0  0  0  0  0  0
    8.4626   -2.2683    1.5750 S   0  0  0  0  0  0  0  0  0  0  0  0
    9.8921   -1.9447    0.4808 C   0  0  0  0  0  0  0  0  0  0  0  0
    9.9373   -2.9770   -0.6394 C   0  0  0  0  0  0  0  0  0  0  0  0
    8.5818    0.3081    2.6528 C   0  0  0  0  0  0  0  0  0  0  0  0
    8.2105    1.6734    2.7460 C   0  0  0  0  0  0  0  0  0  0  0  0
    7.0278    2.1183    2.0834 C   0  0  0  0  0  0  0  0  0  0  0  0
    6.5789    3.5381    2.2626 C   0  0  0  0  0  0  0  0  0  0  0  0
    5.5952    4.0016    1.6329 O   0  0  0  0  0  0  0  0  0  0  0  0
    7.3193    4.4253    3.1683 C   0  0  0  0  0  0  0  0  0  0  0  0
    8.4803    3.9920    3.8057 C   0  0  0  0  0  0  0  0  0  0  0  0
    8.9896    2.6313    3.5965 C   0  0  0  0  0  0  0  0  0  0  0  0
   10.0961    2.3046    4.1095 O   0  0  0  0  0  0  0  0  0  0  0  0
    9.0821    4.9594    4.6034 C   0  0  0  0  0  0  0  0  0  0  0  0
    8.1479    6.3554    4.4956 S   0  0  0  0  0  0  0  0  0  0  0  0
    6.9852    5.7467    3.4443 C   0  0  0  0  0  0  0  0  0  0  0  0
    9.4690   -0.3172    3.6560 C   0  0  0  0  0  0  0  0  0  0  0  0
    8.9664   -0.8602    4.7824 C   0  0  0  0  0  0  0  0  0  0  0  0
    7.5412   -0.8537    5.1433 C   0  0  0  0  0  0  0  0  0  0  0  0
    6.6694   -0.0327    4.7476 O   0  0  0  0  0  0  0  0  0  0  0  0
    7.2772   -1.9715    6.0183 C   0  0  0  0  0  0  0  0  0  0  0  0
    6.0079   -2.4489    6.4177 C   0  0  0  0  0  0  0  0  0  0  0  0
    6.0509   -3.6604    7.0784 C   0  0  0  0  0  0  0  0  0  0  0  0
    7.2667   -4.3727    7.3295 C   0  0  0  0  0  0  0  0  0  0  0  0
    8.5152   -3.9054    6.9474 C   0  0  0  0  0  0  0  0  0  0  0  0
    8.4979   -2.6446    6.2872 C   0  0  0  0  0  0  0  0  0  0  0  0
    9.6151   -1.9018    5.6331 C   0  0  0  0  0  0  0  0  0  0  0  0
   10.9372   -2.0134    5.9117 C   0  0  0  0  0  0  0  0  0  0  0  0
   11.4494   -2.9731    6.8519 C   0  0  0  0  0  0  0  0  0  0  0  0
   11.8737   -3.7452    7.6055 N   0  0  0  0  0  0  0  0  0  0  0  0
   11.9070   -1.0904    5.3829 C   0  0  0  0  0  0  0  0  0  0  0  0
   12.6902   -0.3495    4.9585 N   0  0  0  0  0  0  0  0  0  0  0  0
    6.4919   -5.5133    7.9213 C   0  0  0  0  0  0  0  0  0  0  0  0
    6.3313   -6.8062    7.0625 C   0  0  0  0  0  0  0  0  0  0  0  0
    6.3285   -6.4537    5.5933 C   0  0  0  0  0  0  0  0  0  0  0  0
    5.1966   -5.7873    5.3624 C   0  0  0  0  0  0  0  0  0  0  0  0
    4.4680   -5.7066    6.6849 C   0  0  0  0  0  0  0  0  0  0  0  0
    4.8487   -7.0607    7.2496 C   0  0  0  0  0  0  0  0  0  0  0  0
    5.2476   -4.7814    7.6689 C   0  0  0  0  0  0  0  0  0  0  0  0
   -8.0088    1.0437    1.7119 H   0  0  0  0  0  0  0  0  0  0  0  0
  -13.0584    2.1100    0.3265 H   0  0  0  0  0  0  0  0  0  0  0  0
  -10.5104    2.3035   -4.0900 H   0  0  0  0  0  0  0  0  0  0  0  0
  -13.9130    2.0196   -4.5274 H   0  0  0  0  0  0  0  0  0  0  0  0
  -13.6626    4.4463   -5.3704 H   0  0  0  0  0  0  0  0  0  0  0  0
  -12.4088    5.9375   -3.5702 H   0  0  0  0  0  0  0  0  0  0  0  0
  -13.7530    5.8272   -1.3386 H   0  0  0  0  0  0  0  0  0  0  0  0
  -15.8547    4.2533   -1.7124 H   0  0  0  0  0  0  0  0  0  0  0  0
  -16.0072    3.7049   -4.3255 H   0  0  0  0  0  0  0  0  0  0  0  0
  -15.7057    5.4791   -4.0497 H   0  0  0  0  0  0  0  0  0  0  0  0
  -15.1102    1.9129   -2.5052 H   0  0  0  0  0  0  0  0  0  0  0  0
   -6.6661    3.7929    1.9740 H   0  0  0  0  0  0  0  0  0  0  0  0
   -8.3606    4.0034    1.4067 H   0  0  0  0  0  0  0  0  0  0  0  0
   -7.6259    6.1077    2.4045 H   0  0  0  0  0  0  0  0  0  0  0  0
   -6.1364    6.1310    1.3929 H   0  0  0  0  0  0  0  0  0  0  0  0
   -7.7522    6.3526    0.6213 H   0  0  0  0  0  0  0  0  0  0  0  0
   -4.3752    4.0974    1.9709 H   0  0  0  0  0  0  0  0  0  0  0  0
   -3.7580    5.7146    1.4860 H   0  0  0  0  0  0  0  0  0  0  0  0
   -2.1333    4.7465    2.9719 H   0  0  0  0  0  0  0  0  0  0  0  0
   -1.4185    4.6934    1.3149 H   0  0  0  0  0  0  0  0  0  0  0  0
   -2.1087    3.1936    2.0727 H   0  0  0  0  0  0  0  0  0  0  0  0
   -2.2573   -3.7617    0.0894 H   0  0  0  0  0  0  0  0  0  0  0  0
   -6.5494   -3.9867    1.8279 H   0  0  0  0  0  0  0  0  0  0  0  0
   -1.7582    0.1619    1.5929 H   0  0  0  0  0  0  0  0  0  0  0  0
   -0.7562   -1.1147    3.2334 H   0  0  0  0  0  0  0  0  0  0  0  0
   -1.8335   -8.8374    1.5392 H   0  0  0  0  0  0  0  0  0  0  0  0
   -2.5547   -7.2603    2.0235 H   0  0  0  0  0  0  0  0  0  0  0  0
   -2.4976   -7.5391   -0.4654 H   0  0  0  0  0  0  0  0  0  0  0  0
   -1.4901   -6.1401    0.0621 H   0  0  0  0  0  0  0  0  0  0  0  0
   -0.7093   -7.6963   -0.4223 H   0  0  0  0  0  0  0  0  0  0  0  0
    1.7792   -7.7047    0.9622 H   0  0  0  0  0  0  0  0  0  0  0  0
    2.1506   -8.2832    2.6262 H   0  0  0  0  0  0  0  0  0  0  0  0
    0.3305   -9.6597    0.5359 H   0  0  0  0  0  0  0  0  0  0  0  0
    1.9714  -10.1797    1.0535 H   0  0  0  0  0  0  0  0  0  0  0  0
    0.6000  -10.2636    2.2117 H   0  0  0  0  0  0  0  0  0  0  0  0
    0.5021   -7.3306    4.8876 H   0  0  0  0  0  0  0  0  0  0  0  0
   -1.2728   -7.1052    4.6779 H   0  0  0  0  0  0  0  0  0  0  0  0
    0.3080   -9.7358    4.4151 H   0  0  0  0  0  0  0  0  0  0  0  0
   -1.4523   -9.5528    3.9941 H   0  0  0  0  0  0  0  0  0  0  0  0
   -0.8795   -9.2824    5.6845 H   0  0  0  0  0  0  0  0  0  0  0  0
    1.7965   -5.3814    0.9141 H   0  0  0  0  0  0  0  0  0  0  0  0
    3.9680    3.0534   -5.9368 H   0  0  0  0  0  0  0  0  0  0  0  0
    1.4094    4.5941   -9.8830 H   0  0  0  0  0  0  0  0  0  0  0  0
    0.3812    4.4537   -8.4076 H   0  0  0  0  0  0  0  0  0  0  0  0
    2.6042    2.4905   -9.2848 H   0  0  0  0  0  0  0  0  0  0  0  0
    1.6424    2.3619   -7.7517 H   0  0  0  0  0  0  0  0  0  0  0  0
    0.8256    2.2129   -9.3521 H   0  0  0  0  0  0  0  0  0  0  0  0
    1.3025    7.2357   -7.6359 H   0  0  0  0  0  0  0  0  0  0  0  0
    2.3469    7.2842   -9.1029 H   0  0  0  0  0  0  0  0  0  0  0  0
    3.3356    7.6004   -6.1898 H   0  0  0  0  0  0  0  0  0  0  0  0
    3.0870    8.9360   -7.3764 H   0  0  0  0  0  0  0  0  0  0  0  0
    4.3594    7.6996   -7.6847 H   0  0  0  0  0  0  0  0  0  0  0  0
    5.1423    5.2529   -7.7581 H   0  0  0  0  0  0  0  0  0  0  0  0
    4.5542    3.6789   -8.3946 H   0  0  0  0  0  0  0  0  0  0  0  0
    3.8994    4.8009  -10.5521 H   0  0  0  0  0  0  0  0  0  0  0  0
    4.5529    6.3675   -9.9142 H   0  0  0  0  0  0  0  0  0  0  0  0
    5.6560    4.9733  -10.1879 H   0  0  0  0  0  0  0  0  0  0  0  0
    0.5547    4.6702   -1.9587 H   0  0  0  0  0  0  0  0  0  0  0  0
    4.5601    2.7213   -0.4920 H   0  0  0  0  0  0  0  0  0  0  0  0
    6.8451   -1.7431   -2.1693 H   0  0  0  0  0  0  0  0  0  0  0  0
    7.8409   -0.5061   -1.3198 H   0  0  0  0  0  0  0  0  0  0  0  0
    5.0091   -0.0329   -2.4791 H   0  0  0  0  0  0  0  0  0  0  0  0
    6.1095    1.2205   -1.7459 H   0  0  0  0  0  0  0  0  0  0  0  0
    6.5580    0.4168   -3.2986 H   0  0  0  0  0  0  0  0  0  0  0  0
    9.8535   -0.9248    0.0345 H   0  0  0  0  0  0  0  0  0  0  0  0
   10.8226   -2.0316    1.0847 H   0  0  0  0  0  0  0  0  0  0  0  0
    9.8303   -4.0085   -0.2295 H   0  0  0  0  0  0  0  0  0  0  0  0
   10.9075   -2.9073   -1.1809 H   0  0  0  0  0  0  0  0  0  0  0  0
    9.1053   -2.7924   -1.3539 H   0  0  0  0  0  0  0  0  0  0  0  0
    9.9884    4.8423    5.1805 H   0  0  0  0  0  0  0  0  0  0  0  0
    6.1361    6.2884    3.0523 H   0  0  0  0  0  0  0  0  0  0  0  0
   10.4773   -0.5373    3.3409 H   0  0  0  0  0  0  0  0  0  0  0  0
    5.0806   -1.9524    6.1659 H   0  0  0  0  0  0  0  0  0  0  0  0
    9.3960   -4.5088    7.0887 H   0  0  0  0  0  0  0  0  0  0  0  0
    6.6987   -5.6880    8.9997 H   0  0  0  0  0  0  0  0  0  0  0  0
    7.0008   -7.6433    7.3474 H   0  0  0  0  0  0  0  0  0  0  0  0
    7.0609   -6.7412    4.8471 H   0  0  0  0  0  0  0  0  0  0  0  0
    4.8469   -5.4391    4.3984 H   0  0  0  0  0  0  0  0  0  0  0  0
    3.3801   -5.5089    6.6096 H   0  0  0  0  0  0  0  0  0  0  0  0
    4.5483   -7.1984    8.3147 H   0  0  0  0  0  0  0  0  0  0  0  0
    4.4644   -7.9164    6.6447 H   0  0  0  0  0  0  0  0  0  0  0  0
    4.6950   -4.5026    8.5907 H   0  0  0  0  0  0  0  0  0  0  0  0
  1  2  2  3
  2  3  1  0
  3  4  2  0
  3  5  1  0
  5  6  2  0
  6  7  1  0
  7  8  2  0
  8  9  1  0
  9 10  2  0
 10 11  1  0
 11 12  2  3
 12 13  1  0
 13 14  3  0
 12 15  1  0
 15 16  3  0
  8 17  1  0
 17 18  1  0
 18 19  1  0
 19 20  2  0
 20 21  1  0
 21 22  1  0
 21 23  1  0
  1 24  1  0
 24 25  2  0
 25 26  1  0
 26 27  1  0
 27 28  1  0
 25 29  1  0
 29 30  1  0
 30 31  1  0
 31 32  1  0
 29 33  2  0
 33 34  1  0
 34 35  2  0
 35 36  1  0
 36 37  2  0
 36 38  1  0
 38 39  1  0
 39 40  1  0
 40 41  2  0
 39 42  2  0
 42 43  1  0
 43 44  1  0
 33 45  1  0
 45 46  2  0
 46 47  1  0
 47 48  2  0
 48 49  1  0
 49 50  2  0
 50 51  1  0
 51 52  1  0
 52 53  1  0
 53 54  1  0
 54 55  1  0
 55 56  1  0
 54 57  1  0
 57 58  1  0
 54 59  1  0
 59 60  1  0
 53 61  2  0
 61 62  1  0
 62 63  1  0
 48 64  1  0
 64 65  2  0
 65 66  1  0
 66 67  1  0
 67 68  1  0
 68 69  1  0
 69 70  1  0
 70 71  2  0
 71 72  1  0
 72 73  1  0
 73 74  1  0
 72 75  1  0
 75 76  1  0
 72 77  1  0
 77 78  1  0
 71 79  1  0
 79 80  1  0
 80 81  1  0
 66 82  2  0
 82 83  1  0
 65 84  1  0
 84 85  2  0
 85 86  1  0
 85 87  1  0
 87 88  2  0
 88 89  1  0
 89 90  1  0
 90 91  1  0
 88 92  1  0
 92 93  1  0
 93 94  1  0
 94 95  1  0
 92 96  2  0
 96 97  1  0
 97 98  2  0
 98 99  1  0
 99100  2  0
 99101  1  0
101102  1  0
102103  1  0
103104  2  0
102105  2  0
105106  1  0
106107  1  0
 96108  1  0
108109  2  3
109110  1  0
110111  2  0
110112  1  0
112113  2  0
113114  1  0
114115  2  0
115116  1  0
116117  2  0
117118  1  0
118119  2  3
119120  1  0
120121  3  0
119122  1  0
122123  3  0
115124  1  0
124125  1  0
125126  1  0
126127  2  0
127128  1  0
128129  1  0
128130  1  0
 11  2  1  0
 23 17  1  0
 35 24  1  0
 44 38  2  0
 83 45  1  0
 98 87  1  0
107101  2  0
118109  1  0
130124  1  0
 10  5  1  0
 22 18  1  0
 40 34  1  0
 82 47  1  0
103 97  1  0
117112  1  0
129125  1  0
 23  7  1  0
 63 49  1  0
 86 64  1  0
130114  1  0
 62 51  2  0
 81 67  2  0
 80 69  2  0
  1131  1  0
  6132  1  0
  9133  1  0
 17134  1  0
 18135  1  0
 19136  1  0
 20137  1  0
 21138  1  0
 22139  1  0
 22140  1  0
 23141  1  0
 27142  1  0
 27143  1  0
 28144  1  0
 28145  1  0
 28146  1  0
 31147  1  0
 31148  1  0
 32149  1  0
 32150  1  0
 32151  1  0
 42152  1  0
 44153  1  0
 46154  1  0
 50155  1  0
 55156  1  0
 55157  1  0
 56158  1  0
 56159  1  0
 56160  1  0
 57161  1  0
 57162  1  0
 58163  1  0
 58164  1  0
 58165  1  0
 59166  1  0
 59167  1  0
 60168  1  0
 60169  1  0
 60170  1  0
 61171  1  0
 70172  1  0
 73173  1  0
 73174  1  0
 74175  1  0
 74176  1  0
 74177  1  0
 75178  1  0
 75179  1  0
 76180  1  0
 76181  1  0
 76182  1  0
 77183  1  0
 77184  1  0
 78185  1  0
 78186  1  0
 78187  1  0
 81188  1  0
 84189  1  0
 90190  1  0
 90191  1  0
 91192  1  0
 91193  1  0
 91194  1  0
 94195  1  0
 94196  1  0
 95197  1  0
 95198  1  0
 95199  1  0
105200  1  0
107201  1  0
108202  1  0
113203  1  0
116204  1  0
124205  1  0
125206  1  0
126207  1  0
127208  1  0
128209  1  0
129210  1  0
129211  1  0
130212  1  0
M  END

