
     RDKit          3D

183204  0  0  0  0  0  0  0  0999 V2000
    2.9188   -4.6890   -3.5242 C   0  0  0  0  0  0  0  0  0  0  0  0
    3.1974   -4.9567   -4.8208 C   0  0  0  0  0  0  0  0  0  0  0  0
    4.5605   -4.8138   -5.3316 C   0  0  0  0  0  0  0  0  0  0  0  0
    5.6008   -4.6677   -4.6346 O   0  0  0  0  0  0  0  0  0  0  0  0
    4.5264   -4.7839   -6.7736 C   0  0  0  0  0  0  0  0  0  0  0  0
    5.6334   -4.6488   -7.6429 C   0  0  0  0  0  0  0  0  0  0  0  0
    5.3126   -4.7481   -8.9807 C   0  0  0  0  0  0  0  0  0  0  0  0
    3.9753   -4.9592   -9.4522 C   0  0  0  0  0  0  0  0  0  0  0  0
    2.8855   -5.0718   -8.6031 C   0  0  0  0  0  0  0  0  0  0  0  0
    3.1921   -4.9733   -7.2116 C   0  0  0  0  0  0  0  0  0  0  0  0
    2.3036   -5.1524   -6.0131 C   0  0  0  0  0  0  0  0  0  0  0  0
    1.0436   -5.6518   -6.0144 C   0  0  0  0  0  0  0  0  0  0  0  0
    0.4525   -6.2446   -4.8431 C   0  0  0  0  0  0  0  0  0  0  0  0
   -0.0180   -6.7077   -3.8917 N   0  0  0  0  0  0  0  0  0  0  0  0
    0.2010   -5.6286   -7.1822 C   0  0  0  0  0  0  0  0  0  0  0  0
   -0.4926   -5.5932   -8.1093 N   0  0  0  0  0  0  0  0  0  0  0  0
    4.4640   -4.9911  -10.8724 C   0  0  0  0  0  0  0  0  0  0  0  0
    4.1774   -3.7549  -11.7757 C   0  0  0  0  0  0  0  0  0  0  0  0
    4.1179   -2.5015  -10.9330 C   0  0  0  0  0  0  0  0  0  0  0  0
    5.3572   -2.2806  -10.4918 C   0  0  0  0  0  0  0  0  0  0  0  0
    6.2180   -3.3941  -11.0430 C   0  0  0  0  0  0  0  0  0  0  0  0
    5.5491   -3.5584  -12.3975 C   0  0  0  0  0  0  0  0  0  0  0  0
    5.8293   -4.7561  -10.3916 C   0  0  0  0  0  0  0  0  0  0  0  0
    1.6216   -4.3347   -2.8838 C   0  0  0  0  0  0  0  0  0  0  0  0
    0.8657   -3.2284   -3.3334 C   0  0  0  0  0  0  0  0  0  0  0  0
    1.3142   -2.3329   -4.8416 S   0  0  0  0  0  0  0  0  0  0  0  0
    2.4622   -1.1745   -4.0090 C   0  0  0  0  0  0  0  0  0  0  0  0
    2.1281    0.2627   -4.3872 C   0  0  0  0  0  0  0  0  0  0  0  0
   -0.1213   -2.6737   -2.4984 C   0  0  0  0  0  0  0  0  0  0  0  0
   -1.2052   -1.3620   -3.1243 S   0  0  0  0  0  0  0  0  0  0  0  0
   -2.4872   -2.4833   -3.7980 C   0  0  0  0  0  0  0  0  0  0  0  0
   -2.2223   -2.8166   -5.2601 C   0  0  0  0  0  0  0  0  0  0  0  0
   -0.0849   -2.9462   -1.1164 C   0  0  0  0  0  0  0  0  0  0  0  0
    0.6285   -4.0819   -0.6584 C   0  0  0  0  0  0  0  0  0  0  0  0
    1.3560   -4.8655   -1.5972 C   0  0  0  0  0  0  0  0  0  0  0  0
    1.9280   -6.1838   -1.1709 C   0  0  0  0  0  0  0  0  0  0  0  0
    2.4561   -6.9650   -2.0053 O   0  0  0  0  0  0  0  0  0  0  0  0
    1.8135   -6.6036    0.2328 C   0  0  0  0  0  0  0  0  0  0  0  0
    1.2474   -5.7527    1.1824 C   0  0  0  0  0  0  0  0  0  0  0  0
    0.7384   -4.4302    0.7964 C   0  0  0  0  0  0  0  0  0  0  0  0
    0.4454   -3.6044    1.7022 O   0  0  0  0  0  0  0  0  0  0  0  0
    1.2037   -6.2881    2.4655 C   0  0  0  0  0  0  0  0  0  0  0  0
    1.8570   -7.8368    2.3827 S   0  0  0  0  0  0  0  0  0  0  0  0
    2.2183   -7.8354    0.7423 C   0  0  0  0  0  0  0  0  0  0  0  0
   -0.2417   -1.7668   -0.2401 C   0  0  0  0  0  0  0  0  0  0  0  0
   -1.2682   -1.3919    0.6753 C   0  0  0  0  0  0  0  0  0  0  0  0
   -2.3235   -2.2500    1.1845 N   0  0  0  0  0  0  0  0  0  0  0  0
   -2.6666   -3.5101    0.5947 C   0  0  0  0  0  0  0  0  0  0  0  0
   -2.4065   -4.7002    1.2934 C   0  0  0  0  0  0  0  0  0  0  0  0
   -2.8181   -5.9273    0.7727 C   0  0  0  0  0  0  0  0  0  0  0  0
   -3.5577   -5.9698   -0.4155 C   0  0  0  0  0  0  0  0  0  0  0  0
   -4.1635   -7.5402   -1.0415 S   0  0  0  0  0  0  0  0  0  0  0  0
   -5.6279   -7.5505    0.0461 C   0  0  0  0  0  0  0  0  0  0  0  0
   -3.8467   -4.7820   -1.0997 C   0  0  0  0  0  0  0  0  0  0  0  0
   -3.4049   -3.5544   -0.5924 C   0  0  0  0  0  0  0  0  0  0  0  0
   -3.0402   -1.8831    2.3701 C   0  0  0  0  0  0  0  0  0  0  0  0
   -2.3925   -1.8756    3.6135 C   0  0  0  0  0  0  0  0  0  0  0  0
   -3.0495   -1.3714    4.7402 C   0  0  0  0  0  0  0  0  0  0  0  0
   -4.3560   -0.8788    4.6287 C   0  0  0  0  0  0  0  0  0  0  0  0
   -5.1545   -0.1159    6.0398 S   0  0  0  0  0  0  0  0  0  0  0  0
   -4.5381    1.5484    5.6293 C   0  0  0  0  0  0  0  0  0  0  0  0
   -5.0226   -0.9422    3.3983 C   0  0  0  0  0  0  0  0  0  0  0  0
   -4.3673   -1.4446    2.2720 C   0  0  0  0  0  0  0  0  0  0  0  0
   -1.0276   -0.0777    1.1352 C   0  0  0  0  0  0  0  0  0  0  0  0
   -1.7833    1.0149    2.1744 S   0  0  0  0  0  0  0  0  0  0  0  0
   -0.6269    2.2510    1.9817 C   0  0  0  0  0  0  0  0  0  0  0  0
    0.3650    1.7964    1.1004 C   0  0  0  0  0  0  0  0  0  0  0  0
    1.5826    2.4898    0.7847 N   0  0  0  0  0  0  0  0  0  0  0  0
    2.7931    2.0448    1.4285 C   0  0  0  0  0  0  0  0  0  0  0  0
    2.8296    1.8532    2.8206 C   0  0  0  0  0  0  0  0  0  0  0  0
    3.9784    1.3449    3.4320 C   0  0  0  0  0  0  0  0  0  0  0  0
    5.0986    1.0123    2.6630 C   0  0  0  0  0  0  0  0  0  0  0  0
    6.5546    0.3169    3.4491 S   0  0  0  0  0  0  0  0  0  0  0  0
    5.9298   -1.3895    3.3687 C   0  0  0  0  0  0  0  0  0  0  0  0
    5.0726    1.2020    1.2776 C   0  0  0  0  0  0  0  0  0  0  0  0
    3.9275    1.7112    0.6631 C   0  0  0  0  0  0  0  0  0  0  0  0
    1.6502    3.3293   -0.3857 C   0  0  0  0  0  0  0  0  0  0  0  0
    0.8958    3.0332   -1.5396 C   0  0  0  0  0  0  0  0  0  0  0  0
    0.9731    3.8575   -2.6654 C   0  0  0  0  0  0  0  0  0  0  0  0
    1.7879    4.9934   -2.6496 C   0  0  0  0  0  0  0  0  0  0  0  0
    1.8895    6.0474   -4.0971 S   0  0  0  0  0  0  0  0  0  0  0  0
    3.3539    5.2056   -4.7622 C   0  0  0  0  0  0  0  0  0  0  0  0
    2.5319    5.2993   -1.5061 C   0  0  0  0  0  0  0  0  0  0  0  0
    2.4717    4.4720   -0.3832 C   0  0  0  0  0  0  0  0  0  0  0  0
    0.1004    0.5079    0.6645 C   0  0  0  0  0  0  0  0  0  0  0  0
    0.9020   -0.5116   -0.3674 S   0  0  0  0  0  0  0  0  0  0  0  0
   -0.6188    3.5274    2.7272 C   0  0  0  0  0  0  0  0  0  0  0  0
   -0.5686    4.7614    2.0577 C   0  0  0  0  0  0  0  0  0  0  0  0
   -0.5091    5.9866    2.7679 C   0  0  0  0  0  0  0  0  0  0  0  0
   -0.4882    7.1570    1.9405 N   0  0  0  0  0  0  0  0  0  0  0  0
   -0.5786    6.4880    0.4946 S   0  0  0  0  0  4  0  0  0  0  0  0
   -0.6443    4.9013    0.6387 N   0  0  0  0  0  0  0  0  0  0  0  0
   -0.5395    6.0160    4.1680 C   0  0  0  0  0  0  0  0  0  0  0  0
   -0.6132    4.7889    4.8522 C   0  0  0  0  0  0  0  0  0  0  0  0
   -0.6749    4.7059    6.2060 N   0  0  0  0  0  0  0  0  0  0  0  0
   -0.7641    3.0697    6.4051 S   0  0  0  0  0  0  0  0  0  0  0  0
   -0.7317    2.4205    4.8883 N   0  0  0  0  0  0  0  0  0  0  0  0
   -0.6543    3.5487    4.1340 C   0  0  0  0  0  0  0  0  0  0  0  0
   -0.5834    7.2861    4.9137 C   0  0  0  0  0  0  0  0  0  0  0  0
   -1.7312    7.9498    5.1190 C   0  0  0  0  0  0  0  0  0  0  0  0
   -3.0548    7.4882    4.6807 C   0  0  0  0  0  0  0  0  0  0  0  0
   -3.2989    6.7395    3.6946 O   0  0  0  0  0  0  0  0  0  0  0  0
   -4.0467    7.9905    5.6073 C   0  0  0  0  0  0  0  0  0  0  0  0
   -5.3963    7.5792    5.7036 C   0  0  0  0  0  0  0  0  0  0  0  0
   -6.0294    8.0058    6.8504 C   0  0  0  0  0  0  0  0  0  0  0  0
   -5.3856    8.8071    7.8475 C   0  0  0  0  0  0  0  0  0  0  0  0
   -4.0710    9.2374    7.7446 C   0  0  0  0  0  0  0  0  0  0  0  0
   -3.4025    8.8156    6.5641 C   0  0  0  0  0  0  0  0  0  0  0  0
   -1.9714    8.9474    6.2005 C   0  0  0  0  0  0  0  0  0  0  0  0
   -1.1089    9.8958    6.6382 C   0  0  0  0  0  0  0  0  0  0  0  0
    0.2016   10.0526    6.0644 C   0  0  0  0  0  0  0  0  0  0  0  0
    1.2543   10.1921    5.5995 N   0  0  0  0  0  0  0  0  0  0  0  0
   -1.4993   10.9201    7.5783 C   0  0  0  0  0  0  0  0  0  0  0  0
   -1.8139   11.7647    8.3024 N   0  0  0  0  0  0  0  0  0  0  0  0
   -6.5997    8.7126    8.7258 C   0  0  0  0  0  0  0  0  0  0  0  0
   -6.5308    7.7558    9.9564 C   0  0  0  0  0  0  0  0  0  0  0  0
   -5.6024    6.5996    9.6566 C   0  0  0  0  0  0  0  0  0  0  0  0
   -6.2065    5.8578    8.7274 C   0  0  0  0  0  0  0  0  0  0  0  0
   -7.5165    6.5398    8.4160 C   0  0  0  0  0  0  0  0  0  0  0  0
   -7.8584    7.0406    9.8070 C   0  0  0  0  0  0  0  0  0  0  0  0
   -7.2611    7.8972    7.6968 C   0  0  0  0  0  0  0  0  0  0  0  0
    3.7682   -4.6078   -2.8529 H   0  0  0  0  0  0  0  0  0  0  0  0
    6.6475   -4.5123   -7.2932 H   0  0  0  0  0  0  0  0  0  0  0  0
    1.9051   -5.2521   -9.0101 H   0  0  0  0  0  0  0  0  0  0  0  0
    4.3350   -5.9764  -11.3716 H   0  0  0  0  0  0  0  0  0  0  0  0
    3.3412   -3.8763  -12.5012 H   0  0  0  0  0  0  0  0  0  0  0  0
    3.2650   -1.8485  -10.7867 H   0  0  0  0  0  0  0  0  0  0  0  0
    5.6859   -1.4113   -9.9362 H   0  0  0  0  0  0  0  0  0  0  0  0
    7.3035   -3.1784  -11.0772 H   0  0  0  0  0  0  0  0  0  0  0  0
    5.9193   -4.4463  -12.9714 H   0  0  0  0  0  0  0  0  0  0  0  0
    5.6158   -2.6466  -13.0434 H   0  0  0  0  0  0  0  0  0  0  0  0
    6.5299   -5.5962  -10.6085 H   0  0  0  0  0  0  0  0  0  0  0  0
    2.4108   -1.2626   -2.9049 H   0  0  0  0  0  0  0  0  0  0  0  0
    3.4978   -1.4160   -4.3240 H   0  0  0  0  0  0  0  0  0  0  0  0
    2.1276    0.3876   -5.4908 H   0  0  0  0  0  0  0  0  0  0  0  0
    2.8761    0.9528   -3.9463 H   0  0  0  0  0  0  0  0  0  0  0  0
    1.1274    0.5386   -3.9989 H   0  0  0  0  0  0  0  0  0  0  0  0
   -2.5338   -3.4206   -3.2125 H   0  0  0  0  0  0  0  0  0  0  0  0
   -3.4707   -1.9721   -3.7263 H   0  0  0  0  0  0  0  0  0  0  0  0
   -1.3639   -3.5155   -5.3421 H   0  0  0  0  0  0  0  0  0  0  0  0
   -2.0175   -1.8896   -5.8371 H   0  0  0  0  0  0  0  0  0  0  0  0
   -3.1131   -3.3147   -5.6981 H   0  0  0  0  0  0  0  0  0  0  0  0
    0.8088   -5.8071    3.3499 H   0  0  0  0  0  0  0  0  0  0  0  0
    2.6626   -8.6447    0.1821 H   0  0  0  0  0  0  0  0  0  0  0  0
   -1.8869   -4.6779    2.2430 H   0  0  0  0  0  0  0  0  0  0  0  0
   -2.6009   -6.8436    1.3088 H   0  0  0  0  0  0  0  0  0  0  0  0
   -5.3143   -7.6762    1.1053 H   0  0  0  0  0  0  0  0  0  0  0  0
   -6.2883   -8.3955   -0.2394 H   0  0  0  0  0  0  0  0  0  0  0  0
   -6.1963   -6.6019   -0.0602 H   0  0  0  0  0  0  0  0  0  0  0  0
   -4.4311   -4.8081   -2.0106 H   0  0  0  0  0  0  0  0  0  0  0  0
   -3.6626   -2.6356   -1.1009 H   0  0  0  0  0  0  0  0  0  0  0  0
   -1.3675   -2.2187    3.6994 H   0  0  0  0  0  0  0  0  0  0  0  0
   -2.5294   -1.3280    5.6902 H   0  0  0  0  0  0  0  0  0  0  0  0
   -4.9164    2.2772    6.3767 H   0  0  0  0  0  0  0  0  0  0  0  0
   -3.4298    1.5537    5.6463 H   0  0  0  0  0  0  0  0  0  0  0  0
   -4.8911    1.8512    4.6211 H   0  0  0  0  0  0  0  0  0  0  0  0
   -6.0299   -0.5623    3.3079 H   0  0  0  0  0  0  0  0  0  0  0  0
   -4.8717   -1.4506    1.3143 H   0  0  0  0  0  0  0  0  0  0  0  0
    1.9670    2.0878    3.4319 H   0  0  0  0  0  0  0  0  0  0  0  0
    3.9971    1.2030    4.5044 H   0  0  0  0  0  0  0  0  0  0  0  0
    6.6550   -2.0695    3.8636 H   0  0  0  0  0  0  0  0  0  0  0  0
    4.9556   -1.4667    3.8926 H   0  0  0  0  0  0  0  0  0  0  0  0
    5.8044   -1.7008    2.3119 H   0  0  0  0  0  0  0  0  0  0  0  0
    5.9321    0.9415    0.6746 H   0  0  0  0  0  0  0  0  0  0  0  0
    3.9180    1.8277   -0.4169 H   0  0  0  0  0  0  0  0  0  0  0  0
    0.2557    2.1629   -1.5837 H   0  0  0  0  0  0  0  0  0  0  0  0
    0.3929    3.6126   -3.5479 H   0  0  0  0  0  0  0  0  0  0  0  0
    3.1052    4.1564   -5.0160 H   0  0  0  0  0  0  0  0  0  0  0  0
    4.1765    5.2193   -4.0191 H   0  0  0  0  0  0  0  0  0  0  0  0
    3.6923    5.7285   -5.6815 H   0  0  0  0  0  0  0  0  0  0  0  0
    3.1588    6.1823   -1.4875 H   0  0  0  0  0  0  0  0  0  0  0  0
    3.0488    4.7258    0.4973 H   0  0  0  0  0  0  0  0  0  0  0  0
    0.2961    7.5371    5.4852 H   0  0  0  0  0  0  0  0  0  0  0  0
   -5.8617    6.8993    4.9973 H   0  0  0  0  0  0  0  0  0  0  0  0
   -3.5921    9.7522    8.5642 H   0  0  0  0  0  0  0  0  0  0  0  0
   -7.0978    9.6902    8.9184 H   0  0  0  0  0  0  0  0  0  0  0  0
   -6.3655    8.2496   10.9341 H   0  0  0  0  0  0  0  0  0  0  0  0
   -4.6675    6.3616   10.1498 H   0  0  0  0  0  0  0  0  0  0  0  0
   -5.8447    4.9133    8.3396 H   0  0  0  0  0  0  0  0  0  0  0  0
   -8.2833    5.8914    7.9389 H   0  0  0  0  0  0  0  0  0  0  0  0
   -8.0101    6.2195   10.5480 H   0  0  0  0  0  0  0  0  0  0  0  0
   -8.7427    7.7232    9.8269 H   0  0  0  0  0  0  0  0  0  0  0  0
   -8.1599    8.3810    7.2580 H   0  0  0  0  0  0  0  0  0  0  0  0
  1  2  2  3
  2  3  1  0
  3  4  2  0
  3  5  1  0
  5  6  2  0
  6  7  1  0
  7  8  2  0
  8  9  1  0
  9 10  2  0
 10 11  1  0
 11 12  2  3
 12 13  1  0
 13 14  3  0
 12 15  1  0
 15 16  3  0
  8 17  1  0
 17 18  1  0
 18 19  1  0
 19 20  2  0
 20 21  1  0
 21 22  1  0
 21 23  1  0
  1 24  1  0
 24 25  2  0
 25 26  1  0
 26 27  1  0
 27 28  1  0
 25 29  1  0
 29 30  1  0
 30 31  1  0
 31 32  1  0
 29 33  2  0
 33 34  1  0
 34 35  2  0
 35 36  1  0
 36 37  2  0
 36 38  1  0
 38 39  1  0
 39 40  1  0
 40 41  2  0
 39 42  2  0
 42 43  1  0
 43 44  1  0
 33 45  1  0
 45 46  2  0
 46 47  1  0
 47 48  1  0
 48 49  2  0
 49 50  1  0
 50 51  2  0
 51 52  1  0
 52 53  1  0
 51 54  1  0
 54 55  2  0
 47 56  1  0
 56 57  2  0
 57 58  1  0
 58 59  2  0
 59 60  1  0
 60 61  1  0
 59 62  1  0
 62 63  2  0
 46 64  1  0
 64 65  1  0
 65 66  1  0
 66 67  2  0
 67 68  1  0
 68 69  1  0
 69 70  2  0
 70 71  1  0
 71 72  2  0
 72 73  1  0
 73 74  1  0
 72 75  1  0
 75 76  2  0
 68 77  1  0
 77 78  2  0
 78 79  1  0
 79 80  2  0
 80 81  1  0
 81 82  1  0
 80 83  1  0
 83 84  2  0
 67 85  1  0
 85 86  1  0
 66 87  1  0
 87 88  2  0
 88 89  1  0
 89 90  1  0
 90 91  2  0
 91 92  2  0
 89 93  2  0
 93 94  1  0
 94 95  2  0
 95 96  1  0
 96 97  1  0
 97 98  2  0
 93 99  1  0
 99100  2  3
100101  1  0
101102  2  0
101103  1  0
103104  2  0
104105  1  0
105106  2  0
106107  1  0
107108  2  0
108109  1  0
109110  2  3
110111  1  0
111112  3  0
110113  1  0
113114  3  0
106115  1  0
115116  1  0
116117  1  0
117118  2  0
118119  1  0
119120  1  0
119121  1  0
 11  2  1  0
 23 17  1  0
 35 24  1  0
 44 38  2  0
 86 45  1  0
 98 87  1  0
109100  1  0
121115  1  0
 10  5  1  0
 22 18  1  0
 40 34  1  0
 55 48  1  0
 63 56  1  0
 85 64  2  0
 92 88  1  0
 98 94  1  0
108103  1  0
120116  1  0
 23  7  1  0
 76 69  1  0
 84 77  1  0
121105  1  0
  1122  1  0
  6123  1  0
  9124  1  0
 17125  1  0
 18126  1  0
 19127  1  0
 20128  1  0
 21129  1  0
 22130  1  0
 22131  1  0
 23132  1  0
 27133  1  0
 27134  1  0
 28135  1  0
 28136  1  0
 28137  1  0
 31138  1  0
 31139  1  0
 32140  1  0
 32141  1  0
 32142  1  0
 42143  1  0
 44144  1  0
 49145  1  0
 50146  1  0
 53147  1  0
 53148  1  0
 53149  1  0
 54150  1  0
 55151  1  0
 57152  1  0
 58153  1  0
 61154  1  0
 61155  1  0
 61156  1  0
 62157  1  0
 63158  1  0
 70159  1  0
 71160  1  0
 74161  1  0
 74162  1  0
 74163  1  0
 75164  1  0
 76165  1  0
 78166  1  0
 79167  1  0
 82168  1  0
 82169  1  0
 82170  1  0
 83171  1  0
 84172  1  0
 99173  1  0
104174  1  0
107175  1  0
115176  1  0
116177  1  0
117178  1  0
118179  1  0
119180  1  0
120181  1  0
120182  1  0
121183  1  0
M  END

