
     RDKit          3D

196217  0  0  0  0  0  0  0  0999 V2000
    1.4636   -7.6341   -1.6222 C   0  0  0  0  0  0  0  0  0  0  0  0
    1.7825   -7.6367   -2.9318 C   0  0  0  0  0  0  0  0  0  0  0  0
    1.7001   -6.4549   -3.7933 C   0  0  0  0  0  0  0  0  0  0  0  0
    0.7931   -5.5773   -3.7605 O   0  0  0  0  0  0  0  0  0  0  0  0
    2.8087   -6.4714   -4.7090 C   0  0  0  0  0  0  0  0  0  0  0  0
    3.2792   -5.3906   -5.4870 C   0  0  0  0  0  0  0  0  0  0  0  0
    4.5003   -5.6266   -6.0862 C   0  0  0  0  0  0  0  0  0  0  0  0
    5.2210   -6.8562   -5.9423 C   0  0  0  0  0  0  0  0  0  0  0  0
    4.7631   -7.9214   -5.1802 C   0  0  0  0  0  0  0  0  0  0  0  0
    3.5052   -7.7008   -4.5592 C   0  0  0  0  0  0  0  0  0  0  0  0
    2.7907   -8.5372   -3.5551 C   0  0  0  0  0  0  0  0  0  0  0  0
    2.8921   -9.8720   -3.3729 C   0  0  0  0  0  0  0  0  0  0  0  0
    1.9918  -10.5779   -2.4940 C   0  0  0  0  0  0  0  0  0  0  0  0
    1.2648  -11.1415   -1.7929 N   0  0  0  0  0  0  0  0  0  0  0  0
    3.7896  -10.6892   -4.1433 C   0  0  0  0  0  0  0  0  0  0  0  0
    4.4990  -11.3598   -4.7616 N   0  0  0  0  0  0  0  0  0  0  0  0
    6.3296   -6.3241   -6.8052 C   0  0  0  0  0  0  0  0  0  0  0  0
    6.4371   -6.8473   -8.2681 C   0  0  0  0  0  0  0  0  0  0  0  0
    5.0689   -7.2168   -8.7853 C   0  0  0  0  0  0  0  0  0  0  0  0
    4.3866   -6.0746   -8.9139 C   0  0  0  0  0  0  0  0  0  0  0  0
    5.3202   -4.9676   -8.4794 C   0  0  0  0  0  0  0  0  0  0  0  0
    6.6275   -5.5325   -9.0044 C   0  0  0  0  0  0  0  0  0  0  0  0
    5.5877   -5.0636   -6.9491 C   0  0  0  0  0  0  0  0  0  0  0  0
    1.1451   -6.3600   -0.9582 C   0  0  0  0  0  0  0  0  0  0  0  0
   -0.1886   -5.9354   -0.8643 C   0  0  0  0  0  0  0  0  0  0  0  0
   -0.4941   -4.6050   -0.5373 C   0  0  0  0  0  0  0  0  0  0  0  0
    0.5221   -3.6407   -0.3605 C   0  0  0  0  0  0  0  0  0  0  0  0
    1.8535   -4.0698   -0.5769 C   0  0  0  0  0  0  0  0  0  0  0  0
    3.1210   -3.3162   -0.6412 C   0  0  0  0  0  0  0  0  0  0  0  0
    3.3671   -2.1355   -1.2373 C   0  0  0  0  0  0  0  0  0  0  0  0
    2.4310   -1.4559   -2.1579 C   0  0  0  0  0  0  0  0  0  0  0  0
    2.4699   -0.0682   -2.3670 C   0  0  0  0  0  0  0  0  0  0  0  0
    1.6548    0.3614   -3.4041 C   0  0  0  0  0  0  0  0  0  0  0  0
    0.9261   -0.9845   -4.0923 S   0  0  0  0  0  0  0  0  0  0  0  0
    1.6078   -2.1225   -3.0647 C   0  0  0  0  0  0  0  0  0  0  0  0
    4.1465   -4.3460   -0.5498 C   0  0  0  0  0  0  0  0  0  0  0  0
    5.3809   -4.1286   -0.3968 O   0  0  0  0  0  0  0  0  0  0  0  0
    3.5842   -5.6503   -0.6757 N   0  0  0  0  0  0  0  0  0  0  0  0
    4.2921   -6.8895   -0.3614 C   0  0  0  0  0  0  0  0  0  0  0  0
    3.9845   -7.3439    1.0612 C   0  0  0  0  0  0  0  0  0  0  0  0
    2.1587   -5.4166   -0.7217 C   0  0  0  0  0  0  0  0  0  0  0  0
    0.2142   -2.2586    0.1037 C   0  0  0  0  0  0  0  0  0  0  0  0
   -0.9339   -1.4730   -0.1678 C   0  0  0  0  0  0  0  0  0  0  0  0
   -2.2294   -1.9877   -0.4986 N   0  0  0  0  0  0  0  0  0  0  0  0
   -3.1534   -2.1372    0.5997 C   0  0  0  0  0  0  0  0  0  0  0  0
   -4.3194   -1.3530    0.6610 C   0  0  0  0  0  0  0  0  0  0  0  0
   -5.1390   -1.3906    1.7930 C   0  0  0  0  0  0  0  0  0  0  0  0
   -4.8062   -2.2179    2.8759 C   0  0  0  0  0  0  0  0  0  0  0  0
   -5.8188   -2.2286    4.3532 S   0  0  0  0  0  0  0  0  0  0  0  0
   -4.8827   -0.8899    5.1595 C   0  0  0  0  0  0  0  0  0  0  0  0
   -3.6592   -3.0180    2.8115 C   0  0  0  0  0  0  0  0  0  0  0  0
   -2.8270   -2.9616    1.6934 C   0  0  0  0  0  0  0  0  0  0  0  0
   -2.7128   -1.9547   -1.8582 C   0  0  0  0  0  0  0  0  0  0  0  0
   -3.7222   -2.8476   -2.2651 C   0  0  0  0  0  0  0  0  0  0  0  0
   -4.2795   -2.7565   -3.5471 C   0  0  0  0  0  0  0  0  0  0  0  0
   -3.8318   -1.7837   -4.4427 C   0  0  0  0  0  0  0  0  0  0  0  0
   -4.5849   -1.6342   -6.0603 S   0  0  0  0  0  0  0  0  0  0  0  0
   -3.4455   -2.8140   -6.8398 C   0  0  0  0  0  0  0  0  0  0  0  0
   -2.8050   -0.9081   -4.0577 C   0  0  0  0  0  0  0  0  0  0  0  0
   -2.2467   -0.9959   -2.7773 C   0  0  0  0  0  0  0  0  0  0  0  0
   -0.7802   -0.1752    0.3058 C   0  0  0  0  0  0  0  0  0  0  0  0
   -1.7074    1.2173    0.2097 S   0  0  0  0  0  0  0  0  0  0  0  0
   -0.5654    2.1780    1.0387 C   0  0  0  0  0  0  0  0  0  0  0  0
    0.5003    1.3680    1.4639 C   0  0  0  0  0  0  0  0  0  0  0  0
    1.5474    1.7864    2.3510 N   0  0  0  0  0  0  0  0  0  0  0  0
    1.6507    1.1903    3.6650 C   0  0  0  0  0  0  0  0  0  0  0  0
    2.9019    1.0373    4.3013 C   0  0  0  0  0  0  0  0  0  0  0  0
    2.9985    0.4084    5.5464 C   0  0  0  0  0  0  0  0  0  0  0  0
    1.8503   -0.0775    6.1790 C   0  0  0  0  0  0  0  0  0  0  0  0
    1.9775   -0.8822    7.7772 S   0  0  0  0  0  0  0  0  0  0  0  0
    2.2219   -2.5378    7.0596 C   0  0  0  0  0  0  0  0  0  0  0  0
    0.6028    0.0775    5.5672 C   0  0  0  0  0  0  0  0  0  0  0  0
    0.5010    0.7056    4.3232 C   0  0  0  0  0  0  0  0  0  0  0  0
    2.6342    2.5352    1.7998 C   0  0  0  0  0  0  0  0  0  0  0  0
    2.8748    3.8487    2.2263 C   0  0  0  0  0  0  0  0  0  0  0  0
    3.9913    4.5467    1.7488 C   0  0  0  0  0  0  0  0  0  0  0  0
    4.8751    3.9278    0.8537 C   0  0  0  0  0  0  0  0  0  0  0  0
    6.3578    4.7754    0.3198 S   0  0  0  0  0  0  0  0  0  0  0  0
    7.3668    4.0627    1.6539 C   0  0  0  0  0  0  0  0  0  0  0  0
    4.6213    2.6236    0.4130 C   0  0  0  0  0  0  0  0  0  0  0  0
    3.5110    1.9260    0.8900 C   0  0  0  0  0  0  0  0  0  0  0  0
    0.3543    0.0704    0.9953 C   0  0  0  0  0  0  0  0  0  0  0  0
    1.2927   -1.3113    1.0472 S   0  0  0  0  0  0  0  0  0  0  0  0
   -0.7378    3.6133    1.2766 C   0  0  0  0  0  0  0  0  0  0  0  0
   -0.9214    4.0732    2.5901 C   0  0  0  0  0  0  0  0  0  0  0  0
   -1.3883    5.3713    2.8307 C   0  0  0  0  0  0  0  0  0  0  0  0
   -1.6996    6.2365    1.7670 C   0  0  0  0  0  0  0  0  0  0  0  0
   -1.4044    5.8119    0.4570 C   0  0  0  0  0  0  0  0  0  0  0  0
   -1.4932    6.5207   -0.8350 C   0  0  0  0  0  0  0  0  0  0  0  0
   -1.7865    7.8160   -1.0514 C   0  0  0  0  0  0  0  0  0  0  0  0
   -1.5097    8.5315   -2.3136 C   0  0  0  0  0  0  0  0  0  0  0  0
   -2.3651    9.5221   -2.8135 C   0  0  0  0  0  0  0  0  0  0  0  0
   -1.8586   10.1858   -3.9242 C   0  0  0  0  0  0  0  0  0  0  0  0
   -0.3337    9.5704   -4.2538 S   0  0  0  0  0  0  0  0  0  0  0  0
   -0.3029    8.4427   -3.0046 C   0  0  0  0  0  0  0  0  0  0  0  0
   -1.0737    5.5141   -1.8173 C   0  0  0  0  0  0  0  0  0  0  0  0
   -1.0877    5.6660   -3.0689 O   0  0  0  0  0  0  0  0  0  0  0  0
   -0.6872    4.2923   -1.1864 N   0  0  0  0  0  0  0  0  0  0  0  0
    0.3218    3.4103   -1.7858 C   0  0  0  0  0  0  0  0  0  0  0  0
    1.7148    3.9916   -1.6028 C   0  0  0  0  0  0  0  0  0  0  0  0
   -0.9188    4.5245    0.2158 C   0  0  0  0  0  0  0  0  0  0  0  0
   -2.4602    7.4680    2.0490 C   0  0  0  0  0  0  0  0  0  0  0  0
   -3.7627    7.4308    2.3984 C   0  0  0  0  0  0  0  0  0  0  0  0
   -4.5465    6.2059    2.6121 C   0  0  0  0  0  0  0  0  0  0  0  0
   -4.2896    5.0628    2.1495 O   0  0  0  0  0  0  0  0  0  0  0  0
   -5.6796    6.5227    3.4493 C   0  0  0  0  0  0  0  0  0  0  0  0
   -6.5058    5.6071    4.1374 C   0  0  0  0  0  0  0  0  0  0  0  0
   -7.3248    6.1903    5.0816 C   0  0  0  0  0  0  0  0  0  0  0  0
   -7.3495    7.6028    5.3316 C   0  0  0  0  0  0  0  0  0  0  0  0
   -6.5460    8.5063    4.6542 C   0  0  0  0  0  0  0  0  0  0  0  0
   -5.7050    7.9236    3.6655 C   0  0  0  0  0  0  0  0  0  0  0  0
   -4.5996    8.5564    2.8994 C   0  0  0  0  0  0  0  0  0  0  0  0
   -4.5508    9.8541    2.5069 C   0  0  0  0  0  0  0  0  0  0  0  0
   -5.6395   10.7597    2.7807 C   0  0  0  0  0  0  0  0  0  0  0  0
   -6.5260   11.4635    3.0047 N   0  0  0  0  0  0  0  0  0  0  0  0
   -3.4901   10.3839    1.6899 C   0  0  0  0  0  0  0  0  0  0  0  0
   -2.6360   10.8374    1.0578 N   0  0  0  0  0  0  0  0  0  0  0  0
   -8.3181    7.4007    6.4589 C   0  0  0  0  0  0  0  0  0  0  0  0
   -7.7326    7.5348    7.8962 C   0  0  0  0  0  0  0  0  0  0  0  0
   -8.7555    6.9152    8.8158 C   0  0  0  0  0  0  0  0  0  0  0  0
   -8.7221    5.5946    8.5886 C   0  0  0  0  0  0  0  0  0  0  0  0
   -7.6807    5.3693    7.5213 C   0  0  0  0  0  0  0  0  0  0  0  0
   -6.6819    6.4360    7.9421 C   0  0  0  0  0  0  0  0  0  0  0  0
   -8.2875    5.9546    6.2082 C   0  0  0  0  0  0  0  0  0  0  0  0
    1.7295   -8.4667   -0.9895 H   0  0  0  0  0  0  0  0  0  0  0  0
    2.7662   -4.4398   -5.5507 H   0  0  0  0  0  0  0  0  0  0  0  0
    5.3669   -8.8046   -5.0375 H   0  0  0  0  0  0  0  0  0  0  0  0
    7.3007   -6.2103   -6.2729 H   0  0  0  0  0  0  0  0  0  0  0  0
    7.2262   -7.6088   -8.4436 H   0  0  0  0  0  0  0  0  0  0  0  0
    4.7147   -8.2006   -9.0711 H   0  0  0  0  0  0  0  0  0  0  0  0
    3.3866   -5.9749   -9.3228 H   0  0  0  0  0  0  0  0  0  0  0  0
    5.0478   -3.9571   -8.8533 H   0  0  0  0  0  0  0  0  0  0  0  0
    6.6457   -5.6411  -10.1164 H   0  0  0  0  0  0  0  0  0  0  0  0
    7.5254   -4.9608   -8.6700 H   0  0  0  0  0  0  0  0  0  0  0  0
    6.1102   -4.1857   -6.5074 H   0  0  0  0  0  0  0  0  0  0  0  0
   -0.9932   -6.6286   -1.0695 H   0  0  0  0  0  0  0  0  0  0  0  0
   -1.5351   -4.3505   -0.4454 H   0  0  0  0  0  0  0  0  0  0  0  0
    4.3824   -1.7540   -1.2260 H   0  0  0  0  0  0  0  0  0  0  0  0
    3.0900    0.6047   -1.7945 H   0  0  0  0  0  0  0  0  0  0  0  0
    1.5420    1.3831   -3.7376 H   0  0  0  0  0  0  0  0  0  0  0  0
    1.4923   -3.1915   -3.1573 H   0  0  0  0  0  0  0  0  0  0  0  0
    5.3877   -6.7297   -0.4597 H   0  0  0  0  0  0  0  0  0  0  0  0
    4.0308   -7.6853   -1.0849 H   0  0  0  0  0  0  0  0  0  0  0  0
    2.9044   -7.5684    1.1699 H   0  0  0  0  0  0  0  0  0  0  0  0
    4.5601   -8.2637    1.2878 H   0  0  0  0  0  0  0  0  0  0  0  0
    4.2694   -6.5520    1.7855 H   0  0  0  0  0  0  0  0  0  0  0  0
   -4.5609   -0.6780   -0.1511 H   0  0  0  0  0  0  0  0  0  0  0  0
   -6.0172   -0.7565    1.8437 H   0  0  0  0  0  0  0  0  0  0  0  0
   -3.8004   -1.1340    5.1961 H   0  0  0  0  0  0  0  0  0  0  0  0
   -5.0313    0.0628    4.6092 H   0  0  0  0  0  0  0  0  0  0  0  0
   -5.2602   -0.7646    6.1953 H   0  0  0  0  0  0  0  0  0  0  0  0
   -3.3912   -3.6533    3.6493 H   0  0  0  0  0  0  0  0  0  0  0  0
   -1.9236   -3.5564    1.6935 H   0  0  0  0  0  0  0  0  0  0  0  0
   -4.0978   -3.5985   -1.5804 H   0  0  0  0  0  0  0  0  0  0  0  0
   -5.0658   -3.4410   -3.8342 H   0  0  0  0  0  0  0  0  0  0  0  0
   -2.3992   -2.4659   -6.7239 H   0  0  0  0  0  0  0  0  0  0  0  0
   -3.6861   -2.8826   -7.9197 H   0  0  0  0  0  0  0  0  0  0  0  0
   -3.5654   -3.8177   -6.3816 H   0  0  0  0  0  0  0  0  0  0  0  0
   -2.4441   -0.1555   -4.7498 H   0  0  0  0  0  0  0  0  0  0  0  0
   -1.4792   -0.2850   -2.4965 H   0  0  0  0  0  0  0  0  0  0  0  0
    3.8100    1.3947    3.8363 H   0  0  0  0  0  0  0  0  0  0  0  0
    3.9633    0.2982    6.0165 H   0  0  0  0  0  0  0  0  0  0  0  0
    2.2571   -3.2813    7.8820 H   0  0  0  0  0  0  0  0  0  0  0  0
    3.1797   -2.5730    6.4964 H   0  0  0  0  0  0  0  0  0  0  0  0
    1.3788   -2.7878    6.3802 H   0  0  0  0  0  0  0  0  0  0  0  0
   -0.2950   -0.2862    6.0586 H   0  0  0  0  0  0  0  0  0  0  0  0
   -0.4768    0.8119    3.8733 H   0  0  0  0  0  0  0  0  0  0  0  0
    2.2051    4.3219    2.9338 H   0  0  0  0  0  0  0  0  0  0  0  0
    4.1847    5.5531    2.0958 H   0  0  0  0  0  0  0  0  0  0  0  0
    6.9550    4.3638    2.6420 H   0  0  0  0  0  0  0  0  0  0  0  0
    8.4060    4.4416    1.5708 H   0  0  0  0  0  0  0  0  0  0  0  0
    7.3793    2.9542    1.5781 H   0  0  0  0  0  0  0  0  0  0  0  0
    5.3069    2.1338   -0.2658 H   0  0  0  0  0  0  0  0  0  0  0  0
    3.3456    0.9037    0.5779 H   0  0  0  0  0  0  0  0  0  0  0  0
   -0.7972    3.3978    3.4265 H   0  0  0  0  0  0  0  0  0  0  0  0
   -1.5882    5.6735    3.8552 H   0  0  0  0  0  0  0  0  0  0  0  0
   -2.2154    8.4074   -0.2671 H   0  0  0  0  0  0  0  0  0  0  0  0
   -3.3271    9.7523   -2.3787 H   0  0  0  0  0  0  0  0  0  0  0  0
   -2.3533   10.9839   -4.4643 H   0  0  0  0  0  0  0  0  0  0  0  0
    0.5328    7.7974   -2.7624 H   0  0  0  0  0  0  0  0  0  0  0  0
    0.1161    3.3051   -2.8717 H   0  0  0  0  0  0  0  0  0  0  0  0
    0.2886    2.4000   -1.3582 H   0  0  0  0  0  0  0  0  0  0  0  0
    1.9639    4.0406   -0.5243 H   0  0  0  0  0  0  0  0  0  0  0  0
    1.7710    5.0132   -2.0370 H   0  0  0  0  0  0  0  0  0  0  0  0
    2.4628    3.3462   -2.1210 H   0  0  0  0  0  0  0  0  0  0  0  0
   -1.9041    8.3913    2.0697 H   0  0  0  0  0  0  0  0  0  0  0  0
   -6.4172    4.5326    4.0233 H   0  0  0  0  0  0  0  0  0  0  0  0
   -6.5087    9.5436    4.9415 H   0  0  0  0  0  0  0  0  0  0  0  0
   -9.3062    7.8826    6.2930 H   0  0  0  0  0  0  0  0  0  0  0  0
   -7.3872    8.5484    8.1857 H   0  0  0  0  0  0  0  0  0  0  0  0
   -9.3397    7.4123    9.5840 H   0  0  0  0  0  0  0  0  0  0  0  0
   -9.2663    4.8424    9.1496 H   0  0  0  0  0  0  0  0  0  0  0  0
   -7.2912    4.3347    7.4488 H   0  0  0  0  0  0  0  0  0  0  0  0
   -6.2621    6.2723    8.9655 H   0  0  0  0  0  0  0  0  0  0  0  0
   -5.8411    6.5815    7.2313 H   0  0  0  0  0  0  0  0  0  0  0  0
   -9.2568    5.5154    5.8847 H   0  0  0  0  0  0  0  0  0  0  0  0
  1  2  2  3
  2  3  1  0
  3  4  2  0
  3  5  1  0
  5  6  2  0
  6  7  1  0
  7  8  2  0
  8  9  1  0
  9 10  2  0
 10 11  1  0
 11 12  2  3
 12 13  1  0
 13 14  3  0
 12 15  1  0
 15 16  3  0
  8 17  1  0
 17 18  1  0
 18 19  1  0
 19 20  2  0
 20 21  1  0
 21 22  1  0
 21 23  1  0
  1 24  1  0
 24 25  2  0
 25 26  1  0
 26 27  2  0
 27 28  1  0
 28 29  1  0
 29 30  2  3
 30 31  1  0
 31 32  1  0
 32 33  2  0
 33 34  1  0
 34 35  1  0
 29 36  1  0
 36 37  2  0
 36 38  1  0
 38 39  1  0
 39 40  1  0
 38 41  1  0
 27 42  1  0
 42 43  2  0
 43 44  1  0
 44 45  1  0
 45 46  2  0
 46 47  1  0
 47 48  2  0
 48 49  1  0
 49 50  1  0
 48 51  1  0
 51 52  2  0
 44 53  1  0
 53 54  2  0
 54 55  1  0
 55 56  2  0
 56 57  1  0
 57 58  1  0
 56 59  1  0
 59 60  2  0
 43 61  1  0
 61 62  1  0
 62 63  1  0
 63 64  2  0
 64 65  1  0
 65 66  1  0
 66 67  2  0
 67 68  1  0
 68 69  2  0
 69 70  1  0
 70 71  1  0
 69 72  1  0
 72 73  2  0
 65 74  1  0
 74 75  2  0
 75 76  1  0
 76 77  2  0
 77 78  1  0
 78 79  1  0
 77 80  1  0
 80 81  2  0
 64 82  1  0
 82 83  1  0
 63 84  1  0
 84 85  2  0
 85 86  1  0
 86 87  2  0
 87 88  1  0
 88 89  1  0
 89 90  2  3
 90 91  1  0
 91 92  1  0
 92 93  2  0
 93 94  1  0
 94 95  1  0
 89 96  1  0
 96 97  2  0
 96 98  1  0
 98 99  1  0
 99100  1  0
 98101  1  0
 87102  1  0
102103  2  3
103104  1  0
104105  2  0
104106  1  0
106107  2  0
107108  1  0
108109  2  0
109110  1  0
110111  2  0
111112  1  0
112113  2  3
113114  1  0
114115  3  0
113116  1  0
116117  3  0
109118  1  0
118119  1  0
119120  1  0
120121  2  0
121122  1  0
122123  1  0
122124  1  0
 11  2  1  0
 23 17  1  0
 41 24  1  0
 83 42  1  0
101 84  1  0
112103  1  0
124118  1  0
 10  5  1  0
 22 18  1  0
 41 28  2  0
 52 45  1  0
 60 53  1  0
 82 61  2  0
101 88  2  0
111106  1  0
123119  1  0
 23  7  1  0
 35 31  2  0
 73 66  1  0
 81 74  1  0
 95 91  2  0
124108  1  0
  1125  1  0
  6126  1  0
  9127  1  0
 17128  1  0
 18129  1  0
 19130  1  0
 20131  1  0
 21132  1  0
 22133  1  0
 22134  1  0
 23135  1  0
 25136  1  0
 26137  1  0
 30138  1  0
 32139  1  0
 33140  1  0
 35141  1  0
 39142  1  0
 39143  1  0
 40144  1  0
 40145  1  0
 40146  1  0
 46147  1  0
 47148  1  0
 50149  1  0
 50150  1  0
 50151  1  0
 51152  1  0
 52153  1  0
 54154  1  0
 55155  1  0
 58156  1  0
 58157  1  0
 58158  1  0
 59159  1  0
 60160  1  0
 67161  1  0
 68162  1  0
 71163  1  0
 71164  1  0
 71165  1  0
 72166  1  0
 73167  1  0
 75168  1  0
 76169  1  0
 79170  1  0
 79171  1  0
 79172  1  0
 80173  1  0
 81174  1  0
 85175  1  0
 86176  1  0
 90177  1  0
 92178  1  0
 93179  1  0
 95180  1  0
 99181  1  0
 99182  1  0
100183  1  0
100184  1  0
100185  1  0
102186  1  0
107187  1  0
110188  1  0
118189  1  0
119190  1  0
120191  1  0
121192  1  0
122193  1  0
123194  1  0
123195  1  0
124196  1  0
M  END

