
     RDKit          3D

232255  0  0  0  0  0  0  0  0999 V2000
    7.8723    1.4918    2.8632 C   0  0  0  0  0  0  0  0  0  0  0  0
    6.8993    1.5299    3.7981 C   0  0  0  0  0  0  0  0  0  0  0  0
    7.0417    2.2806    5.0434 C   0  0  0  0  0  0  0  0  0  0  0  0
    8.1225    2.7327    5.5155 O   0  0  0  0  0  0  0  0  0  0  0  0
    5.7276    2.4834    5.6189 C   0  0  0  0  0  0  0  0  0  0  0  0
    5.4150    3.1687    6.8143 C   0  0  0  0  0  0  0  0  0  0  0  0
    4.0712    3.1457    7.1453 C   0  0  0  0  0  0  0  0  0  0  0  0
    3.0800    2.5054    6.3337 C   0  0  0  0  0  0  0  0  0  0  0  0
    3.3735    1.8578    5.1472 C   0  0  0  0  0  0  0  0  0  0  0  0
    4.7551    1.8480    4.7989 C   0  0  0  0  0  0  0  0  0  0  0  0
    5.4593    1.1303    3.6925 C   0  0  0  0  0  0  0  0  0  0  0  0
    4.9749    0.0512    3.0270 C   0  0  0  0  0  0  0  0  0  0  0  0
    3.5728   -0.2304    2.9199 C   0  0  0  0  0  0  0  0  0  0  0  0
    2.4443   -0.4661    2.8192 N   0  0  0  0  0  0  0  0  0  0  0  0
    5.8314   -0.9959    2.5444 C   0  0  0  0  0  0  0  0  0  0  0  0
    6.4961   -1.8625    2.1616 N   0  0  0  0  0  0  0  0  0  0  0  0
    2.0119    2.8669    7.3210 C   0  0  0  0  0  0  0  0  0  0  0  0
    1.0245    4.0145    6.9547 C   0  0  0  0  0  0  0  0  0  0  0  0
    1.7185    5.0232    6.0682 C   0  0  0  0  0  0  0  0  0  0  0  0
    2.6353    5.6259    6.8242 C   0  0  0  0  0  0  0  0  0  0  0  0
    2.5409    5.0079    8.1965 C   0  0  0  0  0  0  0  0  0  0  0  0
    1.0362    4.7885    8.2598 C   0  0  0  0  0  0  0  0  0  0  0  0
    3.0230    3.5276    8.1512 C   0  0  0  0  0  0  0  0  0  0  0  0
    7.6614    1.1792    1.4393 C   0  0  0  0  0  0  0  0  0  0  0  0
    6.8062    1.7971    0.6249 C   0  0  0  0  0  0  0  0  0  0  0  0
    6.5467    1.0100   -0.5320 C   0  0  0  0  0  0  0  0  0  0  0  0
    7.4170   -0.1364   -0.4241 C   0  0  0  0  0  0  0  0  0  0  0  0
    7.5032   -1.0996   -1.2304 O   0  0  0  0  0  0  0  0  0  0  0  0
    8.1659   -0.0046    0.7906 N   0  0  0  0  0  0  0  0  0  0  0  0
    9.3317   -0.7957    1.1854 C   0  0  0  0  0  0  0  0  0  0  0  0
   10.6102   -0.1119    0.7198 C   0  0  0  0  0  0  0  0  0  0  0  0
    5.3311    1.2719   -1.0197 C   0  0  0  0  0  0  0  0  0  0  0  0
    4.7710    2.4035   -0.3085 N   0  0  0  0  0  0  0  0  0  0  0  0
    3.4286    2.9710   -0.4343 C   0  0  0  0  0  0  0  0  0  0  0  0
    2.4217    2.1984    0.4056 C   0  0  0  0  0  0  0  0  0  0  0  0
    5.6815    2.6871    0.7562 C   0  0  0  0  0  0  0  0  0  0  0  0
    5.4862    3.5348    1.6698 O   0  0  0  0  0  0  0  0  0  0  0  0
    4.4966    0.2861   -1.7251 C   0  0  0  0  0  0  0  0  0  0  0  0
    3.6236    0.6018   -2.7831 C   0  0  0  0  0  0  0  0  0  0  0  0
    3.8844    1.6328   -3.7699 N   0  0  0  0  0  0  0  0  0  0  0  0
    5.2486    1.9664   -4.1010 C   0  0  0  0  0  0  0  0  0  0  0  0
    6.2066    0.9512   -4.2898 C   0  0  0  0  0  0  0  0  0  0  0  0
    7.5051    1.2696   -4.6924 C   0  0  0  0  0  0  0  0  0  0  0  0
    7.8562    2.6004   -4.9336 C   0  0  0  0  0  0  0  0  0  0  0  0
    9.5104    2.9935   -5.5093 S   0  0  0  0  0  0  0  0  0  0  0  0
    9.0686    2.8567   -7.2722 C   0  0  0  0  0  0  0  0  0  0  0  0
    6.9142    3.6177   -4.7474 C   0  0  0  0  0  0  0  0  0  0  0  0
    5.6144    3.3025   -4.3380 C   0  0  0  0  0  0  0  0  0  0  0  0
    2.8581    2.0681   -4.6867 C   0  0  0  0  0  0  0  0  0  0  0  0
    3.0098    1.8442   -6.0669 C   0  0  0  0  0  0  0  0  0  0  0  0
    2.0083    2.2334   -6.9616 C   0  0  0  0  0  0  0  0  0  0  0  0
    0.8399    2.8384   -6.4862 C   0  0  0  0  0  0  0  0  0  0  0  0
   -0.4631    3.2929   -7.6321 S   0  0  0  0  0  0  0  0  0  0  0  0
   -1.2641    1.6600   -7.5551 C   0  0  0  0  0  0  0  0  0  0  0  0
    0.6926    3.0884   -5.1152 C   0  0  0  0  0  0  0  0  0  0  0  0
    1.7004    2.7119   -4.2200 C   0  0  0  0  0  0  0  0  0  0  0  0
    2.5604   -0.3106   -2.8221 C   0  0  0  0  0  0  0  0  0  0  0  0
    1.0598   -0.3092   -3.5333 S   0  0  0  0  0  0  0  0  0  0  0  0
    0.4349   -1.6328   -2.6581 C   0  0  0  0  0  0  0  0  0  0  0  0
    1.4769   -2.1646   -1.8568 C   0  0  0  0  0  0  0  0  0  0  0  0
    1.6481   -3.5800   -1.6413 N   0  0  0  0  0  0  0  0  0  0  0  0
    2.2023   -4.0900   -0.3918 C   0  0  0  0  0  0  0  0  0  0  0  0
    2.2113   -3.2973    0.7753 C   0  0  0  0  0  0  0  0  0  0  0  0
    2.7155   -3.7959    1.9794 C   0  0  0  0  0  0  0  0  0  0  0  0
    3.2320   -5.0935    2.0413 C   0  0  0  0  0  0  0  0  0  0  0  0
    3.8721   -5.7360    3.5909 S   0  0  0  0  0  0  0  0  0  0  0  0
    5.5596   -5.1293    3.2850 C   0  0  0  0  0  0  0  0  0  0  0  0
    3.2202   -5.8990    0.9040 C   0  0  0  0  0  0  0  0  0  0  0  0
    2.6988   -5.4118   -0.2966 C   0  0  0  0  0  0  0  0  0  0  0  0
    1.7344   -4.3669   -2.8493 C   0  0  0  0  0  0  0  0  0  0  0  0
    0.5768   -4.7014   -3.5728 C   0  0  0  0  0  0  0  0  0  0  0  0
    0.6675   -5.4393   -4.7555 C   0  0  0  0  0  0  0  0  0  0  0  0
    1.9159   -5.8263   -5.2487 C   0  0  0  0  0  0  0  0  0  0  0  0
    2.0264   -6.7691   -6.7702 S   0  0  0  0  0  0  0  0  0  0  0  0
    1.8515   -8.3759   -5.9321 C   0  0  0  0  0  0  0  0  0  0  0  0
    3.0797   -5.4614   -4.5615 C   0  0  0  0  0  0  0  0  0  0  0  0
    2.9898   -4.7252   -3.3768 C   0  0  0  0  0  0  0  0  0  0  0  0
    2.6121   -1.3363   -1.9358 C   0  0  0  0  0  0  0  0  0  0  0  0
    3.9811   -1.1591   -0.9803 S   0  0  0  0  0  0  0  0  0  0  0  0
   -1.0421   -1.7496   -2.4703 C   0  0  0  0  0  0  0  0  0  0  0  0
   -1.8221   -2.5438   -1.5826 C   0  0  0  0  0  0  0  0  0  0  0  0
   -1.3360   -3.4713   -0.5962 N   0  0  0  0  0  0  0  0  0  0  0  0
   -1.1647   -2.9581    0.7554 C   0  0  0  0  0  0  0  0  0  0  0  0
   -0.7405   -1.6264    0.9620 C   0  0  0  0  0  0  0  0  0  0  0  0
   -0.5578   -1.1249    2.2495 C   0  0  0  0  0  0  0  0  0  0  0  0
   -0.7899   -1.9388    3.3612 C   0  0  0  0  0  0  0  0  0  0  0  0
   -0.3922   -1.3462    5.0087 S   0  0  0  0  0  0  0  0  0  0  0  0
   -2.0038   -0.5459    5.2656 C   0  0  0  0  0  0  0  0  0  0  0  0
   -1.2771   -3.2349    3.1775 C   0  0  0  0  0  0  0  0  0  0  0  0
   -1.4869   -3.7342    1.8888 C   0  0  0  0  0  0  0  0  0  0  0  0
   -1.4797   -4.8950   -0.8585 C   0  0  0  0  0  0  0  0  0  0  0  0
   -0.6240   -5.8307   -0.2459 C   0  0  0  0  0  0  0  0  0  0  0  0
   -0.7027   -7.1888   -0.5592 C   0  0  0  0  0  0  0  0  0  0  0  0
   -1.6503   -7.6413   -1.4850 C   0  0  0  0  0  0  0  0  0  0  0  0
   -1.7113   -9.3758   -1.9385 S   0  0  0  0  0  0  0  0  0  0  0  0
   -2.9376   -9.8040   -0.6636 C   0  0  0  0  0  0  0  0  0  0  0  0
   -2.5248   -6.7360   -2.0800 C   0  0  0  0  0  0  0  0  0  0  0  0
   -2.4452   -5.3747   -1.7720 C   0  0  0  0  0  0  0  0  0  0  0  0
   -3.1477   -2.1079   -1.5482 C   0  0  0  0  0  0  0  0  0  0  0  0
   -4.4621   -2.4887   -0.5802 S   0  0  0  0  0  0  0  0  0  0  0  0
   -5.3892   -1.1434   -1.0802 C   0  0  0  0  0  0  0  0  0  0  0  0
   -4.6618   -0.4167   -2.0345 C   0  0  0  0  0  0  0  0  0  0  0  0
   -5.0097    0.8995   -2.4975 N   0  0  0  0  0  0  0  0  0  0  0  0
   -5.6275    1.0603   -3.7921 C   0  0  0  0  0  0  0  0  0  0  0  0
   -6.5258    2.1189   -4.0184 C   0  0  0  0  0  0  0  0  0  0  0  0
   -6.9874    2.3968   -5.3084 C   0  0  0  0  0  0  0  0  0  0  0  0
   -6.5723    1.6050   -6.3861 C   0  0  0  0  0  0  0  0  0  0  0  0
   -7.0534    2.0268   -8.0632 S   0  0  0  0  0  0  0  0  0  0  0  0
   -5.5642    3.0418   -8.3400 C   0  0  0  0  0  0  0  0  0  0  0  0
   -5.7309    0.5122   -6.1625 C   0  0  0  0  0  0  0  0  0  0  0  0
   -5.2716    0.2327   -4.8719 C   0  0  0  0  0  0  0  0  0  0  0  0
   -4.5194    2.0513   -1.7657 C   0  0  0  0  0  0  0  0  0  0  0  0
   -4.5447    2.0753   -0.3597 C   0  0  0  0  0  0  0  0  0  0  0  0
   -4.1338    3.2023    0.3482 C   0  0  0  0  0  0  0  0  0  0  0  0
   -3.6515    4.3212   -0.3375 C   0  0  0  0  0  0  0  0  0  0  0  0
   -3.1933    5.8014    0.5683 S   0  0  0  0  0  0  0  0  0  0  0  0
   -1.4533    5.3008    0.7739 C   0  0  0  0  0  0  0  0  0  0  0  0
   -3.5789    4.3069   -1.7327 C   0  0  0  0  0  0  0  0  0  0  0  0
   -4.0009    3.1739   -2.4444 C   0  0  0  0  0  0  0  0  0  0  0  0
   -3.4268   -1.0065   -2.2777 C   0  0  0  0  0  0  0  0  0  0  0  0
   -2.0643   -0.5273   -3.0958 S   0  0  0  0  0  0  0  0  0  0  0  0
   -6.6947   -0.7185   -0.5395 C   0  0  0  0  0  0  0  0  0  0  0  0
   -6.9583   -0.5110    0.7699 C   0  0  0  0  0  0  0  0  0  0  0  0
   -5.9956   -0.6200    1.8833 C   0  0  0  0  0  0  0  0  0  0  0  0
   -5.0466   -1.4401    1.9890 O   0  0  0  0  0  0  0  0  0  0  0  0
   -6.3104    0.3857    2.8700 C   0  0  0  0  0  0  0  0  0  0  0  0
   -5.4950    0.7912    3.9506 C   0  0  0  0  0  0  0  0  0  0  0  0
   -5.9439    1.9296    4.5885 C   0  0  0  0  0  0  0  0  0  0  0  0
   -7.1294    2.6330    4.1958 C   0  0  0  0  0  0  0  0  0  0  0  0
   -7.9397    2.2302    3.1437 C   0  0  0  0  0  0  0  0  0  0  0  0
   -7.5025    1.0463    2.4861 C   0  0  0  0  0  0  0  0  0  0  0  0
   -8.0311    0.4072    1.2544 C   0  0  0  0  0  0  0  0  0  0  0  0
   -9.2978    0.4869    0.7782 C   0  0  0  0  0  0  0  0  0  0  0  0
  -10.3095    1.2894    1.4162 C   0  0  0  0  0  0  0  0  0  0  0  0
  -11.1345    1.9279    1.9182 N   0  0  0  0  0  0  0  0  0  0  0  0
   -9.7485   -0.3239   -0.3209 C   0  0  0  0  0  0  0  0  0  0  0  0
  -10.1185   -0.9725   -1.2042 N   0  0  0  0  0  0  0  0  0  0  0  0
   -6.8812    3.6687    5.2526 C   0  0  0  0  0  0  0  0  0  0  0  0
   -7.7762    3.5981    6.5247 C   0  0  0  0  0  0  0  0  0  0  0  0
   -7.0858    4.4513    7.5651 C   0  0  0  0  0  0  0  0  0  0  0  0
   -5.9815    3.7872    7.9289 C   0  0  0  0  0  0  0  0  0  0  0  0
   -5.9622    2.5123    7.1190 C   0  0  0  0  0  0  0  0  0  0  0  0
   -7.4551    2.2278    7.1006 C   0  0  0  0  0  0  0  0  0  0  0  0
   -5.6688    2.9456    5.6531 C   0  0  0  0  0  0  0  0  0  0  0  0
    8.8669    1.8249    3.1347 H   0  0  0  0  0  0  0  0  0  0  0  0
    6.1603    3.6391    7.4433 H   0  0  0  0  0  0  0  0  0  0  0  0
    2.5907    1.4040    4.5701 H   0  0  0  0  0  0  0  0  0  0  0  0
    1.5425    1.9853    7.8099 H   0  0  0  0  0  0  0  0  0  0  0  0
    0.0234    3.6863    6.6045 H   0  0  0  0  0  0  0  0  0  0  0  0
    1.4798    5.2600    5.0382 H   0  0  0  0  0  0  0  0  0  0  0  0
    3.2715    6.4477    6.5122 H   0  0  0  0  0  0  0  0  0  0  0  0
    2.9637    5.6196    9.0181 H   0  0  0  0  0  0  0  0  0  0  0  0
    0.7086    4.1881    9.1381 H   0  0  0  0  0  0  0  0  0  0  0  0
    0.4482    5.7339    8.2198 H   0  0  0  0  0  0  0  0  0  0  0  0
    3.1686    3.0521    9.1477 H   0  0  0  0  0  0  0  0  0  0  0  0
    9.2713   -1.8091    0.7356 H   0  0  0  0  0  0  0  0  0  0  0  0
    9.3505   -0.9092    2.2882 H   0  0  0  0  0  0  0  0  0  0  0  0
   10.7508    0.8471    1.2585 H   0  0  0  0  0  0  0  0  0  0  0  0
   10.5658    0.0807   -0.3724 H   0  0  0  0  0  0  0  0  0  0  0  0
   11.4811   -0.7662    0.9304 H   0  0  0  0  0  0  0  0  0  0  0  0
    3.1166    2.9714   -1.4932 H   0  0  0  0  0  0  0  0  0  0  0  0
    3.4426    4.0314   -0.1013 H   0  0  0  0  0  0  0  0  0  0  0  0
    1.4341    2.7043    0.3672 H   0  0  0  0  0  0  0  0  0  0  0  0
    2.7540    2.1679    1.4634 H   0  0  0  0  0  0  0  0  0  0  0  0
    2.3065    1.1632    0.0226 H   0  0  0  0  0  0  0  0  0  0  0  0
    5.9379   -0.0885   -4.1545 H   0  0  0  0  0  0  0  0  0  0  0  0
    8.2260    0.4780   -4.8463 H   0  0  0  0  0  0  0  0  0  0  0  0
    8.4906    1.9282   -7.4641 H   0  0  0  0  0  0  0  0  0  0  0  0
    8.4684    3.7404   -7.5733 H   0  0  0  0  0  0  0  0  0  0  0  0
    9.9981    2.8292   -7.8759 H   0  0  0  0  0  0  0  0  0  0  0  0
    7.1812    4.6488   -4.9321 H   0  0  0  0  0  0  0  0  0  0  0  0
    4.8863    4.0940   -4.2141 H   0  0  0  0  0  0  0  0  0  0  0  0
    3.8962    1.3572   -6.4471 H   0  0  0  0  0  0  0  0  0  0  0  0
    2.1380    2.0490   -8.0209 H   0  0  0  0  0  0  0  0  0  0  0  0
   -1.6350    1.4626   -6.5280 H   0  0  0  0  0  0  0  0  0  0  0  0
   -2.1226    1.6457   -8.2568 H   0  0  0  0  0  0  0  0  0  0  0  0
   -0.5487    0.8658   -7.8551 H   0  0  0  0  0  0  0  0  0  0  0  0
   -0.2123    3.5510   -4.7409 H   0  0  0  0  0  0  0  0  0  0  0  0
    1.5562    2.8839   -3.1652 H   0  0  0  0  0  0  0  0  0  0  0  0
    1.8348   -2.2875    0.7596 H   0  0  0  0  0  0  0  0  0  0  0  0
    2.7135   -3.1737    2.8649 H   0  0  0  0  0  0  0  0  0  0  0  0
    5.9545   -5.5415    2.3332 H   0  0  0  0  0  0  0  0  0  0  0  0
    6.2196   -5.4441    4.1174 H   0  0  0  0  0  0  0  0  0  0  0  0
    5.5490   -4.0235    3.2416 H   0  0  0  0  0  0  0  0  0  0  0  0
    3.6105   -6.9083    0.9472 H   0  0  0  0  0  0  0  0  0  0  0  0
    2.6723   -6.0870   -1.1383 H   0  0  0  0  0  0  0  0  0  0  0  0
   -0.3925   -4.3825   -3.2345 H   0  0  0  0  0  0  0  0  0  0  0  0
   -0.2364   -5.6924   -5.2978 H   0  0  0  0  0  0  0  0  0  0  0  0
    2.7136   -8.5448   -5.2533 H   0  0  0  0  0  0  0  0  0  0  0  0
    1.8302   -9.1807   -6.6962 H   0  0  0  0  0  0  0  0  0  0  0  0
    0.9057   -8.4066   -5.3526 H   0  0  0  0  0  0  0  0  0  0  0  0
    4.0492   -5.7414   -4.9465 H   0  0  0  0  0  0  0  0  0  0  0  0
    3.8974   -4.4395   -2.8564 H   0  0  0  0  0  0  0  0  0  0  0  0
   -0.5120   -0.9786    0.1266 H   0  0  0  0  0  0  0  0  0  0  0  0
   -0.2093   -0.1093    2.3828 H   0  0  0  0  0  0  0  0  0  0  0  0
   -2.1022    0.3176    4.5765 H   0  0  0  0  0  0  0  0  0  0  0  0
   -2.0647   -0.1789    6.3111 H   0  0  0  0  0  0  0  0  0  0  0  0
   -2.8257   -1.2690    5.0902 H   0  0  0  0  0  0  0  0  0  0  0  0
   -1.4860   -3.8622    4.0360 H   0  0  0  0  0  0  0  0  0  0  0  0
   -1.9009   -4.7265    1.7905 H   0  0  0  0  0  0  0  0  0  0  0  0
    0.1021   -5.5099    0.4820 H   0  0  0  0  0  0  0  0  0  0  0  0
   -0.0233   -7.8879   -0.0937 H   0  0  0  0  0  0  0  0  0  0  0  0
   -2.5504   -9.5381    0.3422 H   0  0  0  0  0  0  0  0  0  0  0  0
   -3.1272  -10.8976   -0.6983 H   0  0  0  0  0  0  0  0  0  0  0  0
   -3.8902   -9.2654   -0.8541 H   0  0  0  0  0  0  0  0  0  0  0  0
   -3.2646   -7.0786   -2.7934 H   0  0  0  0  0  0  0  0  0  0  0  0
   -3.1320   -4.7051   -2.2699 H   0  0  0  0  0  0  0  0  0  0  0  0
   -6.8383    2.7533   -3.1965 H   0  0  0  0  0  0  0  0  0  0  0  0
   -7.6355    3.2443   -5.4730 H   0  0  0  0  0  0  0  0  0  0  0  0
   -4.6490    2.4315   -8.1760 H   0  0  0  0  0  0  0  0  0  0  0  0
   -5.5660    3.9067   -7.6420 H   0  0  0  0  0  0  0  0  0  0  0  0
   -5.5628    3.4150   -9.3868 H   0  0  0  0  0  0  0  0  0  0  0  0
   -5.4090   -0.1040   -6.9958 H   0  0  0  0  0  0  0  0  0  0  0  0
   -4.5890   -0.5994   -4.7409 H   0  0  0  0  0  0  0  0  0  0  0  0
   -4.9129    1.2368    0.1976 H   0  0  0  0  0  0  0  0  0  0  0  0
   -4.2036    3.2145    1.4285 H   0  0  0  0  0  0  0  0  0  0  0  0
   -0.9925    5.1131   -0.2184 H   0  0  0  0  0  0  0  0  0  0  0  0
   -0.8972    6.1154    1.2810 H   0  0  0  0  0  0  0  0  0  0  0  0
   -1.3963    4.3814    1.3946 H   0  0  0  0  0  0  0  0  0  0  0  0
   -3.1855    5.1594   -2.2662 H   0  0  0  0  0  0  0  0  0  0  0  0
   -3.9353    3.1812   -3.5244 H   0  0  0  0  0  0  0  0  0  0  0  0
   -7.3678   -0.3007   -1.2724 H   0  0  0  0  0  0  0  0  0  0  0  0
   -4.5693    0.3009    4.2097 H   0  0  0  0  0  0  0  0  0  0  0  0
   -8.7743    2.8316    2.8287 H   0  0  0  0  0  0  0  0  0  0  0  0
   -6.6991    4.6866    4.8455 H   0  0  0  0  0  0  0  0  0  0  0  0
   -8.8557    3.8215    6.3713 H   0  0  0  0  0  0  0  0  0  0  0  0
   -7.4468    5.3719    8.0101 H   0  0  0  0  0  0  0  0  0  0  0  0
   -5.2935    4.0771    8.7159 H   0  0  0  0  0  0  0  0  0  0  0  0
   -5.3161    1.7019    7.5206 H   0  0  0  0  0  0  0  0  0  0  0  0
   -7.8889    2.0589    8.1180 H   0  0  0  0  0  0  0  0  0  0  0  0
   -7.7479    1.3809    6.4438 H   0  0  0  0  0  0  0  0  0  0  0  0
   -4.7214    3.5116    5.4964 H   0  0  0  0  0  0  0  0  0  0  0  0
  1  2  2  3
  2  3  1  0
  3  4  2  0
  3  5  1  0
  5  6  2  0
  6  7  1  0
  7  8  2  0
  8  9  1  0
  9 10  2  0
 10 11  1  0
 11 12  2  3
 12 13  1  0
 13 14  3  0
 12 15  1  0
 15 16  3  0
  8 17  1  0
 17 18  1  0
 18 19  1  0
 19 20  2  0
 20 21  1  0
 21 22  1  0
 21 23  1  0
  1 24  1  0
 24 25  2  0
 25 26  1  0
 26 27  1  0
 27 28  2  0
 27 29  1  0
 29 30  1  0
 30 31  1  0
 26 32  2  0
 32 33  1  0
 33 34  1  0
 34 35  1  0
 33 36  1  0
 36 37  2  0
 32 38  1  0
 38 39  2  0
 39 40  1  0
 40 41  1  0
 41 42  2  0
 42 43  1  0
 43 44  2  0
 44 45  1  0
 45 46  1  0
 44 47  1  0
 47 48  2  0
 40 49  1  0
 49 50  2  0
 50 51  1  0
 51 52  2  0
 52 53  1  0
 53 54  1  0
 52 55  1  0
 55 56  2  0
 39 57  1  0
 57 58  1  0
 58 59  1  0
 59 60  2  0
 60 61  1  0
 61 62  1  0
 62 63  2  0
 63 64  1  0
 64 65  2  0
 65 66  1  0
 66 67  1  0
 65 68  1  0
 68 69  2  0
 61 70  1  0
 70 71  2  0
 71 72  1  0
 72 73  2  0
 73 74  1  0
 74 75  1  0
 73 76  1  0
 76 77  2  0
 60 78  1  0
 78 79  1  0
 59 80  1  0
 80 81  2  0
 81 82  1  0
 82 83  1  0
 83 84  2  0
 84 85  1  0
 85 86  2  0
 86 87  1  0
 87 88  1  0
 86 89  1  0
 89 90  2  0
 82 91  1  0
 91 92  2  0
 92 93  1  0
 93 94  2  0
 94 95  1  0
 95 96  1  0
 94 97  1  0
 97 98  2  0
 81 99  1  0
 99100  1  0
100101  1  0
101102  2  0
102103  1  0
103104  1  0
104105  2  0
105106  1  0
106107  2  0
107108  1  0
108109  1  0
107110  1  0
110111  2  0
103112  1  0
112113  2  0
113114  1  0
114115  2  0
115116  1  0
116117  1  0
115118  1  0
118119  2  0
102120  1  0
120121  1  0
101122  1  0
122123  2  3
123124  1  0
124125  2  0
124126  1  0
126127  2  0
127128  1  0
128129  2  0
129130  1  0
130131  2  0
131132  1  0
132133  2  3
133134  1  0
134135  3  0
133136  1  0
136137  3  0
129138  1  0
138139  1  0
139140  1  0
140141  2  0
141142  1  0
142143  1  0
142144  1  0
 11  2  1  0
 23 17  1  0
 29 24  1  0
 79 38  1  0
121 80  1  0
132123  1  0
144138  1  0
 10  5  1  0
 22 18  1  0
 36 25  1  0
 48 41  1  0
 56 49  1  0
 78 57  2  0
 90 83  1  0
 98 91  1  0
120 99  2  0
131126  1  0
143139  1  0
 23  7  1  0
 69 62  1  0
 77 70  1  0
111104  1  0
119112  1  0
144128  1  0
  1145  1  0
  6146  1  0
  9147  1  0
 17148  1  0
 18149  1  0
 19150  1  0
 20151  1  0
 21152  1  0
 22153  1  0
 22154  1  0
 23155  1  0
 30156  1  0
 30157  1  0
 31158  1  0
 31159  1  0
 31160  1  0
 34161  1  0
 34162  1  0
 35163  1  0
 35164  1  0
 35165  1  0
 42166  1  0
 43167  1  0
 46168  1  0
 46169  1  0
 46170  1  0
 47171  1  0
 48172  1  0
 50173  1  0
 51174  1  0
 54175  1  0
 54176  1  0
 54177  1  0
 55178  1  0
 56179  1  0
 63180  1  0
 64181  1  0
 67182  1  0
 67183  1  0
 67184  1  0
 68185  1  0
 69186  1  0
 71187  1  0
 72188  1  0
 75189  1  0
 75190  1  0
 75191  1  0
 76192  1  0
 77193  1  0
 84194  1  0
 85195  1  0
 88196  1  0
 88197  1  0
 88198  1  0
 89199  1  0
 90200  1  0
 92201  1  0
 93202  1  0
 96203  1  0
 96204  1  0
 96205  1  0
 97206  1  0
 98207  1  0
105208  1  0
106209  1  0
109210  1  0
109211  1  0
109212  1  0
110213  1  0
111214  1  0
113215  1  0
114216  1  0
117217  1  0
117218  1  0
117219  1  0
118220  1  0
119221  1  0
122222  1  0
127223  1  0
130224  1  0
138225  1  0
139226  1  0
140227  1  0
141228  1  0
142229  1  0
143230  1  0
143231  1  0
144232  1  0
M  END

