
     RDKit          3D

163182  0  0  0  0  0  0  0  0999 V2000
    6.0599   -0.2982    3.9957 C   0  0  0  0  0  0  0  0  0  0  0  0
    6.6706   -1.2726    3.3001 C   0  0  0  0  0  0  0  0  0  0  0  0
    6.3358   -1.6884    1.9352 C   0  0  0  0  0  0  0  0  0  0  0  0
    5.8629   -0.9584    1.0261 O   0  0  0  0  0  0  0  0  0  0  0  0
    6.7678   -3.0535    1.7568 C   0  0  0  0  0  0  0  0  0  0  0  0
    6.4890   -3.8948    0.6551 C   0  0  0  0  0  0  0  0  0  0  0  0
    6.9667   -5.1819    0.8068 C   0  0  0  0  0  0  0  0  0  0  0  0
    7.6707   -5.6284    1.9713 C   0  0  0  0  0  0  0  0  0  0  0  0
    7.9315   -4.8090    3.0585 C   0  0  0  0  0  0  0  0  0  0  0  0
    7.4780   -3.4680    2.9098 C   0  0  0  0  0  0  0  0  0  0  0  0
    7.5744   -2.3212    3.8553 C   0  0  0  0  0  0  0  0  0  0  0  0
    8.4819   -2.1651    4.8484 C   0  0  0  0  0  0  0  0  0  0  0  0
    9.4080   -3.2043    5.2293 C   0  0  0  0  0  0  0  0  0  0  0  0
   10.1599   -4.0271    5.5430 N   0  0  0  0  0  0  0  0  0  0  0  0
    8.6888   -0.8983    5.5027 C   0  0  0  0  0  0  0  0  0  0  0  0
    8.8685    0.1187    6.0259 N   0  0  0  0  0  0  0  0  0  0  0  0
    7.8115   -6.9988    1.3772 C   0  0  0  0  0  0  0  0  0  0  0  0
    9.2132   -7.4042    0.8242 C   0  0  0  0  0  0  0  0  0  0  0  0
    9.9478   -6.1792    0.3286 C   0  0  0  0  0  0  0  0  0  0  0  0
    9.2960   -5.7619   -0.7596 C   0  0  0  0  0  0  0  0  0  0  0  0
    8.1338   -6.7109   -0.9629 C   0  0  0  0  0  0  0  0  0  0  0  0
    8.8028   -7.9981   -0.5130 C   0  0  0  0  0  0  0  0  0  0  0  0
    7.0922   -6.5391    0.1849 C   0  0  0  0  0  0  0  0  0  0  0  0
    4.9097    0.4614    3.4823 C   0  0  0  0  0  0  0  0  0  0  0  0
    4.6808    1.8079    3.7233 C   0  0  0  0  0  0  0  0  0  0  0  0
    3.4261    2.2425    3.2574 C   0  0  0  0  0  0  0  0  0  0  0  0
    2.8975    3.5491    3.3587 C   0  0  0  0  0  0  0  0  0  0  0  0
    3.7043    4.6838    3.8560 C   0  0  0  0  0  0  0  0  0  0  0  0
    3.2817    5.4328    4.9636 C   0  0  0  0  0  0  0  0  0  0  0  0
    4.0363    6.5218    5.4041 C   0  0  0  0  0  0  0  0  0  0  0  0
    5.2122    6.8775    4.7354 C   0  0  0  0  0  0  0  0  0  0  0  0
    5.6377    6.1403    3.6273 C   0  0  0  0  0  0  0  0  0  0  0  0
    7.1440    6.5883    2.7581 S   0  0  0  0  0  0  0  0  0  0  0  0
    6.3093    7.5674    1.4574 C   0  0  0  0  0  0  0  0  0  0  0  0
    5.9820    8.9684    1.9581 C   0  0  0  0  0  0  0  0  0  0  0  0
    4.8950    5.0341    3.1981 C   0  0  0  0  0  0  0  0  0  0  0  0
    1.5807    3.7342    2.8919 C   0  0  0  0  0  0  0  0  0  0  0  0
    0.8351    2.6997    2.3198 C   0  0  0  0  0  0  0  0  0  0  0  0
    1.3781    1.4112    2.1801 C   0  0  0  0  0  0  0  0  0  0  0  0
    0.6264    0.3073    1.5526 C   0  0  0  0  0  0  0  0  0  0  0  0
   -0.3783   -0.3651    2.2755 C   0  0  0  0  0  0  0  0  0  0  0  0
   -1.0993   -1.3980    1.6746 C   0  0  0  0  0  0  0  0  0  0  0  0
   -0.8438   -1.7501    0.3442 C   0  0  0  0  0  0  0  0  0  0  0  0
    0.1350   -1.0729   -0.3868 C   0  0  0  0  0  0  0  0  0  0  0  0
    0.3676   -1.4583   -2.1204 S   0  0  0  0  0  0  0  0  0  0  0  0
    1.7697   -2.6053   -1.8796 C   0  0  0  0  0  0  0  0  0  0  0  0
    3.0699   -1.9211   -2.2805 C   0  0  0  0  0  0  0  0  0  0  0  0
    0.8762   -0.0468    0.2203 C   0  0  0  0  0  0  0  0  0  0  0  0
    2.6708    1.2118    2.6852 C   0  0  0  0  0  0  0  0  0  0  0  0
    3.5422   -0.2196    2.7576 S   0  0  0  0  0  0  0  0  0  0  0  0
   -0.4379    3.1008    1.8989 C   0  0  0  0  0  0  0  0  0  0  0  0
   -0.6784    4.4468    2.1435 C   0  0  0  0  0  0  0  0  0  0  0  0
    0.6734    5.1594    2.8550 S   0  0  0  0  0  0  0  0  0  0  0  0
   -1.9217    5.1240    1.7834 C   0  0  0  0  0  0  0  0  0  0  0  0
   -3.3960    4.7805    2.5355 S   0  0  0  0  0  0  0  0  0  0  0  0
   -4.4512    5.1157    1.2492 C   0  0  0  0  0  0  0  0  0  0  0  0
   -3.6202    5.4891    0.1929 C   0  0  0  0  0  0  0  0  0  0  0  0
   -3.8879    5.6326   -1.1758 C   0  0  0  0  0  0  0  0  0  0  0  0
   -2.7098    5.6817   -1.9270 C   0  0  0  0  0  0  0  0  0  0  0  0
   -2.6402    5.7511   -3.3897 C   0  0  0  0  0  0  0  0  0  0  0  0
   -3.4128    6.5308   -4.0192 O   0  0  0  0  0  0  0  0  0  0  0  0
   -1.7131    4.9518   -4.0729 O   0  0  0  0  0  0  0  0  0  0  0  0
   -1.5206    5.0255   -5.4824 C   0  0  0  0  0  0  0  0  0  0  0  0
   -0.6292    3.8798   -5.9292 C   0  0  0  0  0  0  0  0  0  0  0  0
   -1.3573    5.5247   -0.9177 S   0  0  0  0  0  0  0  0  0  0  0  0
   -2.2679    5.4635    0.4901 C   0  0  0  0  0  0  0  0  0  0  0  0
   -5.7580    4.4504    1.0761 C   0  0  0  0  0  0  0  0  0  0  0  0
   -5.9049    3.1285    1.5547 C   0  0  0  0  0  0  0  0  0  0  0  0
   -6.9655    2.3583    1.0789 C   0  0  0  0  0  0  0  0  0  0  0  0
   -7.1207    1.0184    1.2025 N   0  0  0  0  0  0  0  0  0  0  0  0
   -6.2911    0.1014    1.9957 C   0  0  0  0  0  0  0  0  0  0  0  0
   -6.7980    0.0447    3.4295 C   0  0  0  0  0  0  0  0  0  0  0  0
   -8.1538    0.7071    0.3821 C   0  0  0  0  0  0  0  0  0  0  0  0
   -8.6520    1.8365   -0.2443 C   0  0  0  0  0  0  0  0  0  0  0  0
   -7.8912    2.8963    0.2049 C   0  0  0  0  0  0  0  0  0  0  0  0
   -7.8430    4.2285   -0.1978 C   0  0  0  0  0  0  0  0  0  0  0  0
   -6.7661    5.0138    0.2556 C   0  0  0  0  0  0  0  0  0  0  0  0
   -9.5973    1.7565   -1.2669 C   0  0  0  0  0  0  0  0  0  0  0  0
  -10.0193    0.4768   -1.6782 C   0  0  0  0  0  0  0  0  0  0  0  0
   -9.4901   -0.6850   -1.0600 C   0  0  0  0  0  0  0  0  0  0  0  0
   -8.5813   -0.5682    0.0113 C   0  0  0  0  0  0  0  0  0  0  0  0
   -9.7294   -2.0219   -1.6197 C   0  0  0  0  0  0  0  0  0  0  0  0
   -8.9759   -2.5102   -2.6285 C   0  0  0  0  0  0  0  0  0  0  0  0
   -7.9305   -1.7569   -3.3420 C   0  0  0  0  0  0  0  0  0  0  0  0
   -7.8747   -0.5042   -3.4837 O   0  0  0  0  0  0  0  0  0  0  0  0
   -6.9639   -2.6911   -3.8756 C   0  0  0  0  0  0  0  0  0  0  0  0
   -5.7202   -2.3877   -4.4775 C   0  0  0  0  0  0  0  0  0  0  0  0
   -4.9260   -3.4972   -4.7117 C   0  0  0  0  0  0  0  0  0  0  0  0
   -5.3173   -4.8308   -4.3543 C   0  0  0  0  0  0  0  0  0  0  0  0
   -6.5394   -5.1363   -3.7742 C   0  0  0  0  0  0  0  0  0  0  0  0
   -7.3880   -4.0135   -3.5639 C   0  0  0  0  0  0  0  0  0  0  0  0
   -8.7317   -3.9524   -2.9239 C   0  0  0  0  0  0  0  0  0  0  0  0
   -9.6345   -4.9616   -2.8342 C   0  0  0  0  0  0  0  0  0  0  0  0
   -9.3488   -6.2931   -3.3021 C   0  0  0  0  0  0  0  0  0  0  0  0
   -9.1305   -7.3684   -3.6758 N   0  0  0  0  0  0  0  0  0  0  0  0
  -10.9784   -4.7483   -2.3681 C   0  0  0  0  0  0  0  0  0  0  0  0
  -12.0602   -4.5929   -1.9796 N   0  0  0  0  0  0  0  0  0  0  0  0
   -4.0004   -5.3639   -4.8385 C   0  0  0  0  0  0  0  0  0  0  0  0
   -3.9844   -6.1457   -6.1881 C   0  0  0  0  0  0  0  0  0  0  0  0
   -5.0799   -5.6317   -7.0941 C   0  0  0  0  0  0  0  0  0  0  0  0
   -4.7306   -4.3912   -7.4421 C   0  0  0  0  0  0  0  0  0  0  0  0
   -3.4073   -4.1041   -6.7639 C   0  0  0  0  0  0  0  0  0  0  0  0
   -2.7918   -5.4886   -6.8575 C   0  0  0  0  0  0  0  0  0  0  0  0
   -3.6077   -4.0045   -5.2209 C   0  0  0  0  0  0  0  0  0  0  0  0
    6.3322   -0.1045    5.0191 H   0  0  0  0  0  0  0  0  0  0  0  0
    5.9206   -3.5760   -0.2113 H   0  0  0  0  0  0  0  0  0  0  0  0
    8.4116   -5.2024    3.9389 H   0  0  0  0  0  0  0  0  0  0  0  0
    7.2735   -7.7974    1.9365 H   0  0  0  0  0  0  0  0  0  0  0  0
    9.8028   -8.0778    1.4782 H   0  0  0  0  0  0  0  0  0  0  0  0
   10.8719   -5.7596    0.7186 H   0  0  0  0  0  0  0  0  0  0  0  0
    9.5990   -4.9402   -1.4023 H   0  0  0  0  0  0  0  0  0  0  0  0
    7.7106   -6.7190   -1.9919 H   0  0  0  0  0  0  0  0  0  0  0  0
    9.6675   -8.2964   -1.1564 H   0  0  0  0  0  0  0  0  0  0  0  0
    8.0894   -8.8534   -0.4169 H   0  0  0  0  0  0  0  0  0  0  0  0
    6.1203   -7.0502    0.0132 H   0  0  0  0  0  0  0  0  0  0  0  0
    5.3905    2.4485    4.2291 H   0  0  0  0  0  0  0  0  0  0  0  0
    2.3684    5.1716    5.4871 H   0  0  0  0  0  0  0  0  0  0  0  0
    3.7074    7.0949    6.2581 H   0  0  0  0  0  0  0  0  0  0  0  0
    5.7893    7.7292    5.0766 H   0  0  0  0  0  0  0  0  0  0  0  0
    5.3809    7.0613    1.1098 H   0  0  0  0  0  0  0  0  0  0  0  0
    6.9981    7.6514    0.5886 H   0  0  0  0  0  0  0  0  0  0  0  0
    6.8977    9.4529    2.3650 H   0  0  0  0  0  0  0  0  0  0  0  0
    5.2065    8.9233    2.7527 H   0  0  0  0  0  0  0  0  0  0  0  0
    5.5948    9.5853    1.1189 H   0  0  0  0  0  0  0  0  0  0  0  0
    5.2209    4.4689    2.3343 H   0  0  0  0  0  0  0  0  0  0  0  0
   -0.5915   -0.0877    3.3022 H   0  0  0  0  0  0  0  0  0  0  0  0
   -1.8540   -1.9252    2.2406 H   0  0  0  0  0  0  0  0  0  0  0  0
   -1.4113   -2.5483   -0.1147 H   0  0  0  0  0  0  0  0  0  0  0  0
    1.6079   -3.4916   -2.5274 H   0  0  0  0  0  0  0  0  0  0  0  0
    1.8352   -2.9582   -0.8286 H   0  0  0  0  0  0  0  0  0  0  0  0
    3.9235   -2.6122   -2.1208 H   0  0  0  0  0  0  0  0  0  0  0  0
    3.0344   -1.6467   -3.3577 H   0  0  0  0  0  0  0  0  0  0  0  0
    3.2292   -1.0017   -1.6774 H   0  0  0  0  0  0  0  0  0  0  0  0
    1.6282    0.4898   -0.3482 H   0  0  0  0  0  0  0  0  0  0  0  0
   -1.1511    2.4418    1.4228 H   0  0  0  0  0  0  0  0  0  0  0  0
   -4.8779    5.6197   -1.6145 H   0  0  0  0  0  0  0  0  0  0  0  0
   -1.0433    5.9959   -5.7469 H   0  0  0  0  0  0  0  0  0  0  0  0
   -2.4988    4.9412   -6.0076 H   0  0  0  0  0  0  0  0  0  0  0  0
   -1.1399    2.9100   -5.7419 H   0  0  0  0  0  0  0  0  0  0  0  0
    0.3320    3.9063   -5.3753 H   0  0  0  0  0  0  0  0  0  0  0  0
   -0.4171    3.9744   -7.0190 H   0  0  0  0  0  0  0  0  0  0  0  0
   -5.1346    2.6748    2.1595 H   0  0  0  0  0  0  0  0  0  0  0  0
   -5.2298    0.4374    1.9878 H   0  0  0  0  0  0  0  0  0  0  0  0
   -6.2926   -0.9176    1.5599 H   0  0  0  0  0  0  0  0  0  0  0  0
   -6.7737    1.0587    3.8861 H   0  0  0  0  0  0  0  0  0  0  0  0
   -6.1546   -0.6353    4.0229 H   0  0  0  0  0  0  0  0  0  0  0  0
   -7.8413   -0.3348    3.4493 H   0  0  0  0  0  0  0  0  0  0  0  0
   -8.5743    4.6329   -0.8874 H   0  0  0  0  0  0  0  0  0  0  0  0
   -6.6799    6.0327   -0.0937 H   0  0  0  0  0  0  0  0  0  0  0  0
   -9.9380    2.6425   -1.7810 H   0  0  0  0  0  0  0  0  0  0  0  0
  -10.7080    0.3801   -2.5092 H   0  0  0  0  0  0  0  0  0  0  0  0
   -8.1502   -1.4560    0.4590 H   0  0  0  0  0  0  0  0  0  0  0  0
  -10.3062   -2.6980   -1.0026 H   0  0  0  0  0  0  0  0  0  0  0  0
   -5.3914   -1.3773   -4.6915 H   0  0  0  0  0  0  0  0  0  0  0  0
   -6.7713   -6.1425   -3.4604 H   0  0  0  0  0  0  0  0  0  0  0  0
   -3.3693   -5.8003   -4.0328 H   0  0  0  0  0  0  0  0  0  0  0  0
   -3.9315   -7.2484   -6.0956 H   0  0  0  0  0  0  0  0  0  0  0  0
   -5.9437   -6.1771   -7.4534 H   0  0  0  0  0  0  0  0  0  0  0  0
   -5.2620   -3.7543   -8.1441 H   0  0  0  0  0  0  0  0  0  0  0  0
   -2.8135   -3.2834   -7.2204 H   0  0  0  0  0  0  0  0  0  0  0  0
   -1.8400   -5.5904   -6.2794 H   0  0  0  0  0  0  0  0  0  0  0  0
   -2.6313   -5.8317   -7.9087 H   0  0  0  0  0  0  0  0  0  0  0  0
   -2.7295   -3.6195   -4.6569 H   0  0  0  0  0  0  0  0  0  0  0  0
  1  2  2  3
  2  3  1  0
  3  4  2  0
  3  5  1  0
  5  6  2  0
  6  7  1  0
  7  8  2  0
  8  9  1  0
  9 10  2  0
 10 11  1  0
 11 12  2  3
 12 13  1  0
 13 14  3  0
 12 15  1  0
 15 16  3  0
  8 17  1  0
 17 18  1  0
 18 19  1  0
 19 20  2  0
 20 21  1  0
 21 22  1  0
 21 23  1  0
  1 24  1  0
 24 25  2  0
 25 26  1  0
 26 27  2  0
 27 28  1  0
 28 29  2  0
 29 30  1  0
 30 31  2  0
 31 32  1  0
 32 33  1  0
 33 34  1  0
 34 35  1  0
 32 36  2  0
 27 37  1  0
 37 38  2  0
 38 39  1  0
 39 40  1  0
 40 41  2  0
 41 42  1  0
 42 43  2  0
 43 44  1  0
 44 45  1  0
 45 46  1  0
 46 47  1  0
 44 48  2  0
 39 49  2  0
 49 50  1  0
 38 51  1  0
 51 52  2  0
 52 53  1  0
 52 54  1  0
 54 55  1  0
 55 56  1  0
 56 57  2  0
 57 58  1  0
 58 59  2  0
 59 60  1  0
 60 61  2  0
 60 62  1  0
 62 63  1  0
 63 64  1  0
 59 65  1  0
 65 66  1  0
 56 67  1  0
 67 68  2  0
 68 69  1  0
 69 70  1  0
 70 71  1  0
 71 72  1  0
 70 73  1  0
 73 74  2  0
 74 75  1  0
 75 76  1  0
 76 77  2  0
 74 78  1  0
 78 79  2  0
 79 80  1  0
 80 81  2  0
 80 82  1  0
 82 83  2  3
 83 84  1  0
 84 85  2  0
 84 86  1  0
 86 87  2  0
 87 88  1  0
 88 89  2  0
 89 90  1  0
 90 91  2  0
 91 92  1  0
 92 93  2  3
 93 94  1  0
 94 95  3  0
 93 96  1  0
 96 97  3  0
 89 98  1  0
 98 99  1  0
 99100  1  0
100101  2  0
101102  1  0
102103  1  0
102104  1  0
 11  2  1  0
 23 17  1  0
 50 24  1  0
 66 54  2  0
 77 67  1  0
 92 83  1  0
104 98  1  0
 10  5  1  0
 22 18  1  0
 49 26  1  0
 66 57  1  0
 75 69  2  0
 91 86  1  0
103 99  1  0
 23  7  1  0
 36 28  1  0
 53 37  1  0
 81 73  1  0
104 88  1  0
 48 40  1  0
  1105  1  0
  6106  1  0
  9107  1  0
 17108  1  0
 18109  1  0
 19110  1  0
 20111  1  0
 21112  1  0
 22113  1  0
 22114  1  0
 23115  1  0
 25116  1  0
 29117  1  0
 30118  1  0
 31119  1  0
 34120  1  0
 34121  1  0
 35122  1  0
 35123  1  0
 35124  1  0
 36125  1  0
 41126  1  0
 42127  1  0
 43128  1  0
 46129  1  0
 46130  1  0
 47131  1  0
 47132  1  0
 47133  1  0
 48134  1  0
 51135  1  0
 58136  1  0
 63137  1  0
 63138  1  0
 64139  1  0
 64140  1  0
 64141  1  0
 68142  1  0
 71143  1  0
 71144  1  0
 72145  1  0
 72146  1  0
 72147  1  0
 76148  1  0
 77149  1  0
 78150  1  0
 79151  1  0
 81152  1  0
 82153  1  0
 87154  1  0
 90155  1  0
 98156  1  0
 99157  1  0
100158  1  0
101159  1  0
102160  1  0
103161  1  0
103162  1  0
104163  1  0
M  END

