
     RDKit          3D

190210  0  0  0  0  0  0  0  0999 V2000
   -6.2646   -3.8279   -2.4598 C   0  0  0  0  0  0  0  0  0  0  0  0
   -6.2368   -4.5617   -1.3186 C   0  0  0  0  0  0  0  0  0  0  0  0
   -5.0901   -4.6551   -0.4056 C   0  0  0  0  0  0  0  0  0  0  0  0
   -4.0859   -3.8958   -0.3724 O   0  0  0  0  0  0  0  0  0  0  0  0
   -5.3098   -5.7079    0.5381 C   0  0  0  0  0  0  0  0  0  0  0  0
   -4.3770   -6.2054    1.4662 C   0  0  0  0  0  0  0  0  0  0  0  0
   -4.8823   -7.1820    2.2900 C   0  0  0  0  0  0  0  0  0  0  0  0
   -6.2520   -7.6027    2.2566 C   0  0  0  0  0  0  0  0  0  0  0  0
   -7.1721   -7.1196    1.3338 C   0  0  0  0  0  0  0  0  0  0  0  0
   -6.6442   -6.1726    0.4056 C   0  0  0  0  0  0  0  0  0  0  0  0
   -7.2854   -5.5032   -0.7725 C   0  0  0  0  0  0  0  0  0  0  0  0
   -8.5283   -5.7558   -1.2704 C   0  0  0  0  0  0  0  0  0  0  0  0
   -9.1165   -5.0154   -2.3477 C   0  0  0  0  0  0  0  0  0  0  0  0
   -9.6206   -4.4385   -3.2190 N   0  0  0  0  0  0  0  0  0  0  0  0
   -9.3626   -6.8209   -0.7854 C   0  0  0  0  0  0  0  0  0  0  0  0
  -10.0468   -7.6801   -0.4211 N   0  0  0  0  0  0  0  0  0  0  0  0
   -6.0137   -8.5237    3.4148 C   0  0  0  0  0  0  0  0  0  0  0  0
   -6.5179   -8.0482    4.8170 C   0  0  0  0  0  0  0  0  0  0  0  0
   -5.8378   -8.9358    5.8256 C   0  0  0  0  0  0  0  0  0  0  0  0
   -4.5335   -8.5993    5.8098 C   0  0  0  0  0  0  0  0  0  0  0  0
   -4.3999   -7.4715    4.8163 C   0  0  0  0  0  0  0  0  0  0  0  0
   -5.7291   -6.7713    5.0575 C   0  0  0  0  0  0  0  0  0  0  0  0
   -4.6002   -8.1215    3.4178 C   0  0  0  0  0  0  0  0  0  0  0  0
   -5.1365   -2.9789   -2.9114 C   0  0  0  0  0  0  0  0  0  0  0  0
   -3.5257   -3.4809   -3.1527 S   0  0  0  0  0  0  0  0  0  0  0  0
   -2.8069   -1.9453   -3.1571 C   0  0  0  0  0  0  0  0  0  0  0  0
   -3.8556   -1.0492   -3.0254 C   0  0  0  0  0  0  0  0  0  0  0  0
   -3.9198    0.6115   -2.8705 S   0  0  0  0  0  0  0  0  0  0  0  0
   -5.5956    0.6646   -2.5853 C   0  0  0  0  0  0  0  0  0  0  0  0
   -6.3094    1.9261   -2.3001 C   0  0  0  0  0  0  0  0  0  0  0  0
   -7.2743    2.1748   -1.3190 C   0  0  0  0  0  0  0  0  0  0  0  0
   -7.5918    3.5321   -1.1710 C   0  0  0  0  0  0  0  0  0  0  0  0
   -6.8608    4.3583   -2.0069 C   0  0  0  0  0  0  0  0  0  0  0  0
   -6.9289    5.8257   -2.0544 C   0  0  0  0  0  0  0  0  0  0  0  0
   -7.7704    6.4432   -1.3438 O   0  0  0  0  0  0  0  0  0  0  0  0
   -6.0593    6.5265   -2.9005 O   0  0  0  0  0  0  0  0  0  0  0  0
   -6.0568    7.9471   -3.0276 C   0  0  0  0  0  0  0  0  0  0  0  0
   -5.3836    8.5992   -1.8298 C   0  0  0  0  0  0  0  0  0  0  0  0
   -5.8160    3.4117   -2.9197 S   0  0  0  0  0  0  0  0  0  0  0  0
   -7.9519    0.9846   -0.2235 Cl  0  0  0  0  0  0  0  0  0  0  0  0
   -6.1234   -0.6397   -2.6657 C   0  0  0  0  0  0  0  0  0  0  0  0
   -5.1181   -1.5879   -2.8923 C   0  0  0  0  0  0  0  0  0  0  0  0
   -7.8415   -1.0204   -2.6963 Cl  0  0  0  0  0  0  0  0  0  0  0  0
   -1.4038   -1.6512   -2.8301 C   0  0  0  0  0  0  0  0  0  0  0  0
   -0.9769   -1.0566   -1.6333 C   0  0  0  0  0  0  0  0  0  0  0  0
   -1.7223   -1.1393   -0.4113 N   0  0  0  0  0  0  0  0  0  0  0  0
   -2.5563   -0.0440    0.0069 C   0  0  0  0  0  0  0  0  0  0  0  0
   -3.8415   -0.2954    0.5155 C   0  0  0  0  0  0  0  0  0  0  0  0
   -4.6379    0.7545    0.9776 C   0  0  0  0  0  0  0  0  0  0  0  0
   -4.1539    2.0676    0.9435 C   0  0  0  0  0  0  0  0  0  0  0  0
   -5.1745    3.4109    1.5601 S   0  0  0  0  0  0  0  0  0  0  0  0
   -4.6420    3.1746    3.2847 C   0  0  0  0  0  0  0  0  0  0  0  0
   -2.8815    2.3299    0.4206 C   0  0  0  0  0  0  0  0  0  0  0  0
   -2.0858    1.2806   -0.0435 C   0  0  0  0  0  0  0  0  0  0  0  0
   -1.4854   -2.2685    0.4675 C   0  0  0  0  0  0  0  0  0  0  0  0
   -1.5381   -2.1163    1.8688 C   0  0  0  0  0  0  0  0  0  0  0  0
   -1.2513   -3.1954    2.7114 C   0  0  0  0  0  0  0  0  0  0  0  0
   -0.8969   -4.4365    2.1724 C   0  0  0  0  0  0  0  0  0  0  0  0
   -0.5064   -5.8170    3.2496 S   0  0  0  0  0  0  0  0  0  0  0  0
    1.2865   -5.4962    3.1884 C   0  0  0  0  0  0  0  0  0  0  0  0
   -0.8464   -4.6018    0.7885 C   0  0  0  0  0  0  0  0  0  0  0  0
   -1.1309   -3.5266   -0.0600 C   0  0  0  0  0  0  0  0  0  0  0  0
    0.4026   -0.9147   -1.6169 C   0  0  0  0  0  0  0  0  0  0  0  0
    1.4475   -0.2149   -0.5194 S   0  0  0  0  0  0  0  0  0  0  0  0
    2.8404   -0.5900   -1.4187 C   0  0  0  0  0  0  0  0  0  0  0  0
    2.4833   -1.3493   -2.5545 C   0  0  0  0  0  0  0  0  0  0  0  0
    3.4497   -2.0556   -3.3744 N   0  0  0  0  0  0  0  0  0  0  0  0
    4.7727   -2.2920   -2.8543 C   0  0  0  0  0  0  0  0  0  0  0  0
    5.9040   -1.8728   -3.5747 C   0  0  0  0  0  0  0  0  0  0  0  0
    7.1891   -2.1108   -3.0694 C   0  0  0  0  0  0  0  0  0  0  0  0
    7.3505   -2.7793   -1.8492 C   0  0  0  0  0  0  0  0  0  0  0  0
    8.9965   -3.1143   -1.2202 S   0  0  0  0  0  0  0  0  0  0  0  0
    9.0976   -1.5739   -0.2535 C   0  0  0  0  0  0  0  0  0  0  0  0
    6.2244   -3.2061   -1.1306 C   0  0  0  0  0  0  0  0  0  0  0  0
    4.9439   -2.9653   -1.6304 C   0  0  0  0  0  0  0  0  0  0  0  0
    3.0100   -2.9324   -4.4204 C   0  0  0  0  0  0  0  0  0  0  0  0
    2.6599   -2.4180   -5.6778 C   0  0  0  0  0  0  0  0  0  0  0  0
    2.1943   -3.2798   -6.6792 C   0  0  0  0  0  0  0  0  0  0  0  0
    2.0561   -4.6536   -6.4201 C   0  0  0  0  0  0  0  0  0  0  0  0
    1.3708   -5.7403   -7.6669 S   0  0  0  0  0  0  0  0  0  0  0  0
   -0.3359   -5.5047   -7.0853 C   0  0  0  0  0  0  0  0  0  0  0  0
    2.4332   -5.1687   -5.1754 C   0  0  0  0  0  0  0  0  0  0  0  0
    2.9094   -4.3123   -4.1794 C   0  0  0  0  0  0  0  0  0  0  0  0
    1.0842   -1.4562   -2.6551 C   0  0  0  0  0  0  0  0  0  0  0  0
   -0.0355   -2.1002   -3.7437 S   0  0  0  0  0  0  0  0  0  0  0  0
    3.9918    0.3272   -1.3701 C   0  0  0  0  0  0  0  0  0  0  0  0
    4.8952    0.2773   -0.2983 C   0  0  0  0  0  0  0  0  0  0  0  0
    4.8664   -0.7598    0.5783 F   0  0  0  0  0  0  0  0  0  0  0  0
    5.7536    1.3581   -0.0488 C   0  0  0  0  0  0  0  0  0  0  0  0
    6.5435    1.3377    1.0634 F   0  0  0  0  0  0  0  0  0  0  0  0
    5.6703    2.5243   -0.8305 C   0  0  0  0  0  0  0  0  0  0  0  0
    4.7947    2.5589   -1.9301 C   0  0  0  0  0  0  0  0  0  0  0  0
    4.6139    3.7024   -2.6488 N   0  0  0  0  0  0  0  0  0  0  0  0
    3.7034    3.7949   -3.6550 C   0  0  0  0  0  0  0  0  0  0  0  0
    3.5364    5.1203   -4.3388 C   0  0  0  0  0  0  0  0  0  0  0  0
    4.4733    5.2374   -5.5383 C   0  0  0  0  0  0  0  0  0  0  0  0
    2.9513    2.6440   -3.9953 C   0  0  0  0  0  0  0  0  0  0  0  0
    3.0989    1.5269   -3.2400 N   0  0  0  0  0  0  0  0  0  0  0  0
    3.9874    1.4448   -2.2180 C   0  0  0  0  0  0  0  0  0  0  0  0
    1.9187    2.6034   -5.0848 C   0  0  0  0  0  0  0  0  0  0  0  0
    0.5233    2.8217   -4.5162 C   0  0  0  0  0  0  0  0  0  0  0  0
    6.2589    3.7709   -0.3190 C   0  0  0  0  0  0  0  0  0  0  0  0
    5.5510    4.6041    0.4688 C   0  0  0  0  0  0  0  0  0  0  0  0
    4.2099    4.3328    1.0057 C   0  0  0  0  0  0  0  0  0  0  0  0
    3.3813    3.4855    0.5728 O   0  0  0  0  0  0  0  0  0  0  0  0
    3.9956    5.1668    2.1587 C   0  0  0  0  0  0  0  0  0  0  0  0
    2.9094    5.0957    3.0591 C   0  0  0  0  0  0  0  0  0  0  0  0
    3.0708    5.8836    4.1783 C   0  0  0  0  0  0  0  0  0  0  0  0
    4.2406    6.6817    4.4234 C   0  0  0  0  0  0  0  0  0  0  0  0
    5.2994    6.7688    3.5324 C   0  0  0  0  0  0  0  0  0  0  0  0
    5.1335    5.9907    2.3470 C   0  0  0  0  0  0  0  0  0  0  0  0
    6.0765    5.7832    1.2133 C   0  0  0  0  0  0  0  0  0  0  0  0
    7.0146    6.6576    0.7811 C   0  0  0  0  0  0  0  0  0  0  0  0
    7.6595    6.5080   -0.5047 C   0  0  0  0  0  0  0  0  0  0  0  0
    8.1715    6.3985   -1.5339 N   0  0  0  0  0  0  0  0  0  0  0  0
    7.2885    7.8912    1.4718 C   0  0  0  0  0  0  0  0  0  0  0  0
    7.5122    8.8864    2.0204 N   0  0  0  0  0  0  0  0  0  0  0  0
    3.7140    7.0601    5.7774 C   0  0  0  0  0  0  0  0  0  0  0  0
    4.3589    6.3339    7.0048 C   0  0  0  0  0  0  0  0  0  0  0  0
    3.4228    6.5839    8.1673 C   0  0  0  0  0  0  0  0  0  0  0  0
    2.3153    5.8754    7.9232 C   0  0  0  0  0  0  0  0  0  0  0  0
    2.5411    5.1643    6.6109 C   0  0  0  0  0  0  0  0  0  0  0  0
    4.0268    4.8715    6.7542 C   0  0  0  0  0  0  0  0  0  0  0  0
    2.5072    6.2697    5.5154 C   0  0  0  0  0  0  0  0  0  0  0  0
   -7.1383   -3.7804   -3.0850 H   0  0  0  0  0  0  0  0  0  0  0  0
   -3.3507   -5.8603    1.5306 H   0  0  0  0  0  0  0  0  0  0  0  0
   -8.1892   -7.4663    1.3569 H   0  0  0  0  0  0  0  0  0  0  0  0
   -6.1784   -9.5939    3.1734 H   0  0  0  0  0  0  0  0  0  0  0  0
   -7.6240   -7.9642    4.9301 H   0  0  0  0  0  0  0  0  0  0  0  0
   -6.2965   -9.6606    6.4896 H   0  0  0  0  0  0  0  0  0  0  0  0
   -3.7651   -8.9957    6.4635 H   0  0  0  0  0  0  0  0  0  0  0  0
   -3.4887   -6.8418    4.9307 H   0  0  0  0  0  0  0  0  0  0  0  0
   -5.8305   -6.3707    6.0959 H   0  0  0  0  0  0  0  0  0  0  0  0
   -5.9483   -5.9501    4.3414 H   0  0  0  0  0  0  0  0  0  0  0  0
   -3.8916   -8.9347    3.1486 H   0  0  0  0  0  0  0  0  0  0  0  0
   -8.3126    3.8887   -0.4464 H   0  0  0  0  0  0  0  0  0  0  0  0
   -7.0953    8.3240   -3.1535 H   0  0  0  0  0  0  0  0  0  0  0  0
   -5.4807    8.2175   -3.9412 H   0  0  0  0  0  0  0  0  0  0  0  0
   -5.3285    9.6984   -1.9778 H   0  0  0  0  0  0  0  0  0  0  0  0
   -4.3566    8.1917   -1.7097 H   0  0  0  0  0  0  0  0  0  0  0  0
   -5.9686    8.3874   -0.9086 H   0  0  0  0  0  0  0  0  0  0  0  0
   -4.2215   -1.3100    0.5523 H   0  0  0  0  0  0  0  0  0  0  0  0
   -5.6170    0.5452    1.3822 H   0  0  0  0  0  0  0  0  0  0  0  0
   -3.5612    3.4117    3.3806 H   0  0  0  0  0  0  0  0  0  0  0  0
   -5.2242    3.8521    3.9443 H   0  0  0  0  0  0  0  0  0  0  0  0
   -4.8281    2.1239    3.6013 H   0  0  0  0  0  0  0  0  0  0  0  0
   -2.5060    3.3502    0.3935 H   0  0  0  0  0  0  0  0  0  0  0  0
   -1.0936    1.5037   -0.4218 H   0  0  0  0  0  0  0  0  0  0  0  0
   -1.7838   -1.1596    2.3159 H   0  0  0  0  0  0  0  0  0  0  0  0
   -1.2937   -3.0582    3.7854 H   0  0  0  0  0  0  0  0  0  0  0  0
    1.6697   -5.6144    2.1520 H   0  0  0  0  0  0  0  0  0  0  0  0
    1.5065   -4.4699    3.5484 H   0  0  0  0  0  0  0  0  0  0  0  0
    1.8043   -6.2275    3.8421 H   0  0  0  0  0  0  0  0  0  0  0  0
   -0.5787   -5.5630    0.3608 H   0  0  0  0  0  0  0  0  0  0  0  0
   -1.0904   -3.6970   -1.1254 H   0  0  0  0  0  0  0  0  0  0  0  0
    5.7836   -1.3634   -4.5260 H   0  0  0  0  0  0  0  0  0  0  0  0
    8.0497   -1.7659   -3.6271 H   0  0  0  0  0  0  0  0  0  0  0  0
    8.2665   -1.5297    0.4765 H   0  0  0  0  0  0  0  0  0  0  0  0
    9.0523   -0.6951   -0.9253 H   0  0  0  0  0  0  0  0  0  0  0  0
   10.0594   -1.5595    0.2942 H   0  0  0  0  0  0  0  0  0  0  0  0
    6.3465   -3.7319   -0.1922 H   0  0  0  0  0  0  0  0  0  0  0  0
    4.0816   -3.3189   -1.0738 H   0  0  0  0  0  0  0  0  0  0  0  0
    2.7236   -1.3518   -5.8756 H   0  0  0  0  0  0  0  0  0  0  0  0
    1.9008   -2.8742   -7.6393 H   0  0  0  0  0  0  0  0  0  0  0  0
   -1.0188   -6.0873   -7.7337 H   0  0  0  0  0  0  0  0  0  0  0  0
   -0.4408   -5.8771   -6.0452 H   0  0  0  0  0  0  0  0  0  0  0  0
   -0.6188   -4.4335   -7.1358 H   0  0  0  0  0  0  0  0  0  0  0  0
    2.3074   -6.2212   -4.9741 H   0  0  0  0  0  0  0  0  0  0  0  0
    3.1719   -4.7182   -3.2130 H   0  0  0  0  0  0  0  0  0  0  0  0
    3.7736    5.9365   -3.6206 H   0  0  0  0  0  0  0  0  0  0  0  0
    2.4829    5.2709   -4.6591 H   0  0  0  0  0  0  0  0  0  0  0  0
    5.5351    5.1355   -5.2079 H   0  0  0  0  0  0  0  0  0  0  0  0
    4.3482    6.2347   -6.0058 H   0  0  0  0  0  0  0  0  0  0  0  0
    4.2515    4.4490   -6.2905 H   0  0  0  0  0  0  0  0  0  0  0  0
    2.1293    3.3486   -5.8798 H   0  0  0  0  0  0  0  0  0  0  0  0
    1.9563    1.6014   -5.5689 H   0  0  0  0  0  0  0  0  0  0  0  0
    0.4054    3.8745   -4.1803 H   0  0  0  0  0  0  0  0  0  0  0  0
   -0.2281    2.6222   -5.3115 H   0  0  0  0  0  0  0  0  0  0  0  0
    0.3338    2.1320   -3.6616 H   0  0  0  0  0  0  0  0  0  0  0  0
    7.3080    3.9471   -0.5189 H   0  0  0  0  0  0  0  0  0  0  0  0
    2.0642    4.4280    2.9310 H   0  0  0  0  0  0  0  0  0  0  0  0
    6.1880    7.3293    3.7732 H   0  0  0  0  0  0  0  0  0  0  0  0
    3.5390    8.1504    5.9045 H   0  0  0  0  0  0  0  0  0  0  0  0
    5.4272    6.5639    7.1961 H   0  0  0  0  0  0  0  0  0  0  0  0
    3.6374    7.1418    9.0762 H   0  0  0  0  0  0  0  0  0  0  0  0
    1.4737    5.7585    8.5995 H   0  0  0  0  0  0  0  0  0  0  0  0
    1.8874    4.2847    6.4247 H   0  0  0  0  0  0  0  0  0  0  0  0
    4.2682    4.2021    7.6170 H   0  0  0  0  0  0  0  0  0  0  0  0
    4.4997    4.4469    5.8389 H   0  0  0  0  0  0  0  0  0  0  0  0
    1.5654    6.8605    5.4463 H   0  0  0  0  0  0  0  0  0  0  0  0
  1  2  2  3
  2  3  1  0
  3  4  2  0
  3  5  1  0
  5  6  2  0
  6  7  1  0
  7  8  2  0
  8  9  1  0
  9 10  2  0
 10 11  1  0
 11 12  2  3
 12 13  1  0
 13 14  3  0
 12 15  1  0
 15 16  3  0
  8 17  1  0
 17 18  1  0
 18 19  1  0
 19 20  2  0
 20 21  1  0
 21 22  1  0
 21 23  1  0
  1 24  1  0
 24 25  1  0
 25 26  1  0
 26 27  2  0
 27 28  1  0
 28 29  1  0
 29 30  1  0
 30 31  2  0
 31 32  1  0
 32 33  2  0
 33 34  1  0
 34 35  2  0
 34 36  1  0
 36 37  1  0
 37 38  1  0
 33 39  1  0
 31 40  1  0
 29 41  2  0
 41 42  1  0
 41 43  1  0
 26 44  1  0
 44 45  2  0
 45 46  1  0
 46 47  1  0
 47 48  2  0
 48 49  1  0
 49 50  2  0
 50 51  1  0
 51 52  1  0
 50 53  1  0
 53 54  2  0
 46 55  1  0
 55 56  2  0
 56 57  1  0
 57 58  2  0
 58 59  1  0
 59 60  1  0
 58 61  1  0
 61 62  2  0
 45 63  1  0
 63 64  1  0
 64 65  1  0
 65 66  2  0
 66 67  1  0
 67 68  1  0
 68 69  2  0
 69 70  1  0
 70 71  2  0
 71 72  1  0
 72 73  1  0
 71 74  1  0
 74 75  2  0
 67 76  1  0
 76 77  2  0
 77 78  1  0
 78 79  2  0
 79 80  1  0
 80 81  1  0
 79 82  1  0
 82 83  2  0
 66 84  1  0
 84 85  1  0
 65 86  1  0
 86 87  2  0
 87 88  1  0
 87 89  1  0
 89 90  1  0
 89 91  2  0
 91 92  1  0
 92 93  2  0
 93 94  1  0
 94 95  1  0
 95 96  1  0
 94 97  2  0
 97 98  1  0
 98 99  2  0
 97100  1  0
100101  1  0
 91102  1  0
102103  2  3
103104  1  0
104105  2  0
104106  1  0
106107  2  0
107108  1  0
108109  2  0
109110  1  0
110111  2  0
111112  1  0
112113  2  3
113114  1  0
114115  3  0
113116  1  0
116117  3  0
109118  1  0
118119  1  0
119120  1  0
120121  2  0
121122  1  0
122123  1  0
122124  1  0
 11  2  1  0
 23 17  1  0
 42 24  2  0
 85 44  1  0
 99 86  1  0
112103  1  0
124118  1  0
 10  5  1  0
 22 18  1  0
 42 27  1  0
 54 47  1  0
 62 55  1  0
 84 63  2  0
 99 92  1  0
111106  1  0
123119  1  0
 23  7  1  0
 39 30  1  0
 75 68  1  0
 83 76  1  0
124108  1  0
  1125  1  0
  6126  1  0
  9127  1  0
 17128  1  0
 18129  1  0
 19130  1  0
 20131  1  0
 21132  1  0
 22133  1  0
 22134  1  0
 23135  1  0
 32136  1  0
 37137  1  0
 37138  1  0
 38139  1  0
 38140  1  0
 38141  1  0
 48142  1  0
 49143  1  0
 52144  1  0
 52145  1  0
 52146  1  0
 53147  1  0
 54148  1  0
 56149  1  0
 57150  1  0
 60151  1  0
 60152  1  0
 60153  1  0
 61154  1  0
 62155  1  0
 69156  1  0
 70157  1  0
 73158  1  0
 73159  1  0
 73160  1  0
 74161  1  0
 75162  1  0
 77163  1  0
 78164  1  0
 81165  1  0
 81166  1  0
 81167  1  0
 82168  1  0
 83169  1  0
 95170  1  0
 95171  1  0
 96172  1  0
 96173  1  0
 96174  1  0
100175  1  0
100176  1  0
101177  1  0
101178  1  0
101179  1  0
102180  1  0
107181  1  0
110182  1  0
118183  1  0
119184  1  0
120185  1  0
121186  1  0
122187  1  0
123188  1  0
123189  1  0
124190  1  0
M  END

