
     RDKit          3D

256281  0  0  0  0  0  0  0  0999 V2000
    6.6085    3.5364    0.1160 C   0  0  0  0  0  0  0  0  0  0  0  0
    6.5583    4.0676    1.3578 C   0  0  0  0  0  0  0  0  0  0  0  0
    7.6576    4.8828    1.8842 C   0  0  0  0  0  0  0  0  0  0  0  0
    8.7618    5.0995    1.3126 O   0  0  0  0  0  0  0  0  0  0  0  0
    7.2750    5.3890    3.1683 C   0  0  0  0  0  0  0  0  0  0  0  0
    8.0771    6.1280    4.0715 C   0  0  0  0  0  0  0  0  0  0  0  0
    7.4925    6.3181    5.3102 C   0  0  0  0  0  0  0  0  0  0  0  0
    6.1897    5.8159    5.6495 C   0  0  0  0  0  0  0  0  0  0  0  0
    5.3888    5.1104    4.7572 C   0  0  0  0  0  0  0  0  0  0  0  0
    5.9834    4.9114    3.4732 C   0  0  0  0  0  0  0  0  0  0  0  0
    5.4488    4.0565    2.3692 C   0  0  0  0  0  0  0  0  0  0  0  0
    4.8811    2.8980    2.7118 C   0  0  0  0  0  0  0  0  0  0  0  0
    5.6479    1.9545    3.4916 C   0  0  0  0  0  0  0  0  0  0  0  0
    6.2942    1.2069    4.0963 N   0  0  0  0  0  0  0  0  0  0  0  0
    3.4498    2.7776    2.6930 C   0  0  0  0  0  0  0  0  0  0  0  0
    2.2941    2.6821    2.6510 N   0  0  0  0  0  0  0  0  0  0  0  0
    6.3452    6.3288    7.0502 C   0  0  0  0  0  0  0  0  0  0  0  0
    6.6400    5.2700    8.1534 C   0  0  0  0  0  0  0  0  0  0  0  0
    7.1451    6.0402    9.3547 C   0  0  0  0  0  0  0  0  0  0  0  0
    8.3624    6.4908    9.0307 C   0  0  0  0  0  0  0  0  0  0  0  0
    8.6347    6.0126    7.6228 C   0  0  0  0  0  0  0  0  0  0  0  0
    7.9567    4.6560    7.7053 C   0  0  0  0  0  0  0  0  0  0  0  0
    7.6843    6.8299    6.7011 C   0  0  0  0  0  0  0  0  0  0  0  0
    5.4908    2.9812   -0.6830 C   0  0  0  0  0  0  0  0  0  0  0  0
    5.1688    3.6498   -1.8750 C   0  0  0  0  0  0  0  0  0  0  0  0
    5.7010    4.8734   -2.1369 F   0  0  0  0  0  0  0  0  0  0  0  0
    4.2997    3.0778   -2.8230 C   0  0  0  0  0  0  0  0  0  0  0  0
    4.0902    3.7595   -3.9719 F   0  0  0  0  0  0  0  0  0  0  0  0
    3.7090    1.8236   -2.6013 C   0  0  0  0  0  0  0  0  0  0  0  0
    4.1989    1.0640   -1.5019 C   0  0  0  0  0  0  0  0  0  0  0  0
    3.9249   -0.2664   -1.3803 N   0  0  0  0  0  0  0  0  0  0  0  0
    4.3082   -0.9883   -0.2951 C   0  0  0  0  0  0  0  0  0  0  0  0
    4.1394   -2.4512   -0.2862 C   0  0  0  0  0  0  0  0  0  0  0  0
    5.1679   -3.2617   -0.7968 C   0  0  0  0  0  0  0  0  0  0  0  0
    5.1462   -4.6447   -0.5886 C   0  0  0  0  0  0  0  0  0  0  0  0
    4.0883   -5.2320    0.1278 C   0  0  0  0  0  0  0  0  0  0  0  0
    4.0054   -6.6120    0.3732 O   0  0  0  0  0  0  0  0  0  0  0  0
    5.0482   -7.5668    0.1730 C   0  0  0  0  0  0  0  0  0  0  0  0
    6.0880   -7.4621    1.2843 C   0  0  0  0  0  0  0  0  0  0  0  0
    3.0662   -4.4216    0.6283 C   0  0  0  0  0  0  0  0  0  0  0  0
    3.0899   -3.0388    0.4255 C   0  0  0  0  0  0  0  0  0  0  0  0
    2.0757   -4.9714    1.3669 F   0  0  0  0  0  0  0  0  0  0  0  0
    4.9606   -0.3370    0.7609 C   0  0  0  0  0  0  0  0  0  0  0  0
    5.3372    0.9577    0.6048 N   0  0  0  0  0  0  0  0  0  0  0  0
    5.0168    1.6729   -0.5075 C   0  0  0  0  0  0  0  0  0  0  0  0
    4.9602   -0.9469    2.1003 C   0  0  0  0  0  0  0  0  0  0  0  0
    5.9794   -1.8210    2.5060 C   0  0  0  0  0  0  0  0  0  0  0  0
    5.7915   -2.6323    3.6372 C   0  0  0  0  0  0  0  0  0  0  0  0
    4.5819   -2.5792    4.3558 C   0  0  0  0  0  0  0  0  0  0  0  0
    4.2986   -3.4555    5.4097 O   0  0  0  0  0  0  0  0  0  0  0  0
    4.9223   -4.7198    5.5939 C   0  0  0  0  0  0  0  0  0  0  0  0
    4.0237   -5.5872    6.4644 C   0  0  0  0  0  0  0  0  0  0  0  0
    3.6067   -1.6506    3.9870 C   0  0  0  0  0  0  0  0  0  0  0  0
    2.4306   -1.5983    4.6582 F   0  0  0  0  0  0  0  0  0  0  0  0
    3.7865   -0.8438    2.8632 C   0  0  0  0  0  0  0  0  0  0  0  0
    2.4791    1.3918   -3.3674 C   0  0  0  0  0  0  0  0  0  0  0  0
    1.3824    2.2236   -3.7411 C   0  0  0  0  0  0  0  0  0  0  0  0
    1.4370    3.6228   -4.0744 N   0  0  0  0  0  0  0  0  0  0  0  0
    1.7018    3.9862   -5.4610 C   0  0  0  0  0  0  0  0  0  0  0  0
    1.2771    5.2229   -6.0133 C   0  0  0  0  0  0  0  0  0  0  0  0
    1.4528    5.5112   -7.3677 C   0  0  0  0  0  0  0  0  0  0  0  0
    2.1420    4.6175   -8.1925 C   0  0  0  0  0  0  0  0  0  0  0  0
    2.3761    5.0023   -9.9246 S   0  0  0  0  0  0  0  0  0  0  0  0
    3.9099    5.9336   -9.6340 C   0  0  0  0  0  0  0  0  0  0  0  0
    2.6293    3.4217   -7.6592 C   0  0  0  0  0  0  0  0  0  0  0  0
    2.4089    3.1010   -6.3130 C   0  0  0  0  0  0  0  0  0  0  0  0
    0.8150    4.5572   -3.1649 C   0  0  0  0  0  0  0  0  0  0  0  0
   -0.4610    5.0918   -3.4294 C   0  0  0  0  0  0  0  0  0  0  0  0
   -0.9218    6.2171   -2.7420 C   0  0  0  0  0  0  0  0  0  0  0  0
   -0.1401    6.7743   -1.7330 C   0  0  0  0  0  0  0  0  0  0  0  0
   -0.5696    8.3728   -1.0695 S   0  0  0  0  0  0  0  0  0  0  0  0
    0.4243    9.2898   -2.3028 C   0  0  0  0  0  0  0  0  0  0  0  0
    1.0568    6.1624   -1.3560 C   0  0  0  0  0  0  0  0  0  0  0  0
    1.5355    5.0565   -2.0695 C   0  0  0  0  0  0  0  0  0  0  0  0
    0.2199    1.4868   -3.9587 C   0  0  0  0  0  0  0  0  0  0  0  0
   -1.3896    1.9084   -4.0712 S   0  0  0  0  0  0  0  0  0  0  0  0
   -2.0069    0.3302   -3.8752 C   0  0  0  0  0  0  0  0  0  0  0  0
   -0.9078   -0.5512   -3.7777 C   0  0  0  0  0  0  0  0  0  0  0  0
   -0.9904   -1.9604   -4.0562 N   0  0  0  0  0  0  0  0  0  0  0  0
   -0.7886   -2.3817   -5.4302 C   0  0  0  0  0  0  0  0  0  0  0  0
    0.0171   -3.5051   -5.7247 C   0  0  0  0  0  0  0  0  0  0  0  0
    0.2703   -3.8679   -7.0483 C   0  0  0  0  0  0  0  0  0  0  0  0
   -0.2462   -3.1058   -8.1033 C   0  0  0  0  0  0  0  0  0  0  0  0
    0.1797   -3.4983   -9.8085 S   0  0  0  0  0  0  0  0  0  0  0  0
    1.7641   -2.6015   -9.7143 C   0  0  0  0  0  0  0  0  0  0  0  0
   -1.0491   -1.9901   -7.8241 C   0  0  0  0  0  0  0  0  0  0  0  0
   -1.3274   -1.6387   -6.5007 C   0  0  0  0  0  0  0  0  0  0  0  0
   -1.0223   -2.9487   -2.9959 C   0  0  0  0  0  0  0  0  0  0  0  0
   -0.2996   -2.7519   -1.8004 C   0  0  0  0  0  0  0  0  0  0  0  0
   -0.1593   -3.7985   -0.8846 C   0  0  0  0  0  0  0  0  0  0  0  0
   -0.7497   -5.0473   -1.1313 C   0  0  0  0  0  0  0  0  0  0  0  0
   -0.4069   -6.4499   -0.0556 S   0  0  0  0  0  0  0  0  0  0  0  0
   -1.6993   -6.0442    1.1578 C   0  0  0  0  0  0  0  0  0  0  0  0
   -1.5421   -5.2158   -2.2685 C   0  0  0  0  0  0  0  0  0  0  0  0
   -1.6881   -4.1732   -3.1882 C   0  0  0  0  0  0  0  0  0  0  0  0
    0.3134    0.1449   -3.8375 C   0  0  0  0  0  0  0  0  0  0  0  0
    1.8960   -0.2278   -3.4371 S   0  0  0  0  0  0  0  0  0  0  0  0
   -3.2907    0.1033   -3.2005 C   0  0  0  0  0  0  0  0  0  0  0  0
   -3.7019    0.9253   -2.1294 C   0  0  0  0  0  0  0  0  0  0  0  0
   -3.7342    2.3681   -2.1896 N   0  0  0  0  0  0  0  0  0  0  0  0
   -3.3787    3.1303   -1.0181 C   0  0  0  0  0  0  0  0  0  0  0  0
   -2.0338    3.3162   -0.6657 C   0  0  0  0  0  0  0  0  0  0  0  0
   -1.6946    4.2220    0.3448 C   0  0  0  0  0  0  0  0  0  0  0  0
   -2.6941    4.9508    1.0045 C   0  0  0  0  0  0  0  0  0  0  0  0
   -2.2642    6.1726    2.2466 S   0  0  0  0  0  0  0  0  0  0  0  0
   -2.4542    5.0348    3.6637 C   0  0  0  0  0  0  0  0  0  0  0  0
   -4.0368    4.7252    0.6842 C   0  0  0  0  0  0  0  0  0  0  0  0
   -4.3764    3.8112   -0.3086 C   0  0  0  0  0  0  0  0  0  0  0  0
   -4.5162    3.0290   -3.2143 C   0  0  0  0  0  0  0  0  0  0  0  0
   -5.6000    2.3753   -3.8440 C   0  0  0  0  0  0  0  0  0  0  0  0
   -6.4970    3.0981   -4.6343 C   0  0  0  0  0  0  0  0  0  0  0  0
   -6.3389    4.4769   -4.8046 C   0  0  0  0  0  0  0  0  0  0  0  0
   -7.6383    5.4415   -5.5687 S   0  0  0  0  0  0  0  0  0  0  0  0
   -8.7078    5.4286   -4.0793 C   0  0  0  0  0  0  0  0  0  0  0  0
   -5.2200    5.1160   -4.2721 C   0  0  0  0  0  0  0  0  0  0  0  0
   -4.3137    4.3962   -3.4877 C   0  0  0  0  0  0  0  0  0  0  0  0
   -4.4853    0.2256   -1.2270 C   0  0  0  0  0  0  0  0  0  0  0  0
   -4.8260    0.4626    0.3880 S   0  0  0  0  0  0  0  0  0  0  0  0
   -5.4798   -1.0915    0.6078 C   0  0  0  0  0  0  0  0  0  0  0  0
   -5.4628   -1.7947   -0.6148 C   0  0  0  0  0  0  0  0  0  0  0  0
   -6.3716   -2.8553   -0.9469 N   0  0  0  0  0  0  0  0  0  0  0  0
   -6.1090   -4.2106   -0.5657 C   0  0  0  0  0  0  0  0  0  0  0  0
   -5.3046   -5.0350   -1.3681 C   0  0  0  0  0  0  0  0  0  0  0  0
   -5.1542   -6.3907   -1.0606 C   0  0  0  0  0  0  0  0  0  0  0  0
   -5.7599   -6.9229    0.0850 C   0  0  0  0  0  0  0  0  0  0  0  0
   -5.6432   -8.6806    0.4420 S   0  0  0  0  0  0  0  0  0  0  0  0
   -7.1094   -9.1059   -0.5468 C   0  0  0  0  0  0  0  0  0  0  0  0
   -6.5126   -6.0856    0.9227 C   0  0  0  0  0  0  0  0  0  0  0  0
   -6.6955   -4.7410    0.5937 C   0  0  0  0  0  0  0  0  0  0  0  0
   -7.4509   -2.5352   -1.8431 C   0  0  0  0  0  0  0  0  0  0  0  0
   -8.2807   -1.4297   -1.5693 C   0  0  0  0  0  0  0  0  0  0  0  0
   -9.2208   -0.9941   -2.5057 C   0  0  0  0  0  0  0  0  0  0  0  0
   -9.3397   -1.6536   -3.7339 C   0  0  0  0  0  0  0  0  0  0  0  0
  -10.5138   -1.0680   -4.9492 S   0  0  0  0  0  0  0  0  0  0  0  0
   -9.3425    0.0978   -5.7117 C   0  0  0  0  0  0  0  0  0  0  0  0
   -8.5390   -2.7661   -4.0083 C   0  0  0  0  0  0  0  0  0  0  0  0
   -7.6014   -3.2084   -3.0705 C   0  0  0  0  0  0  0  0  0  0  0  0
   -4.8235   -1.0326   -1.5949 C   0  0  0  0  0  0  0  0  0  0  0  0
   -4.0413   -1.4248   -3.0289 S   0  0  0  0  0  0  0  0  0  0  0  0
   -5.7007   -1.6823    1.9410 C   0  0  0  0  0  0  0  0  0  0  0  0
   -4.7431   -1.6731    2.8991 C   0  0  0  0  0  0  0  0  0  0  0  0
   -5.0204   -1.7688    4.3425 C   0  0  0  0  0  0  0  0  0  0  0  0
   -6.0755   -2.2171    4.8674 O   0  0  0  0  0  0  0  0  0  0  0  0
   -3.8851   -1.2020    5.0597 C   0  0  0  0  0  0  0  0  0  0  0  0
   -3.6904   -1.0415    6.4584 C   0  0  0  0  0  0  0  0  0  0  0  0
   -2.5221   -0.3600    6.7884 C   0  0  0  0  0  0  0  0  0  0  0  0
   -1.6073    0.1532    5.8038 C   0  0  0  0  0  0  0  0  0  0  0  0
   -1.7771   -0.0338    4.4458 C   0  0  0  0  0  0  0  0  0  0  0  0
   -2.9256   -0.7817    4.1044 C   0  0  0  0  0  0  0  0  0  0  0  0
   -3.3059   -1.2751    2.7794 C   0  0  0  0  0  0  0  0  0  0  0  0
   -2.4123   -1.8176    1.9157 C   0  0  0  0  0  0  0  0  0  0  0  0
   -1.0168   -1.9683    2.2703 C   0  0  0  0  0  0  0  0  0  0  0  0
    0.0775   -2.1577    2.5946 N   0  0  0  0  0  0  0  0  0  0  0  0
   -2.8264   -2.6442    0.8245 C   0  0  0  0  0  0  0  0  0  0  0  0
   -3.1263   -3.3221   -0.0588 N   0  0  0  0  0  0  0  0  0  0  0  0
   -0.7238    0.7026    6.8837 C   0  0  0  0  0  0  0  0  0  0  0  0
    0.6169   -0.0526    7.1257 C   0  0  0  0  0  0  0  0  0  0  0  0
    1.1171    0.3990    8.4761 C   0  0  0  0  0  0  0  0  0  0  0  0
    0.2870   -0.1423    9.3810 C   0  0  0  0  0  0  0  0  0  0  0  0
   -0.7468   -0.9240    8.6062 C   0  0  0  0  0  0  0  0  0  0  0  0
    0.1501   -1.4476    7.5021 C   0  0  0  0  0  0  0  0  0  0  0  0
   -1.6360    0.1381    7.8852 C   0  0  0  0  0  0  0  0  0  0  0  0
    7.5131    3.7031   -0.4477 H   0  0  0  0  0  0  0  0  0  0  0  0
    9.0815    6.4632    3.8293 H   0  0  0  0  0  0  0  0  0  0  0  0
    4.4256    4.6903    5.0359 H   0  0  0  0  0  0  0  0  0  0  0  0
    5.6087    7.1149    7.3208 H   0  0  0  0  0  0  0  0  0  0  0  0
    5.8178    4.5540    8.3659 H   0  0  0  0  0  0  0  0  0  0  0  0
    6.6750    6.1390   10.3290 H   0  0  0  0  0  0  0  0  0  0  0  0
    9.0496    7.0121    9.6924 H   0  0  0  0  0  0  0  0  0  0  0  0
    9.7059    6.0013    7.3319 H   0  0  0  0  0  0  0  0  0  0  0  0
    7.9055    4.1023    6.7466 H   0  0  0  0  0  0  0  0  0  0  0  0
    8.4142    3.9707    8.4685 H   0  0  0  0  0  0  0  0  0  0  0  0
    7.8081    7.9362    6.7534 H   0  0  0  0  0  0  0  0  0  0  0  0
    6.0131   -2.8040   -1.3055 H   0  0  0  0  0  0  0  0  0  0  0  0
    5.9779   -5.2269   -0.9647 H   0  0  0  0  0  0  0  0  0  0  0  0
    4.5950   -8.5828    0.2136 H   0  0  0  0  0  0  0  0  0  0  0  0
    5.5167   -7.4518   -0.8315 H   0  0  0  0  0  0  0  0  0  0  0  0
    6.8764   -8.2257    1.1307 H   0  0  0  0  0  0  0  0  0  0  0  0
    6.5525   -6.4564    1.2887 H   0  0  0  0  0  0  0  0  0  0  0  0
    5.6071   -7.6468    2.2665 H   0  0  0  0  0  0  0  0  0  0  0  0
    2.3203   -2.4167    0.8602 H   0  0  0  0  0  0  0  0  0  0  0  0
    6.8798   -1.9091    1.9176 H   0  0  0  0  0  0  0  0  0  0  0  0
    6.5825   -3.3202    3.9190 H   0  0  0  0  0  0  0  0  0  0  0  0
    5.9124   -4.5828    6.0842 H   0  0  0  0  0  0  0  0  0  0  0  0
    5.0648   -5.2255    4.6093 H   0  0  0  0  0  0  0  0  0  0  0  0
    3.0140   -5.6623    6.0026 H   0  0  0  0  0  0  0  0  0  0  0  0
    4.4547   -6.6119    6.5499 H   0  0  0  0  0  0  0  0  0  0  0  0
    3.9358   -5.1405    7.4808 H   0  0  0  0  0  0  0  0  0  0  0  0
    2.9742   -0.1995    2.5400 H   0  0  0  0  0  0  0  0  0  0  0  0
    0.8431    5.9992   -5.4184 H   0  0  0  0  0  0  0  0  0  0  0  0
    1.0662    6.4422   -7.7798 H   0  0  0  0  0  0  0  0  0  0  0  0
    3.7187    6.7718   -8.9282 H   0  0  0  0  0  0  0  0  0  0  0  0
    4.2676    6.3574  -10.6001 H   0  0  0  0  0  0  0  0  0  0  0  0
    4.6886    5.2597   -9.2187 H   0  0  0  0  0  0  0  0  0  0  0  0
    3.2130    2.7428   -8.2823 H   0  0  0  0  0  0  0  0  0  0  0  0
    2.8226    2.1686   -5.9369 H   0  0  0  0  0  0  0  0  0  0  0  0
   -1.0487    4.7155   -4.2542 H   0  0  0  0  0  0  0  0  0  0  0  0
   -1.8382    6.7013   -3.0566 H   0  0  0  0  0  0  0  0  0  0  0  0
   -0.1368   10.1851   -2.6432 H   0  0  0  0  0  0  0  0  0  0  0  0
    1.3931    9.5959   -1.8439 H   0  0  0  0  0  0  0  0  0  0  0  0
    0.6566    8.6760   -3.1979 H   0  0  0  0  0  0  0  0  0  0  0  0
    1.6639    6.5782   -0.5577 H   0  0  0  0  0  0  0  0  0  0  0  0
    2.4937    4.6454   -1.8145 H   0  0  0  0  0  0  0  0  0  0  0  0
    0.4723   -4.0777   -4.9343 H   0  0  0  0  0  0  0  0  0  0  0  0
    0.9088   -4.7193   -7.2557 H   0  0  0  0  0  0  0  0  0  0  0  0
    2.3183   -2.7472  -10.6563 H   0  0  0  0  0  0  0  0  0  0  0  0
    1.5940   -1.5194   -9.5684 H   0  0  0  0  0  0  0  0  0  0  0  0
    2.3841   -3.0025   -8.8821 H   0  0  0  0  0  0  0  0  0  0  0  0
   -1.4557   -1.3943   -8.6271 H   0  0  0  0  0  0  0  0  0  0  0  0
   -1.9403   -0.7641   -6.3113 H   0  0  0  0  0  0  0  0  0  0  0  0
    0.1989   -1.8136   -1.6004 H   0  0  0  0  0  0  0  0  0  0  0  0
    0.4045   -3.6438    0.0159 H   0  0  0  0  0  0  0  0  0  0  0  0
   -1.5103   -5.0497    1.6171 H   0  0  0  0  0  0  0  0  0  0  0  0
   -1.6914   -6.7976    1.9664 H   0  0  0  0  0  0  0  0  0  0  0  0
   -2.7069   -6.0579    0.6796 H   0  0  0  0  0  0  0  0  0  0  0  0
   -2.0184   -6.1695   -2.4662 H   0  0  0  0  0  0  0  0  0  0  0  0
   -2.2708   -4.3337   -4.0846 H   0  0  0  0  0  0  0  0  0  0  0  0
   -1.2538    2.8013   -1.2114 H   0  0  0  0  0  0  0  0  0  0  0  0
   -0.6563    4.3676    0.6112 H   0  0  0  0  0  0  0  0  0  0  0  0
   -1.4781    4.5444    3.8700 H   0  0  0  0  0  0  0  0  0  0  0  0
   -3.2274    4.2541    3.4807 H   0  0  0  0  0  0  0  0  0  0  0  0
   -2.7605    5.6292    4.5510 H   0  0  0  0  0  0  0  0  0  0  0  0
   -4.8259    5.2604    1.2033 H   0  0  0  0  0  0  0  0  0  0  0  0
   -5.4251    3.6506   -0.5455 H   0  0  0  0  0  0  0  0  0  0  0  0
   -5.8032    1.3291   -3.6766 H   0  0  0  0  0  0  0  0  0  0  0  0
   -7.3636    2.5951   -5.0438 H   0  0  0  0  0  0  0  0  0  0  0  0
   -8.1918    5.0505   -3.1635 H   0  0  0  0  0  0  0  0  0  0  0  0
   -9.0546    6.4573   -3.8532 H   0  0  0  0  0  0  0  0  0  0  0  0
   -9.5773    4.7636   -4.2611 H   0  0  0  0  0  0  0  0  0  0  0  0
   -5.0739    6.1769   -4.4206 H   0  0  0  0  0  0  0  0  0  0  0  0
   -3.4893    4.9270   -3.0331 H   0  0  0  0  0  0  0  0  0  0  0  0
   -4.8341   -4.6412   -2.2578 H   0  0  0  0  0  0  0  0  0  0  0  0
   -4.5839   -7.0330   -1.7253 H   0  0  0  0  0  0  0  0  0  0  0  0
   -6.8280   -9.1483   -1.6203 H   0  0  0  0  0  0  0  0  0  0  0  0
   -7.4832  -10.0974   -0.2234 H   0  0  0  0  0  0  0  0  0  0  0  0
   -7.9134   -8.3539   -0.4068 H   0  0  0  0  0  0  0  0  0  0  0  0
   -6.9942   -6.5036    1.8006 H   0  0  0  0  0  0  0  0  0  0  0  0
   -7.3302   -4.1250    1.2134 H   0  0  0  0  0  0  0  0  0  0  0  0
   -8.1594   -0.8784   -0.6463 H   0  0  0  0  0  0  0  0  0  0  0  0
   -9.8313   -0.1341   -2.2841 H   0  0  0  0  0  0  0  0  0  0  0  0
   -9.8663    0.6956   -6.4821 H   0  0  0  0  0  0  0  0  0  0  0  0
   -8.5114   -0.4626   -6.1990 H   0  0  0  0  0  0  0  0  0  0  0  0
   -8.9413    0.7769   -4.9368 H   0  0  0  0  0  0  0  0  0  0  0  0
   -8.6176   -3.2794   -4.9662 H   0  0  0  0  0  0  0  0  0  0  0  0
   -6.9537   -4.0255   -3.3445 H   0  0  0  0  0  0  0  0  0  0  0  0
   -6.7148   -1.9712    2.2033 H   0  0  0  0  0  0  0  0  0  0  0  0
   -4.3942   -1.4083    7.2059 H   0  0  0  0  0  0  0  0  0  0  0  0
   -1.0588    0.3404    3.7213 H   0  0  0  0  0  0  0  0  0  0  0  0
   -0.6696    1.8154    6.8810 H   0  0  0  0  0  0  0  0  0  0  0  0
    1.3576    0.0028    6.3081 H   0  0  0  0  0  0  0  0  0  0  0  0
    2.0183    0.9494    8.7096 H   0  0  0  0  0  0  0  0  0  0  0  0
    0.3963   -0.1008   10.4600 H   0  0  0  0  0  0  0  0  0  0  0  0
   -1.2934   -1.6863    9.1996 H   0  0  0  0  0  0  0  0  0  0  0  0
   -0.3857   -1.9955    6.6964 H   0  0  0  0  0  0  0  0  0  0  0  0
    0.9800   -2.1166    7.8559 H   0  0  0  0  0  0  0  0  0  0  0  0
   -2.1213    0.8816    8.5619 H   0  0  0  0  0  0  0  0  0  0  0  0
  1  2  2  3
  2  3  1  0
  3  4  2  0
  3  5  1  0
  5  6  2  0
  6  7  1  0
  7  8  2  0
  8  9  1  0
  9 10  2  0
 10 11  1  0
 11 12  2  3
 12 13  1  0
 13 14  3  0
 12 15  1  0
 15 16  3  0
  8 17  1  0
 17 18  1  0
 18 19  1  0
 19 20  2  0
 20 21  1  0
 21 22  1  0
 21 23  1  0
  1 24  1  0
 24 25  2  0
 25 26  1  0
 25 27  1  0
 27 28  1  0
 27 29  2  0
 29 30  1  0
 30 31  2  0
 31 32  1  0
 32 33  1  0
 33 34  2  0
 34 35  1  0
 35 36  2  0
 36 37  1  0
 37 38  1  0
 38 39  1  0
 36 40  1  0
 40 41  2  0
 40 42  1  0
 32 43  2  0
 43 44  1  0
 44 45  2  0
 43 46  1  0
 46 47  2  0
 47 48  1  0
 48 49  2  0
 49 50  1  0
 50 51  1  0
 51 52  1  0
 49 53  1  0
 53 54  1  0
 53 55  2  0
 29 56  1  0
 56 57  2  0
 57 58  1  0
 58 59  1  0
 59 60  2  0
 60 61  1  0
 61 62  2  0
 62 63  1  0
 63 64  1  0
 62 65  1  0
 65 66  2  0
 58 67  1  0
 67 68  2  0
 68 69  1  0
 69 70  2  0
 70 71  1  0
 71 72  1  0
 70 73  1  0
 73 74  2  0
 57 75  1  0
 75 76  1  0
 76 77  1  0
 77 78  2  0
 78 79  1  0
 79 80  1  0
 80 81  2  0
 81 82  1  0
 82 83  2  0
 83 84  1  0
 84 85  1  0
 83 86  1  0
 86 87  2  0
 79 88  1  0
 88 89  2  0
 89 90  1  0
 90 91  2  0
 91 92  1  0
 92 93  1  0
 91 94  1  0
 94 95  2  0
 78 96  1  0
 96 97  1  0
 77 98  1  0
 98 99  2  0
 99100  1  0
100101  1  0
101102  2  0
102103  1  0
103104  2  0
104105  1  0
105106  1  0
104107  1  0
107108  2  0
100109  1  0
109110  2  0
110111  1  0
111112  2  0
112113  1  0
113114  1  0
112115  1  0
115116  2  0
 99117  1  0
117118  1  0
118119  1  0
119120  2  0
120121  1  0
121122  1  0
122123  2  0
123124  1  0
124125  2  0
125126  1  0
126127  1  0
125128  1  0
128129  2  0
121130  1  0
130131  2  0
131132  1  0
132133  2  0
133134  1  0
134135  1  0
133136  1  0
136137  2  0
120138  1  0
138139  1  0
119140  1  0
140141  2  3
141142  1  0
142143  2  0
142144  1  0
144145  2  0
145146  1  0
146147  2  0
147148  1  0
148149  2  0
149150  1  0
150151  2  3
151152  1  0
152153  3  0
151154  1  0
154155  3  0
147156  1  0
156157  1  0
157158  1  0
158159  2  0
159160  1  0
160161  1  0
160162  1  0
 11  2  1  0
 23 17  1  0
 45 24  1  0
 55 46  1  0
 97 56  1  0
139 98  1  0
150141  1  0
162156  1  0
 10  5  1  0
 22 18  1  0
 45 30  1  0
 66 59  1  0
 74 67  1  0
 96 75  2  0
108101  1  0
116109  1  0
138117  2  0
149144  1  0
161157  1  0
 23  7  1  0
 41 33  1  0
 87 80  1  0
 95 88  1  0
129122  1  0
137130  1  0
162146  1  0
  1163  1  0
  6164  1  0
  9165  1  0
 17166  1  0
 18167  1  0
 19168  1  0
 20169  1  0
 21170  1  0
 22171  1  0
 22172  1  0
 23173  1  0
 34174  1  0
 35175  1  0
 38176  1  0
 38177  1  0
 39178  1  0
 39179  1  0
 39180  1  0
 41181  1  0
 47182  1  0
 48183  1  0
 51184  1  0
 51185  1  0
 52186  1  0
 52187  1  0
 52188  1  0
 55189  1  0
 60190  1  0
 61191  1  0
 64192  1  0
 64193  1  0
 64194  1  0
 65195  1  0
 66196  1  0
 68197  1  0
 69198  1  0
 72199  1  0
 72200  1  0
 72201  1  0
 73202  1  0
 74203  1  0
 81204  1  0
 82205  1  0
 85206  1  0
 85207  1  0
 85208  1  0
 86209  1  0
 87210  1  0
 89211  1  0
 90212  1  0
 93213  1  0
 93214  1  0
 93215  1  0
 94216  1  0
 95217  1  0
102218  1  0
103219  1  0
106220  1  0
106221  1  0
106222  1  0
107223  1  0
108224  1  0
110225  1  0
111226  1  0
114227  1  0
114228  1  0
114229  1  0
115230  1  0
116231  1  0
123232  1  0
124233  1  0
127234  1  0
127235  1  0
127236  1  0
128237  1  0
129238  1  0
131239  1  0
132240  1  0
135241  1  0
135242  1  0
135243  1  0
136244  1  0
137245  1  0
140246  1  0
145247  1  0
148248  1  0
156249  1  0
157250  1  0
158251  1  0
159252  1  0
160253  1  0
161254  1  0
161255  1  0
162256  1  0
M  END

