
     RDKit          3D

230254  0  0  0  0  0  0  0  0999 V2000
    2.3522   -8.7154   -2.0439 C   0  0  0  0  0  0  0  0  0  0  0  0
    3.2098   -9.0760   -3.0284 C   0  0  0  0  0  0  0  0  0  0  0  0
    3.4762   -8.3703   -4.2885 C   0  0  0  0  0  0  0  0  0  0  0  0
    2.6178   -7.8341   -5.0337 O   0  0  0  0  0  0  0  0  0  0  0  0
    4.8578   -8.5902   -4.6525 C   0  0  0  0  0  0  0  0  0  0  0  0
    5.6048   -7.8902   -5.6251 C   0  0  0  0  0  0  0  0  0  0  0  0
    6.9494   -8.2181   -5.6450 C   0  0  0  0  0  0  0  0  0  0  0  0
    7.5269   -9.1924   -4.7694 C   0  0  0  0  0  0  0  0  0  0  0  0
    6.8010   -9.8809   -3.8136 C   0  0  0  0  0  0  0  0  0  0  0  0
    5.4178   -9.5534   -3.7759 C   0  0  0  0  0  0  0  0  0  0  0  0
    4.3638  -10.0053   -2.8300 C   0  0  0  0  0  0  0  0  0  0  0  0
    4.3633  -11.1500   -2.0940 C   0  0  0  0  0  0  0  0  0  0  0  0
    3.1773  -11.6417   -1.4416 C   0  0  0  0  0  0  0  0  0  0  0  0
    2.2260  -12.0423   -0.9151 N   0  0  0  0  0  0  0  0  0  0  0  0
    5.5040  -12.0255   -2.0253 C   0  0  0  0  0  0  0  0  0  0  0  0
    6.4149  -12.7356   -1.9503 N   0  0  0  0  0  0  0  0  0  0  0  0
    8.8901   -8.9223   -5.3335 C   0  0  0  0  0  0  0  0  0  0  0  0
    9.8803   -8.1041   -4.4515 C   0  0  0  0  0  0  0  0  0  0  0  0
    9.1133   -7.1453   -3.5670 C   0  0  0  0  0  0  0  0  0  0  0  0
    8.5797   -6.2296   -4.3732 C   0  0  0  0  0  0  0  0  0  0  0  0
    9.0015   -6.5946   -5.7812 C   0  0  0  0  0  0  0  0  0  0  0  0
   10.3946   -7.1194   -5.4838 C   0  0  0  0  0  0  0  0  0  0  0  0
    8.3020   -7.9135   -6.2241 C   0  0  0  0  0  0  0  0  0  0  0  0
    1.4596   -7.5221   -2.0017 C   0  0  0  0  0  0  0  0  0  0  0  0
    1.5613   -6.1502   -2.9966 S   0  0  0  0  0  0  0  0  0  0  0  0
    0.4802   -5.1306   -2.2045 C   0  0  0  0  0  0  0  0  0  0  0  0
    0.0869   -5.8556   -1.0934 C   0  0  0  0  0  0  0  0  0  0  0  0
   -0.5932   -5.3205    0.3444 S   0  0  0  0  0  0  0  0  0  0  0  0
   -0.2295   -6.7260    1.2061 C   0  0  0  0  0  0  0  0  0  0  0  0
   -0.0545   -6.6925    2.6613 C   0  0  0  0  0  0  0  0  0  0  0  0
    1.1584   -6.4575    3.3035 C   0  0  0  0  0  0  0  0  0  0  0  0
    1.0366   -6.3283    4.6882 C   0  0  0  0  0  0  0  0  0  0  0  0
   -0.2753   -6.4323    5.1309 C   0  0  0  0  0  0  0  0  0  0  0  0
   -0.7042   -6.3248    6.5319 C   0  0  0  0  0  0  0  0  0  0  0  0
    0.1573   -6.1610    7.4396 O   0  0  0  0  0  0  0  0  0  0  0  0
   -2.0623   -6.3941    6.8467 O   0  0  0  0  0  0  0  0  0  0  0  0
   -2.5314   -6.2827    8.1838 C   0  0  0  0  0  0  0  0  0  0  0  0
   -4.0488   -6.3768    8.1981 C   0  0  0  0  0  0  0  0  0  0  0  0
   -1.2893   -6.6777    3.8035 S   0  0  0  0  0  0  0  0  0  0  0  0
    2.6885   -6.2120    2.4734 Cl  0  0  0  0  0  0  0  0  0  0  0  0
    0.4289   -7.6364    0.3638 C   0  0  0  0  0  0  0  0  0  0  0  0
    0.6255   -7.1256   -0.9398 C   0  0  0  0  0  0  0  0  0  0  0  0
    1.0125   -9.1778    0.9819 Cl  0  0  0  0  0  0  0  0  0  0  0  0
    0.5532   -3.6645   -2.2240 C   0  0  0  0  0  0  0  0  0  0  0  0
   -0.2832   -2.7840   -2.9400 C   0  0  0  0  0  0  0  0  0  0  0  0
   -0.9495   -3.1270   -4.1734 N   0  0  0  0  0  0  0  0  0  0  0  0
   -1.9376   -2.2544   -4.7344 C   0  0  0  0  0  0  0  0  0  0  0  0
   -1.5842   -1.3572   -5.7562 C   0  0  0  0  0  0  0  0  0  0  0  0
   -2.5578   -0.5579   -6.3599 C   0  0  0  0  0  0  0  0  0  0  0  0
   -3.8939   -0.6645   -5.9573 C   0  0  0  0  0  0  0  0  0  0  0  0
   -5.1655    0.2838   -6.7943 S   0  0  0  0  0  0  0  0  0  0  0  0
   -5.4284   -0.9912   -8.0700 C   0  0  0  0  0  0  0  0  0  0  0  0
   -4.2435   -1.5469   -4.9253 C   0  0  0  0  0  0  0  0  0  0  0  0
   -3.2662   -2.3325   -4.3054 C   0  0  0  0  0  0  0  0  0  0  0  0
   -0.3404   -4.0632   -5.0793 C   0  0  0  0  0  0  0  0  0  0  0  0
   -1.1000   -5.1041   -5.6342 C   0  0  0  0  0  0  0  0  0  0  0  0
   -0.5285   -5.9736   -6.5698 C   0  0  0  0  0  0  0  0  0  0  0  0
    0.8071   -5.8082   -6.9583 C   0  0  0  0  0  0  0  0  0  0  0  0
    1.5443   -6.9111   -8.1685 S   0  0  0  0  0  0  0  0  0  0  0  0
    1.1450   -5.8306   -9.5792 C   0  0  0  0  0  0  0  0  0  0  0  0
    1.5695   -4.7725   -6.4036 C   0  0  0  0  0  0  0  0  0  0  0  0
    0.9983   -3.9004   -5.4734 C   0  0  0  0  0  0  0  0  0  0  0  0
   -0.2733   -1.5036   -2.3477 C   0  0  0  0  0  0  0  0  0  0  0  0
   -1.2392   -0.1355   -2.4480 S   0  0  0  0  0  0  0  0  0  0  0  0
   -0.5212    0.6681   -1.1248 C   0  0  0  0  0  0  0  0  0  0  0  0
    0.5085   -0.1432   -0.5996 C   0  0  0  0  0  0  0  0  0  0  0  0
    1.3984    0.1714    0.5003 N   0  0  0  0  0  0  0  0  0  0  0  0
    2.6719   -0.4917    0.5786 C   0  0  0  0  0  0  0  0  0  0  0  0
    3.6144   -0.3245   -0.4491 C   0  0  0  0  0  0  0  0  0  0  0  0
    4.8326   -1.0024   -0.4015 C   0  0  0  0  0  0  0  0  0  0  0  0
    5.1221   -1.8546    0.6744 C   0  0  0  0  0  0  0  0  0  0  0  0
    6.6710   -2.7582    0.7013 S   0  0  0  0  0  0  0  0  0  0  0  0
    7.5752   -1.4408    1.5732 C   0  0  0  0  0  0  0  0  0  0  0  0
    4.1926   -2.0087    1.7100 C   0  0  0  0  0  0  0  0  0  0  0  0
    2.9752   -1.3206    1.6703 C   0  0  0  0  0  0  0  0  0  0  0  0
    1.2774    1.3276    1.3361 C   0  0  0  0  0  0  0  0  0  0  0  0
    1.9907    2.4861    0.9898 C   0  0  0  0  0  0  0  0  0  0  0  0
    2.2983    3.4408    1.9603 C   0  0  0  0  0  0  0  0  0  0  0  0
    1.9045    3.2367    3.2869 C   0  0  0  0  0  0  0  0  0  0  0  0
    2.5852    4.2701    4.5839 S   0  0  0  0  0  0  0  0  0  0  0  0
    4.0795    3.2458    4.7563 C   0  0  0  0  0  0  0  0  0  0  0  0
    1.0964    2.1476    3.6157 C   0  0  0  0  0  0  0  0  0  0  0  0
    0.8005    1.1834    2.6483 C   0  0  0  0  0  0  0  0  0  0  0  0
    0.5714   -1.3551   -1.2957 C   0  0  0  0  0  0  0  0  0  0  0  0
    1.3116   -2.8182   -0.9668 S   0  0  0  0  0  0  0  0  0  0  0  0
   -1.2349    1.7258   -0.4070 C   0  0  0  0  0  0  0  0  0  0  0  0
   -2.4004    1.5241    0.3478 C   0  0  0  0  0  0  0  0  0  0  0  0
   -3.0462    0.2529    0.5385 N   0  0  0  0  0  0  0  0  0  0  0  0
   -2.9199   -0.3813    1.8227 C   0  0  0  0  0  0  0  0  0  0  0  0
   -3.9552   -0.2702    2.7603 C   0  0  0  0  0  0  0  0  0  0  0  0
   -3.8457   -0.8909    4.0057 C   0  0  0  0  0  0  0  0  0  0  0  0
   -2.7001   -1.6346    4.3274 C   0  0  0  0  0  0  0  0  0  0  0  0
   -2.5969   -2.3311    5.6519 C   0  0  0  0  0  0  0  0  0  0  0  0
   -1.6839   -1.7862    3.3666 C   0  0  0  0  0  0  0  0  0  0  0  0
   -1.7942   -1.1609    2.1219 C   0  0  0  0  0  0  0  0  0  0  0  0
   -4.0678   -0.2164   -0.3721 C   0  0  0  0  0  0  0  0  0  0  0  0
   -4.8251    0.6832   -1.1480 C   0  0  0  0  0  0  0  0  0  0  0  0
   -5.8759    0.2215   -1.9477 C   0  0  0  0  0  0  0  0  0  0  0  0
   -6.1796   -1.1476   -1.9949 C   0  0  0  0  0  0  0  0  0  0  0  0
   -7.3560   -1.6409   -2.7861 C   0  0  0  0  0  0  0  0  0  0  0  0
   -5.4050   -2.0517   -1.2548 C   0  0  0  0  0  0  0  0  0  0  0  0
   -4.3582   -1.5904   -0.4548 C   0  0  0  0  0  0  0  0  0  0  0  0
   -2.8548    2.7130    0.9011 C   0  0  0  0  0  0  0  0  0  0  0  0
   -4.1833    3.1383    1.8267 S   0  0  0  0  0  0  0  0  0  0  0  0
   -3.7202    4.7731    1.9461 C   0  0  0  0  0  0  0  0  0  0  0  0
   -2.5784    5.0025    1.1592 C   0  0  0  0  0  0  0  0  0  0  0  0
   -2.1362    6.3003    0.7296 N   0  0  0  0  0  0  0  0  0  0  0  0
   -2.5984    6.8162   -0.5372 C   0  0  0  0  0  0  0  0  0  0  0  0
   -1.7021    7.4532   -1.4137 C   0  0  0  0  0  0  0  0  0  0  0  0
   -2.1462    7.9751   -2.6320 C   0  0  0  0  0  0  0  0  0  0  0  0
   -3.4948    7.8631   -3.0024 C   0  0  0  0  0  0  0  0  0  0  0  0
   -3.9743    8.4695   -4.2873 C   0  0  0  0  0  0  0  0  0  0  0  0
   -4.3980    7.2385   -2.1265 C   0  0  0  0  0  0  0  0  0  0  0  0
   -3.9501    6.7034   -0.9154 C   0  0  0  0  0  0  0  0  0  0  0  0
   -1.1900    7.0441    1.5198 C   0  0  0  0  0  0  0  0  0  0  0  0
   -0.0938    6.4018    2.1200 C   0  0  0  0  0  0  0  0  0  0  0  0
    0.8589    7.1431    2.8237 C   0  0  0  0  0  0  0  0  0  0  0  0
    0.7402    8.5354    2.9321 C   0  0  0  0  0  0  0  0  0  0  0  0
    1.7612    9.3237    3.6999 C   0  0  0  0  0  0  0  0  0  0  0  0
   -0.3720    9.1767    2.3664 C   0  0  0  0  0  0  0  0  0  0  0  0
   -1.3231    8.4385    1.6579 C   0  0  0  0  0  0  0  0  0  0  0  0
   -2.1197    3.8101    0.6002 C   0  0  0  0  0  0  0  0  0  0  0  0
   -0.8428    3.3883   -0.4167 S   0  0  0  0  0  0  0  0  0  0  0  0
   -4.5110    5.7773    2.6570 C   0  0  0  0  0  0  0  0  0  0  0  0
   -4.0521    6.5358    3.6730 C   0  0  0  0  0  0  0  0  0  0  0  0
   -4.7550    7.7376    4.1243 C   0  0  0  0  0  0  0  0  0  0  0  0
   -5.9386    8.0534    3.8301 O   0  0  0  0  0  0  0  0  0  0  0  0
   -3.8523    8.5271    4.9348 C   0  0  0  0  0  0  0  0  0  0  0  0
   -4.1235    9.7552    5.5818 C   0  0  0  0  0  0  0  0  0  0  0  0
   -3.0614   10.2505    6.3163 C   0  0  0  0  0  0  0  0  0  0  0  0
   -1.7882    9.5994    6.3788 C   0  0  0  0  0  0  0  0  0  0  0  0
   -1.5085    8.4148    5.7284 C   0  0  0  0  0  0  0  0  0  0  0  0
   -2.6072    7.8510    5.0222 C   0  0  0  0  0  0  0  0  0  0  0  0
   -2.7276    6.5094    4.3796 C   0  0  0  0  0  0  0  0  0  0  0  0
   -2.0272    5.4068    4.7582 C   0  0  0  0  0  0  0  0  0  0  0  0
   -2.5594    4.0771    4.6482 C   0  0  0  0  0  0  0  0  0  0  0  0
   -2.9639    2.9920    4.6057 N   0  0  0  0  0  0  0  0  0  0  0  0
   -0.8409    5.4804    5.5625 C   0  0  0  0  0  0  0  0  0  0  0  0
    0.1087    5.5253    6.2275 N   0  0  0  0  0  0  0  0  0  0  0  0
   -1.2614   10.6733    7.2811 C   0  0  0  0  0  0  0  0  0  0  0  0
   -0.2847   11.7225    6.6757 C   0  0  0  0  0  0  0  0  0  0  0  0
   -0.6013   11.9438    5.2157 C   0  0  0  0  0  0  0  0  0  0  0  0
   -1.7870   12.5516    5.1671 C   0  0  0  0  0  0  0  0  0  0  0  0
   -2.2388   12.7232    6.5997 C   0  0  0  0  0  0  0  0  0  0  0  0
   -0.8884   12.9881    7.2469 C   0  0  0  0  0  0  0  0  0  0  0  0
   -2.5664   11.3378    7.2255 C   0  0  0  0  0  0  0  0  0  0  0  0
    2.4201   -9.2625   -1.1322 H   0  0  0  0  0  0  0  0  0  0  0  0
    5.1813   -7.1219   -6.2564 H   0  0  0  0  0  0  0  0  0  0  0  0
    7.2942  -10.5526   -3.1282 H   0  0  0  0  0  0  0  0  0  0  0  0
    9.3351   -9.7846   -5.8765 H   0  0  0  0  0  0  0  0  0  0  0  0
   10.6617   -8.7067   -3.9395 H   0  0  0  0  0  0  0  0  0  0  0  0
    9.0605   -7.1399   -2.4840 H   0  0  0  0  0  0  0  0  0  0  0  0
    8.0202   -5.3556   -4.0583 H   0  0  0  0  0  0  0  0  0  0  0  0
    8.9537   -5.7632   -6.5128 H   0  0  0  0  0  0  0  0  0  0  0  0
   10.8840   -7.6060   -6.3606 H   0  0  0  0  0  0  0  0  0  0  0  0
   11.0766   -6.3452   -5.0599 H   0  0  0  0  0  0  0  0  0  0  0  0
    8.4005   -8.1570   -7.3054 H   0  0  0  0  0  0  0  0  0  0  0  0
    1.8800   -6.1306    5.3364 H   0  0  0  0  0  0  0  0  0  0  0  0
   -2.2191   -5.3075    8.6171 H   0  0  0  0  0  0  0  0  0  0  0  0
   -2.1074   -7.1034    8.7994 H   0  0  0  0  0  0  0  0  0  0  0  0
   -4.3735   -7.3447    7.7674 H   0  0  0  0  0  0  0  0  0  0  0  0
   -4.4144   -6.3020    9.2408 H   0  0  0  0  0  0  0  0  0  0  0  0
   -4.4853   -5.5482    7.6036 H   0  0  0  0  0  0  0  0  0  0  0  0
   -0.5541   -1.2900   -6.0898 H   0  0  0  0  0  0  0  0  0  0  0  0
   -2.2778    0.1281   -7.1482 H   0  0  0  0  0  0  0  0  0  0  0  0
   -4.4985   -1.1343   -8.6598 H   0  0  0  0  0  0  0  0  0  0  0  0
   -6.2386   -0.6648   -8.7543 H   0  0  0  0  0  0  0  0  0  0  0  0
   -5.7231   -1.9521   -7.5975 H   0  0  0  0  0  0  0  0  0  0  0  0
   -5.2768   -1.6362   -4.6252 H   0  0  0  0  0  0  0  0  0  0  0  0
   -3.5462   -3.0204   -3.5202 H   0  0  0  0  0  0  0  0  0  0  0  0
   -2.1431   -5.2288   -5.3574 H   0  0  0  0  0  0  0  0  0  0  0  0
   -1.1259   -6.7745   -6.9951 H   0  0  0  0  0  0  0  0  0  0  0  0
    0.0475   -5.6764   -9.6485 H   0  0  0  0  0  0  0  0  0  0  0  0
    1.6492   -4.8476   -9.4632 H   0  0  0  0  0  0  0  0  0  0  0  0
    1.5026   -6.3139  -10.5122 H   0  0  0  0  0  0  0  0  0  0  0  0
    2.6045   -4.6379   -6.6963 H   0  0  0  0  0  0  0  0  0  0  0  0
    1.5904   -3.0901   -5.0693 H   0  0  0  0  0  0  0  0  0  0  0  0
    3.3924    0.3220   -1.2881 H   0  0  0  0  0  0  0  0  0  0  0  0
    5.5495   -0.8809   -1.2068 H   0  0  0  0  0  0  0  0  0  0  0  0
    7.4159   -0.4613    1.0769 H   0  0  0  0  0  0  0  0  0  0  0  0
    8.6581   -1.6747    1.5638 H   0  0  0  0  0  0  0  0  0  0  0  0
    7.2252   -1.3841    2.6241 H   0  0  0  0  0  0  0  0  0  0  0  0
    4.4066   -2.6683    2.5430 H   0  0  0  0  0  0  0  0  0  0  0  0
    2.2534   -1.4621    2.4644 H   0  0  0  0  0  0  0  0  0  0  0  0
    2.3912    2.5943   -0.0111 H   0  0  0  0  0  0  0  0  0  0  0  0
    2.9314    4.2799    1.7022 H   0  0  0  0  0  0  0  0  0  0  0  0
    3.8052    2.1936    4.9878 H   0  0  0  0  0  0  0  0  0  0  0  0
    4.6754    3.2697    3.8195 H   0  0  0  0  0  0  0  0  0  0  0  0
    4.7051    3.6440    5.5844 H   0  0  0  0  0  0  0  0  0  0  0  0
    0.7894    1.9810    4.6386 H   0  0  0  0  0  0  0  0  0  0  0  0
    0.3094    0.2722    2.9540 H   0  0  0  0  0  0  0  0  0  0  0  0
   -4.8486    0.2955    2.5230 H   0  0  0  0  0  0  0  0  0  0  0  0
   -4.6498   -0.7829    4.7251 H   0  0  0  0  0  0  0  0  0  0  0  0
   -2.9954   -3.3635    5.5615 H   0  0  0  0  0  0  0  0  0  0  0  0
   -3.1773   -1.7884    6.4294 H   0  0  0  0  0  0  0  0  0  0  0  0
   -1.5378   -2.3773    5.9851 H   0  0  0  0  0  0  0  0  0  0  0  0
   -0.8026   -2.3776    3.5882 H   0  0  0  0  0  0  0  0  0  0  0  0
   -1.0104   -1.2897    1.3890 H   0  0  0  0  0  0  0  0  0  0  0  0
   -4.6320    1.7458   -1.1120 H   0  0  0  0  0  0  0  0  0  0  0  0
   -6.4586    0.9322   -2.5213 H   0  0  0  0  0  0  0  0  0  0  0  0
   -8.2286   -1.7586   -2.1074 H   0  0  0  0  0  0  0  0  0  0  0  0
   -7.1249   -2.6253   -3.2531 H   0  0  0  0  0  0  0  0  0  0  0  0
   -7.6196   -0.9275   -3.5980 H   0  0  0  0  0  0  0  0  0  0  0  0
   -5.6195   -3.1130   -1.2903 H   0  0  0  0  0  0  0  0  0  0  0  0
   -3.7767   -2.3095    0.1081 H   0  0  0  0  0  0  0  0  0  0  0  0
   -0.6534    7.5416   -1.1524 H   0  0  0  0  0  0  0  0  0  0  0  0
   -1.4345    8.4640   -3.2897 H   0  0  0  0  0  0  0  0  0  0  0  0
   -4.9123    7.9883   -4.6300 H   0  0  0  0  0  0  0  0  0  0  0  0
   -4.1592    9.5540   -4.1384 H   0  0  0  0  0  0  0  0  0  0  0  0
   -3.2081    8.3395   -5.0818 H   0  0  0  0  0  0  0  0  0  0  0  0
   -5.4458    7.1647   -2.3834 H   0  0  0  0  0  0  0  0  0  0  0  0
   -4.6672    6.2270   -0.2602 H   0  0  0  0  0  0  0  0  0  0  0  0
    0.0297    5.3310    2.0311 H   0  0  0  0  0  0  0  0  0  0  0  0
    1.7010    6.6338    3.2693 H   0  0  0  0  0  0  0  0  0  0  0  0
    1.4168    9.4650    4.7472 H   0  0  0  0  0  0  0  0  0  0  0  0
    2.7404    8.7988    3.7140 H   0  0  0  0  0  0  0  0  0  0  0  0
    1.9147   10.3163    3.2268 H   0  0  0  0  0  0  0  0  0  0  0  0
   -0.4916   10.2498    2.4577 H   0  0  0  0  0  0  0  0  0  0  0  0
   -2.1668    8.9562    1.2132 H   0  0  0  0  0  0  0  0  0  0  0  0
   -5.5154    5.9397    2.2949 H   0  0  0  0  0  0  0  0  0  0  0  0
   -5.0845   10.2476    5.5360 H   0  0  0  0  0  0  0  0  0  0  0  0
   -0.5255    7.9847    5.7831 H   0  0  0  0  0  0  0  0  0  0  0  0
   -0.9892   10.3057    8.2934 H   0  0  0  0  0  0  0  0  0  0  0  0
    0.7881   11.5552    6.9050 H   0  0  0  0  0  0  0  0  0  0  0  0
    0.0396   11.7452    4.3645 H   0  0  0  0  0  0  0  0  0  0  0  0
   -2.2751   12.9197    4.2731 H   0  0  0  0  0  0  0  0  0  0  0  0
   -3.0075   13.5080    6.7579 H   0  0  0  0  0  0  0  0  0  0  0  0
   -0.3972   13.9201    6.8846 H   0  0  0  0  0  0  0  0  0  0  0  0
   -0.9247   12.9954    8.3634 H   0  0  0  0  0  0  0  0  0  0  0  0
   -3.0864   11.3735    8.2093 H   0  0  0  0  0  0  0  0  0  0  0  0
  1  2  2  3
  2  3  1  0
  3  4  2  0
  3  5  1  0
  5  6  2  0
  6  7  1  0
  7  8  2  0
  8  9  1  0
  9 10  2  0
 10 11  1  0
 11 12  2  3
 12 13  1  0
 13 14  3  0
 12 15  1  0
 15 16  3  0
  8 17  1  0
 17 18  1  0
 18 19  1  0
 19 20  2  0
 20 21  1  0
 21 22  1  0
 21 23  1  0
  1 24  1  0
 24 25  1  0
 25 26  1  0
 26 27  2  0
 27 28  1  0
 28 29  1  0
 29 30  1  0
 30 31  2  0
 31 32  1  0
 32 33  2  0
 33 34  1  0
 34 35  2  0
 34 36  1  0
 36 37  1  0
 37 38  1  0
 33 39  1  0
 31 40  1  0
 29 41  2  0
 41 42  1  0
 41 43  1  0
 26 44  1  0
 44 45  2  0
 45 46  1  0
 46 47  1  0
 47 48  2  0
 48 49  1  0
 49 50  2  0
 50 51  1  0
 51 52  1  0
 50 53  1  0
 53 54  2  0
 46 55  1  0
 55 56  2  0
 56 57  1  0
 57 58  2  0
 58 59  1  0
 59 60  1  0
 58 61  1  0
 61 62  2  0
 45 63  1  0
 63 64  1  0
 64 65  1  0
 65 66  2  0
 66 67  1  0
 67 68  1  0
 68 69  2  0
 69 70  1  0
 70 71  2  0
 71 72  1  0
 72 73  1  0
 71 74  1  0
 74 75  2  0
 67 76  1  0
 76 77  2  0
 77 78  1  0
 78 79  2  0
 79 80  1  0
 80 81  1  0
 79 82  1  0
 82 83  2  0
 66 84  1  0
 84 85  1  0
 65 86  1  0
 86 87  2  0
 87 88  1  0
 88 89  1  0
 89 90  2  0
 90 91  1  0
 91 92  2  0
 92 93  1  0
 92 94  1  0
 94 95  2  0
 88 96  1  0
 96 97  2  0
 97 98  1  0
 98 99  2  0
 99100  1  0
 99101  1  0
101102  2  0
 87103  1  0
103104  1  0
104105  1  0
105106  2  0
106107  1  0
107108  1  0
108109  2  0
109110  1  0
110111  2  0
111112  1  0
111113  1  0
113114  2  0
107115  1  0
115116  2  0
116117  1  0
117118  2  0
118119  1  0
118120  1  0
120121  2  0
106122  1  0
122123  1  0
105124  1  0
124125  2  3
125126  1  0
126127  2  0
126128  1  0
128129  2  0
129130  1  0
130131  2  0
131132  1  0
132133  2  0
133134  1  0
134135  2  3
135136  1  0
136137  3  0
135138  1  0
138139  3  0
131140  1  0
140141  1  0
141142  1  0
142143  2  0
143144  1  0
144145  1  0
144146  1  0
 11  2  1  0
 23 17  1  0
 42 24  2  0
 85 44  1  0
123 86  1  0
134125  1  0
146140  1  0
 10  5  1  0
 22 18  1  0
 42 27  1  0
 54 47  1  0
 62 55  1  0
 84 63  2  0
 95 89  1  0
102 96  1  0
122103  2  0
133128  1  0
145141  1  0
 23  7  1  0
 39 30  1  0
 75 68  1  0
 83 76  1  0
114108  1  0
121115  1  0
146130  1  0
  1147  1  0
  6148  1  0
  9149  1  0
 17150  1  0
 18151  1  0
 19152  1  0
 20153  1  0
 21154  1  0
 22155  1  0
 22156  1  0
 23157  1  0
 32158  1  0
 37159  1  0
 37160  1  0
 38161  1  0
 38162  1  0
 38163  1  0
 48164  1  0
 49165  1  0
 52166  1  0
 52167  1  0
 52168  1  0
 53169  1  0
 54170  1  0
 56171  1  0
 57172  1  0
 60173  1  0
 60174  1  0
 60175  1  0
 61176  1  0
 62177  1  0
 69178  1  0
 70179  1  0
 73180  1  0
 73181  1  0
 73182  1  0
 74183  1  0
 75184  1  0
 77185  1  0
 78186  1  0
 81187  1  0
 81188  1  0
 81189  1  0
 82190  1  0
 83191  1  0
 90192  1  0
 91193  1  0
 93194  1  0
 93195  1  0
 93196  1  0
 94197  1  0
 95198  1  0
 97199  1  0
 98200  1  0
100201  1  0
100202  1  0
100203  1  0
101204  1  0
102205  1  0
109206  1  0
110207  1  0
112208  1  0
112209  1  0
112210  1  0
113211  1  0
114212  1  0
116213  1  0
117214  1  0
119215  1  0
119216  1  0
119217  1  0
120218  1  0
121219  1  0
124220  1  0
129221  1  0
132222  1  0
140223  1  0
141224  1  0
142225  1  0
143226  1  0
144227  1  0
145228  1  0
145229  1  0
146230  1  0
M  END

