
     RDKit          3D

234258  0  0  0  0  0  0  0  0999 V2000
    7.6053   -1.4875    3.0083 C   0  0  0  0  0  0  0  0  0  0  0  0
    8.1016   -1.6100    1.7679 C   0  0  0  0  0  0  0  0  0  0  0  0
    7.7969   -2.6876    0.8135 C   0  0  0  0  0  0  0  0  0  0  0  0
    6.9882   -3.6353    0.9906 O   0  0  0  0  0  0  0  0  0  0  0  0
    8.6938   -2.5946   -0.3191 C   0  0  0  0  0  0  0  0  0  0  0  0
    8.6934   -3.4155   -1.4692 C   0  0  0  0  0  0  0  0  0  0  0  0
    9.6460   -3.0625   -2.4054 C   0  0  0  0  0  0  0  0  0  0  0  0
   10.5520   -1.9701   -2.2246 C   0  0  0  0  0  0  0  0  0  0  0  0
   10.5693   -1.1732   -1.0988 C   0  0  0  0  0  0  0  0  0  0  0  0
    9.5921   -1.5083   -0.1125 C   0  0  0  0  0  0  0  0  0  0  0  0
    9.2462   -0.8205    1.1722 C   0  0  0  0  0  0  0  0  0  0  0  0
    9.7925    0.3439    1.6331 C   0  0  0  0  0  0  0  0  0  0  0  0
    9.1678    1.1442    2.6597 C   0  0  0  0  0  0  0  0  0  0  0  0
    8.6956    1.8222    3.4759 N   0  0  0  0  0  0  0  0  0  0  0  0
   10.9460    0.9667    1.0468 C   0  0  0  0  0  0  0  0  0  0  0  0
   11.8810    1.4831    0.6007 N   0  0  0  0  0  0  0  0  0  0  0  0
   11.1993   -2.2572   -3.5431 C   0  0  0  0  0  0  0  0  0  0  0  0
   12.6055   -2.9278   -3.4930 C   0  0  0  0  0  0  0  0  0  0  0  0
   12.8500   -3.4625   -4.8893 C   0  0  0  0  0  0  0  0  0  0  0  0
   12.0147   -4.4885   -5.0554 C   0  0  0  0  0  0  0  0  0  0  0  0
   11.2245   -4.6225   -3.7700 C   0  0  0  0  0  0  0  0  0  0  0  0
   12.3257   -4.2490   -2.7825 C   0  0  0  0  0  0  0  0  0  0  0  0
   10.2798   -3.3830   -3.7285 C   0  0  0  0  0  0  0  0  0  0  0  0
    6.3268   -2.0703    3.4603 C   0  0  0  0  0  0  0  0  0  0  0  0
    4.9787   -2.2087    2.4633 S   0  0  0  0  0  0  0  0  0  0  0  0
    3.7622   -2.2785    3.6271 C   0  0  0  0  0  0  0  0  0  0  0  0
    4.4259   -2.1831    4.8410 C   0  0  0  0  0  0  0  0  0  0  0  0
    3.9220   -1.8907    6.4201 S   0  0  0  0  0  0  0  0  0  0  0  0
    5.4967   -1.7235    7.0487 C   0  0  0  0  0  0  0  0  0  0  0  0
    5.8167   -1.1431    8.3585 C   0  0  0  0  0  0  0  0  0  0  0  0
    6.8042   -1.6213    9.2249 C   0  0  0  0  0  0  0  0  0  0  0  0
    7.3990   -0.6381   10.0199 C   0  0  0  0  0  0  0  0  0  0  0  0
    6.8831    0.6365    9.8039 C   0  0  0  0  0  0  0  0  0  0  0  0
    7.6279    1.8871    9.9844 C   0  0  0  0  0  0  0  0  0  0  0  0
    8.7627    1.9782    9.4550 O   0  0  0  0  0  0  0  0  0  0  0  0
    6.9370    3.0338   10.3773 O   0  0  0  0  0  0  0  0  0  0  0  0
    6.9876    4.2312    9.6268 C   0  0  0  0  0  0  0  0  0  0  0  0
    6.3754    4.0255    8.2417 C   0  0  0  0  0  0  0  0  0  0  0  0
    5.7083    0.5125    8.6091 S   0  0  0  0  0  0  0  0  0  0  0  0
    7.3608   -3.2854    9.2212 Cl  0  0  0  0  0  0  0  0  0  0  0  0
    6.4275   -1.8443    6.0030 C   0  0  0  0  0  0  0  0  0  0  0  0
    5.8108   -2.0789    4.7648 C   0  0  0  0  0  0  0  0  0  0  0  0
    8.1640   -1.6058    6.2302 Cl  0  0  0  0  0  0  0  0  0  0  0  0
    2.3462   -2.0805    3.3018 C   0  0  0  0  0  0  0  0  0  0  0  0
    1.8980   -1.1317    2.3774 C   0  0  0  0  0  0  0  0  0  0  0  0
    2.4951    0.1640    2.2030 N   0  0  0  0  0  0  0  0  0  0  0  0
    2.0284    1.2531    3.0259 C   0  0  0  0  0  0  0  0  0  0  0  0
    1.7131    2.4942    2.4428 C   0  0  0  0  0  0  0  0  0  0  0  0
    1.1951    3.5303    3.2259 C   0  0  0  0  0  0  0  0  0  0  0  0
    0.9751    3.3377    4.5948 C   0  0  0  0  0  0  0  0  0  0  0  0
    0.2616    4.6392    5.5952 S   0  0  0  0  0  0  0  0  0  0  0  0
   -1.4502    4.0188    5.4726 C   0  0  0  0  0  0  0  0  0  0  0  0
    1.3063    2.1132    5.1860 C   0  0  0  0  0  0  0  0  0  0  0  0
    1.8270    1.0732    4.4061 C   0  0  0  0  0  0  0  0  0  0  0  0
    3.5254    0.3705    1.2241 C   0  0  0  0  0  0  0  0  0  0  0  0
    4.6840    1.0865    1.5731 C   0  0  0  0  0  0  0  0  0  0  0  0
    5.7153    1.2556    0.6469 C   0  0  0  0  0  0  0  0  0  0  0  0
    5.5775    0.7496   -0.6537 C   0  0  0  0  0  0  0  0  0  0  0  0
    6.8862    1.0192   -1.8565 S   0  0  0  0  0  0  0  0  0  0  0  0
    6.1729    2.5848   -2.4656 C   0  0  0  0  0  0  0  0  0  0  0  0
    4.4290    0.0288   -1.0065 C   0  0  0  0  0  0  0  0  0  0  0  0
    3.4109   -0.1715   -0.0647 C   0  0  0  0  0  0  0  0  0  0  0  0
    0.6292   -1.4405    1.9174 C   0  0  0  0  0  0  0  0  0  0  0  0
   -0.3758   -0.7135    0.8170 S   0  0  0  0  0  0  0  0  0  0  0  0
   -1.6387   -1.8464    0.9956 C   0  0  0  0  0  0  0  0  0  0  0  0
   -1.2763   -2.7886    2.0090 C   0  0  0  0  0  0  0  0  0  0  0  0
   -2.2094   -3.6665    2.6977 N   0  0  0  0  0  0  0  0  0  0  0  0
   -3.6112   -3.3466    2.7318 C   0  0  0  0  0  0  0  0  0  0  0  0
   -4.5688   -4.3472    2.5212 C   0  0  0  0  0  0  0  0  0  0  0  0
   -5.9333   -4.0347    2.5560 C   0  0  0  0  0  0  0  0  0  0  0  0
   -6.3433   -2.7182    2.7969 C   0  0  0  0  0  0  0  0  0  0  0  0
   -8.0834   -2.2862    2.7457 S   0  0  0  0  0  0  0  0  0  0  0  0
   -8.0362   -1.8572    0.9792 C   0  0  0  0  0  0  0  0  0  0  0  0
   -5.3917   -1.7288    3.0568 C   0  0  0  0  0  0  0  0  0  0  0  0
   -4.0359   -2.0425    3.0494 C   0  0  0  0  0  0  0  0  0  0  0  0
   -1.7377   -4.5580    3.7321 C   0  0  0  0  0  0  0  0  0  0  0  0
   -0.9330   -5.6606    3.4170 C   0  0  0  0  0  0  0  0  0  0  0  0
   -0.3783   -6.4461    4.4428 C   0  0  0  0  0  0  0  0  0  0  0  0
   -0.6196   -6.1282    5.7800 C   0  0  0  0  0  0  0  0  0  0  0  0
    0.1055   -7.1134    7.0937 S   0  0  0  0  0  0  0  0  0  0  0  0
   -1.2488   -8.3266    7.0943 C   0  0  0  0  0  0  0  0  0  0  0  0
   -1.4407   -5.0427    6.0996 C   0  0  0  0  0  0  0  0  0  0  0  0
   -1.9883   -4.2529    5.0843 C   0  0  0  0  0  0  0  0  0  0  0  0
    0.0395   -2.5385    2.4519 C   0  0  0  0  0  0  0  0  0  0  0  0
    1.1302   -3.2399    3.5386 S   0  0  0  0  0  0  0  0  0  0  0  0
   -2.9033   -1.6647    0.2386 C   0  0  0  0  0  0  0  0  0  0  0  0
   -3.7124   -2.5979   -0.4808 C   0  0  0  0  0  0  0  0  0  0  0  0
   -3.3624   -3.9847   -0.7639 N   0  0  0  0  0  0  0  0  0  0  0  0
   -4.2662   -4.8291   -1.5040 C   0  0  0  0  0  0  0  0  0  0  0  0
   -5.4038   -5.3772   -0.8895 C   0  0  0  0  0  0  0  0  0  0  0  0
   -6.3226   -6.1178   -1.6435 C   0  0  0  0  0  0  0  0  0  0  0  0
   -6.1268   -6.3011   -3.0151 C   0  0  0  0  0  0  0  0  0  0  0  0
   -7.3460   -7.1939   -3.9843 S   0  0  0  0  0  0  0  0  0  0  0  0
   -8.2378   -5.6872   -4.4884 C   0  0  0  0  0  0  0  0  0  0  0  0
   -4.9886   -5.7648   -3.6280 C   0  0  0  0  0  0  0  0  0  0  0  0
   -4.0568   -5.0436   -2.8756 C   0  0  0  0  0  0  0  0  0  0  0  0
   -1.9985   -4.4585   -0.7031 C   0  0  0  0  0  0  0  0  0  0  0  0
   -0.9521   -3.7213   -1.2967 C   0  0  0  0  0  0  0  0  0  0  0  0
    0.3508   -4.2251   -1.2984 C   0  0  0  0  0  0  0  0  0  0  0  0
    0.6127   -5.4875   -0.7559 C   0  0  0  0  0  0  0  0  0  0  0  0
    2.2763   -6.1812   -0.8690 S   0  0  0  0  0  0  0  0  0  0  0  0
    2.8017   -5.5696    0.7668 C   0  0  0  0  0  0  0  0  0  0  0  0
   -0.4229   -6.2500   -0.2232 C   0  0  0  0  0  0  0  0  0  0  0  0
   -1.7219   -5.7313   -0.1805 C   0  0  0  0  0  0  0  0  0  0  0  0
   -4.7575   -1.9084   -1.1439 C   0  0  0  0  0  0  0  0  0  0  0  0
   -5.8727   -2.2997   -2.3516 S   0  0  0  0  0  0  0  0  0  0  0  0
   -6.2637   -0.7163   -2.8215 C   0  0  0  0  0  0  0  0  0  0  0  0
   -5.4870    0.1597   -2.0252 C   0  0  0  0  0  0  0  0  0  0  0  0
   -5.1251    1.5114   -2.3958 N   0  0  0  0  0  0  0  0  0  0  0  0
   -5.6903    2.6187   -1.6459 C   0  0  0  0  0  0  0  0  0  0  0  0
   -5.9638    3.8472   -2.2841 C   0  0  0  0  0  0  0  0  0  0  0  0
   -6.4088    4.9476   -1.5479 C   0  0  0  0  0  0  0  0  0  0  0  0
   -6.5710    4.8422   -0.1621 C   0  0  0  0  0  0  0  0  0  0  0  0
   -7.0941    6.2720    0.7940 S   0  0  0  0  0  0  0  0  0  0  0  0
   -5.4026    6.9152    1.0348 C   0  0  0  0  0  0  0  0  0  0  0  0
   -6.3261    3.6243    0.4759 C   0  0  0  0  0  0  0  0  0  0  0  0
   -5.9029    2.5138   -0.2582 C   0  0  0  0  0  0  0  0  0  0  0  0
   -4.0427    1.7241   -3.3458 C   0  0  0  0  0  0  0  0  0  0  0  0
   -3.1991    2.8500   -3.2188 C   0  0  0  0  0  0  0  0  0  0  0  0
   -2.1954    3.0990   -4.1613 C   0  0  0  0  0  0  0  0  0  0  0  0
   -1.9976    2.2197   -5.2293 C   0  0  0  0  0  0  0  0  0  0  0  0
   -0.7466    2.5758   -6.4655 S   0  0  0  0  0  0  0  0  0  0  0  0
    0.5637    1.6678   -5.5937 C   0  0  0  0  0  0  0  0  0  0  0  0
   -2.7671    1.0635   -5.3211 C   0  0  0  0  0  0  0  0  0  0  0  0
   -3.7688    0.8105   -4.3823 C   0  0  0  0  0  0  0  0  0  0  0  0
   -4.7123   -0.5512   -1.0907 C   0  0  0  0  0  0  0  0  0  0  0  0
   -3.4293   -0.0846   -0.1335 S   0  0  0  0  0  0  0  0  0  0  0  0
   -6.8233   -0.4506   -4.1631 C   0  0  0  0  0  0  0  0  0  0  0  0
   -7.4904    0.6403   -4.5746 C   0  0  0  0  0  0  0  0  0  0  0  0
   -7.4661    1.0905   -5.9623 C   0  0  0  0  0  0  0  0  0  0  0  0
   -7.0822    0.4089   -6.9539 O   0  0  0  0  0  0  0  0  0  0  0  0
   -7.8116    2.4864   -5.9962 C   0  0  0  0  0  0  0  0  0  0  0  0
   -7.7819    3.3385   -7.1236 C   0  0  0  0  0  0  0  0  0  0  0  0
   -8.0802    4.6618   -6.8274 C   0  0  0  0  0  0  0  0  0  0  0  0
   -8.3908    5.1257   -5.5051 C   0  0  0  0  0  0  0  0  0  0  0  0
   -8.4321    4.2885   -4.4006 C   0  0  0  0  0  0  0  0  0  0  0  0
   -8.1431    2.9220   -4.6805 C   0  0  0  0  0  0  0  0  0  0  0  0
   -8.0740    1.7485   -3.7716 C   0  0  0  0  0  0  0  0  0  0  0  0
   -8.7157    1.6025   -2.5902 C   0  0  0  0  0  0  0  0  0  0  0  0
   -9.0599    0.2907   -2.0992 C   0  0  0  0  0  0  0  0  0  0  0  0
   -9.3692   -0.7747   -1.7732 N   0  0  0  0  0  0  0  0  0  0  0  0
   -9.3199    2.7106   -1.8879 C   0  0  0  0  0  0  0  0  0  0  0  0
   -9.8158    3.6023   -1.3379 N   0  0  0  0  0  0  0  0  0  0  0  0
   -8.5584    6.5277   -6.0074 C   0  0  0  0  0  0  0  0  0  0  0  0
  -10.0204    7.0471   -6.1207 C   0  0  0  0  0  0  0  0  0  0  0  0
   -9.9587    8.2654   -7.0041 C   0  0  0  0  0  0  0  0  0  0  0  0
   -9.6893    7.8237   -8.2447 C   0  0  0  0  0  0  0  0  0  0  0  0
   -9.5757    6.3242   -8.1452 C   0  0  0  0  0  0  0  0  0  0  0  0
  -10.6611    6.0775   -7.1048 C   0  0  0  0  0  0  0  0  0  0  0  0
   -8.2560    6.0505   -7.3647 C   0  0  0  0  0  0  0  0  0  0  0  0
    8.0797   -0.8180    3.7089 H   0  0  0  0  0  0  0  0  0  0  0  0
    8.0025   -4.2409   -1.6160 H   0  0  0  0  0  0  0  0  0  0  0  0
   11.2808   -0.3701   -1.0273 H   0  0  0  0  0  0  0  0  0  0  0  0
   11.0819   -1.4348   -4.2848 H   0  0  0  0  0  0  0  0  0  0  0  0
   13.4234   -2.3122   -3.0699 H   0  0  0  0  0  0  0  0  0  0  0  0
   13.5989   -3.1222   -5.6020 H   0  0  0  0  0  0  0  0  0  0  0  0
   11.9660   -5.1380   -5.9225 H   0  0  0  0  0  0  0  0  0  0  0  0
   10.7482   -5.6010   -3.6074 H   0  0  0  0  0  0  0  0  0  0  0  0
   11.9846   -4.1424   -1.7338 H   0  0  0  0  0  0  0  0  0  0  0  0
   13.1943   -4.9544   -2.7961 H   0  0  0  0  0  0  0  0  0  0  0  0
    9.5786   -3.2786   -4.5842 H   0  0  0  0  0  0  0  0  0  0  0  0
    8.2646   -0.8238   10.6430 H   0  0  0  0  0  0  0  0  0  0  0  0
    6.4184    5.0208   10.1636 H   0  0  0  0  0  0  0  0  0  0  0  0
    8.0480    4.5820    9.5340 H   0  0  0  0  0  0  0  0  0  0  0  0
    6.3388    4.9903    7.6915 H   0  0  0  0  0  0  0  0  0  0  0  0
    6.9989    3.3125    7.6703 H   0  0  0  0  0  0  0  0  0  0  0  0
    5.3476    3.6138    8.3280 H   0  0  0  0  0  0  0  0  0  0  0  0
    1.8506    2.6452    1.3798 H   0  0  0  0  0  0  0  0  0  0  0  0
    0.9486    4.4775    2.7650 H   0  0  0  0  0  0  0  0  0  0  0  0
   -2.0526    4.7077    4.8436 H   0  0  0  0  0  0  0  0  0  0  0  0
   -1.5095    2.9964    5.0472 H   0  0  0  0  0  0  0  0  0  0  0  0
   -1.8857    3.9874    6.4966 H   0  0  0  0  0  0  0  0  0  0  0  0
    1.1453    1.9511    6.2450 H   0  0  0  0  0  0  0  0  0  0  0  0
    2.0711    0.1330    4.8872 H   0  0  0  0  0  0  0  0  0  0  0  0
    4.8087    1.4874    2.5710 H   0  0  0  0  0  0  0  0  0  0  0  0
    6.6106    1.7993    0.9319 H   0  0  0  0  0  0  0  0  0  0  0  0
    5.7934    3.2025   -1.6247 H   0  0  0  0  0  0  0  0  0  0  0  0
    6.9616    3.1572   -3.0025 H   0  0  0  0  0  0  0  0  0  0  0  0
    5.3462    2.3636   -3.1731 H   0  0  0  0  0  0  0  0  0  0  0  0
    4.3086   -0.3667   -2.0069 H   0  0  0  0  0  0  0  0  0  0  0  0
    2.5291   -0.7305   -0.3445 H   0  0  0  0  0  0  0  0  0  0  0  0
   -4.2481   -5.3599    2.3026 H   0  0  0  0  0  0  0  0  0  0  0  0
   -6.6671   -4.8082    2.3600 H   0  0  0  0  0  0  0  0  0  0  0  0
   -8.9671   -1.3141    0.7239 H   0  0  0  0  0  0  0  0  0  0  0  0
   -7.9571   -2.7727    0.3653 H   0  0  0  0  0  0  0  0  0  0  0  0
   -7.1733   -1.1921    0.7636 H   0  0  0  0  0  0  0  0  0  0  0  0
   -5.7025   -0.7085    3.2556 H   0  0  0  0  0  0  0  0  0  0  0  0
   -3.3064   -1.2670    3.2665 H   0  0  0  0  0  0  0  0  0  0  0  0
   -0.7124   -5.8941    2.3888 H   0  0  0  0  0  0  0  0  0  0  0  0
    0.2623   -7.2825    4.1781 H   0  0  0  0  0  0  0  0  0  0  0  0
   -1.1810   -8.9353    8.0211 H   0  0  0  0  0  0  0  0  0  0  0  0
   -1.1575   -8.9953    6.2138 H   0  0  0  0  0  0  0  0  0  0  0  0
   -2.2374   -7.8216    7.0849 H   0  0  0  0  0  0  0  0  0  0  0  0
   -1.6463   -4.7863    7.1316 H   0  0  0  0  0  0  0  0  0  0  0  0
   -2.5997   -3.4023    5.3558 H   0  0  0  0  0  0  0  0  0  0  0  0
   -5.5777   -5.2281    0.1600 H   0  0  0  0  0  0  0  0  0  0  0  0
   -7.1962   -6.5404   -1.1522 H   0  0  0  0  0  0  0  0  0  0  0  0
   -7.7224   -5.2217   -5.3575 H   0  0  0  0  0  0  0  0  0  0  0  0
   -9.2687   -5.9607   -4.7904 H   0  0  0  0  0  0  0  0  0  0  0  0
   -8.2980   -4.9532   -3.6572 H   0  0  0  0  0  0  0  0  0  0  0  0
   -4.8273   -5.8827   -4.6968 H   0  0  0  0  0  0  0  0  0  0  0  0
   -3.1984   -4.6085   -3.3715 H   0  0  0  0  0  0  0  0  0  0  0  0
   -1.1465   -2.7631   -1.7647 H   0  0  0  0  0  0  0  0  0  0  0  0
    1.1451   -3.6382   -1.7504 H   0  0  0  0  0  0  0  0  0  0  0  0
    2.3058   -6.1637    1.5619 H   0  0  0  0  0  0  0  0  0  0  0  0
    2.5565   -4.4928    0.8878 H   0  0  0  0  0  0  0  0  0  0  0  0
    3.8976   -5.7014    0.8582 H   0  0  0  0  0  0  0  0  0  0  0  0
   -0.2356   -7.2454    0.1658 H   0  0  0  0  0  0  0  0  0  0  0  0
   -2.5217   -6.3275    0.2481 H   0  0  0  0  0  0  0  0  0  0  0  0
   -5.8106    3.9534   -3.3510 H   0  0  0  0  0  0  0  0  0  0  0  0
   -6.6075    5.8850   -2.0544 H   0  0  0  0  0  0  0  0  0  0  0  0
   -5.1302    7.5672    0.1842 H   0  0  0  0  0  0  0  0  0  0  0  0
   -4.6694    6.0886    1.1616 H   0  0  0  0  0  0  0  0  0  0  0  0
   -5.3947    7.5178    1.9603 H   0  0  0  0  0  0  0  0  0  0  0  0
   -6.4438    3.5342    1.5517 H   0  0  0  0  0  0  0  0  0  0  0  0
   -5.7084    1.5968    0.2715 H   0  0  0  0  0  0  0  0  0  0  0  0
   -3.3036    3.5405   -2.3874 H   0  0  0  0  0  0  0  0  0  0  0  0
   -1.5779    3.9899   -4.0616 H   0  0  0  0  0  0  0  0  0  0  0  0
    1.5308    1.8538   -6.1026 H   0  0  0  0  0  0  0  0  0  0  0  0
    0.6429    2.0158   -4.5448 H   0  0  0  0  0  0  0  0  0  0  0  0
    0.3572    0.5807   -5.6266 H   0  0  0  0  0  0  0  0  0  0  0  0
   -2.6079    0.3590   -6.1326 H   0  0  0  0  0  0  0  0  0  0  0  0
   -4.3188   -0.1085   -4.4889 H   0  0  0  0  0  0  0  0  0  0  0  0
   -6.5459   -1.1910   -4.9151 H   0  0  0  0  0  0  0  0  0  0  0  0
   -7.5521    3.0120   -8.1347 H   0  0  0  0  0  0  0  0  0  0  0  0
   -8.6506    4.6840   -3.4259 H   0  0  0  0  0  0  0  0  0  0  0  0
   -7.8177    7.2414   -5.5883 H   0  0  0  0  0  0  0  0  0  0  0  0
  -10.5550    7.1865   -5.1546 H   0  0  0  0  0  0  0  0  0  0  0  0
  -10.1882    9.2942   -6.7397 H   0  0  0  0  0  0  0  0  0  0  0  0
   -9.6539    8.4320   -9.1440 H   0  0  0  0  0  0  0  0  0  0  0  0
   -9.6878    5.7704   -9.1032 H   0  0  0  0  0  0  0  0  0  0  0  0
  -11.6810    6.3857   -7.4373 H   0  0  0  0  0  0  0  0  0  0  0  0
  -10.7126    5.0254   -6.7381 H   0  0  0  0  0  0  0  0  0  0  0  0
   -7.3246    6.4741   -7.8077 H   0  0  0  0  0  0  0  0  0  0  0  0
  1  2  2  3
  2  3  1  0
  3  4  2  0
  3  5  1  0
  5  6  2  0
  6  7  1  0
  7  8  2  0
  8  9  1  0
  9 10  2  0
 10 11  1  0
 11 12  2  3
 12 13  1  0
 13 14  3  0
 12 15  1  0
 15 16  3  0
  8 17  1  0
 17 18  1  0
 18 19  1  0
 19 20  2  0
 20 21  1  0
 21 22  1  0
 21 23  1  0
  1 24  1  0
 24 25  1  0
 25 26  1  0
 26 27  2  0
 27 28  1  0
 28 29  1  0
 29 30  1  0
 30 31  2  0
 31 32  1  0
 32 33  2  0
 33 34  1  0
 34 35  2  0
 34 36  1  0
 36 37  1  0
 37 38  1  0
 33 39  1  0
 31 40  1  0
 29 41  2  0
 41 42  1  0
 41 43  1  0
 26 44  1  0
 44 45  2  0
 45 46  1  0
 46 47  1  0
 47 48  2  0
 48 49  1  0
 49 50  2  0
 50 51  1  0
 51 52  1  0
 50 53  1  0
 53 54  2  0
 46 55  1  0
 55 56  2  0
 56 57  1  0
 57 58  2  0
 58 59  1  0
 59 60  1  0
 58 61  1  0
 61 62  2  0
 45 63  1  0
 63 64  1  0
 64 65  1  0
 65 66  2  0
 66 67  1  0
 67 68  1  0
 68 69  2  0
 69 70  1  0
 70 71  2  0
 71 72  1  0
 72 73  1  0
 71 74  1  0
 74 75  2  0
 67 76  1  0
 76 77  2  0
 77 78  1  0
 78 79  2  0
 79 80  1  0
 80 81  1  0
 79 82  1  0
 82 83  2  0
 66 84  1  0
 84 85  1  0
 65 86  1  0
 86 87  2  0
 87 88  1  0
 88 89  1  0
 89 90  2  0
 90 91  1  0
 91 92  2  0
 92 93  1  0
 93 94  1  0
 92 95  1  0
 95 96  2  0
 88 97  1  0
 97 98  2  0
 98 99  1  0
 99100  2  0
100101  1  0
101102  1  0
100103  1  0
103104  2  0
 87105  1  0
105106  1  0
106107  1  0
107108  2  0
108109  1  0
109110  1  0
110111  2  0
111112  1  0
112113  2  0
113114  1  0
114115  1  0
113116  1  0
116117  2  0
109118  1  0
118119  2  0
119120  1  0
120121  2  0
121122  1  0
122123  1  0
121124  1  0
124125  2  0
108126  1  0
126127  1  0
107128  1  0
128129  2  3
129130  1  0
130131  2  0
130132  1  0
132133  2  0
133134  1  0
134135  2  0
135136  1  0
136137  2  0
137138  1  0
138139  2  3
139140  1  0
140141  3  0
139142  1  0
142143  3  0
135144  1  0
144145  1  0
145146  1  0
146147  2  0
147148  1  0
148149  1  0
148150  1  0
 11  2  1  0
 23 17  1  0
 42 24  2  0
 85 44  1  0
127 86  1  0
138129  1  0
150144  1  0
 10  5  1  0
 22 18  1  0
 42 27  1  0
 54 47  1  0
 62 55  1  0
 84 63  2  0
 96 89  1  0
104 97  1  0
126105  2  0
137132  1  0
149145  1  0
 23  7  1  0
 39 30  1  0
 75 68  1  0
 83 76  1  0
117110  1  0
125118  1  0
150134  1  0
  1151  1  0
  6152  1  0
  9153  1  0
 17154  1  0
 18155  1  0
 19156  1  0
 20157  1  0
 21158  1  0
 22159  1  0
 22160  1  0
 23161  1  0
 32162  1  0
 37163  1  0
 37164  1  0
 38165  1  0
 38166  1  0
 38167  1  0
 48168  1  0
 49169  1  0
 52170  1  0
 52171  1  0
 52172  1  0
 53173  1  0
 54174  1  0
 56175  1  0
 57176  1  0
 60177  1  0
 60178  1  0
 60179  1  0
 61180  1  0
 62181  1  0
 69182  1  0
 70183  1  0
 73184  1  0
 73185  1  0
 73186  1  0
 74187  1  0
 75188  1  0
 77189  1  0
 78190  1  0
 81191  1  0
 81192  1  0
 81193  1  0
 82194  1  0
 83195  1  0
 90196  1  0
 91197  1  0
 94198  1  0
 94199  1  0
 94200  1  0
 95201  1  0
 96202  1  0
 98203  1  0
 99204  1  0
102205  1  0
102206  1  0
102207  1  0
103208  1  0
104209  1  0
111210  1  0
112211  1  0
115212  1  0
115213  1  0
115214  1  0
116215  1  0
117216  1  0
119217  1  0
120218  1  0
123219  1  0
123220  1  0
123221  1  0
124222  1  0
125223  1  0
128224  1  0
133225  1  0
136226  1  0
144227  1  0
145228  1  0
146229  1  0
147230  1  0
148231  1  0
149232  1  0
149233  1  0
150234  1  0
M  END

