
     RDKit          3D

250275  0  0  0  0  0  0  0  0999 V2000
    9.5429   -3.8863    1.3977 C   0  0  0  0  0  0  0  0  0  0  0  0
    9.3536   -3.2908    0.1947 C   0  0  0  0  0  0  0  0  0  0  0  0
   10.4210   -3.1244   -0.7955 C   0  0  0  0  0  0  0  0  0  0  0  0
   11.4658   -3.8229   -0.8871 O   0  0  0  0  0  0  0  0  0  0  0  0
   10.1234   -1.9500   -1.6008 C   0  0  0  0  0  0  0  0  0  0  0  0
   10.9067   -1.3771   -2.6344 C   0  0  0  0  0  0  0  0  0  0  0  0
   10.3604   -0.2247   -3.1882 C   0  0  0  0  0  0  0  0  0  0  0  0
    9.1254    0.3418   -2.7375 C   0  0  0  0  0  0  0  0  0  0  0  0
    8.3550   -0.2098   -1.7341 C   0  0  0  0  0  0  0  0  0  0  0  0
    8.8797   -1.4075   -1.1790 C   0  0  0  0  0  0  0  0  0  0  0  0
    8.2836   -2.3081   -0.1611 C   0  0  0  0  0  0  0  0  0  0  0  0
    6.9553   -2.5027    0.0140 C   0  0  0  0  0  0  0  0  0  0  0  0
    6.4344   -3.8042    0.3298 C   0  0  0  0  0  0  0  0  0  0  0  0
    5.9945   -4.8510    0.5605 N   0  0  0  0  0  0  0  0  0  0  0  0
    5.9617   -1.5098   -0.3084 C   0  0  0  0  0  0  0  0  0  0  0  0
    5.1440   -0.7249   -0.5481 N   0  0  0  0  0  0  0  0  0  0  0  0
    9.2381    1.4435   -3.7492 C   0  0  0  0  0  0  0  0  0  0  0  0
    8.3169    1.3783   -5.0041 C   0  0  0  0  0  0  0  0  0  0  0  0
    8.0264   -0.0622   -5.3567 C   0  0  0  0  0  0  0  0  0  0  0  0
    9.1679   -0.5884   -5.7832 C   0  0  0  0  0  0  0  0  0  0  0  0
   10.2105    0.5035   -5.7057 C   0  0  0  0  0  0  0  0  0  0  0  0
    9.3343    1.6829   -6.0889 C   0  0  0  0  0  0  0  0  0  0  0  0
   10.5013    0.8610   -4.2163 C   0  0  0  0  0  0  0  0  0  0  0  0
    8.7842   -3.4750    2.5938 C   0  0  0  0  0  0  0  0  0  0  0  0
    8.5903   -2.1327    2.9034 C   0  0  0  0  0  0  0  0  0  0  0  0
    7.3633   -1.8801    3.5221 C   0  0  0  0  0  0  0  0  0  0  0  0
    6.7550   -0.6134    3.6022 C   0  0  0  0  0  0  0  0  0  0  0  0
    7.5329    0.6225    3.4162 C   0  0  0  0  0  0  0  0  0  0  0  0
    7.9715    1.0031    2.1452 C   0  0  0  0  0  0  0  0  0  0  0  0
    8.9127    2.0220    2.0064 C   0  0  0  0  0  0  0  0  0  0  0  0
    9.4324    2.6804    3.1413 C   0  0  0  0  0  0  0  0  0  0  0  0
   10.4873    3.6086    3.0512 O   0  0  0  0  0  0  0  0  0  0  0  0
   11.2417    3.8991    1.8820 C   0  0  0  0  0  0  0  0  0  0  0  0
   10.5368    4.9513    1.0439 C   0  0  0  0  0  0  0  0  0  0  0  0
    8.9093    2.3699    4.4174 C   0  0  0  0  0  0  0  0  0  0  0  0
    9.4600    3.0371    5.6561 C   0  0  0  0  0  0  0  0  0  0  0  0
    9.5930    4.4011    5.4530 F   0  0  0  0  0  0  0  0  0  0  0  0
   10.6964    2.4934    5.9545 F   0  0  0  0  0  0  0  0  0  0  0  0
    8.6187    2.8515    6.7446 F   0  0  0  0  0  0  0  0  0  0  0  0
    7.9808    1.3202    4.5434 C   0  0  0  0  0  0  0  0  0  0  0  0
    5.3696   -0.5898    3.7902 C   0  0  0  0  0  0  0  0  0  0  0  0
    4.6222   -1.7471    4.0138 C   0  0  0  0  0  0  0  0  0  0  0  0
    5.2627   -3.0064    4.1151 C   0  0  0  0  0  0  0  0  0  0  0  0
    4.5252   -4.2465    4.4192 C   0  0  0  0  0  0  0  0  0  0  0  0
    4.7841   -4.9075    5.6248 C   0  0  0  0  0  0  0  0  0  0  0  0
    4.0626   -6.0471    5.9696 C   0  0  0  0  0  0  0  0  0  0  0  0
    3.0626   -6.5498    5.1100 C   0  0  0  0  0  0  0  0  0  0  0  0
    2.3197   -7.6923    5.4623 O   0  0  0  0  0  0  0  0  0  0  0  0
    2.3818   -8.3485    6.7298 C   0  0  0  0  0  0  0  0  0  0  0  0
    1.3477   -9.4578    6.7865 C   0  0  0  0  0  0  0  0  0  0  0  0
    2.7972   -5.8880    3.8880 C   0  0  0  0  0  0  0  0  0  0  0  0
    3.5645   -4.7564    3.5428 C   0  0  0  0  0  0  0  0  0  0  0  0
    1.7625   -6.4100    2.9139 C   0  0  0  0  0  0  0  0  0  0  0  0
    0.7034   -7.0043    3.5756 F   0  0  0  0  0  0  0  0  0  0  0  0
    2.3560   -7.3355    2.0774 F   0  0  0  0  0  0  0  0  0  0  0  0
    1.2523   -5.3747    2.1521 F   0  0  0  0  0  0  0  0  0  0  0  0
    6.6345   -3.0416    3.8053 C   0  0  0  0  0  0  0  0  0  0  0  0
    7.5236   -4.3727    3.2726 S   0  0  0  0  0  0  0  0  0  0  0  0
    3.2365   -1.5312    3.8945 C   0  0  0  0  0  0  0  0  0  0  0  0
    2.9042   -0.2408    3.4702 C   0  0  0  0  0  0  0  0  0  0  0  0
    4.3327    0.6543    3.3655 S   0  0  0  0  0  0  0  0  0  0  0  0
    1.8019   -0.0161    2.5234 C   0  0  0  0  0  0  0  0  0  0  0  0
    1.0326    1.1496    2.3185 C   0  0  0  0  0  0  0  0  0  0  0  0
    0.8740    2.2359    3.2580 N   0  0  0  0  0  0  0  0  0  0  0  0
   -0.4389    2.7358    3.5423 C   0  0  0  0  0  0  0  0  0  0  0  0
   -1.3727    1.9178    4.1955 C   0  0  0  0  0  0  0  0  0  0  0  0
   -2.6639    2.3903    4.4419 C   0  0  0  0  0  0  0  0  0  0  0  0
   -3.0377    3.6720    4.0184 C   0  0  0  0  0  0  0  0  0  0  0  0
   -4.7151    4.2445    4.2804 S   0  0  0  0  0  0  0  0  0  0  0  0
   -5.3414    3.4277    2.7807 C   0  0  0  0  0  0  0  0  0  0  0  0
   -2.1063    4.4903    3.3659 C   0  0  0  0  0  0  0  0  0  0  0  0
   -0.8040    4.0308    3.1441 C   0  0  0  0  0  0  0  0  0  0  0  0
    1.9749    2.8072    3.9727 C   0  0  0  0  0  0  0  0  0  0  0  0
    2.0963    2.5871    5.3537 C   0  0  0  0  0  0  0  0  0  0  0  0
    3.1011    3.2269    6.0833 C   0  0  0  0  0  0  0  0  0  0  0  0
    3.9773    4.1138    5.4402 C   0  0  0  0  0  0  0  0  0  0  0  0
    5.2425    4.9640    6.3907 S   0  0  0  0  0  0  0  0  0  0  0  0
    4.1453    6.3310    6.8763 C   0  0  0  0  0  0  0  0  0  0  0  0
    3.8665    4.3313    4.0621 C   0  0  0  0  0  0  0  0  0  0  0  0
    2.8669    3.6758    3.3267 C   0  0  0  0  0  0  0  0  0  0  0  0
    0.2662    1.0255    1.1524 C   0  0  0  0  0  0  0  0  0  0  0  0
   -0.8006    2.0188    0.3287 S   0  0  0  0  0  0  0  0  0  0  0  0
   -1.1106    0.9013   -0.9290 C   0  0  0  0  0  0  0  0  0  0  0  0
   -0.3690   -0.2670   -0.6840 C   0  0  0  0  0  0  0  0  0  0  0  0
   -0.3425   -1.4285   -1.5264 N   0  0  0  0  0  0  0  0  0  0  0  0
   -0.6740   -2.7045   -0.9444 C   0  0  0  0  0  0  0  0  0  0  0  0
    0.2093   -3.7912   -1.0559 C   0  0  0  0  0  0  0  0  0  0  0  0
   -0.1349   -5.0403   -0.5341 C   0  0  0  0  0  0  0  0  0  0  0  0
   -1.3643   -5.2187    0.1070 C   0  0  0  0  0  0  0  0  0  0  0  0
   -1.8199   -6.8301    0.7394 S   0  0  0  0  0  0  0  0  0  0  0  0
   -2.3423   -7.4533   -0.8897 C   0  0  0  0  0  0  0  0  0  0  0  0
   -2.2410   -4.1368    0.2445 C   0  0  0  0  0  0  0  0  0  0  0  0
   -1.8948   -2.8829   -0.2688 C   0  0  0  0  0  0  0  0  0  0  0  0
    0.2360   -1.3624   -2.8436 C   0  0  0  0  0  0  0  0  0  0  0  0
   -0.2045   -2.2379   -3.8526 C   0  0  0  0  0  0  0  0  0  0  0  0
    0.4550   -2.2971   -5.0830 C   0  0  0  0  0  0  0  0  0  0  0  0
    1.5586   -1.4737   -5.3263 C   0  0  0  0  0  0  0  0  0  0  0  0
    2.4968   -1.6486   -6.8497 S   0  0  0  0  0  0  0  0  0  0  0  0
    1.3926   -0.5672   -7.8092 C   0  0  0  0  0  0  0  0  0  0  0  0
    1.9781   -0.5631   -4.3538 C   0  0  0  0  0  0  0  0  0  0  0  0
    1.3235   -0.5044   -3.1151 C   0  0  0  0  0  0  0  0  0  0  0  0
    0.3823   -0.1490    0.4839 C   0  0  0  0  0  0  0  0  0  0  0  0
    1.4725   -1.1333    1.2735 S   0  0  0  0  0  0  0  0  0  0  0  0
   -2.1408    1.1203   -1.9594 C   0  0  0  0  0  0  0  0  0  0  0  0
   -2.8354    2.3144   -2.0866 C   0  0  0  0  0  0  0  0  0  0  0  0
   -4.0109    2.2030   -2.8435 C   0  0  0  0  0  0  0  0  0  0  0  0
   -4.9994    3.2013   -2.9915 C   0  0  0  0  0  0  0  0  0  0  0  0
   -4.8263    4.5574   -2.4172 C   0  0  0  0  0  0  0  0  0  0  0  0
   -4.5729    4.7081   -1.0530 C   0  0  0  0  0  0  0  0  0  0  0  0
   -4.0933    5.9187   -0.5577 C   0  0  0  0  0  0  0  0  0  0  0  0
   -3.9228    7.0204   -1.4170 C   0  0  0  0  0  0  0  0  0  0  0  0
   -3.3075    8.2082   -0.9806 O   0  0  0  0  0  0  0  0  0  0  0  0
   -2.4274    8.3158    0.1424 C   0  0  0  0  0  0  0  0  0  0  0  0
   -1.1264    7.5583   -0.1173 C   0  0  0  0  0  0  0  0  0  0  0  0
   -4.3631    6.9272   -2.7551 C   0  0  0  0  0  0  0  0  0  0  0  0
   -4.2542    8.1106   -3.6874 C   0  0  0  0  0  0  0  0  0  0  0  0
   -2.9451    8.2363   -4.1052 F   0  0  0  0  0  0  0  0  0  0  0  0
   -4.6338    9.2739   -3.0444 F   0  0  0  0  0  0  0  0  0  0  0  0
   -5.0680    7.9554   -4.7956 F   0  0  0  0  0  0  0  0  0  0  0  0
   -4.7673    5.6763   -3.2552 C   0  0  0  0  0  0  0  0  0  0  0  0
   -6.1723    2.8264   -3.6567 C   0  0  0  0  0  0  0  0  0  0  0  0
   -6.3625    1.5494   -4.1992 C   0  0  0  0  0  0  0  0  0  0  0  0
   -5.3307    0.5821   -4.1212 C   0  0  0  0  0  0  0  0  0  0  0  0
   -5.3583   -0.6598   -4.9260 C   0  0  0  0  0  0  0  0  0  0  0  0
   -6.3898   -1.5996   -4.8028 C   0  0  0  0  0  0  0  0  0  0  0  0
   -6.5078   -2.6387   -5.7298 C   0  0  0  0  0  0  0  0  0  0  0  0
   -5.5699   -2.7735   -6.7737 C   0  0  0  0  0  0  0  0  0  0  0  0
   -5.7369   -3.7178   -7.7996 O   0  0  0  0  0  0  0  0  0  0  0  0
   -6.9963   -4.2452   -8.2216 C   0  0  0  0  0  0  0  0  0  0  0  0
   -7.8862   -3.1357   -8.7799 C   0  0  0  0  0  0  0  0  0  0  0  0
   -4.4506   -1.9176   -6.8139 C   0  0  0  0  0  0  0  0  0  0  0  0
   -4.3691   -0.8494   -5.9060 C   0  0  0  0  0  0  0  0  0  0  0  0
   -3.4165   -2.0722   -7.9041 C   0  0  0  0  0  0  0  0  0  0  0  0
   -2.9952   -3.3897   -7.9680 F   0  0  0  0  0  0  0  0  0  0  0  0
   -3.9752   -1.7099   -9.1166 F   0  0  0  0  0  0  0  0  0  0  0  0
   -2.3090   -1.2706   -7.6764 F   0  0  0  0  0  0  0  0  0  0  0  0
   -4.1854    0.9338   -3.3862 C   0  0  0  0  0  0  0  0  0  0  0  0
   -2.9269   -0.0698   -2.8714 S   0  0  0  0  0  0  0  0  0  0  0  0
   -7.6644    1.3599   -4.7002 C   0  0  0  0  0  0  0  0  0  0  0  0
   -8.5031    2.4549   -4.4808 C   0  0  0  0  0  0  0  0  0  0  0  0
   -7.6097    3.6834   -3.7549 S   0  0  0  0  0  0  0  0  0  0  0  0
   -9.9775    2.4774   -4.4694 C   0  0  0  0  0  0  0  0  0  0  0  0
  -10.6595    1.6440   -3.6643 C   0  0  0  0  0  0  0  0  0  0  0  0
  -11.3313    2.1498   -2.4623 C   0  0  0  0  0  0  0  0  0  0  0  0
  -11.8333    3.2973   -2.3247 O   0  0  0  0  0  0  0  0  0  0  0  0
  -11.2081    1.1563   -1.4046 C   0  0  0  0  0  0  0  0  0  0  0  0
  -11.5065    1.3077   -0.0305 C   0  0  0  0  0  0  0  0  0  0  0  0
  -11.1099    0.2324    0.7516 C   0  0  0  0  0  0  0  0  0  0  0  0
  -10.4542   -0.9200    0.2164 C   0  0  0  0  0  0  0  0  0  0  0  0
  -10.1674   -1.0769   -1.1297 C   0  0  0  0  0  0  0  0  0  0  0  0
  -10.5844    0.0098   -1.9403 C   0  0  0  0  0  0  0  0  0  0  0  0
  -10.3510    0.2100   -3.3845 C   0  0  0  0  0  0  0  0  0  0  0  0
  -10.3844   -0.7586   -4.3274 C   0  0  0  0  0  0  0  0  0  0  0  0
  -10.3754   -0.4313   -5.7295 C   0  0  0  0  0  0  0  0  0  0  0  0
  -10.3633   -0.1559   -6.8487 N   0  0  0  0  0  0  0  0  0  0  0  0
  -10.7515   -2.1172   -3.9992 C   0  0  0  0  0  0  0  0  0  0  0  0
  -11.1381   -3.1745   -3.7571 N   0  0  0  0  0  0  0  0  0  0  0  0
  -10.3300   -1.5092    1.5895 C   0  0  0  0  0  0  0  0  0  0  0  0
   -8.9194   -1.4556    2.2441 C   0  0  0  0  0  0  0  0  0  0  0  0
   -9.1364   -1.7406    3.7125 C   0  0  0  0  0  0  0  0  0  0  0  0
   -9.7572   -0.6686    4.2206 C   0  0  0  0  0  0  0  0  0  0  0  0
   -9.9341    0.3070    3.0790 C   0  0  0  0  0  0  0  0  0  0  0  0
   -8.6335    0.0356    2.3400 C   0  0  0  0  0  0  0  0  0  0  0  0
  -11.0052   -0.3271    2.1404 C   0  0  0  0  0  0  0  0  0  0  0  0
   10.3999   -4.5302    1.5442 H   0  0  0  0  0  0  0  0  0  0  0  0
   11.8535   -1.7939   -2.9641 H   0  0  0  0  0  0  0  0  0  0  0  0
    7.4376    0.2597   -1.4175 H   0  0  0  0  0  0  0  0  0  0  0  0
    9.3489    2.4548   -3.2971 H   0  0  0  0  0  0  0  0  0  0  0  0
    7.4301    2.0451   -4.9776 H   0  0  0  0  0  0  0  0  0  0  0  0
    7.0646   -0.5722   -5.3294 H   0  0  0  0  0  0  0  0  0  0  0  0
    9.3012   -1.5950   -6.1716 H   0  0  0  0  0  0  0  0  0  0  0  0
   11.1010    0.3502   -6.3429 H   0  0  0  0  0  0  0  0  0  0  0  0
    9.8297    2.6769   -5.9635 H   0  0  0  0  0  0  0  0  0  0  0  0
    8.9144    1.6155   -7.1200 H   0  0  0  0  0  0  0  0  0  0  0  0
   11.3797    1.5280   -4.0569 H   0  0  0  0  0  0  0  0  0  0  0  0
    9.2226   -1.3549    2.4904 H   0  0  0  0  0  0  0  0  0  0  0  0
    7.6305    0.4662    1.2687 H   0  0  0  0  0  0  0  0  0  0  0  0
    9.2628    2.2575    1.0103 H   0  0  0  0  0  0  0  0  0  0  0  0
   11.4398    2.9745    1.2943 H   0  0  0  0  0  0  0  0  0  0  0  0
   12.2274    4.3063    2.2025 H   0  0  0  0  0  0  0  0  0  0  0  0
   10.4531    5.8979    1.6187 H   0  0  0  0  0  0  0  0  0  0  0  0
    9.5203    4.6159    0.7595 H   0  0  0  0  0  0  0  0  0  0  0  0
   11.1211    5.1441    0.1225 H   0  0  0  0  0  0  0  0  0  0  0  0
    7.6496    1.0003    5.5259 H   0  0  0  0  0  0  0  0  0  0  0  0
    5.5374   -4.5265    6.3041 H   0  0  0  0  0  0  0  0  0  0  0  0
    4.2942   -6.5325    6.9085 H   0  0  0  0  0  0  0  0  0  0  0  0
    2.1739   -7.6164    7.5414 H   0  0  0  0  0  0  0  0  0  0  0  0
    3.3961   -8.7842    6.8758 H   0  0  0  0  0  0  0  0  0  0  0  0
    1.5759  -10.2244    6.0183 H   0  0  0  0  0  0  0  0  0  0  0  0
    0.3336   -9.0490    6.6036 H   0  0  0  0  0  0  0  0  0  0  0  0
    1.3663   -9.9328    7.7884 H   0  0  0  0  0  0  0  0  0  0  0  0
    3.3964   -4.2557    2.5966 H   0  0  0  0  0  0  0  0  0  0  0  0
    2.5081   -2.3288    3.9187 H   0  0  0  0  0  0  0  0  0  0  0  0
   -1.0944    0.9235    4.5152 H   0  0  0  0  0  0  0  0  0  0  0  0
   -3.3830    1.7525    4.9424 H   0  0  0  0  0  0  0  0  0  0  0  0
   -5.1987    2.3277    2.8578 H   0  0  0  0  0  0  0  0  0  0  0  0
   -6.4209    3.6550    2.6633 H   0  0  0  0  0  0  0  0  0  0  0  0
   -4.7954    3.8093    1.8965 H   0  0  0  0  0  0  0  0  0  0  0  0
   -2.3920    5.4794    3.0252 H   0  0  0  0  0  0  0  0  0  0  0  0
   -0.0908    4.6650    2.6320 H   0  0  0  0  0  0  0  0  0  0  0  0
    1.4021    1.9316    5.8637 H   0  0  0  0  0  0  0  0  0  0  0  0
    3.1806    3.0620    7.1493 H   0  0  0  0  0  0  0  0  0  0  0  0
    3.9297    6.9679    5.9961 H   0  0  0  0  0  0  0  0  0  0  0  0
    4.6475    6.9393    7.6571 H   0  0  0  0  0  0  0  0  0  0  0  0
    3.1955    5.9409    7.2903 H   0  0  0  0  0  0  0  0  0  0  0  0
    4.5391    5.0144    3.5622 H   0  0  0  0  0  0  0  0  0  0  0  0
    2.7685    3.8643    2.2671 H   0  0  0  0  0  0  0  0  0  0  0  0
    1.1644   -3.6696   -1.5494 H   0  0  0  0  0  0  0  0  0  0  0  0
    0.5529   -5.8721   -0.6332 H   0  0  0  0  0  0  0  0  0  0  0  0
   -2.9578   -8.3647   -0.7554 H   0  0  0  0  0  0  0  0  0  0  0  0
   -2.9473   -6.6949   -1.4291 H   0  0  0  0  0  0  0  0  0  0  0  0
   -1.4440   -7.7051   -1.4942 H   0  0  0  0  0  0  0  0  0  0  0  0
   -3.1937   -4.2669    0.7445 H   0  0  0  0  0  0  0  0  0  0  0  0
   -2.5868   -2.0518   -0.1646 H   0  0  0  0  0  0  0  0  0  0  0  0
   -1.0438   -2.8993   -3.6772 H   0  0  0  0  0  0  0  0  0  0  0  0
    0.1252   -3.0011   -5.8354 H   0  0  0  0  0  0  0  0  0  0  0  0
    1.2669    0.4144   -7.3031 H   0  0  0  0  0  0  0  0  0  0  0  0
    0.4042   -1.0572   -7.9295 H   0  0  0  0  0  0  0  0  0  0  0  0
    1.8369   -0.4085   -8.8150 H   0  0  0  0  0  0  0  0  0  0  0  0
    2.8360    0.0726   -4.5324 H   0  0  0  0  0  0  0  0  0  0  0  0
    1.6993    0.1719   -2.3564 H   0  0  0  0  0  0  0  0  0  0  0  0
   -2.5312    3.2207   -1.5823 H   0  0  0  0  0  0  0  0  0  0  0  0
   -4.6554    3.8493   -0.3939 H   0  0  0  0  0  0  0  0  0  0  0  0
   -3.8226    5.9715    0.4898 H   0  0  0  0  0  0  0  0  0  0  0  0
   -2.9163    7.9490    1.0705 H   0  0  0  0  0  0  0  0  0  0  0  0
   -2.1807    9.3864    0.2957 H   0  0  0  0  0  0  0  0  0  0  0  0
   -0.4730    7.6234    0.7764 H   0  0  0  0  0  0  0  0  0  0  0  0
   -1.3201    6.4884   -0.3366 H   0  0  0  0  0  0  0  0  0  0  0  0
   -0.5988    8.0076   -0.9874 H   0  0  0  0  0  0  0  0  0  0  0  0
   -4.9675    5.5514   -4.3141 H   0  0  0  0  0  0  0  0  0  0  0  0
   -7.1428   -1.4929   -4.0261 H   0  0  0  0  0  0  0  0  0  0  0  0
   -7.3461   -3.3185   -5.6415 H   0  0  0  0  0  0  0  0  0  0  0  0
   -6.8067   -4.9780   -9.0317 H   0  0  0  0  0  0  0  0  0  0  0  0
   -7.5053   -4.7836   -7.3938 H   0  0  0  0  0  0  0  0  0  0  0  0
   -7.3415   -2.5577   -9.5600 H   0  0  0  0  0  0  0  0  0  0  0  0
   -8.1925   -2.4325   -7.9736 H   0  0  0  0  0  0  0  0  0  0  0  0
   -8.8012   -3.5795   -9.2254 H   0  0  0  0  0  0  0  0  0  0  0  0
   -3.5718   -0.1226   -5.9848 H   0  0  0  0  0  0  0  0  0  0  0  0
   -8.0054    0.4300   -5.1189 H   0  0  0  0  0  0  0  0  0  0  0  0
  -10.3616    3.4847   -4.5303 H   0  0  0  0  0  0  0  0  0  0  0  0
  -11.9589    2.2026    0.3901 H   0  0  0  0  0  0  0  0  0  0  0  0
   -9.6294   -1.9371   -1.5002 H   0  0  0  0  0  0  0  0  0  0  0  0
  -10.8809   -2.4682    1.7257 H   0  0  0  0  0  0  0  0  0  0  0  0
   -8.1331   -2.0658    1.7495 H   0  0  0  0  0  0  0  0  0  0  0  0
   -8.7828   -2.5976    4.2738 H   0  0  0  0  0  0  0  0  0  0  0  0
   -9.9904   -0.5054    5.2651 H   0  0  0  0  0  0  0  0  0  0  0  0
  -10.1192    1.3578    3.3761 H   0  0  0  0  0  0  0  0  0  0  0  0
   -8.5511    0.5421    1.3546 H   0  0  0  0  0  0  0  0  0  0  0  0
   -7.7279    0.2805    2.9384 H   0  0  0  0  0  0  0  0  0  0  0  0
  -11.9859   -0.5312    2.6104 H   0  0  0  0  0  0  0  0  0  0  0  0
  1  2  2  3
  2  3  1  0
  3  4  2  0
  3  5  1  0
  5  6  2  0
  6  7  1  0
  7  8  2  0
  8  9  1  0
  9 10  2  0
 10 11  1  0
 11 12  2  3
 12 13  1  0
 13 14  3  0
 12 15  1  0
 15 16  3  0
  8 17  1  0
 17 18  1  0
 18 19  1  0
 19 20  2  0
 20 21  1  0
 21 22  1  0
 21 23  1  0
  1 24  1  0
 24 25  2  0
 25 26  1  0
 26 27  2  0
 27 28  1  0
 28 29  2  0
 29 30  1  0
 30 31  2  0
 31 32  1  0
 32 33  1  0
 33 34  1  0
 31 35  1  0
 35 36  1  0
 36 37  1  0
 36 38  1  0
 36 39  1  0
 35 40  2  0
 27 41  1  0
 41 42  2  0
 42 43  1  0
 43 44  1  0
 44 45  2  0
 45 46  1  0
 46 47  2  0
 47 48  1  0
 48 49  1  0
 49 50  1  0
 47 51  1  0
 51 52  2  0
 51 53  1  0
 53 54  1  0
 53 55  1  0
 53 56  1  0
 43 57  2  0
 57 58  1  0
 42 59  1  0
 59 60  2  0
 60 61  1  0
 60 62  1  0
 62 63  2  0
 63 64  1  0
 64 65  1  0
 65 66  2  0
 66 67  1  0
 67 68  2  0
 68 69  1  0
 69 70  1  0
 68 71  1  0
 71 72  2  0
 64 73  1  0
 73 74  2  0
 74 75  1  0
 75 76  2  0
 76 77  1  0
 77 78  1  0
 76 79  1  0
 79 80  2  0
 63 81  1  0
 81 82  1  0
 82 83  1  0
 83 84  2  0
 84 85  1  0
 85 86  1  0
 86 87  2  0
 87 88  1  0
 88 89  2  0
 89 90  1  0
 90 91  1  0
 89 92  1  0
 92 93  2  0
 85 94  1  0
 94 95  2  0
 95 96  1  0
 96 97  2  0
 97 98  1  0
 98 99  1  0
 97100  1  0
100101  2  0
 84102  1  0
102103  1  0
 83104  1  0
104105  2  0
105106  1  0
106107  2  0
107108  1  0
108109  2  0
109110  1  0
110111  2  0
111112  1  0
112113  1  0
113114  1  0
111115  1  0
115116  1  0
116117  1  0
116118  1  0
116119  1  0
115120  2  0
107121  1  0
121122  2  0
122123  1  0
123124  1  0
124125  2  0
125126  1  0
126127  2  0
127128  1  0
128129  1  0
129130  1  0
127131  1  0
131132  2  0
131133  1  0
133134  1  0
133135  1  0
133136  1  0
123137  2  0
137138  1  0
122139  1  0
139140  2  0
140141  1  0
140142  1  0
142143  2  3
143144  1  0
144145  2  0
144146  1  0
146147  2  0
147148  1  0
148149  2  0
149150  1  0
150151  2  0
151152  1  0
152153  2  3
153154  1  0
154155  3  0
153156  1  0
156157  3  0
149158  1  0
158159  1  0
159160  1  0
160161  2  0
161162  1  0
162163  1  0
162164  1  0
 11  2  1  0
 23 17  1  0
 58 24  1  0
103 62  1  0
138104  1  0
152143  1  0
164158  1  0
 10  5  1  0
 22 18  1  0
 57 26  1  0
 72 65  1  0
 80 73  1  0
102 81  2  0
137106  1  0
151146  1  0
163159  1  0
 23  7  1  0
 40 28  1  0
 61 41  1  0
 93 86  1  0
101 94  1  0
120108  1  0
141121  1  0
164148  1  0
 52 44  1  0
132124  1  0
  1165  1  0
  6166  1  0
  9167  1  0
 17168  1  0
 18169  1  0
 19170  1  0
 20171  1  0
 21172  1  0
 22173  1  0
 22174  1  0
 23175  1  0
 25176  1  0
 29177  1  0
 30178  1  0
 33179  1  0
 33180  1  0
 34181  1  0
 34182  1  0
 34183  1  0
 40184  1  0
 45185  1  0
 46186  1  0
 49187  1  0
 49188  1  0
 50189  1  0
 50190  1  0
 50191  1  0
 52192  1  0
 59193  1  0
 66194  1  0
 67195  1  0
 70196  1  0
 70197  1  0
 70198  1  0
 71199  1  0
 72200  1  0
 74201  1  0
 75202  1  0
 78203  1  0
 78204  1  0
 78205  1  0
 79206  1  0
 80207  1  0
 87208  1  0
 88209  1  0
 91210  1  0
 91211  1  0
 91212  1  0
 92213  1  0
 93214  1  0
 95215  1  0
 96216  1  0
 99217  1  0
 99218  1  0
 99219  1  0
100220  1  0
101221  1  0
105222  1  0
109223  1  0
110224  1  0
113225  1  0
113226  1  0
114227  1  0
114228  1  0
114229  1  0
120230  1  0
125231  1  0
126232  1  0
129233  1  0
129234  1  0
130235  1  0
130236  1  0
130237  1  0
132238  1  0
139239  1  0
142240  1  0
147241  1  0
150242  1  0
158243  1  0
159244  1  0
160245  1  0
161246  1  0
162247  1  0
163248  1  0
163249  1  0
164250  1  0
M  END

