
     RDKit          3D

214236  0  0  0  0  0  0  0  0999 V2000
   -3.3312   -2.6446    6.4985 C   0  0  0  0  0  0  0  0  0  0  0  0
   -2.6963   -3.4871    7.3375 C   0  0  0  0  0  0  0  0  0  0  0  0
   -3.4275   -4.2780    8.3252 C   0  0  0  0  0  0  0  0  0  0  0  0
   -4.5407   -3.9723    8.8274 O   0  0  0  0  0  0  0  0  0  0  0  0
   -2.7532   -5.5483    8.4786 C   0  0  0  0  0  0  0  0  0  0  0  0
   -3.3021   -6.7375    9.0197 C   0  0  0  0  0  0  0  0  0  0  0  0
   -2.5721   -7.8740    8.7258 C   0  0  0  0  0  0  0  0  0  0  0  0
   -1.3717   -7.8543    7.9453 C   0  0  0  0  0  0  0  0  0  0  0  0
   -0.8194   -6.6977    7.4228 C   0  0  0  0  0  0  0  0  0  0  0  0
   -1.5513   -5.5179    7.7171 C   0  0  0  0  0  0  0  0  0  0  0  0
   -1.3894   -4.1729    7.1311 C   0  0  0  0  0  0  0  0  0  0  0  0
   -0.2303   -3.5833    6.7586 C   0  0  0  0  0  0  0  0  0  0  0  0
    1.0228   -4.2931    6.7788 C   0  0  0  0  0  0  0  0  0  0  0  0
    2.0324   -4.8597    6.7964 N   0  0  0  0  0  0  0  0  0  0  0  0
   -0.1528   -2.1795    6.4528 C   0  0  0  0  0  0  0  0  0  0  0  0
   -0.0973   -1.0518    6.1989 N   0  0  0  0  0  0  0  0  0  0  0  0
   -1.3093   -9.3539    7.9688 C   0  0  0  0  0  0  0  0  0  0  0  0
   -1.7150  -10.1084    6.6631 C   0  0  0  0  0  0  0  0  0  0  0  0
   -2.7560   -9.3107    5.9035 C   0  0  0  0  0  0  0  0  0  0  0  0
   -3.8706   -9.3364    6.6388 C   0  0  0  0  0  0  0  0  0  0  0  0
   -3.5526  -10.1472    7.8729 C   0  0  0  0  0  0  0  0  0  0  0  0
   -2.6276  -11.1791    7.2484 C   0  0  0  0  0  0  0  0  0  0  0  0
   -2.5362   -9.3704    8.7738 C   0  0  0  0  0  0  0  0  0  0  0  0
   -2.8985   -2.3330    5.1187 C   0  0  0  0  0  0  0  0  0  0  0  0
   -2.4380   -3.3396    4.2364 C   0  0  0  0  0  0  0  0  0  0  0  0
   -2.4438   -4.6416    4.6046 F   0  0  0  0  0  0  0  0  0  0  0  0
   -1.9262   -3.0048    2.9734 C   0  0  0  0  0  0  0  0  0  0  0  0
   -1.3046   -3.9565    2.2399 F   0  0  0  0  0  0  0  0  0  0  0  0
   -2.0069   -1.6870    2.5170 C   0  0  0  0  0  0  0  0  0  0  0  0
   -2.6466   -0.7248    3.3177 C   0  0  0  0  0  0  0  0  0  0  0  0
   -2.8350    0.5309    2.8489 N   0  0  0  0  0  0  0  0  0  0  0  0
   -3.2122    1.5675    3.6329 C   0  0  0  0  0  0  0  0  0  0  0  0
   -3.4727    2.8815    2.9560 C   0  0  0  0  0  0  0  0  0  0  0  0
   -4.1248    3.9684    3.5845 C   0  0  0  0  0  0  0  0  0  0  0  0
   -4.3945    5.1443    2.8778 C   0  0  0  0  0  0  0  0  0  0  0  0
   -4.1009    5.2399    1.5016 C   0  0  0  0  0  0  0  0  0  0  0  0
   -4.4061    6.3794    0.7402 O   0  0  0  0  0  0  0  0  0  0  0  0
   -4.7237    7.6647    1.2757 C   0  0  0  0  0  0  0  0  0  0  0  0
   -3.4679    8.3342    1.8300 C   0  0  0  0  0  0  0  0  0  0  0  0
   -3.5071    4.1516    0.8581 C   0  0  0  0  0  0  0  0  0  0  0  0
   -3.1800    3.0011    1.5747 C   0  0  0  0  0  0  0  0  0  0  0  0
   -3.2550    4.2054   -0.4779 F   0  0  0  0  0  0  0  0  0  0  0  0
   -3.3191    1.3204    5.0271 C   0  0  0  0  0  0  0  0  0  0  0  0
   -3.2754    0.0314    5.4742 N   0  0  0  0  0  0  0  0  0  0  0  0
   -2.9937   -1.0130    4.6444 C   0  0  0  0  0  0  0  0  0  0  0  0
   -3.1009    2.3912    6.0197 C   0  0  0  0  0  0  0  0  0  0  0  0
   -4.0387    2.6531    7.0268 C   0  0  0  0  0  0  0  0  0  0  0  0
   -3.8251    3.7021    7.9334 C   0  0  0  0  0  0  0  0  0  0  0  0
   -2.6484    4.4755    7.8572 C   0  0  0  0  0  0  0  0  0  0  0  0
   -2.3862    5.5553    8.7161 O   0  0  0  0  0  0  0  0  0  0  0  0
   -3.2797    6.0459    9.7096 C   0  0  0  0  0  0  0  0  0  0  0  0
   -2.6792    7.2773   10.3633 C   0  0  0  0  0  0  0  0  0  0  0  0
   -1.6877    4.1628    6.8884 C   0  0  0  0  0  0  0  0  0  0  0  0
   -0.5403    4.8833    6.8145 F   0  0  0  0  0  0  0  0  0  0  0  0
   -1.9143    3.1366    5.9681 C   0  0  0  0  0  0  0  0  0  0  0  0
   -1.1949   -1.1962    1.3866 C   0  0  0  0  0  0  0  0  0  0  0  0
   -1.4293   -1.3960    0.0116 C   0  0  0  0  0  0  0  0  0  0  0  0
   -1.9862   -2.5982   -0.5397 N   0  0  0  0  0  0  0  0  0  0  0  0
   -3.3225   -2.5604   -1.0726 C   0  0  0  0  0  0  0  0  0  0  0  0
   -4.4098   -2.2608   -0.2359 C   0  0  0  0  0  0  0  0  0  0  0  0
   -5.7153   -2.3266   -0.7322 C   0  0  0  0  0  0  0  0  0  0  0  0
   -5.9422   -2.6742   -2.0708 C   0  0  0  0  0  0  0  0  0  0  0  0
   -7.6127   -2.8128   -2.7002 S   0  0  0  0  0  0  0  0  0  0  0  0
   -7.6990   -4.6107   -2.4144 C   0  0  0  0  0  0  0  0  0  0  0  0
   -4.8578   -2.9369   -2.9165 C   0  0  0  0  0  0  0  0  0  0  0  0
   -3.5521   -2.8852   -2.4177 C   0  0  0  0  0  0  0  0  0  0  0  0
   -1.1600   -3.7858   -0.6743 C   0  0  0  0  0  0  0  0  0  0  0  0
   -1.7498   -5.0588   -0.8258 C   0  0  0  0  0  0  0  0  0  0  0  0
   -0.9553   -6.2072   -0.9324 C   0  0  0  0  0  0  0  0  0  0  0  0
    0.4385   -6.1054   -0.8949 C   0  0  0  0  0  0  0  0  0  0  0  0
    1.4492   -7.5746   -1.0626 S   0  0  0  0  0  0  0  0  0  0  0  0
    1.6173   -7.8246    0.7333 C   0  0  0  0  0  0  0  0  0  0  0  0
    1.0383   -4.8531   -0.7378 C   0  0  0  0  0  0  0  0  0  0  0  0
    0.2470   -3.7032   -0.6164 C   0  0  0  0  0  0  0  0  0  0  0  0
   -0.7579   -0.4440   -0.7604 C   0  0  0  0  0  0  0  0  0  0  0  0
   -0.5878   -0.1246   -2.4021 S   0  0  0  0  0  0  0  0  0  0  0  0
    0.4868    1.1843   -2.1640 C   0  0  0  0  0  0  0  0  0  0  0  0
    0.7312    1.3411   -0.7939 C   0  0  0  0  0  0  0  0  0  0  0  0
    1.6657    2.2746   -0.2208 N   0  0  0  0  0  0  0  0  0  0  0  0
    1.5666    3.6802   -0.5336 C   0  0  0  0  0  0  0  0  0  0  0  0
    0.3101    4.2969   -0.6392 C   0  0  0  0  0  0  0  0  0  0  0  0
    0.2118    5.6585   -0.9346 C   0  0  0  0  0  0  0  0  0  0  0  0
    1.3719    6.4133   -1.1445 C   0  0  0  0  0  0  0  0  0  0  0  0
    1.2533    8.1691   -1.4776 S   0  0  0  0  0  0  0  0  0  0  0  0
    1.3749    8.6238    0.2795 C   0  0  0  0  0  0  0  0  0  0  0  0
    2.6287    5.8018   -1.0547 C   0  0  0  0  0  0  0  0  0  0  0  0
    2.7260    4.4394   -0.7435 C   0  0  0  0  0  0  0  0  0  0  0  0
    2.5784    1.7961    0.7871 C   0  0  0  0  0  0  0  0  0  0  0  0
    2.6805    2.4543    2.0234 C   0  0  0  0  0  0  0  0  0  0  0  0
    3.3963    1.8771    3.0768 C   0  0  0  0  0  0  0  0  0  0  0  0
    4.0221    0.6387    2.9011 C   0  0  0  0  0  0  0  0  0  0  0  0
    4.8396   -0.1625    4.2848 S   0  0  0  0  0  0  0  0  0  0  0  0
    3.3376   -1.0650    4.7834 C   0  0  0  0  0  0  0  0  0  0  0  0
    3.9788    0.0036    1.6556 C   0  0  0  0  0  0  0  0  0  0  0  0
    3.2601    0.5773    0.6065 C   0  0  0  0  0  0  0  0  0  0  0  0
    0.0055    0.4222   -0.0512 C   0  0  0  0  0  0  0  0  0  0  0  0
   -0.1127    0.1090    1.5812 S   0  0  0  0  0  0  0  0  0  0  0  0
    1.2233    1.8873   -3.2252 C   0  0  0  0  0  0  0  0  0  0  0  0
    2.8999    1.9569   -3.3089 S   0  0  0  0  0  0  0  0  0  0  0  0
    2.9797    2.8624   -4.7128 C   0  0  0  0  0  0  0  0  0  0  0  0
    1.6816    3.1383   -5.1469 C   0  0  0  0  0  0  0  0  0  0  0  0
    1.3199    3.8984   -6.3561 C   0  0  0  0  0  0  0  0  0  0  0  0
    2.2046    4.4660   -7.0487 O   0  0  0  0  0  0  0  0  0  0  0  0
   -0.1142    3.9725   -6.7247 C   0  0  0  0  0  0  0  0  0  0  0  0
   -0.6325    4.5168   -7.9115 C   0  0  0  0  0  0  0  0  0  0  0  0
    0.1203    5.1362   -9.0589 C   0  0  0  0  0  0  0  0  0  0  0  0
    0.7634    4.0642   -9.9329 C   0  0  0  0  0  0  0  0  0  0  0  0
   -2.2990    4.3354   -7.8762 S   0  0  0  0  0  0  0  0  0  0  0  0
   -2.4106    3.5934   -6.3699 C   0  0  0  0  0  0  0  0  0  0  0  0
   -3.7101    3.1775   -5.7345 C   0  0  0  0  0  0  0  0  0  0  0  0
   -3.8479    1.6585   -5.6540 C   0  0  0  0  0  0  0  0  0  0  0  0
   -1.1108    3.4697   -5.8584 C   0  0  0  0  0  0  0  0  0  0  0  0
   -0.7339    2.8844   -4.5477 C   0  0  0  0  0  0  0  0  0  0  0  0
   -1.5932    2.6926   -3.6447 O   0  0  0  0  0  0  0  0  0  0  0  0
    0.6940    2.6066   -4.2973 C   0  0  0  0  0  0  0  0  0  0  0  0
    4.2362    3.2130   -5.3835 C   0  0  0  0  0  0  0  0  0  0  0  0
    4.6961    2.5400   -6.4493 C   0  0  0  0  0  0  0  0  0  0  0  0
    4.1145    1.2991   -6.9885 C   0  0  0  0  0  0  0  0  0  0  0  0
    2.9357    0.8886   -6.8251 O   0  0  0  0  0  0  0  0  0  0  0  0
    5.1600    0.5669   -7.6714 C   0  0  0  0  0  0  0  0  0  0  0  0
    5.1006   -0.7658   -8.1388 C   0  0  0  0  0  0  0  0  0  0  0  0
    6.3267   -1.2859   -8.5024 C   0  0  0  0  0  0  0  0  0  0  0  0
    7.5499   -0.5453   -8.4092 C   0  0  0  0  0  0  0  0  0  0  0  0
    7.6147    0.7719   -7.9760 C   0  0  0  0  0  0  0  0  0  0  0  0
    6.3559    1.3319   -7.6278 C   0  0  0  0  0  0  0  0  0  0  0  0
    6.0699    2.6509   -7.0106 C   0  0  0  0  0  0  0  0  0  0  0  0
    6.7779    3.7937   -7.1693 C   0  0  0  0  0  0  0  0  0  0  0  0
    8.0237    3.8285   -7.8965 C   0  0  0  0  0  0  0  0  0  0  0  0
    9.0215    3.8685   -8.4789 N   0  0  0  0  0  0  0  0  0  0  0  0
    6.2538    5.0709   -6.7639 C   0  0  0  0  0  0  0  0  0  0  0  0
    5.8358    6.0979   -6.4341 N   0  0  0  0  0  0  0  0  0  0  0  0
    8.3375   -1.7613   -8.8082 C   0  0  0  0  0  0  0  0  0  0  0  0
    9.0976   -2.4949   -7.6651 C   0  0  0  0  0  0  0  0  0  0  0  0
    9.4673   -3.8489   -8.2170 C   0  0  0  0  0  0  0  0  0  0  0  0
    8.3274   -4.5386   -8.3275 C   0  0  0  0  0  0  0  0  0  0  0  0
    7.2282   -3.6271   -7.8415 C   0  0  0  0  0  0  0  0  0  0  0  0
    7.9844   -2.9233   -6.7261 C   0  0  0  0  0  0  0  0  0  0  0  0
    7.0830   -2.5123   -8.9167 C   0  0  0  0  0  0  0  0  0  0  0  0
   -4.2886   -2.2438    6.8059 H   0  0  0  0  0  0  0  0  0  0  0  0
   -4.2620   -6.7703    9.5086 H   0  0  0  0  0  0  0  0  0  0  0  0
    0.0205   -6.7338    6.7428 H   0  0  0  0  0  0  0  0  0  0  0  0
   -0.4155   -9.7594    8.4927 H   0  0  0  0  0  0  0  0  0  0  0  0
   -0.8738  -10.4860    6.0493 H   0  0  0  0  0  0  0  0  0  0  0  0
   -2.6609   -8.8917    4.9087 H   0  0  0  0  0  0  0  0  0  0  0  0
   -4.8361   -8.9328    6.3422 H   0  0  0  0  0  0  0  0  0  0  0  0
   -4.4370  -10.5604    8.4042 H   0  0  0  0  0  0  0  0  0  0  0  0
   -2.1099  -11.8309    7.9892 H   0  0  0  0  0  0  0  0  0  0  0  0
   -3.1251  -11.8021    6.4699 H   0  0  0  0  0  0  0  0  0  0  0  0
   -2.4014   -9.7883    9.7984 H   0  0  0  0  0  0  0  0  0  0  0  0
   -4.4752    3.9148    4.5963 H   0  0  0  0  0  0  0  0  0  0  0  0
   -4.8748    5.9566    3.4024 H   0  0  0  0  0  0  0  0  0  0  0  0
   -5.5159    7.5948    2.0500 H   0  0  0  0  0  0  0  0  0  0  0  0
   -5.1178    8.2963    0.4508 H   0  0  0  0  0  0  0  0  0  0  0  0
   -2.7129    8.4456    1.0221 H   0  0  0  0  0  0  0  0  0  0  0  0
   -3.0327    7.7238    2.6501 H   0  0  0  0  0  0  0  0  0  0  0  0
   -3.7202    9.3379    2.2270 H   0  0  0  0  0  0  0  0  0  0  0  0
   -2.6989    2.1939    1.0385 H   0  0  0  0  0  0  0  0  0  0  0  0
   -4.9523    2.0685    7.0835 H   0  0  0  0  0  0  0  0  0  0  0  0
   -4.5872    3.9166    8.6717 H   0  0  0  0  0  0  0  0  0  0  0  0
   -4.2473    6.3210    9.2375 H   0  0  0  0  0  0  0  0  0  0  0  0
   -3.4552    5.2641   10.4800 H   0  0  0  0  0  0  0  0  0  0  0  0
   -2.5022    8.0615    9.5965 H   0  0  0  0  0  0  0  0  0  0  0  0
   -1.7089    7.0194   10.8396 H   0  0  0  0  0  0  0  0  0  0  0  0
   -3.3727    7.6790   11.1357 H   0  0  0  0  0  0  0  0  0  0  0  0
   -1.1619    2.9186    5.2181 H   0  0  0  0  0  0  0  0  0  0  0  0
   -4.2443   -2.0090    0.8013 H   0  0  0  0  0  0  0  0  0  0  0  0
   -6.5499   -2.1211   -0.0732 H   0  0  0  0  0  0  0  0  0  0  0  0
   -7.6175   -4.8279   -1.3281 H   0  0  0  0  0  0  0  0  0  0  0  0
   -6.8775   -5.1219   -2.9640 H   0  0  0  0  0  0  0  0  0  0  0  0
   -8.6683   -4.9946   -2.7939 H   0  0  0  0  0  0  0  0  0  0  0  0
   -5.0227   -3.2056   -3.9526 H   0  0  0  0  0  0  0  0  0  0  0  0
   -2.7228   -3.1084   -3.0792 H   0  0  0  0  0  0  0  0  0  0  0  0
   -2.8244   -5.1671   -0.8511 H   0  0  0  0  0  0  0  0  0  0  0  0
   -1.4204   -7.1762   -1.0465 H   0  0  0  0  0  0  0  0  0  0  0  0
    2.0663   -6.9252    1.2030 H   0  0  0  0  0  0  0  0  0  0  0  0
    2.2785   -8.6958    0.9240 H   0  0  0  0  0  0  0  0  0  0  0  0
    0.6183   -8.0241    1.1857 H   0  0  0  0  0  0  0  0  0  0  0  0
    2.1211   -4.7689   -0.7029 H   0  0  0  0  0  0  0  0  0  0  0  0
    0.7544   -2.7613   -0.4843 H   0  0  0  0  0  0  0  0  0  0  0  0
   -0.5940    3.7258   -0.4710 H   0  0  0  0  0  0  0  0  0  0  0  0
   -0.7586    6.1305   -1.0031 H   0  0  0  0  0  0  0  0  0  0  0  0
    0.5339    8.1703    0.8398 H   0  0  0  0  0  0  0  0  0  0  0  0
    1.3280    9.7264    0.3786 H   0  0  0  0  0  0  0  0  0  0  0  0
    2.3387    8.2659    0.7022 H   0  0  0  0  0  0  0  0  0  0  0  0
    3.5230    6.3844   -1.2175 H   0  0  0  0  0  0  0  0  0  0  0  0
    3.7058    3.9833   -0.6802 H   0  0  0  0  0  0  0  0  0  0  0  0
    2.1612    3.3903    2.1877 H   0  0  0  0  0  0  0  0  0  0  0  0
    3.4337    2.3758    4.0360 H   0  0  0  0  0  0  0  0  0  0  0  0
    2.9910   -1.7216    3.9584 H   0  0  0  0  0  0  0  0  0  0  0  0
    2.5319   -0.3494    5.0453 H   0  0  0  0  0  0  0  0  0  0  0  0
    3.5613   -1.6921    5.6683 H   0  0  0  0  0  0  0  0  0  0  0  0
    4.4737   -0.9499    1.5134 H   0  0  0  0  0  0  0  0  0  0  0  0
    3.2029    0.0527   -0.3403 H   0  0  0  0  0  0  0  0  0  0  0  0
    0.8941    5.8297   -8.6772 H   0  0  0  0  0  0  0  0  0  0  0  0
   -0.5788    5.7375   -9.6759 H   0  0  0  0  0  0  0  0  0  0  0  0
    1.4335    3.4088   -9.3383 H   0  0  0  0  0  0  0  0  0  0  0  0
   -0.0216    3.4365  -10.4104 H   0  0  0  0  0  0  0  0  0  0  0  0
    1.3605    4.5546  -10.7281 H   0  0  0  0  0  0  0  0  0  0  0  0
   -4.5417    3.5632   -6.3588 H   0  0  0  0  0  0  0  0  0  0  0  0
   -3.8058    3.6444   -4.7366 H   0  0  0  0  0  0  0  0  0  0  0  0
   -3.6560    1.1830   -6.6352 H   0  0  0  0  0  0  0  0  0  0  0  0
   -4.8806    1.4054   -5.3324 H   0  0  0  0  0  0  0  0  0  0  0  0
   -3.1498    1.2358   -4.9089 H   0  0  0  0  0  0  0  0  0  0  0  0
    4.8614    3.9452   -4.8914 H   0  0  0  0  0  0  0  0  0  0  0  0
    4.1912   -1.3592   -8.1315 H   0  0  0  0  0  0  0  0  0  0  0  0
    8.5648    1.2640   -7.8330 H   0  0  0  0  0  0  0  0  0  0  0  0
    8.8965   -1.6395   -9.7605 H   0  0  0  0  0  0  0  0  0  0  0  0
    9.9354   -1.9320   -7.1987 H   0  0  0  0  0  0  0  0  0  0  0  0
   10.4625   -4.2406   -8.4008 H   0  0  0  0  0  0  0  0  0  0  0  0
    8.2398   -5.5802   -8.6044 H   0  0  0  0  0  0  0  0  0  0  0  0
    6.2831   -4.1362   -7.5486 H   0  0  0  0  0  0  0  0  0  0  0  0
    7.4317   -2.0811   -6.2581 H   0  0  0  0  0  0  0  0  0  0  0  0
    8.3184   -3.6184   -5.9224 H   0  0  0  0  0  0  0  0  0  0  0  0
    6.8452   -2.8588   -9.9508 H   0  0  0  0  0  0  0  0  0  0  0  0
  1  2  2  3
  2  3  1  0
  3  4  2  0
  3  5  1  0
  5  6  2  0
  6  7  1  0
  7  8  2  0
  8  9  1  0
  9 10  2  0
 10 11  1  0
 11 12  2  3
 12 13  1  0
 13 14  3  0
 12 15  1  0
 15 16  3  0
  8 17  1  0
 17 18  1  0
 18 19  1  0
 19 20  2  0
 20 21  1  0
 21 22  1  0
 21 23  1  0
  1 24  1  0
 24 25  2  0
 25 26  1  0
 25 27  1  0
 27 28  1  0
 27 29  2  0
 29 30  1  0
 30 31  2  0
 31 32  1  0
 32 33  1  0
 33 34  2  0
 34 35  1  0
 35 36  2  0
 36 37  1  0
 37 38  1  0
 38 39  1  0
 36 40  1  0
 40 41  2  0
 40 42  1  0
 32 43  2  0
 43 44  1  0
 44 45  2  0
 43 46  1  0
 46 47  2  0
 47 48  1  0
 48 49  2  0
 49 50  1  0
 50 51  1  0
 51 52  1  0
 49 53  1  0
 53 54  1  0
 53 55  2  0
 29 56  1  0
 56 57  2  0
 57 58  1  0
 58 59  1  0
 59 60  2  0
 60 61  1  0
 61 62  2  0
 62 63  1  0
 63 64  1  0
 62 65  1  0
 65 66  2  0
 58 67  1  0
 67 68  2  0
 68 69  1  0
 69 70  2  0
 70 71  1  0
 71 72  1  0
 70 73  1  0
 73 74  2  0
 57 75  1  0
 75 76  1  0
 76 77  1  0
 77 78  2  0
 78 79  1  0
 79 80  1  0
 80 81  2  0
 81 82  1  0
 82 83  2  0
 83 84  1  0
 84 85  1  0
 83 86  1  0
 86 87  2  0
 79 88  1  0
 88 89  2  0
 89 90  1  0
 90 91  2  0
 91 92  1  0
 92 93  1  0
 91 94  1  0
 94 95  2  0
 78 96  1  0
 96 97  1  0
 77 98  1  0
 98 99  1  0
 99100  1  0
100101  2  0
101102  1  0
102103  2  0
102104  1  0
104105  2  0
105106  1  0
106107  1  0
105108  1  0
108109  1  0
109110  1  0
110111  1  0
109112  2  0
112113  1  0
113114  2  0
113115  1  0
100116  1  0
116117  2  3
117118  1  0
118119  2  0
118120  1  0
120121  2  0
121122  1  0
122123  2  0
123124  1  0
124125  2  0
125126  1  0
126127  2  3
127128  1  0
128129  3  0
127130  1  0
130131  3  0
123132  1  0
132133  1  0
133134  1  0
134135  2  0
135136  1  0
136137  1  0
136138  1  0
 11  2  1  0
 23 17  1  0
 45 24  1  0
 55 46  1  0
 97 56  1  0
115 98  2  0
126117  1  0
138132  1  0
 10  5  1  0
 22 18  1  0
 45 30  1  0
 66 59  1  0
 74 67  1  0
 96 75  2  0
115101  1  0
125120  1  0
137133  1  0
 23  7  1  0
 41 33  1  0
 87 80  1  0
 95 88  1  0
112104  1  0
138122  1  0
  1139  1  0
  6140  1  0
  9141  1  0
 17142  1  0
 18143  1  0
 19144  1  0
 20145  1  0
 21146  1  0
 22147  1  0
 22148  1  0
 23149  1  0
 34150  1  0
 35151  1  0
 38152  1  0
 38153  1  0
 39154  1  0
 39155  1  0
 39156  1  0
 41157  1  0
 47158  1  0
 48159  1  0
 51160  1  0
 51161  1  0
 52162  1  0
 52163  1  0
 52164  1  0
 55165  1  0
 60166  1  0
 61167  1  0
 64168  1  0
 64169  1  0
 64170  1  0
 65171  1  0
 66172  1  0
 68173  1  0
 69174  1  0
 72175  1  0
 72176  1  0
 72177  1  0
 73178  1  0
 74179  1  0
 81180  1  0
 82181  1  0
 85182  1  0
 85183  1  0
 85184  1  0
 86185  1  0
 87186  1  0
 89187  1  0
 90188  1  0
 93189  1  0
 93190  1  0
 93191  1  0
 94192  1  0
 95193  1  0
106194  1  0
106195  1  0
107196  1  0
107197  1  0
107198  1  0
110199  1  0
110200  1  0
111201  1  0
111202  1  0
111203  1  0
116204  1  0
121205  1  0
124206  1  0
132207  1  0
133208  1  0
134209  1  0
135210  1  0
136211  1  0
137212  1  0
137213  1  0
138214  1  0
M  END

