
     RDKit          3D

208229  0  0  0  0  0  0  0  0999 V2000
    2.6534   -2.5637   -7.9682 C   0  0  0  0  0  0  0  0  0  0  0  0
    3.2598   -3.6112   -7.3680 C   0  0  0  0  0  0  0  0  0  0  0  0
    4.1719   -4.5118   -8.0622 C   0  0  0  0  0  0  0  0  0  0  0  0
    4.1672   -4.7665   -9.2977 O   0  0  0  0  0  0  0  0  0  0  0  0
    5.1429   -5.0084   -7.0994 C   0  0  0  0  0  0  0  0  0  0  0  0
    6.2831   -5.8076   -7.3427 C   0  0  0  0  0  0  0  0  0  0  0  0
    7.0675   -6.0194   -6.2193 C   0  0  0  0  0  0  0  0  0  0  0  0
    6.7625   -5.4558   -4.9355 C   0  0  0  0  0  0  0  0  0  0  0  0
    5.6485   -4.6766   -4.6904 C   0  0  0  0  0  0  0  0  0  0  0  0
    4.8115   -4.4886   -5.8183 C   0  0  0  0  0  0  0  0  0  0  0  0
    3.5346   -3.7528   -5.9100 C   0  0  0  0  0  0  0  0  0  0  0  0
    2.6012   -3.6534   -4.9300 C   0  0  0  0  0  0  0  0  0  0  0  0
    1.2052   -3.4949   -5.2495 C   0  0  0  0  0  0  0  0  0  0  0  0
    0.0823   -3.4009   -5.5063 N   0  0  0  0  0  0  0  0  0  0  0  0
    2.8874   -3.9375   -3.5512 C   0  0  0  0  0  0  0  0  0  0  0  0
    3.1067   -4.1665   -2.4385 N   0  0  0  0  0  0  0  0  0  0  0  0
    7.9742   -6.0945   -4.3423 C   0  0  0  0  0  0  0  0  0  0  0  0
    7.7125   -7.3344   -3.4427 C   0  0  0  0  0  0  0  0  0  0  0  0
    9.0484   -8.0210   -3.2866 C   0  0  0  0  0  0  0  0  0  0  0  0
    9.3418   -8.5549   -4.4779 C   0  0  0  0  0  0  0  0  0  0  0  0
    8.1916   -8.2118   -5.3971 C   0  0  0  0  0  0  0  0  0  0  0  0
    7.0564   -8.3242   -4.3929 C   0  0  0  0  0  0  0  0  0  0  0  0
    8.2872   -6.6801   -5.6521 C   0  0  0  0  0  0  0  0  0  0  0  0
    2.4532   -1.2950   -7.2459 C   0  0  0  0  0  0  0  0  0  0  0  0
    1.2245   -0.7148   -6.9157 C   0  0  0  0  0  0  0  0  0  0  0  0
    1.3450    0.2446   -5.8877 C   0  0  0  0  0  0  0  0  0  0  0  0
    0.2963    0.8796   -5.2033 C   0  0  0  0  0  0  0  0  0  0  0  0
   -1.1201    0.7913   -5.6215 C   0  0  0  0  0  0  0  0  0  0  0  0
   -1.8266   -0.4021   -5.4736 C   0  0  0  0  0  0  0  0  0  0  0  0
   -3.1884   -0.4575   -5.7576 C   0  0  0  0  0  0  0  0  0  0  0  0
   -3.8794    0.6993   -6.1789 C   0  0  0  0  0  0  0  0  0  0  0  0
   -5.2580    0.6840   -6.4438 O   0  0  0  0  0  0  0  0  0  0  0  0
   -6.0975   -0.4686   -6.4857 C   0  0  0  0  0  0  0  0  0  0  0  0
   -5.8778   -1.2375   -7.7808 C   0  0  0  0  0  0  0  0  0  0  0  0
   -3.1731    1.9152   -6.3110 C   0  0  0  0  0  0  0  0  0  0  0  0
   -3.9051    3.1736   -6.7232 C   0  0  0  0  0  0  0  0  0  0  0  0
   -4.5430    2.9651   -7.9324 F   0  0  0  0  0  0  0  0  0  0  0  0
   -4.8457    3.4967   -5.7635 F   0  0  0  0  0  0  0  0  0  0  0  0
   -3.0423    4.2459   -6.8701 F   0  0  0  0  0  0  0  0  0  0  0  0
   -1.7949    1.9502   -6.0262 C   0  0  0  0  0  0  0  0  0  0  0  0
    0.6362    1.5483   -4.0154 C   0  0  0  0  0  0  0  0  0  0  0  0
    1.9463    1.6427   -3.5365 C   0  0  0  0  0  0  0  0  0  0  0  0
    3.0111    1.1782   -4.3310 C   0  0  0  0  0  0  0  0  0  0  0  0
    4.4245    1.4705   -4.0299 C   0  0  0  0  0  0  0  0  0  0  0  0
    5.1458    2.2663   -4.9267 C   0  0  0  0  0  0  0  0  0  0  0  0
    6.4719    2.5955   -4.6723 C   0  0  0  0  0  0  0  0  0  0  0  0
    7.1130    2.1418   -3.5070 C   0  0  0  0  0  0  0  0  0  0  0  0
    8.4428    2.4993   -3.2090 O   0  0  0  0  0  0  0  0  0  0  0  0
    9.2600    3.3789   -3.9818 C   0  0  0  0  0  0  0  0  0  0  0  0
    8.8425    4.8381   -3.7943 C   0  0  0  0  0  0  0  0  0  0  0  0
    6.4052    1.3103   -2.6095 C   0  0  0  0  0  0  0  0  0  0  0  0
    5.0623    0.9694   -2.8857 C   0  0  0  0  0  0  0  0  0  0  0  0
    7.0899    0.8166   -1.3576 C   0  0  0  0  0  0  0  0  0  0  0  0
    7.5250    1.9023   -0.6156 F   0  0  0  0  0  0  0  0  0  0  0  0
    6.2439    0.0595   -0.5638 F   0  0  0  0  0  0  0  0  0  0  0  0
    8.1823    0.0423   -1.7032 F   0  0  0  0  0  0  0  0  0  0  0  0
    2.6671    0.4432   -5.4727 C   0  0  0  0  0  0  0  0  0  0  0  0
    3.6850   -0.5582   -6.3573 S   0  0  0  0  0  0  0  0  0  0  0  0
    2.0229    2.0628   -2.1959 C   0  0  0  0  0  0  0  0  0  0  0  0
    0.7682    2.2113   -1.6056 C   0  0  0  0  0  0  0  0  0  0  0  0
   -0.4127    1.9796   -2.7872 S   0  0  0  0  0  0  0  0  0  0  0  0
    0.5137    2.1070   -0.1575 C   0  0  0  0  0  0  0  0  0  0  0  0
   -0.6818    1.6498    0.4326 C   0  0  0  0  0  0  0  0  0  0  0  0
   -1.8815    1.2671   -0.2618 N   0  0  0  0  0  0  0  0  0  0  0  0
   -2.9144    2.2553   -0.5030 C   0  0  0  0  0  0  0  0  0  0  0  0
   -3.1756    3.2672    0.4394 C   0  0  0  0  0  0  0  0  0  0  0  0
   -4.2117    4.1834    0.2259 C   0  0  0  0  0  0  0  0  0  0  0  0
   -4.9865    4.1090   -0.9349 C   0  0  0  0  0  0  0  0  0  0  0  0
   -6.3283    5.2662   -1.2023 S   0  0  0  0  0  0  0  0  0  0  0  0
   -5.3187    6.3897   -2.2184 C   0  0  0  0  0  0  0  0  0  0  0  0
   -4.7235    3.1179   -1.8856 C   0  0  0  0  0  0  0  0  0  0  0  0
   -3.6891    2.2010   -1.6764 C   0  0  0  0  0  0  0  0  0  0  0  0
   -2.0962   -0.1294   -0.5663 C   0  0  0  0  0  0  0  0  0  0  0  0
   -3.3665   -0.7136   -0.3994 C   0  0  0  0  0  0  0  0  0  0  0  0
   -3.5681   -2.0642   -0.6886 C   0  0  0  0  0  0  0  0  0  0  0  0
   -2.5048   -2.8507   -1.1443 C   0  0  0  0  0  0  0  0  0  0  0  0
   -2.7595   -4.5844   -1.5106 S   0  0  0  0  0  0  0  0  0  0  0  0
   -2.3952   -5.1266    0.1971 C   0  0  0  0  0  0  0  0  0  0  0  0
   -1.2411   -2.2860   -1.3118 C   0  0  0  0  0  0  0  0  0  0  0  0
   -1.0291   -0.9384   -1.0066 C   0  0  0  0  0  0  0  0  0  0  0  0
   -0.5141    1.4016    1.7831 C   0  0  0  0  0  0  0  0  0  0  0  0
   -1.5514    0.8749    2.9813 S   0  0  0  0  0  0  0  0  0  0  0  0
   -0.3594    0.9406    4.2046 C   0  0  0  0  0  0  0  0  0  0  0  0
    0.8608    1.3597    3.6490 C   0  0  0  0  0  0  0  0  0  0  0  0
    2.0831    1.4949    4.3871 N   0  0  0  0  0  0  0  0  0  0  0  0
    2.4207    2.8120    4.8363 C   0  0  0  0  0  0  0  0  0  0  0  0
    1.9078    3.2882    6.0536 C   0  0  0  0  0  0  0  0  0  0  0  0
    2.1260    4.6136    6.4335 C   0  0  0  0  0  0  0  0  0  0  0  0
    2.8616    5.4723    5.6050 C   0  0  0  0  0  0  0  0  0  0  0  0
    3.0382    7.2013    6.0434 S   0  0  0  0  0  0  0  0  0  0  0  0
    1.6616    7.7281    4.9749 C   0  0  0  0  0  0  0  0  0  0  0  0
    3.4181    4.9833    4.4165 C   0  0  0  0  0  0  0  0  0  0  0  0
    3.1986    3.6573    4.0331 C   0  0  0  0  0  0  0  0  0  0  0  0
    2.9420    0.3542    4.6387 C   0  0  0  0  0  0  0  0  0  0  0  0
    2.6713   -0.9004    4.0512 C   0  0  0  0  0  0  0  0  0  0  0  0
    3.4978   -1.9996    4.3020 C   0  0  0  0  0  0  0  0  0  0  0  0
    4.5948   -1.8769    5.1575 C   0  0  0  0  0  0  0  0  0  0  0  0
    5.6538   -3.2849    5.4808 S   0  0  0  0  0  0  0  0  0  0  0  0
    4.6217   -3.8940    6.8551 C   0  0  0  0  0  0  0  0  0  0  0  0
    4.8834   -0.6394    5.7397 C   0  0  0  0  0  0  0  0  0  0  0  0
    4.0610    0.4664    5.4937 C   0  0  0  0  0  0  0  0  0  0  0  0
    0.7267    1.6290    2.2871 C   0  0  0  0  0  0  0  0  0  0  0  0
    1.7316    2.1565    1.0490 S   0  0  0  0  0  0  0  0  0  0  0  0
   -0.7367    0.9537    5.6139 C   0  0  0  0  0  0  0  0  0  0  0  0
   -0.4523   -0.0312    6.5553 C   0  0  0  0  0  0  0  0  0  0  0  0
   -1.3358   -0.0108    7.6467 C   0  0  0  0  0  0  0  0  0  0  0  0
   -1.2876   -1.2258    8.9637 S   0  0  0  0  0  0  0  0  0  0  0  0
   -0.0778   -0.3139    9.9901 C   0  0  0  0  0  0  0  0  0  0  0  0
   -0.7219    0.8826   10.6819 C   0  0  0  0  0  0  0  0  0  0  0  0
   -2.3156    0.9792    7.5562 C   0  0  0  0  0  0  0  0  0  0  0  0
   -2.0661    1.8222    6.1372 S   0  0  0  0  0  0  0  0  0  0  0  0
   -3.6211    1.0215    8.2313 C   0  0  0  0  0  0  0  0  0  0  0  0
   -4.7045    0.4787    7.6415 C   0  0  0  0  0  0  0  0  0  0  0  0
   -4.6523   -0.4140    6.4729 C   0  0  0  0  0  0  0  0  0  0  0  0
   -3.7178   -1.2143    6.1921 O   0  0  0  0  0  0  0  0  0  0  0  0
   -5.8484   -0.2294    5.6856 C   0  0  0  0  0  0  0  0  0  0  0  0
   -6.1046   -0.7405    4.3942 C   0  0  0  0  0  0  0  0  0  0  0  0
   -7.2377   -0.2258    3.7977 C   0  0  0  0  0  0  0  0  0  0  0  0
   -8.0670    0.7588    4.4237 C   0  0  0  0  0  0  0  0  0  0  0  0
   -7.8307    1.2560    5.6974 C   0  0  0  0  0  0  0  0  0  0  0  0
   -6.6914    0.6984    6.3480 C   0  0  0  0  0  0  0  0  0  0  0  0
   -6.0842    1.0505    7.6632 C   0  0  0  0  0  0  0  0  0  0  0  0
   -6.7095    1.6160    8.7262 C   0  0  0  0  0  0  0  0  0  0  0  0
   -6.0652    1.7577   10.0057 C   0  0  0  0  0  0  0  0  0  0  0  0
   -5.5457    1.8759   11.0354 N   0  0  0  0  0  0  0  0  0  0  0  0
   -8.0897    2.0220    8.6787 C   0  0  0  0  0  0  0  0  0  0  0  0
   -9.1979    2.3585    8.6447 N   0  0  0  0  0  0  0  0  0  0  0  0
   -8.9343    0.8298    3.1964 C   0  0  0  0  0  0  0  0  0  0  0  0
   -8.7777    2.0606    2.2473 C   0  0  0  0  0  0  0  0  0  0  0  0
   -7.3637    2.5777    2.2909 C   0  0  0  0  0  0  0  0  0  0  0  0
   -6.5976    1.6497    1.7178 C   0  0  0  0  0  0  0  0  0  0  0  0
   -7.5206    0.5271    1.3053 C   0  0  0  0  0  0  0  0  0  0  0  0
   -8.7282    1.3492    0.9069 C   0  0  0  0  0  0  0  0  0  0  0  0
   -8.0900   -0.1923    2.5659 C   0  0  0  0  0  0  0  0  0  0  0  0
    2.5453   -2.5524   -9.0457 H   0  0  0  0  0  0  0  0  0  0  0  0
    6.5259   -6.2096   -8.3163 H   0  0  0  0  0  0  0  0  0  0  0  0
    5.4643   -4.2452   -3.7210 H   0  0  0  0  0  0  0  0  0  0  0  0
    8.7269   -5.3704   -3.9619 H   0  0  0  0  0  0  0  0  0  0  0  0
    7.1716   -7.1411   -2.4938 H   0  0  0  0  0  0  0  0  0  0  0  0
    9.6175   -8.1566   -2.3701 H   0  0  0  0  0  0  0  0  0  0  0  0
   10.1983   -9.1923   -4.6900 H   0  0  0  0  0  0  0  0  0  0  0  0
    8.1035   -8.8545   -6.2973 H   0  0  0  0  0  0  0  0  0  0  0  0
    6.0681   -7.9901   -4.7733 H   0  0  0  0  0  0  0  0  0  0  0  0
    6.9467   -9.3485   -3.9559 H   0  0  0  0  0  0  0  0  0  0  0  0
    9.2424   -6.3304   -6.0968 H   0  0  0  0  0  0  0  0  0  0  0  0
    0.2796   -1.0713   -7.3071 H   0  0  0  0  0  0  0  0  0  0  0  0
   -1.3260   -1.2834   -5.1067 H   0  0  0  0  0  0  0  0  0  0  0  0
   -3.6984   -1.4052   -5.6312 H   0  0  0  0  0  0  0  0  0  0  0  0
   -7.1530   -0.1305   -6.4633 H   0  0  0  0  0  0  0  0  0  0  0  0
   -5.9340   -1.1169   -5.5966 H   0  0  0  0  0  0  0  0  0  0  0  0
   -6.1868   -0.6157   -8.6409 H   0  0  0  0  0  0  0  0  0  0  0  0
   -6.5003   -2.1589   -7.7823 H   0  0  0  0  0  0  0  0  0  0  0  0
   -4.8141   -1.5242   -7.8942 H   0  0  0  0  0  0  0  0  0  0  0  0
   -1.2341    2.8777   -6.0955 H   0  0  0  0  0  0  0  0  0  0  0  0
    4.6706    2.6487   -5.8235 H   0  0  0  0  0  0  0  0  0  0  0  0
    6.9849    3.2215   -5.3903 H   0  0  0  0  0  0  0  0  0  0  0  0
   10.3127    3.2642   -3.6511 H   0  0  0  0  0  0  0  0  0  0  0  0
    9.2217    3.0932   -5.0571 H   0  0  0  0  0  0  0  0  0  0  0  0
    7.7413    4.9558   -3.8599 H   0  0  0  0  0  0  0  0  0  0  0  0
    9.3087    5.4570   -4.5838 H   0  0  0  0  0  0  0  0  0  0  0  0
    9.1813    5.2007   -2.8012 H   0  0  0  0  0  0  0  0  0  0  0  0
    4.5065    0.3309   -2.2138 H   0  0  0  0  0  0  0  0  0  0  0  0
    2.9388    2.0917   -1.6267 H   0  0  0  0  0  0  0  0  0  0  0  0
   -2.6095    3.3317    1.3580 H   0  0  0  0  0  0  0  0  0  0  0  0
   -4.4116    4.9465    0.9697 H   0  0  0  0  0  0  0  0  0  0  0  0
   -5.9404    7.2566   -2.5174 H   0  0  0  0  0  0  0  0  0  0  0  0
   -4.4439    6.7514   -1.6323 H   0  0  0  0  0  0  0  0  0  0  0  0
   -4.9803    5.8691   -3.1363 H   0  0  0  0  0  0  0  0  0  0  0  0
   -5.3093    3.0615   -2.7958 H   0  0  0  0  0  0  0  0  0  0  0  0
   -3.4967    1.4430   -2.4230 H   0  0  0  0  0  0  0  0  0  0  0  0
   -4.1955   -0.1274   -0.0286 H   0  0  0  0  0  0  0  0  0  0  0  0
   -4.5474   -2.5029   -0.5454 H   0  0  0  0  0  0  0  0  0  0  0  0
   -1.2995   -5.0358    0.3783 H   0  0  0  0  0  0  0  0  0  0  0  0
   -2.9602   -4.5139    0.9363 H   0  0  0  0  0  0  0  0  0  0  0  0
   -2.6880   -6.1915    0.3116 H   0  0  0  0  0  0  0  0  0  0  0  0
   -0.4090   -2.8830   -1.6653 H   0  0  0  0  0  0  0  0  0  0  0  0
   -0.0421   -0.5253   -1.1379 H   0  0  0  0  0  0  0  0  0  0  0  0
    1.3196    2.6386    6.6870 H   0  0  0  0  0  0  0  0  0  0  0  0
    1.7039    4.9772    7.3601 H   0  0  0  0  0  0  0  0  0  0  0  0
    0.7460    7.1451    5.2081 H   0  0  0  0  0  0  0  0  0  0  0  0
    1.9340    7.5720    3.9108 H   0  0  0  0  0  0  0  0  0  0  0  0
    1.4551    8.8049    5.1375 H   0  0  0  0  0  0  0  0  0  0  0  0
    3.9903    5.6389    3.7714 H   0  0  0  0  0  0  0  0  0  0  0  0
    3.6050    3.2947    3.0987 H   0  0  0  0  0  0  0  0  0  0  0  0
    1.8276   -1.0372    3.3855 H   0  0  0  0  0  0  0  0  0  0  0  0
    3.2686   -2.9541    3.8443 H   0  0  0  0  0  0  0  0  0  0  0  0
    4.4953   -3.1019    7.6326 H   0  0  0  0  0  0  0  0  0  0  0  0
    3.6274   -4.2090    6.4715 H   0  0  0  0  0  0  0  0  0  0  0  0
    5.1208   -4.7726    7.3144 H   0  0  0  0  0  0  0  0  0  0  0  0
    5.7455   -0.5291    6.3818 H   0  0  0  0  0  0  0  0  0  0  0  0
    4.3175    1.4069    5.9592 H   0  0  0  0  0  0  0  0  0  0  0  0
    0.2896   -0.8018    6.4097 H   0  0  0  0  0  0  0  0  0  0  0  0
    0.3036   -1.0093   10.7659 H   0  0  0  0  0  0  0  0  0  0  0  0
    0.7796    0.0166    9.3694 H   0  0  0  0  0  0  0  0  0  0  0  0
    0.0206    1.3741   11.3464 H   0  0  0  0  0  0  0  0  0  0  0  0
   -1.0688    1.6248    9.9379 H   0  0  0  0  0  0  0  0  0  0  0  0
   -1.5880    0.5443   11.2924 H   0  0  0  0  0  0  0  0  0  0  0  0
   -3.7352    1.8101    8.9589 H   0  0  0  0  0  0  0  0  0  0  0  0
   -5.4447   -1.4260    3.8834 H   0  0  0  0  0  0  0  0  0  0  0  0
   -8.4390    2.0432    6.1099 H   0  0  0  0  0  0  0  0  0  0  0  0
   -9.9802    0.4965    3.3618 H   0  0  0  0  0  0  0  0  0  0  0  0
   -9.5658    2.8345    2.3440 H   0  0  0  0  0  0  0  0  0  0  0  0
   -7.0288    3.5552    2.6266 H   0  0  0  0  0  0  0  0  0  0  0  0
   -5.5460    1.7491    1.4935 H   0  0  0  0  0  0  0  0  0  0  0  0
   -7.1234   -0.1435    0.5155 H   0  0  0  0  0  0  0  0  0  0  0  0
   -8.5361    2.0336    0.0433 H   0  0  0  0  0  0  0  0  0  0  0  0
   -9.6411    0.7406    0.6993 H   0  0  0  0  0  0  0  0  0  0  0  0
   -8.6309   -1.1413    2.3588 H   0  0  0  0  0  0  0  0  0  0  0  0
  1  2  2  3
  2  3  1  0
  3  4  2  0
  3  5  1  0
  5  6  2  0
  6  7  1  0
  7  8  2  0
  8  9  1  0
  9 10  2  0
 10 11  1  0
 11 12  2  3
 12 13  1  0
 13 14  3  0
 12 15  1  0
 15 16  3  0
  8 17  1  0
 17 18  1  0
 18 19  1  0
 19 20  2  0
 20 21  1  0
 21 22  1  0
 21 23  1  0
  1 24  1  0
 24 25  2  0
 25 26  1  0
 26 27  2  0
 27 28  1  0
 28 29  2  0
 29 30  1  0
 30 31  2  0
 31 32  1  0
 32 33  1  0
 33 34  1  0
 31 35  1  0
 35 36  1  0
 36 37  1  0
 36 38  1  0
 36 39  1  0
 35 40  2  0
 27 41  1  0
 41 42  2  0
 42 43  1  0
 43 44  1  0
 44 45  2  0
 45 46  1  0
 46 47  2  0
 47 48  1  0
 48 49  1  0
 49 50  1  0
 47 51  1  0
 51 52  2  0
 51 53  1  0
 53 54  1  0
 53 55  1  0
 53 56  1  0
 43 57  2  0
 57 58  1  0
 42 59  1  0
 59 60  2  0
 60 61  1  0
 60 62  1  0
 62 63  2  0
 63 64  1  0
 64 65  1  0
 65 66  2  0
 66 67  1  0
 67 68  2  0
 68 69  1  0
 69 70  1  0
 68 71  1  0
 71 72  2  0
 64 73  1  0
 73 74  2  0
 74 75  1  0
 75 76  2  0
 76 77  1  0
 77 78  1  0
 76 79  1  0
 79 80  2  0
 63 81  1  0
 81 82  1  0
 82 83  1  0
 83 84  2  0
 84 85  1  0
 85 86  1  0
 86 87  2  0
 87 88  1  0
 88 89  2  0
 89 90  1  0
 90 91  1  0
 89 92  1  0
 92 93  2  0
 85 94  1  0
 94 95  2  0
 95 96  1  0
 96 97  2  0
 97 98  1  0
 98 99  1  0
 97100  1  0
100101  2  0
 84102  1  0
102103  1  0
 83104  1  0
104105  2  0
105106  1  0
106107  1  0
107108  1  0
108109  1  0
106110  2  0
110111  1  0
110112  1  0
112113  2  3
113114  1  0
114115  2  0
114116  1  0
116117  2  0
117118  1  0
118119  2  0
119120  1  0
120121  2  0
121122  1  0
122123  2  3
123124  1  0
124125  3  0
123126  1  0
126127  3  0
119128  1  0
128129  1  0
129130  1  0
130131  2  0
131132  1  0
132133  1  0
132134  1  0
 11  2  1  0
 23 17  1  0
 58 24  1  0
103 62  1  0
111104  1  0
122113  1  0
134128  1  0
 10  5  1  0
 22 18  1  0
 57 26  1  0
 72 65  1  0
 80 73  1  0
102 81  2  0
121116  1  0
133129  1  0
 23  7  1  0
 40 28  1  0
 61 41  1  0
 93 86  1  0
101 94  1  0
134118  1  0
 52 44  1  0
  1135  1  0
  6136  1  0
  9137  1  0
 17138  1  0
 18139  1  0
 19140  1  0
 20141  1  0
 21142  1  0
 22143  1  0
 22144  1  0
 23145  1  0
 25146  1  0
 29147  1  0
 30148  1  0
 33149  1  0
 33150  1  0
 34151  1  0
 34152  1  0
 34153  1  0
 40154  1  0
 45155  1  0
 46156  1  0
 49157  1  0
 49158  1  0
 50159  1  0
 50160  1  0
 50161  1  0
 52162  1  0
 59163  1  0
 66164  1  0
 67165  1  0
 70166  1  0
 70167  1  0
 70168  1  0
 71169  1  0
 72170  1  0
 74171  1  0
 75172  1  0
 78173  1  0
 78174  1  0
 78175  1  0
 79176  1  0
 80177  1  0
 87178  1  0
 88179  1  0
 91180  1  0
 91181  1  0
 91182  1  0
 92183  1  0
 93184  1  0
 95185  1  0
 96186  1  0
 99187  1  0
 99188  1  0
 99189  1  0
100190  1  0
101191  1  0
105192  1  0
108193  1  0
108194  1  0
109195  1  0
109196  1  0
109197  1  0
112198  1  0
117199  1  0
120200  1  0
128201  1  0
129202  1  0
130203  1  0
131204  1  0
132205  1  0
133206  1  0
133207  1  0
134208  1  0
M  END

