
     RDKit          3D

234258  0  0  0  0  0  0  0  0999 V2000
   -0.5717   -6.4012    4.3960 C   0  0  0  0  0  0  0  0  0  0  0  0
    0.4115   -6.1063    3.5175 C   0  0  0  0  0  0  0  0  0  0  0  0
    0.9251   -4.7584    3.2025 C   0  0  0  0  0  0  0  0  0  0  0  0
    0.4118   -3.6590    3.5467 O   0  0  0  0  0  0  0  0  0  0  0  0
    2.1499   -4.8890    2.4409 C   0  0  0  0  0  0  0  0  0  0  0  0
    2.9028   -3.8428    1.8544 C   0  0  0  0  0  0  0  0  0  0  0  0
    3.9058   -4.2810    1.0124 C   0  0  0  0  0  0  0  0  0  0  0  0
    4.1609   -5.6669    0.7500 C   0  0  0  0  0  0  0  0  0  0  0  0
    3.4512   -6.6963    1.3519 C   0  0  0  0  0  0  0  0  0  0  0  0
    2.4311   -6.2640    2.2458 C   0  0  0  0  0  0  0  0  0  0  0  0
    1.3656   -7.0698    2.8903 C   0  0  0  0  0  0  0  0  0  0  0  0
    1.3098   -8.4106    2.9389 C   0  0  0  0  0  0  0  0  0  0  0  0
    2.5189   -9.1842    3.0914 C   0  0  0  0  0  0  0  0  0  0  0  0
    3.4789   -9.7647    3.3512 N   0  0  0  0  0  0  0  0  0  0  0  0
    0.0523   -9.1142    2.9626 C   0  0  0  0  0  0  0  0  0  0  0  0
   -0.9572   -9.6721    2.9347 N   0  0  0  0  0  0  0  0  0  0  0  0
    5.2371   -5.2967   -0.2292 C   0  0  0  0  0  0  0  0  0  0  0  0
    6.7108   -5.5086    0.2302 C   0  0  0  0  0  0  0  0  0  0  0  0
    7.5634   -4.7060   -0.7261 C   0  0  0  0  0  0  0  0  0  0  0  0
    7.3335   -3.4143   -0.4505 C   0  0  0  0  0  0  0  0  0  0  0  0
    6.3319   -3.3870    0.6761 C   0  0  0  0  0  0  0  0  0  0  0  0
    6.8218   -4.6048    1.4473 C   0  0  0  0  0  0  0  0  0  0  0  0
    4.9858   -3.8772    0.0562 C   0  0  0  0  0  0  0  0  0  0  0  0
   -1.4413   -5.3745    4.9831 C   0  0  0  0  0  0  0  0  0  0  0  0
   -2.7096   -4.7016    4.1118 S   0  0  0  0  0  0  0  0  0  0  0  0
   -2.8504   -3.2096    4.8917 C   0  0  0  0  0  0  0  0  0  0  0  0
   -1.8805   -3.2797    5.8977 C   0  0  0  0  0  0  0  0  0  0  0  0
   -1.1957   -2.1140    6.8834 S   0  0  0  0  0  0  0  0  0  0  0  0
    0.1202   -3.0559    7.3888 C   0  0  0  0  0  0  0  0  0  0  0  0
    1.2505   -2.4910    8.1606 C   0  0  0  0  0  0  0  0  0  0  0  0
    1.3477   -1.1574    8.5576 C   0  0  0  0  0  0  0  0  0  0  0  0
    2.5912   -0.8173    9.1052 C   0  0  0  0  0  0  0  0  0  0  0  0
    3.4744   -1.8848    9.1582 C   0  0  0  0  0  0  0  0  0  0  0  0
    4.8754   -1.8121    9.5796 C   0  0  0  0  0  0  0  0  0  0  0  0
    5.5237   -2.8748    9.7926 O   0  0  0  0  0  0  0  0  0  0  0  0
    5.4894   -0.5621    9.7113 O   0  0  0  0  0  0  0  0  0  0  0  0
    6.8628   -0.4091   10.0509 C   0  0  0  0  0  0  0  0  0  0  0  0
    7.2727    1.0450    9.8659 C   0  0  0  0  0  0  0  0  0  0  0  0
    2.7184   -3.2405    8.5117 S   0  0  0  0  0  0  0  0  0  0  0  0
    0.0331   -4.3224    6.7744 C   0  0  0  0  0  0  0  0  0  0  0  0
   -1.0948   -4.4220    5.9399 C   0  0  0  0  0  0  0  0  0  0  0  0
    1.2173   -5.6206    6.9383 Cl  0  0  0  0  0  0  0  0  0  0  0  0
   -3.3240   -1.9746    4.2208 C   0  0  0  0  0  0  0  0  0  0  0  0
   -3.8685   -1.9016    2.9174 C   0  0  0  0  0  0  0  0  0  0  0  0
   -4.7177   -2.8974    2.3183 N   0  0  0  0  0  0  0  0  0  0  0  0
   -4.1907   -3.9704    1.5069 C   0  0  0  0  0  0  0  0  0  0  0  0
   -4.7955   -5.2393    1.5536 C   0  0  0  0  0  0  0  0  0  0  0  0
   -4.2450   -6.3150    0.8548 C   0  0  0  0  0  0  0  0  0  0  0  0
   -3.0964   -6.1358    0.0791 C   0  0  0  0  0  0  0  0  0  0  0  0
   -2.3881   -7.5345   -0.7973 S   0  0  0  0  0  0  0  0  0  0  0  0
   -3.5169   -7.3876   -2.2164 C   0  0  0  0  0  0  0  0  0  0  0  0
   -2.4978   -4.8745    0.0108 C   0  0  0  0  0  0  0  0  0  0  0  0
   -3.0314   -3.7974    0.7298 C   0  0  0  0  0  0  0  0  0  0  0  0
   -6.1417   -2.7373    2.4761 C   0  0  0  0  0  0  0  0  0  0  0  0
   -7.0019   -2.8563    1.3705 C   0  0  0  0  0  0  0  0  0  0  0  0
   -8.3806   -2.6784    1.5218 C   0  0  0  0  0  0  0  0  0  0  0  0
   -8.9148   -2.3816    2.7795 C   0  0  0  0  0  0  0  0  0  0  0  0
  -10.6822   -2.1562    2.9773 S   0  0  0  0  0  0  0  0  0  0  0  0
  -10.6012   -0.3598    2.6962 C   0  0  0  0  0  0  0  0  0  0  0  0
   -8.0690   -2.2649    3.8878 C   0  0  0  0  0  0  0  0  0  0  0  0
   -6.6895   -2.4383    3.7358 C   0  0  0  0  0  0  0  0  0  0  0  0
   -3.7450   -0.6213    2.3842 C   0  0  0  0  0  0  0  0  0  0  0  0
   -3.7504   -0.0434    0.8179 S   0  0  0  0  0  0  0  0  0  0  0  0
   -3.0201    1.4556    1.1913 C   0  0  0  0  0  0  0  0  0  0  0  0
   -2.8065    1.5034    2.5893 C   0  0  0  0  0  0  0  0  0  0  0  0
   -2.4904    2.6877    3.3521 N   0  0  0  0  0  0  0  0  0  0  0  0
   -1.5237    3.6523    2.9084 C   0  0  0  0  0  0  0  0  0  0  0  0
   -1.8860    5.0023    2.7897 C   0  0  0  0  0  0  0  0  0  0  0  0
   -0.9334    5.9586    2.4289 C   0  0  0  0  0  0  0  0  0  0  0  0
    0.3956    5.5772    2.2114 C   0  0  0  0  0  0  0  0  0  0  0  0
    1.6396    6.8069    1.8137 S   0  0  0  0  0  0  0  0  0  0  0  0
    1.9411    7.2518    3.5574 C   0  0  0  0  0  0  0  0  0  0  0  0
    0.7582    4.2307    2.3389 C   0  0  0  0  0  0  0  0  0  0  0  0
   -0.1926    3.2755    2.7082 C   0  0  0  0  0  0  0  0  0  0  0  0
   -3.2178    2.9501    4.5705 C   0  0  0  0  0  0  0  0  0  0  0  0
   -2.5442    3.3783    5.7279 C   0  0  0  0  0  0  0  0  0  0  0  0
   -3.2459    3.5858    6.9207 C   0  0  0  0  0  0  0  0  0  0  0  0
   -4.6263    3.3745    6.9668 C   0  0  0  0  0  0  0  0  0  0  0  0
   -5.5307    3.5986    8.4945 S   0  0  0  0  0  0  0  0  0  0  0  0
   -5.2901    1.8778    9.0553 C   0  0  0  0  0  0  0  0  0  0  0  0
   -5.3119    2.9839    5.8131 C   0  0  0  0  0  0  0  0  0  0  0  0
   -4.6120    2.7732    4.6226 C   0  0  0  0  0  0  0  0  0  0  0  0
   -3.1834    0.3005    3.1936 C   0  0  0  0  0  0  0  0  0  0  0  0
   -2.7798   -0.4139    4.6472 S   0  0  0  0  0  0  0  0  0  0  0  0
   -2.1258    2.0545    0.1957 C   0  0  0  0  0  0  0  0  0  0  0  0
   -2.5199    2.5643   -1.0514 C   0  0  0  0  0  0  0  0  0  0  0  0
   -3.8242    3.0738   -1.3499 N   0  0  0  0  0  0  0  0  0  0  0  0
   -3.9675    4.5015   -1.4809 C   0  0  0  0  0  0  0  0  0  0  0  0
   -3.3732    5.3560   -0.5381 C   0  0  0  0  0  0  0  0  0  0  0  0
   -3.4511    6.7426   -0.6798 C   0  0  0  0  0  0  0  0  0  0  0  0
   -4.1043    7.2954   -1.7881 C   0  0  0  0  0  0  0  0  0  0  0  0
   -4.1661    9.0733   -2.0012 S   0  0  0  0  0  0  0  0  0  0  0  0
   -2.4950    9.1769   -2.7267 C   0  0  0  0  0  0  0  0  0  0  0  0
   -4.7057    6.4518   -2.7293 C   0  0  0  0  0  0  0  0  0  0  0  0
   -4.6421    5.0627   -2.5744 C   0  0  0  0  0  0  0  0  0  0  0  0
   -4.9392    2.1803   -1.5582 C   0  0  0  0  0  0  0  0  0  0  0  0
   -6.2363    2.5540   -1.1641 C   0  0  0  0  0  0  0  0  0  0  0  0
   -7.3157    1.6858   -1.3605 C   0  0  0  0  0  0  0  0  0  0  0  0
   -7.1113    0.4360   -1.9531 C   0  0  0  0  0  0  0  0  0  0  0  0
   -8.5023   -0.6633   -2.2382 S   0  0  0  0  0  0  0  0  0  0  0  0
   -8.9058    0.0197   -3.8844 C   0  0  0  0  0  0  0  0  0  0  0  0
   -5.8235    0.0532   -2.3440 C   0  0  0  0  0  0  0  0  0  0  0  0
   -4.7447    0.9220   -2.1582 C   0  0  0  0  0  0  0  0  0  0  0  0
   -1.4828    2.5321   -1.9820 C   0  0  0  0  0  0  0  0  0  0  0  0
   -1.4755    2.5308   -3.6536 S   0  0  0  0  0  0  0  0  0  0  0  0
    0.1079    1.9076   -3.8038 C   0  0  0  0  0  0  0  0  0  0  0  0
    0.6235    1.6756   -2.5012 C   0  0  0  0  0  0  0  0  0  0  0  0
    1.8911    1.0641   -2.1695 N   0  0  0  0  0  0  0  0  0  0  0  0
    2.7077    1.6818   -1.1451 C   0  0  0  0  0  0  0  0  0  0  0  0
    3.3853    0.9011   -0.1897 C   0  0  0  0  0  0  0  0  0  0  0  0
    4.2372    1.5046    0.7426 C   0  0  0  0  0  0  0  0  0  0  0  0
    4.4200    2.8924    0.7420 C   0  0  0  0  0  0  0  0  0  0  0  0
    5.6456    3.6435    1.8181 S   0  0  0  0  0  0  0  0  0  0  0  0
    4.4663    4.0605    3.1441 C   0  0  0  0  0  0  0  0  0  0  0  0
    3.6982    3.6800   -0.1615 C   0  0  0  0  0  0  0  0  0  0  0  0
    2.8378    3.0811   -1.0876 C   0  0  0  0  0  0  0  0  0  0  0  0
    2.3202   -0.1621   -2.8118 C   0  0  0  0  0  0  0  0  0  0  0  0
    1.3847   -1.1280   -3.2320 C   0  0  0  0  0  0  0  0  0  0  0  0
    1.7983   -2.2510   -3.9483 C   0  0  0  0  0  0  0  0  0  0  0  0
    3.1600   -2.4547   -4.2127 C   0  0  0  0  0  0  0  0  0  0  0  0
    3.7030   -3.8815   -5.1579 S   0  0  0  0  0  0  0  0  0  0  0  0
    3.4370   -5.0904   -3.8162 C   0  0  0  0  0  0  0  0  0  0  0  0
    4.1026   -1.5454   -3.7328 C   0  0  0  0  0  0  0  0  0  0  0  0
    3.6874   -0.3936   -3.0615 C   0  0  0  0  0  0  0  0  0  0  0  0
   -0.3112    2.0256   -1.5265 C   0  0  0  0  0  0  0  0  0  0  0  0
   -0.5105    1.5347    0.0560 S   0  0  0  0  0  0  0  0  0  0  0  0
    0.5515    1.2660   -5.0570 C   0  0  0  0  0  0  0  0  0  0  0  0
    1.8060    1.3113   -5.5438 C   0  0  0  0  0  0  0  0  0  0  0  0
    2.8234    2.2922   -5.1552 C   0  0  0  0  0  0  0  0  0  0  0  0
    2.6754    3.2265   -4.3268 O   0  0  0  0  0  0  0  0  0  0  0  0
    3.9829    2.1134   -6.0004 C   0  0  0  0  0  0  0  0  0  0  0  0
    5.1067    2.9682   -6.0818 C   0  0  0  0  0  0  0  0  0  0  0  0
    5.9659    2.6707   -7.1214 C   0  0  0  0  0  0  0  0  0  0  0  0
    5.7498    1.5837   -8.0254 C   0  0  0  0  0  0  0  0  0  0  0  0
    4.6520    0.7460   -7.9538 C   0  0  0  0  0  0  0  0  0  0  0  0
    3.7543    1.0298   -6.8846 C   0  0  0  0  0  0  0  0  0  0  0  0
    2.4115    0.4488   -6.6145 C   0  0  0  0  0  0  0  0  0  0  0  0
    1.9396   -0.7321   -7.1064 C   0  0  0  0  0  0  0  0  0  0  0  0
    2.7720   -1.6279   -7.8648 C   0  0  0  0  0  0  0  0  0  0  0  0
    3.4346   -2.3637   -8.4671 N   0  0  0  0  0  0  0  0  0  0  0  0
    0.6130   -1.2307   -6.8514 C   0  0  0  0  0  0  0  0  0  0  0  0
   -0.4512   -1.6568   -6.6706 N   0  0  0  0  0  0  0  0  0  0  0  0
    6.9475    1.9895   -8.8322 C   0  0  0  0  0  0  0  0  0  0  0  0
    6.6866    2.6568  -10.2200 C   0  0  0  0  0  0  0  0  0  0  0  0
    5.3638    3.3822  -10.1898 C   0  0  0  0  0  0  0  0  0  0  0  0
    5.5180    4.4152   -9.3656 C   0  0  0  0  0  0  0  0  0  0  0  0
    6.9454    4.3628   -8.8601 C   0  0  0  0  0  0  0  0  0  0  0  0
    7.6154    3.8515  -10.1248 C   0  0  0  0  0  0  0  0  0  0  0  0
    7.1437    3.1287   -7.9269 C   0  0  0  0  0  0  0  0  0  0  0  0
   -0.7871   -7.4287    4.6626 H   0  0  0  0  0  0  0  0  0  0  0  0
    2.6824   -2.7907    2.0078 H   0  0  0  0  0  0  0  0  0  0  0  0
    3.6313   -7.7283    1.1015 H   0  0  0  0  0  0  0  0  0  0  0  0
    5.0153   -5.6081   -1.2749 H   0  0  0  0  0  0  0  0  0  0  0  0
    7.0284   -6.5672    0.3716 H   0  0  0  0  0  0  0  0  0  0  0  0
    8.2958   -5.0850   -1.4284 H   0  0  0  0  0  0  0  0  0  0  0  0
    7.8441   -2.5683   -0.9003 H   0  0  0  0  0  0  0  0  0  0  0  0
    6.2847   -2.4317    1.2444 H   0  0  0  0  0  0  0  0  0  0  0  0
    7.8640   -4.4923    1.8287 H   0  0  0  0  0  0  0  0  0  0  0  0
    6.1626   -4.9040    2.2933 H   0  0  0  0  0  0  0  0  0  0  0  0
    4.6108   -3.2917   -0.8154 H   0  0  0  0  0  0  0  0  0  0  0  0
    0.5616   -0.4277    8.4180 H   0  0  0  0  0  0  0  0  0  0  0  0
    2.8394    0.1808    9.4360 H   0  0  0  0  0  0  0  0  0  0  0  0
    7.4892   -1.0464    9.3890 H   0  0  0  0  0  0  0  0  0  0  0  0
    7.0189   -0.7094   11.1099 H   0  0  0  0  0  0  0  0  0  0  0  0
    7.1610    1.3363    8.7990 H   0  0  0  0  0  0  0  0  0  0  0  0
    8.3342    1.1728   10.1574 H   0  0  0  0  0  0  0  0  0  0  0  0
    6.6334    1.7059   10.4925 H   0  0  0  0  0  0  0  0  0  0  0  0
   -5.6688   -5.4112    2.1732 H   0  0  0  0  0  0  0  0  0  0  0  0
   -4.7033   -7.2929    0.9262 H   0  0  0  0  0  0  0  0  0  0  0  0
   -3.2220   -6.5234   -2.8456 H   0  0  0  0  0  0  0  0  0  0  0  0
   -3.4614   -8.3128   -2.8169 H   0  0  0  0  0  0  0  0  0  0  0  0
   -4.5664   -7.2604   -1.8728 H   0  0  0  0  0  0  0  0  0  0  0  0
   -1.6023   -4.7305   -0.5781 H   0  0  0  0  0  0  0  0  0  0  0  0
   -2.5349   -2.8359    0.6837 H   0  0  0  0  0  0  0  0  0  0  0  0
   -6.5991   -3.0707    0.3924 H   0  0  0  0  0  0  0  0  0  0  0  0
   -9.0284   -2.7715    0.6612 H   0  0  0  0  0  0  0  0  0  0  0  0
   -9.9364    0.1212    3.4470 H   0  0  0  0  0  0  0  0  0  0  0  0
  -11.6197    0.0717    2.7942 H   0  0  0  0  0  0  0  0  0  0  0  0
  -10.2220   -0.1484    1.6725 H   0  0  0  0  0  0  0  0  0  0  0  0
   -8.4780   -2.0372    4.8675 H   0  0  0  0  0  0  0  0  0  0  0  0
   -6.0538   -2.3481    4.6049 H   0  0  0  0  0  0  0  0  0  0  0  0
   -2.9071    5.3171    2.9717 H   0  0  0  0  0  0  0  0  0  0  0  0
   -1.2235    6.9992    2.3409 H   0  0  0  0  0  0  0  0  0  0  0  0
    2.9422    7.7187    3.6370 H   0  0  0  0  0  0  0  0  0  0  0  0
    1.9145    6.3539    4.2184 H   0  0  0  0  0  0  0  0  0  0  0  0
    1.1689    7.9748    3.8956 H   0  0  0  0  0  0  0  0  0  0  0  0
    1.7762    3.9189    2.1608 H   0  0  0  0  0  0  0  0  0  0  0  0
    0.1085    2.2464    2.8512 H   0  0  0  0  0  0  0  0  0  0  0  0
   -1.4712    3.5190    5.7145 H   0  0  0  0  0  0  0  0  0  0  0  0
   -2.7139    3.8983    7.8099 H   0  0  0  0  0  0  0  0  0  0  0  0
   -6.1673    1.5757    9.6703 H   0  0  0  0  0  0  0  0  0  0  0  0
   -5.1986    1.1659    8.2035 H   0  0  0  0  0  0  0  0  0  0  0  0
   -4.3750    1.8209    9.6845 H   0  0  0  0  0  0  0  0  0  0  0  0
   -6.3807    2.8254    5.8408 H   0  0  0  0  0  0  0  0  0  0  0  0
   -5.1537    2.4617    3.7413 H   0  0  0  0  0  0  0  0  0  0  0  0
   -2.8431    4.9398    0.3049 H   0  0  0  0  0  0  0  0  0  0  0  0
   -2.9724    7.3858    0.0538 H   0  0  0  0  0  0  0  0  0  0  0  0
   -2.3865   10.1577   -3.2318 H   0  0  0  0  0  0  0  0  0  0  0  0
   -2.3315    8.3695   -3.4724 H   0  0  0  0  0  0  0  0  0  0  0  0
   -1.7379    9.1055   -1.9206 H   0  0  0  0  0  0  0  0  0  0  0  0
   -5.2096    6.8721   -3.5912 H   0  0  0  0  0  0  0  0  0  0  0  0
   -5.0920    4.4229   -3.3189 H   0  0  0  0  0  0  0  0  0  0  0  0
   -6.4142    3.5153   -0.7013 H   0  0  0  0  0  0  0  0  0  0  0  0
   -8.3119    1.9881   -1.0645 H   0  0  0  0  0  0  0  0  0  0  0  0
   -8.1486    0.7483   -4.2472 H   0  0  0  0  0  0  0  0  0  0  0  0
   -8.9724   -0.8095   -4.6179 H   0  0  0  0  0  0  0  0  0  0  0  0
   -9.8893    0.5305   -3.8279 H   0  0  0  0  0  0  0  0  0  0  0  0
   -5.6586   -0.9150   -2.7989 H   0  0  0  0  0  0  0  0  0  0  0  0
   -3.7598    0.6046   -2.4662 H   0  0  0  0  0  0  0  0  0  0  0  0
    3.2748   -0.1751   -0.1829 H   0  0  0  0  0  0  0  0  0  0  0  0
    4.7889    0.8875    1.4391 H   0  0  0  0  0  0  0  0  0  0  0  0
    3.8214    4.9042    2.8147 H   0  0  0  0  0  0  0  0  0  0  0  0
    3.8399    3.1790    3.4076 H   0  0  0  0  0  0  0  0  0  0  0  0
    5.0326    4.3836    4.0427 H   0  0  0  0  0  0  0  0  0  0  0  0
    3.8243    4.7550   -0.1657 H   0  0  0  0  0  0  0  0  0  0  0  0
    2.3084    3.7112   -1.7893 H   0  0  0  0  0  0  0  0  0  0  0  0
    0.3271   -0.9818   -3.0470 H   0  0  0  0  0  0  0  0  0  0  0  0
    1.0617   -2.9516   -4.3166 H   0  0  0  0  0  0  0  0  0  0  0  0
    2.4800   -5.6222   -4.0174 H   0  0  0  0  0  0  0  0  0  0  0  0
    3.3809   -4.6074   -2.8160 H   0  0  0  0  0  0  0  0  0  0  0  0
    4.2716   -5.8178   -3.8223 H   0  0  0  0  0  0  0  0  0  0  0  0
    5.1580   -1.6993   -3.9320 H   0  0  0  0  0  0  0  0  0  0  0  0
    4.4338    0.3305   -2.7556 H   0  0  0  0  0  0  0  0  0  0  0  0
   -0.2140    0.6963   -5.5629 H   0  0  0  0  0  0  0  0  0  0  0  0
    5.2379    3.8373   -5.4532 H   0  0  0  0  0  0  0  0  0  0  0  0
    4.4752    0.0230   -8.7299 H   0  0  0  0  0  0  0  0  0  0  0  0
    7.7738    1.2478   -8.8124 H   0  0  0  0  0  0  0  0  0  0  0  0
    6.8383    2.0029  -11.1016 H   0  0  0  0  0  0  0  0  0  0  0  0
    4.4754    3.1524  -10.7697 H   0  0  0  0  0  0  0  0  0  0  0  0
    4.7671    5.1674   -9.1519 H   0  0  0  0  0  0  0  0  0  0  0  0
    7.3344    5.3248   -8.4643 H   0  0  0  0  0  0  0  0  0  0  0  0
    8.6848    3.5743   -9.9825 H   0  0  0  0  0  0  0  0  0  0  0  0
    7.5225    4.5539  -10.9879 H   0  0  0  0  0  0  0  0  0  0  0  0
    8.1120    3.1045   -7.3773 H   0  0  0  0  0  0  0  0  0  0  0  0
  1  2  2  3
  2  3  1  0
  3  4  2  0
  3  5  1  0
  5  6  2  0
  6  7  1  0
  7  8  2  0
  8  9  1  0
  9 10  2  0
 10 11  1  0
 11 12  2  3
 12 13  1  0
 13 14  3  0
 12 15  1  0
 15 16  3  0
  8 17  1  0
 17 18  1  0
 18 19  1  0
 19 20  2  0
 20 21  1  0
 21 22  1  0
 21 23  1  0
  1 24  1  0
 24 25  1  0
 25 26  1  0
 26 27  2  0
 27 28  1  0
 28 29  1  0
 29 30  1  0
 30 31  2  0
 31 32  1  0
 32 33  2  0
 33 34  1  0
 34 35  2  0
 34 36  1  0
 36 37  1  0
 37 38  1  0
 33 39  1  0
 29 40  2  0
 40 41  1  0
 40 42  1  0
 26 43  1  0
 43 44  2  0
 44 45  1  0
 45 46  1  0
 46 47  2  0
 47 48  1  0
 48 49  2  0
 49 50  1  0
 50 51  1  0
 49 52  1  0
 52 53  2  0
 45 54  1  0
 54 55  2  0
 55 56  1  0
 56 57  2  0
 57 58  1  0
 58 59  1  0
 57 60  1  0
 60 61  2  0
 44 62  1  0
 62 63  1  0
 63 64  1  0
 64 65  2  0
 65 66  1  0
 66 67  1  0
 67 68  2  0
 68 69  1  0
 69 70  2  0
 70 71  1  0
 71 72  1  0
 70 73  1  0
 73 74  2  0
 66 75  1  0
 75 76  2  0
 76 77  1  0
 77 78  2  0
 78 79  1  0
 79 80  1  0
 78 81  1  0
 81 82  2  0
 65 83  1  0
 83 84  1  0
 64 85  1  0
 85 86  2  0
 86 87  1  0
 87 88  1  0
 88 89  2  0
 89 90  1  0
 90 91  2  0
 91 92  1  0
 92 93  1  0
 91 94  1  0
 94 95  2  0
 87 96  1  0
 96 97  2  0
 97 98  1  0
 98 99  2  0
 99100  1  0
100101  1  0
 99102  1  0
102103  2  0
 86104  1  0
104105  1  0
105106  1  0
106107  2  0
107108  1  0
108109  1  0
109110  2  0
110111  1  0
111112  2  0
112113  1  0
113114  1  0
112115  1  0
115116  2  0
108117  1  0
117118  2  0
118119  1  0
119120  2  0
120121  1  0
121122  1  0
120123  1  0
123124  2  0
107125  1  0
125126  1  0
106127  1  0
127128  2  3
128129  1  0
129130  2  0
129131  1  0
131132  2  0
132133  1  0
133134  2  0
134135  1  0
135136  2  0
136137  1  0
137138  2  3
138139  1  0
139140  3  0
138141  1  0
141142  3  0
134143  1  0
143144  1  0
144145  1  0
145146  2  0
146147  1  0
147148  1  0
147149  1  0
 11  2  1  0
 23 17  1  0
 41 24  2  0
 84 43  1  0
126 85  1  0
137128  1  0
149143  1  0
 10  5  1  0
 22 18  1  0
 41 27  1  0
 53 46  1  0
 61 54  1  0
 83 62  2  0
 95 88  1  0
103 96  1  0
125104  2  0
136131  1  0
148144  1  0
 23  7  1  0
 39 30  1  0
 74 67  1  0
 82 75  1  0
116109  1  0
124117  1  0
149133  1  0
  1150  1  0
  6151  1  0
  9152  1  0
 17153  1  0
 18154  1  0
 19155  1  0
 20156  1  0
 21157  1  0
 22158  1  0
 22159  1  0
 23160  1  0
 31161  1  0
 32162  1  0
 37163  1  0
 37164  1  0
 38165  1  0
 38166  1  0
 38167  1  0
 47168  1  0
 48169  1  0
 51170  1  0
 51171  1  0
 51172  1  0
 52173  1  0
 53174  1  0
 55175  1  0
 56176  1  0
 59177  1  0
 59178  1  0
 59179  1  0
 60180  1  0
 61181  1  0
 68182  1  0
 69183  1  0
 72184  1  0
 72185  1  0
 72186  1  0
 73187  1  0
 74188  1  0
 76189  1  0
 77190  1  0
 80191  1  0
 80192  1  0
 80193  1  0
 81194  1  0
 82195  1  0
 89196  1  0
 90197  1  0
 93198  1  0
 93199  1  0
 93200  1  0
 94201  1  0
 95202  1  0
 97203  1  0
 98204  1  0
101205  1  0
101206  1  0
101207  1  0
102208  1  0
103209  1  0
110210  1  0
111211  1  0
114212  1  0
114213  1  0
114214  1  0
115215  1  0
116216  1  0
118217  1  0
119218  1  0
122219  1  0
122220  1  0
122221  1  0
123222  1  0
124223  1  0
127224  1  0
132225  1  0
135226  1  0
143227  1  0
144228  1  0
145229  1  0
146230  1  0
147231  1  0
148232  1  0
148233  1  0
149234  1  0
M  END

