
     RDKit          3D

207225  0  0  0  0  0  0  0  0999 V2000
   -0.1169    5.0641   -4.2448 C   0  0  0  0  0  0  0  0  0  0  0  0
    0.9560    4.2430   -4.3584 C   0  0  0  0  0  0  0  0  0  0  0  0
    1.1996    3.0433   -3.5412 C   0  0  0  0  0  0  0  0  0  0  0  0
    0.5125    2.6427   -2.5660 O   0  0  0  0  0  0  0  0  0  0  0  0
    2.2968    2.2992   -4.1065 C   0  0  0  0  0  0  0  0  0  0  0  0
    2.7703    1.0359   -3.6782 C   0  0  0  0  0  0  0  0  0  0  0  0
    3.7557    0.5114   -4.4863 C   0  0  0  0  0  0  0  0  0  0  0  0
    4.2447    1.1753   -5.6597 C   0  0  0  0  0  0  0  0  0  0  0  0
    3.7752    2.4104   -6.0849 C   0  0  0  0  0  0  0  0  0  0  0  0
    2.7826    2.9877   -5.2422 C   0  0  0  0  0  0  0  0  0  0  0  0
    2.0441    4.2745   -5.3846 C   0  0  0  0  0  0  0  0  0  0  0  0
    2.4557    5.3566   -6.0931 C   0  0  0  0  0  0  0  0  0  0  0  0
    1.7884    6.6290   -6.0209 C   0  0  0  0  0  0  0  0  0  0  0  0
    1.2658    7.6614   -5.9758 N   0  0  0  0  0  0  0  0  0  0  0  0
    3.6997    5.3745   -6.8197 C   0  0  0  0  0  0  0  0  0  0  0  0
    4.7017    5.4131   -7.3940 N   0  0  0  0  0  0  0  0  0  0  0  0
    5.1571    0.0199   -5.9485 C   0  0  0  0  0  0  0  0  0  0  0  0
    4.7270   -0.9424   -7.0975 C   0  0  0  0  0  0  0  0  0  0  0  0
    5.5680   -2.1827   -6.9292 C   0  0  0  0  0  0  0  0  0  0  0  0
    5.1235   -2.8002   -5.8265 C   0  0  0  0  0  0  0  0  0  0  0  0
    3.9962   -1.9489   -5.2893 C   0  0  0  0  0  0  0  0  0  0  0  0
    3.3979   -1.4923   -6.6084 C   0  0  0  0  0  0  0  0  0  0  0  0
    4.6633   -0.6536   -4.7426 C   0  0  0  0  0  0  0  0  0  0  0  0
   -1.0597    4.9487   -3.1118 C   0  0  0  0  0  0  0  0  0  0  0  0
   -2.3076    4.3400   -3.3249 C   0  0  0  0  0  0  0  0  0  0  0  0
   -2.7616    4.1350   -4.5873 F   0  0  0  0  0  0  0  0  0  0  0  0
   -2.9826    3.7400   -2.2507 C   0  0  0  0  0  0  0  0  0  0  0  0
   -4.0526    2.9444   -2.5005 F   0  0  0  0  0  0  0  0  0  0  0  0
   -2.4343    3.7914   -0.9611 C   0  0  0  0  0  0  0  0  0  0  0  0
   -1.3273    4.6201   -0.7204 C   0  0  0  0  0  0  0  0  0  0  0  0
   -0.7953    4.6814    0.5291 N   0  0  0  0  0  0  0  0  0  0  0  0
    0.4130    5.2438    0.7796 C   0  0  0  0  0  0  0  0  0  0  0  0
    0.8925    5.2465    2.1761 C   0  0  0  0  0  0  0  0  0  0  0  0
    1.4291    6.4064    2.7505 C   0  0  0  0  0  0  0  0  0  0  0  0
    1.8767    6.3948    4.0737 C   0  0  0  0  0  0  0  0  0  0  0  0
    1.7855    5.2216    4.8460 C   0  0  0  0  0  0  0  0  0  0  0  0
    2.2308    5.1570    6.1750 O   0  0  0  0  0  0  0  0  0  0  0  0
    2.8188    6.2459    6.8843 C   0  0  0  0  0  0  0  0  0  0  0  0
    3.2201    5.7843    8.2778 C   0  0  0  0  0  0  0  0  0  0  0  0
    1.2243    4.0739    4.2754 C   0  0  0  0  0  0  0  0  0  0  0  0
    0.7732    4.0850    2.9550 C   0  0  0  0  0  0  0  0  0  0  0  0
    1.1223    2.9348    5.0066 F   0  0  0  0  0  0  0  0  0  0  0  0
    1.1761    5.7259   -0.3093 C   0  0  0  0  0  0  0  0  0  0  0  0
    0.6280    5.6913   -1.5568 N   0  0  0  0  0  0  0  0  0  0  0  0
   -0.6076    5.1653   -1.7963 C   0  0  0  0  0  0  0  0  0  0  0  0
    2.6019    6.0996   -0.1754 C   0  0  0  0  0  0  0  0  0  0  0  0
    3.5018    5.2569    0.4978 C   0  0  0  0  0  0  0  0  0  0  0  0
    4.8484    5.6013    0.6131 C   0  0  0  0  0  0  0  0  0  0  0  0
    5.3307    6.7893    0.0337 C   0  0  0  0  0  0  0  0  0  0  0  0
    6.6768    7.1825    0.1240 O   0  0  0  0  0  0  0  0  0  0  0  0
    7.6999    6.4834    0.8345 C   0  0  0  0  0  0  0  0  0  0  0  0
    7.5947    6.7453    2.3349 C   0  0  0  0  0  0  0  0  0  0  0  0
    4.4386    7.6122   -0.6730 C   0  0  0  0  0  0  0  0  0  0  0  0
    4.8891    8.7543   -1.2526 F   0  0  0  0  0  0  0  0  0  0  0  0
    3.0849    7.2648   -0.7856 C   0  0  0  0  0  0  0  0  0  0  0  0
   -2.4826    2.5752   -0.1440 C   0  0  0  0  0  0  0  0  0  0  0  0
   -3.2764    2.2937    0.9845 C   0  0  0  0  0  0  0  0  0  0  0  0
   -4.5977    2.8168    1.1887 N   0  0  0  0  0  0  0  0  0  0  0  0
   -5.7366    2.1588    0.5689 C   0  0  0  0  0  0  0  0  0  0  0  0
   -6.9865    2.8049    0.4852 C   0  0  0  0  0  0  0  0  0  0  0  0
   -8.0960    2.1492   -0.0585 C   0  0  0  0  0  0  0  0  0  0  0  0
   -7.9754    0.8378   -0.5356 C   0  0  0  0  0  0  0  0  0  0  0  0
   -9.4140   -0.0375   -1.1581 S   0  0  0  0  0  0  0  0  0  0  0  0
   -9.0669    0.3505   -2.9000 C   0  0  0  0  0  0  0  0  0  0  0  0
   -6.7381    0.2008   -0.4948 C   0  0  0  0  0  0  0  0  0  0  0  0
   -5.6262    0.8551    0.0372 C   0  0  0  0  0  0  0  0  0  0  0  0
   -4.7700    3.8878    2.1350 C   0  0  0  0  0  0  0  0  0  0  0  0
   -4.1011    5.1078    1.9590 C   0  0  0  0  0  0  0  0  0  0  0  0
   -4.3007    6.1657    2.8510 C   0  0  0  0  0  0  0  0  0  0  0  0
   -5.1743    6.0124    3.9337 C   0  0  0  0  0  0  0  0  0  0  0  0
   -5.4203    7.3679    5.0836 S   0  0  0  0  0  0  0  0  0  0  0  0
   -6.8269    8.0654    4.1611 C   0  0  0  0  0  0  0  0  0  0  0  0
   -5.8309    4.7934    4.1293 C   0  0  0  0  0  0  0  0  0  0  0  0
   -5.6306    3.7355    3.2361 C   0  0  0  0  0  0  0  0  0  0  0  0
   -2.7658    1.1805    1.6687 C   0  0  0  0  0  0  0  0  0  0  0  0
   -3.3026    0.1721    2.8874 S   0  0  0  0  0  0  0  0  0  0  0  0
   -2.0525   -1.0026    2.7314 C   0  0  0  0  0  0  0  0  0  0  0  0
   -1.2229   -0.5825    1.6631 C   0  0  0  0  0  0  0  0  0  0  0  0
   -0.1979   -1.3395    1.0053 N   0  0  0  0  0  0  0  0  0  0  0  0
   -0.4667   -1.7919   -0.3578 C   0  0  0  0  0  0  0  0  0  0  0  0
   -1.7979   -2.0517   -0.7593 C   0  0  0  0  0  0  0  0  0  0  0  0
   -2.0997   -2.3634   -2.0854 C   0  0  0  0  0  0  0  0  0  0  0  0
   -1.0767   -2.4480   -3.0357 C   0  0  0  0  0  0  0  0  0  0  0  0
   -1.4909   -2.7252   -4.7600 S   0  0  0  0  0  0  0  0  0  0  0  0
   -1.4916   -4.5405   -4.6155 C   0  0  0  0  0  0  0  0  0  0  0  0
    0.2503   -2.2501   -2.6498 C   0  0  0  0  0  0  0  0  0  0  0  0
    0.5586   -1.9340   -1.3196 C   0  0  0  0  0  0  0  0  0  0  0  0
    1.1373   -1.0950    1.4810 C   0  0  0  0  0  0  0  0  0  0  0  0
    1.9332   -0.0914    0.8979 C   0  0  0  0  0  0  0  0  0  0  0  0
    3.2087    0.1781    1.4008 C   0  0  0  0  0  0  0  0  0  0  0  0
    3.6947   -0.5348    2.5023 C   0  0  0  0  0  0  0  0  0  0  0  0
    5.3272   -0.1706    3.1530 S   0  0  0  0  0  0  0  0  0  0  0  0
    6.1294   -1.5130    2.2225 C   0  0  0  0  0  0  0  0  0  0  0  0
    2.8888   -1.5045    3.1135 C   0  0  0  0  0  0  0  0  0  0  0  0
    1.6174   -1.7825    2.6063 C   0  0  0  0  0  0  0  0  0  0  0  0
   -1.6589    0.6239    1.1277 C   0  0  0  0  0  0  0  0  0  0  0  0
   -1.2033    1.4595   -0.2344 S   0  0  0  0  0  0  0  0  0  0  0  0
   -2.0188   -2.2424    3.5706 C   0  0  0  0  0  0  0  0  0  0  0  0
   -2.4703   -2.1315    4.9036 C   0  0  0  0  0  0  0  0  0  0  0  0
   -2.6170   -0.9142    5.4884 F   0  0  0  0  0  0  0  0  0  0  0  0
   -2.7907   -3.2624    5.6546 C   0  0  0  0  0  0  0  0  0  0  0  0
   -3.2331   -3.1030    6.9326 F   0  0  0  0  0  0  0  0  0  0  0  0
   -2.6767   -4.5400    5.0939 C   0  0  0  0  0  0  0  0  0  0  0  0
   -2.1203   -4.6795    3.8186 C   0  0  0  0  0  0  0  0  0  0  0  0
   -1.9765   -5.9150    3.2715 N   0  0  0  0  0  0  0  0  0  0  0  0
   -1.3922   -6.0997    2.0623 C   0  0  0  0  0  0  0  0  0  0  0  0
   -1.3717   -7.4518    1.4834 C   0  0  0  0  0  0  0  0  0  0  0  0
   -0.1854   -8.1905    1.4108 C   0  0  0  0  0  0  0  0  0  0  0  0
   -0.1663   -9.4148    0.7344 C   0  0  0  0  0  0  0  0  0  0  0  0
   -1.3187   -9.9118    0.1088 C   0  0  0  0  0  0  0  0  0  0  0  0
   -1.1951  -11.1223   -0.5957 O   0  0  0  0  0  0  0  0  0  0  0  0
   -2.2463  -11.8444   -1.2405 C   0  0  0  0  0  0  0  0  0  0  0  0
   -3.0976  -12.5818   -0.2140 C   0  0  0  0  0  0  0  0  0  0  0  0
   -2.5177   -9.1711    0.2073 C   0  0  0  0  0  0  0  0  0  0  0  0
   -2.5401   -7.9578    0.9049 C   0  0  0  0  0  0  0  0  0  0  0  0
   -3.6607   -9.5678   -0.3916 F   0  0  0  0  0  0  0  0  0  0  0  0
   -0.9101   -4.9810    1.3553 C   0  0  0  0  0  0  0  0  0  0  0  0
   -1.1300   -3.7378    1.8669 N   0  0  0  0  0  0  0  0  0  0  0  0
   -1.7455   -3.5410    3.0634 C   0  0  0  0  0  0  0  0  0  0  0  0
   -0.0528   -5.1342    0.1559 C   0  0  0  0  0  0  0  0  0  0  0  0
   -0.5037   -5.8315   -0.9757 C   0  0  0  0  0  0  0  0  0  0  0  0
    0.3773   -6.1265   -2.0230 C   0  0  0  0  0  0  0  0  0  0  0  0
    1.7122   -5.6928   -1.9746 C   0  0  0  0  0  0  0  0  0  0  0  0
    2.6409   -5.9843   -2.9844 O   0  0  0  0  0  0  0  0  0  0  0  0
    2.3365   -6.7330   -4.1599 C   0  0  0  0  0  0  0  0  0  0  0  0
    3.6029   -6.9152   -4.9883 C   0  0  0  0  0  0  0  0  0  0  0  0
    2.1442   -4.9478   -0.8669 C   0  0  0  0  0  0  0  0  0  0  0  0
    3.4207   -4.4979   -0.8102 F   0  0  0  0  0  0  0  0  0  0  0  0
    1.2717   -4.6818    0.1939 C   0  0  0  0  0  0  0  0  0  0  0  0
   -3.0868   -5.7390    5.8650 C   0  0  0  0  0  0  0  0  0  0  0  0
   -4.3367   -5.9400    6.3172 C   0  0  0  0  0  0  0  0  0  0  0  0
   -5.4008   -5.0017    6.0661 C   0  0  0  0  0  0  0  0  0  0  0  0
   -6.2498   -4.2372    5.8741 N   0  0  0  0  0  0  0  0  0  0  0  0
   -4.6452   -7.1289    7.0649 C   0  0  0  0  0  0  0  0  0  0  0  0
   -4.8888   -8.0775    7.6802 N   0  0  0  0  0  0  0  0  0  0  0  0
   -0.3588    5.7781   -5.0094 H   0  0  0  0  0  0  0  0  0  0  0  0
    2.3801    0.5144   -2.8151 H   0  0  0  0  0  0  0  0  0  0  0  0
    4.1243    2.8506   -7.0058 H   0  0  0  0  0  0  0  0  0  0  0  0
    6.2381    0.2854   -5.9252 H   0  0  0  0  0  0  0  0  0  0  0  0
    4.7270   -0.5005   -8.1177 H   0  0  0  0  0  0  0  0  0  0  0  0
    6.3252   -2.5619   -7.6104 H   0  0  0  0  0  0  0  0  0  0  0  0
    5.4529   -3.7630   -5.4522 H   0  0  0  0  0  0  0  0  0  0  0  0
    3.3044   -2.4673   -4.5894 H   0  0  0  0  0  0  0  0  0  0  0  0
    3.0040   -2.3330   -7.2332 H   0  0  0  0  0  0  0  0  0  0  0  0
    2.5971   -0.7223   -6.5061 H   0  0  0  0  0  0  0  0  0  0  0  0
    5.4298   -0.8064   -3.9488 H   0  0  0  0  0  0  0  0  0  0  0  0
    1.5001    7.3211    2.1753 H   0  0  0  0  0  0  0  0  0  0  0  0
    2.2946    7.3042    4.4872 H   0  0  0  0  0  0  0  0  0  0  0  0
    2.0876    7.0779    6.9748 H   0  0  0  0  0  0  0  0  0  0  0  0
    3.7234    6.6004    6.3440 H   0  0  0  0  0  0  0  0  0  0  0  0
    2.3359    5.3946    8.8229 H   0  0  0  0  0  0  0  0  0  0  0  0
    3.9855    4.9827    8.2041 H   0  0  0  0  0  0  0  0  0  0  0  0
    3.6534    6.6333    8.8478 H   0  0  0  0  0  0  0  0  0  0  0  0
    0.3514    3.1813    2.5307 H   0  0  0  0  0  0  0  0  0  0  0  0
    3.1595    4.3237    0.9287 H   0  0  0  0  0  0  0  0  0  0  0  0
    5.5018    4.9307    1.1495 H   0  0  0  0  0  0  0  0  0  0  0  0
    7.6658    5.3951    0.6198 H   0  0  0  0  0  0  0  0  0  0  0  0
    8.6865    6.8546    0.4845 H   0  0  0  0  0  0  0  0  0  0  0  0
    6.6335    6.3724    2.7376 H   0  0  0  0  0  0  0  0  0  0  0  0
    7.6717    7.8352    2.5333 H   0  0  0  0  0  0  0  0  0  0  0  0
    8.4258    6.2292    2.8574 H   0  0  0  0  0  0  0  0  0  0  0  0
    2.4159    7.9175   -1.3363 H   0  0  0  0  0  0  0  0  0  0  0  0
   -7.1100    3.8157    0.8487 H   0  0  0  0  0  0  0  0  0  0  0  0
   -9.0512    2.6564   -0.0950 H   0  0  0  0  0  0  0  0  0  0  0  0
   -9.1610    1.4426   -3.0742 H   0  0  0  0  0  0  0  0  0  0  0  0
   -8.0446    0.0092   -3.1738 H   0  0  0  0  0  0  0  0  0  0  0  0
   -9.7997   -0.1849   -3.5408 H   0  0  0  0  0  0  0  0  0  0  0  0
   -6.6374   -0.8066   -0.8777 H   0  0  0  0  0  0  0  0  0  0  0  0
   -4.6897    0.3145    0.0495 H   0  0  0  0  0  0  0  0  0  0  0  0
   -3.4466    5.2567    1.1136 H   0  0  0  0  0  0  0  0  0  0  0  0
   -3.7872    7.1046    2.6936 H   0  0  0  0  0  0  0  0  0  0  0  0
   -6.5294    8.2895    3.1148 H   0  0  0  0  0  0  0  0  0  0  0  0
   -7.6740    7.3481    4.1684 H   0  0  0  0  0  0  0  0  0  0  0  0
   -7.1557    9.0055    4.6507 H   0  0  0  0  0  0  0  0  0  0  0  0
   -6.5007    4.6688    4.9701 H   0  0  0  0  0  0  0  0  0  0  0  0
   -6.1477    2.8001    3.3965 H   0  0  0  0  0  0  0  0  0  0  0  0
   -2.6164   -1.9856   -0.0525 H   0  0  0  0  0  0  0  0  0  0  0  0
   -3.1338   -2.5178   -2.3778 H   0  0  0  0  0  0  0  0  0  0  0  0
   -2.1342   -4.8688   -3.7722 H   0  0  0  0  0  0  0  0  0  0  0  0
   -1.8742   -4.9805   -5.5623 H   0  0  0  0  0  0  0  0  0  0  0  0
   -0.4472   -4.8895   -4.4682 H   0  0  0  0  0  0  0  0  0  0  0  0
    1.0400   -2.3117   -3.3836 H   0  0  0  0  0  0  0  0  0  0  0  0
    1.5973   -1.7934   -1.0615 H   0  0  0  0  0  0  0  0  0  0  0  0
    1.5636    0.4809    0.0597 H   0  0  0  0  0  0  0  0  0  0  0  0
    3.8142    0.9479    0.9329 H   0  0  0  0  0  0  0  0  0  0  0  0
    5.9197   -1.4150    1.1342 H   0  0  0  0  0  0  0  0  0  0  0  0
    5.7632   -2.4956    2.5856 H   0  0  0  0  0  0  0  0  0  0  0  0
    7.2273   -1.4582    2.3826 H   0  0  0  0  0  0  0  0  0  0  0  0
    3.2549   -2.0407    3.9792 H   0  0  0  0  0  0  0  0  0  0  0  0
    1.0098   -2.5288    3.0984 H   0  0  0  0  0  0  0  0  0  0  0  0
    0.7275   -7.8077    1.8544 H   0  0  0  0  0  0  0  0  0  0  0  0
    0.7583   -9.9669    0.6781 H   0  0  0  0  0  0  0  0  0  0  0  0
   -2.8611  -11.1811   -1.8834 H   0  0  0  0  0  0  0  0  0  0  0  0
   -1.7832  -12.5906   -1.9218 H   0  0  0  0  0  0  0  0  0  0  0  0
   -3.5950  -11.8779    0.4770 H   0  0  0  0  0  0  0  0  0  0  0  0
   -2.4616  -13.2771    0.3671 H   0  0  0  0  0  0  0  0  0  0  0  0
   -3.8808  -13.1659   -0.7417 H   0  0  0  0  0  0  0  0  0  0  0  0
   -3.4558   -7.3858    0.9407 H   0  0  0  0  0  0  0  0  0  0  0  0
   -1.5223   -6.1849   -1.0348 H   0  0  0  0  0  0  0  0  0  0  0  0
    0.0129   -6.7177   -2.8500 H   0  0  0  0  0  0  0  0  0  0  0  0
    1.9377   -7.7349   -3.8851 H   0  0  0  0  0  0  0  0  0  0  0  0
    1.5882   -6.1789   -4.7682 H   0  0  0  0  0  0  0  0  0  0  0  0
    4.0029   -5.9262   -5.2876 H   0  0  0  0  0  0  0  0  0  0  0  0
    3.3683   -7.4954   -5.9027 H   0  0  0  0  0  0  0  0  0  0  0  0
    4.3652   -7.4688   -4.3990 H   0  0  0  0  0  0  0  0  0  0  0  0
    1.6381   -4.1436    1.0516 H   0  0  0  0  0  0  0  0  0  0  0  0
   -2.3436   -6.5077    6.0151 H   0  0  0  0  0  0  0  0  0  0  0  0
  1  2  2  3
  2  3  1  0
  3  4  2  0
  3  5  1  0
  5  6  2  0
  6  7  1  0
  7  8  2  0
  8  9  1  0
  9 10  2  0
 10 11  1  0
 11 12  2  3
 12 13  1  0
 13 14  3  0
 12 15  1  0
 15 16  3  0
  8 17  1  0
 17 18  1  0
 18 19  1  0
 19 20  2  0
 20 21  1  0
 21 22  1  0
 21 23  1  0
  1 24  1  0
 24 25  2  0
 25 26  1  0
 25 27  1  0
 27 28  1  0
 27 29  2  0
 29 30  1  0
 30 31  2  0
 31 32  1  0
 32 33  1  0
 33 34  2  0
 34 35  1  0
 35 36  2  0
 36 37  1  0
 37 38  1  0
 38 39  1  0
 36 40  1  0
 40 41  2  0
 40 42  1  0
 32 43  2  0
 43 44  1  0
 44 45  2  0
 43 46  1  0
 46 47  2  0
 47 48  1  0
 48 49  2  0
 49 50  1  0
 50 51  1  0
 51 52  1  0
 49 53  1  0
 53 54  1  0
 53 55  2  0
 29 56  1  0
 56 57  2  0
 57 58  1  0
 58 59  1  0
 59 60  2  0
 60 61  1  0
 61 62  2  0
 62 63  1  0
 63 64  1  0
 62 65  1  0
 65 66  2  0
 58 67  1  0
 67 68  2  0
 68 69  1  0
 69 70  2  0
 70 71  1  0
 71 72  1  0
 70 73  1  0
 73 74  2  0
 57 75  1  0
 75 76  1  0
 76 77  1  0
 77 78  2  0
 78 79  1  0
 79 80  1  0
 80 81  2  0
 81 82  1  0
 82 83  2  0
 83 84  1  0
 84 85  1  0
 83 86  1  0
 86 87  2  0
 79 88  1  0
 88 89  2  0
 89 90  1  0
 90 91  2  0
 91 92  1  0
 92 93  1  0
 91 94  1  0
 94 95  2  0
 78 96  1  0
 96 97  1  0
 77 98  1  0
 98 99  2  0
 99100  1  0
 99101  1  0
101102  1  0
101103  2  0
103104  1  0
104105  2  0
105106  1  0
106107  1  0
107108  2  0
108109  1  0
109110  2  0
110111  1  0
111112  1  0
112113  1  0
110114  1  0
114115  2  0
114116  1  0
106117  2  0
117118  1  0
118119  2  0
117120  1  0
120121  2  0
121122  1  0
122123  2  0
123124  1  0
124125  1  0
125126  1  0
123127  1  0
127128  1  0
127129  2  0
103130  1  0
130131  2  3
131132  1  0
132133  3  0
131134  1  0
134135  3  0
 11  2  1  0
 23 17  1  0
 45 24  1  0
 55 46  1  0
 97 56  1  0
119 98  1  0
129120  1  0
 10  5  1  0
 22 18  1  0
 45 30  1  0
 66 59  1  0
 74 67  1  0
 96 75  2  0
119104  1  0
 23  7  1  0
 41 33  1  0
 87 80  1  0
 95 88  1  0
115107  1  0
  1136  1  0
  6137  1  0
  9138  1  0
 17139  1  0
 18140  1  0
 19141  1  0
 20142  1  0
 21143  1  0
 22144  1  0
 22145  1  0
 23146  1  0
 34147  1  0
 35148  1  0
 38149  1  0
 38150  1  0
 39151  1  0
 39152  1  0
 39153  1  0
 41154  1  0
 47155  1  0
 48156  1  0
 51157  1  0
 51158  1  0
 52159  1  0
 52160  1  0
 52161  1  0
 55162  1  0
 60163  1  0
 61164  1  0
 64165  1  0
 64166  1  0
 64167  1  0
 65168  1  0
 66169  1  0
 68170  1  0
 69171  1  0
 72172  1  0
 72173  1  0
 72174  1  0
 73175  1  0
 74176  1  0
 81177  1  0
 82178  1  0
 85179  1  0
 85180  1  0
 85181  1  0
 86182  1  0
 87183  1  0
 89184  1  0
 90185  1  0
 93186  1  0
 93187  1  0
 93188  1  0
 94189  1  0
 95190  1  0
108191  1  0
109192  1  0
112193  1  0
112194  1  0
113195  1  0
113196  1  0
113197  1  0
115198  1  0
121199  1  0
122200  1  0
125201  1  0
125202  1  0
126203  1  0
126204  1  0
126205  1  0
129206  1  0
130207  1  0
M  END

