
     RDKit          3D

215237  0  0  0  0  0  0  0  0999 V2000
   -6.6609   -0.4442    1.4860 C   0  0  0  0  0  0  0  0  0  0  0  0
   -7.8966   -0.6728    1.0015 C   0  0  0  0  0  0  0  0  0  0  0  0
   -8.1927   -1.2344   -0.3298 C   0  0  0  0  0  0  0  0  0  0  0  0
   -7.4806   -1.1009   -1.3613 O   0  0  0  0  0  0  0  0  0  0  0  0
   -9.4111   -2.0140   -0.2443 C   0  0  0  0  0  0  0  0  0  0  0  0
   -9.8036   -3.0239   -1.1467 C   0  0  0  0  0  0  0  0  0  0  0  0
  -10.6705   -3.9480   -0.5898 C   0  0  0  0  0  0  0  0  0  0  0  0
  -11.1297   -3.8772    0.7622 C   0  0  0  0  0  0  0  0  0  0  0  0
  -10.8013   -2.8488    1.6245 C   0  0  0  0  0  0  0  0  0  0  0  0
   -9.9314   -1.8790    1.0679 C   0  0  0  0  0  0  0  0  0  0  0  0
   -9.1234   -0.8927    1.8120 C   0  0  0  0  0  0  0  0  0  0  0  0
   -9.5236   -0.1902    2.8986 C   0  0  0  0  0  0  0  0  0  0  0  0
  -10.8735   -0.2963    3.4027 C   0  0  0  0  0  0  0  0  0  0  0  0
  -11.9678   -0.3483    3.7778 N   0  0  0  0  0  0  0  0  0  0  0  0
   -8.6935    0.8068    3.5248 C   0  0  0  0  0  0  0  0  0  0  0  0
   -8.0411    1.6066    4.0397 N   0  0  0  0  0  0  0  0  0  0  0  0
  -11.7164   -5.2486    0.6553 C   0  0  0  0  0  0  0  0  0  0  0  0
  -10.9368   -6.4208    1.3276 C   0  0  0  0  0  0  0  0  0  0  0  0
   -9.4474   -6.1372    1.3092 C   0  0  0  0  0  0  0  0  0  0  0  0
   -9.0610   -6.1950    0.0372 C   0  0  0  0  0  0  0  0  0  0  0  0
  -10.3014   -6.5200   -0.7794 C   0  0  0  0  0  0  0  0  0  0  0  0
  -10.9916   -7.4435    0.2080 C   0  0  0  0  0  0  0  0  0  0  0  0
  -11.2818   -5.3108   -0.7450 C   0  0  0  0  0  0  0  0  0  0  0  0
   -5.4413   -0.8572    0.7565 C   0  0  0  0  0  0  0  0  0  0  0  0
   -5.2311   -2.2108    0.4673 C   0  0  0  0  0  0  0  0  0  0  0  0
   -6.1426   -3.1541    0.8457 F   0  0  0  0  0  0  0  0  0  0  0  0
   -4.0879   -2.6185   -0.2296 C   0  0  0  0  0  0  0  0  0  0  0  0
   -3.9898   -3.9097   -0.6301 F   0  0  0  0  0  0  0  0  0  0  0  0
   -3.0951   -1.6911   -0.5798 C   0  0  0  0  0  0  0  0  0  0  0  0
   -3.3858   -0.3130   -0.4267 C   0  0  0  0  0  0  0  0  0  0  0  0
   -2.6443    0.6307   -1.0576 N   0  0  0  0  0  0  0  0  0  0  0  0
   -2.9212    1.9555   -0.9585 C   0  0  0  0  0  0  0  0  0  0  0  0
   -2.3328    2.8525   -1.9687 C   0  0  0  0  0  0  0  0  0  0  0  0
   -1.3303    3.7761   -1.6611 C   0  0  0  0  0  0  0  0  0  0  0  0
   -0.8944    4.6914   -2.6296 C   0  0  0  0  0  0  0  0  0  0  0  0
   -1.4644    4.6917   -3.9073 C   0  0  0  0  0  0  0  0  0  0  0  0
   -2.4797    3.7643   -4.2234 C   0  0  0  0  0  0  0  0  0  0  0  0
   -3.1376    3.7439   -5.4621 O   0  0  0  0  0  0  0  0  0  0  0  0
   -3.0463    4.7707   -6.4446 C   0  0  0  0  0  0  0  0  0  0  0  0
   -3.9932    4.4446   -7.5969 C   0  0  0  0  0  0  0  0  0  0  0  0
   -2.8737    2.8247   -3.2679 C   0  0  0  0  0  0  0  0  0  0  0  0
   -3.9483    2.3779   -0.0927 C   0  0  0  0  0  0  0  0  0  0  0  0
   -4.7298    1.4301    0.4943 N   0  0  0  0  0  0  0  0  0  0  0  0
   -4.5216    0.0991    0.2986 C   0  0  0  0  0  0  0  0  0  0  0  0
   -4.1627    3.7978    0.2731 C   0  0  0  0  0  0  0  0  0  0  0  0
   -4.1823    4.1487    1.6319 C   0  0  0  0  0  0  0  0  0  0  0  0
   -4.2600    5.4929    2.0157 C   0  0  0  0  0  0  0  0  0  0  0  0
   -4.3289    6.4974    1.0509 C   0  0  0  0  0  0  0  0  0  0  0  0
   -4.3366    6.1628   -0.3145 C   0  0  0  0  0  0  0  0  0  0  0  0
   -4.3519    7.1344   -1.3345 O   0  0  0  0  0  0  0  0  0  0  0  0
   -4.2729    8.5439   -1.1354 C   0  0  0  0  0  0  0  0  0  0  0  0
   -5.6432    9.1218   -0.7942 C   0  0  0  0  0  0  0  0  0  0  0  0
   -4.2948    4.8118   -0.6924 C   0  0  0  0  0  0  0  0  0  0  0  0
   -1.7376   -2.1638   -0.9925 C   0  0  0  0  0  0  0  0  0  0  0  0
   -0.9440   -3.1030   -0.2863 C   0  0  0  0  0  0  0  0  0  0  0  0
   -1.3451   -3.7822    0.9217 N   0  0  0  0  0  0  0  0  0  0  0  0
   -1.9297   -5.0957    0.7930 C   0  0  0  0  0  0  0  0  0  0  0  0
   -3.0748   -5.4414    1.5263 C   0  0  0  0  0  0  0  0  0  0  0  0
   -3.6786   -6.6877    1.3584 C   0  0  0  0  0  0  0  0  0  0  0  0
   -3.1372   -7.6101    0.4552 C   0  0  0  0  0  0  0  0  0  0  0  0
   -3.9209   -9.2047    0.2189 S   0  0  0  0  0  0  0  0  0  0  0  0
   -4.8039   -8.6880   -1.2906 C   0  0  0  0  0  0  0  0  0  0  0  0
   -1.9813   -7.2879   -0.2587 C   0  0  0  0  0  0  0  0  0  0  0  0
   -1.3896   -6.0299   -0.1053 C   0  0  0  0  0  0  0  0  0  0  0  0
   -1.0027   -3.2308    2.2223 C   0  0  0  0  0  0  0  0  0  0  0  0
   -0.6409   -1.8705    2.3634 C   0  0  0  0  0  0  0  0  0  0  0  0
   -0.2962   -1.3436    3.6077 C   0  0  0  0  0  0  0  0  0  0  0  0
   -0.3396   -2.1501    4.7499 C   0  0  0  0  0  0  0  0  0  0  0  0
    0.0929   -1.4683    6.3614 S   0  0  0  0  0  0  0  0  0  0  0  0
   -1.5823   -0.8344    6.6759 C   0  0  0  0  0  0  0  0  0  0  0  0
   -0.6432   -3.5087    4.6341 C   0  0  0  0  0  0  0  0  0  0  0  0
   -0.9594   -4.0476    3.3791 C   0  0  0  0  0  0  0  0  0  0  0  0
    0.3905   -3.0498   -0.6908 C   0  0  0  0  0  0  0  0  0  0  0  0
    1.8114   -3.6659   -0.0396 S   0  0  0  0  0  0  0  0  0  0  0  0
    2.8124   -2.6305   -0.9653 C   0  0  0  0  0  0  0  0  0  0  0  0
    2.0113   -1.8768   -1.8511 C   0  0  0  0  0  0  0  0  0  0  0  0
    2.4998   -1.0038   -2.8840 N   0  0  0  0  0  0  0  0  0  0  0  0
    2.6531    0.4062   -2.6104 C   0  0  0  0  0  0  0  0  0  0  0  0
    1.8038    1.3387   -3.2347 C   0  0  0  0  0  0  0  0  0  0  0  0
    1.9776    2.7058   -3.0040 C   0  0  0  0  0  0  0  0  0  0  0  0
    2.9912    3.1578   -2.1448 C   0  0  0  0  0  0  0  0  0  0  0  0
    3.2339    4.9164   -1.8598 S   0  0  0  0  0  0  0  0  0  0  0  0
    2.3371    4.9152   -0.2744 C   0  0  0  0  0  0  0  0  0  0  0  0
    3.8419    2.2312   -1.5329 C   0  0  0  0  0  0  0  0  0  0  0  0
    3.6750    0.8628   -1.7707 C   0  0  0  0  0  0  0  0  0  0  0  0
    2.7001   -1.5023   -4.2286 C   0  0  0  0  0  0  0  0  0  0  0  0
    3.6878   -0.9337   -5.0603 C   0  0  0  0  0  0  0  0  0  0  0  0
    3.9581   -1.4709   -6.3168 C   0  0  0  0  0  0  0  0  0  0  0  0
    3.2369   -2.5820   -6.7757 C   0  0  0  0  0  0  0  0  0  0  0  0
    3.6077   -3.3135   -8.3685 S   0  0  0  0  0  0  0  0  0  0  0  0
    4.7887   -4.5209   -7.6855 C   0  0  0  0  0  0  0  0  0  0  0  0
    2.2269   -3.1350   -5.9820 C   0  0  0  0  0  0  0  0  0  0  0  0
    1.9622   -2.6025   -4.7169 C   0  0  0  0  0  0  0  0  0  0  0  0
    0.6649   -2.1331   -1.6453 C   0  0  0  0  0  0  0  0  0  0  0  0
   -0.7369   -1.3373   -2.1074 S   0  0  0  0  0  0  0  0  0  0  0  0
    4.2723   -2.4636   -0.7872 C   0  0  0  0  0  0  0  0  0  0  0  0
    5.0848   -2.4611   -1.9373 C   0  0  0  0  0  0  0  0  0  0  0  0
    6.4166   -2.0532   -1.8709 C   0  0  0  0  0  0  0  0  0  0  0  0
    7.0155   -1.7712   -0.6321 C   0  0  0  0  0  0  0  0  0  0  0  0
    6.2983   -2.1266    0.5222 C   0  0  0  0  0  0  0  0  0  0  0  0
    6.7045   -2.0848    1.9290 C   0  0  0  0  0  0  0  0  0  0  0  0
    7.8980   -2.3132    2.4902 C   0  0  0  0  0  0  0  0  0  0  0  0
    9.0720   -2.8873    1.7930 C   0  0  0  0  0  0  0  0  0  0  0  0
    9.0010   -3.8234    0.7396 C   0  0  0  0  0  0  0  0  0  0  0  0
   10.2449   -4.2791    0.3217 C   0  0  0  0  0  0  0  0  0  0  0  0
   11.4212   -3.5576    1.2737 S   0  0  0  0  0  0  0  0  0  0  0  0
   10.3727   -2.6433    2.2209 C   0  0  0  0  0  0  0  0  0  0  0  0
    5.4525   -1.9895    2.6564 C   0  0  0  0  0  0  0  0  0  0  0  0
    5.3567   -1.8529    3.9089 O   0  0  0  0  0  0  0  0  0  0  0  0
    4.3189   -2.0747    1.7851 N   0  0  0  0  0  0  0  0  0  0  0  0
    3.0644   -1.3859    2.1524 C   0  0  0  0  0  0  0  0  0  0  0  0
    3.1015    0.0894    1.7983 C   0  0  0  0  0  0  0  0  0  0  0  0
    4.9073   -2.2565    0.4673 C   0  0  0  0  0  0  0  0  0  0  0  0
    8.2747   -0.9991   -0.6107 C   0  0  0  0  0  0  0  0  0  0  0  0
    8.4450    0.1656    0.0571 C   0  0  0  0  0  0  0  0  0  0  0  0
    7.3933    0.8833    0.8031 C   0  0  0  0  0  0  0  0  0  0  0  0
    6.1666    0.6084    0.8101 O   0  0  0  0  0  0  0  0  0  0  0  0
    7.9158    2.1418    1.2659 C   0  0  0  0  0  0  0  0  0  0  0  0
    7.1968    3.1263    1.9854 C   0  0  0  0  0  0  0  0  0  0  0  0
    7.8475    4.3395    2.0671 C   0  0  0  0  0  0  0  0  0  0  0  0
    9.1000    4.5943    1.4261 C   0  0  0  0  0  0  0  0  0  0  0  0
    9.8196    3.6208    0.7484 C   0  0  0  0  0  0  0  0  0  0  0  0
    9.2080    2.3306    0.7259 C   0  0  0  0  0  0  0  0  0  0  0  0
    9.6487    1.0743    0.0536 C   0  0  0  0  0  0  0  0  0  0  0  0
   10.9233    0.7704   -0.3066 C   0  0  0  0  0  0  0  0  0  0  0  0
   12.0147    1.6825   -0.0933 C   0  0  0  0  0  0  0  0  0  0  0  0
   12.9034    2.4175    0.0629 N   0  0  0  0  0  0  0  0  0  0  0  0
   11.3027   -0.5020   -0.8677 C   0  0  0  0  0  0  0  0  0  0  0  0
   11.6304   -1.5148   -1.3235 N   0  0  0  0  0  0  0  0  0  0  0  0
    9.0235    6.0486    1.8164 C   0  0  0  0  0  0  0  0  0  0  0  0
    8.5830    7.0912    0.7412 C   0  0  0  0  0  0  0  0  0  0  0  0
    7.6014    6.4594   -0.2321 C   0  0  0  0  0  0  0  0  0  0  0  0
    6.4748    6.2368    0.4451 C   0  0  0  0  0  0  0  0  0  0  0  0
    6.7312    6.7006    1.8582 C   0  0  0  0  0  0  0  0  0  0  0  0
    7.6002    7.9069    1.5625 C   0  0  0  0  0  0  0  0  0  0  0  0
    7.7786    5.7703    2.5360 C   0  0  0  0  0  0  0  0  0  0  0  0
   -6.5274   -0.1519    2.5125 H   0  0  0  0  0  0  0  0  0  0  0  0
   -9.3193   -3.1950   -2.0993 H   0  0  0  0  0  0  0  0  0  0  0  0
  -11.0652   -2.8809    2.6728 H   0  0  0  0  0  0  0  0  0  0  0  0
  -12.8266   -5.2940    0.7820 H   0  0  0  0  0  0  0  0  0  0  0  0
  -11.3393   -6.7611    2.3033 H   0  0  0  0  0  0  0  0  0  0  0  0
   -8.8064   -5.9290    2.1639 H   0  0  0  0  0  0  0  0  0  0  0  0
   -8.0583   -6.0364   -0.3364 H   0  0  0  0  0  0  0  0  0  0  0  0
  -10.1038   -6.9413   -1.7820 H   0  0  0  0  0  0  0  0  0  0  0  0
  -10.4105   -8.3704    0.4312 H   0  0  0  0  0  0  0  0  0  0  0  0
  -12.0336   -7.7145   -0.0836 H   0  0  0  0  0  0  0  0  0  0  0  0
  -12.1104   -5.3535   -1.4851 H   0  0  0  0  0  0  0  0  0  0  0  0
   -0.9025    3.8067   -0.6650 H   0  0  0  0  0  0  0  0  0  0  0  0
   -0.1124    5.4047   -2.3940 H   0  0  0  0  0  0  0  0  0  0  0  0
   -1.1188    5.4058   -4.6382 H   0  0  0  0  0  0  0  0  0  0  0  0
   -3.3515    5.7434   -5.9991 H   0  0  0  0  0  0  0  0  0  0  0  0
   -2.0109    4.8259   -6.8389 H   0  0  0  0  0  0  0  0  0  0  0  0
   -3.9925    5.2695   -8.3379 H   0  0  0  0  0  0  0  0  0  0  0  0
   -5.0280    4.3043   -7.2171 H   0  0  0  0  0  0  0  0  0  0  0  0
   -3.6754    3.5074   -8.1044 H   0  0  0  0  0  0  0  0  0  0  0  0
   -3.6615    2.1233   -3.5099 H   0  0  0  0  0  0  0  0  0  0  0  0
   -4.0915    3.3906    2.3981 H   0  0  0  0  0  0  0  0  0  0  0  0
   -4.2522    5.7504    3.0678 H   0  0  0  0  0  0  0  0  0  0  0  0
   -4.3611    7.5196    1.3842 H   0  0  0  0  0  0  0  0  0  0  0  0
   -3.5244    8.7979   -0.3507 H   0  0  0  0  0  0  0  0  0  0  0  0
   -3.9190    9.0117   -2.0844 H   0  0  0  0  0  0  0  0  0  0  0  0
   -6.3793    8.8114   -1.5650 H   0  0  0  0  0  0  0  0  0  0  0  0
   -5.5814   10.2270   -0.7891 H   0  0  0  0  0  0  0  0  0  0  0  0
   -5.9825    8.7716    0.2007 H   0  0  0  0  0  0  0  0  0  0  0  0
   -4.3509    4.5627   -1.7459 H   0  0  0  0  0  0  0  0  0  0  0  0
   -3.5183   -4.7316    2.2132 H   0  0  0  0  0  0  0  0  0  0  0  0
   -4.5732   -6.9331    1.9144 H   0  0  0  0  0  0  0  0  0  0  0  0
   -4.1265   -8.8020   -2.1621 H   0  0  0  0  0  0  0  0  0  0  0  0
   -5.6937   -9.3355   -1.4176 H   0  0  0  0  0  0  0  0  0  0  0  0
   -5.1427   -7.6294   -1.2146 H   0  0  0  0  0  0  0  0  0  0  0  0
   -1.5626   -7.9995   -0.9509 H   0  0  0  0  0  0  0  0  0  0  0  0
   -0.5144   -5.7809   -0.6944 H   0  0  0  0  0  0  0  0  0  0  0  0
   -0.5446   -1.2205    1.4967 H   0  0  0  0  0  0  0  0  0  0  0  0
    0.0028   -0.2988    3.6873 H   0  0  0  0  0  0  0  0  0  0  0  0
   -1.6105   -0.3293    7.6653 H   0  0  0  0  0  0  0  0  0  0  0  0
   -1.8471   -0.0871    5.8977 H   0  0  0  0  0  0  0  0  0  0  0  0
   -2.3352   -1.6590    6.6654 H   0  0  0  0  0  0  0  0  0  0  0  0
   -0.5903   -4.1657    5.4944 H   0  0  0  0  0  0  0  0  0  0  0  0
   -1.1222   -5.1115    3.3131 H   0  0  0  0  0  0  0  0  0  0  0  0
    1.0246    1.0069   -3.9073 H   0  0  0  0  0  0  0  0  0  0  0  0
    1.3461    3.4218   -3.5094 H   0  0  0  0  0  0  0  0  0  0  0  0
    1.2798    4.6184   -0.4422 H   0  0  0  0  0  0  0  0  0  0  0  0
    2.8190    4.2135    0.4420 H   0  0  0  0  0  0  0  0  0  0  0  0
    2.3593    5.9414    0.1559 H   0  0  0  0  0  0  0  0  0  0  0  0
    4.6267    2.5646   -0.8718 H   0  0  0  0  0  0  0  0  0  0  0  0
    4.3682    0.1667   -1.3210 H   0  0  0  0  0  0  0  0  0  0  0  0
    4.2887   -0.1119   -4.7099 H   0  0  0  0  0  0  0  0  0  0  0  0
    4.7456   -1.0487   -6.9354 H   0  0  0  0  0  0  0  0  0  0  0  0
    4.3322   -5.0826   -6.8394 H   0  0  0  0  0  0  0  0  0  0  0  0
    5.7013   -3.9877   -7.3314 H   0  0  0  0  0  0  0  0  0  0  0  0
    5.0815   -5.2438   -8.4741 H   0  0  0  0  0  0  0  0  0  0  0  0
    1.6630   -3.9890   -6.3277 H   0  0  0  0  0  0  0  0  0  0  0  0
    1.1865   -3.0577   -4.1179 H   0  0  0  0  0  0  0  0  0  0  0  0
    4.6720   -2.7112   -2.9011 H   0  0  0  0  0  0  0  0  0  0  0  0
    6.9696   -1.9058   -2.7892 H   0  0  0  0  0  0  0  0  0  0  0  0
    8.0002   -2.1742    3.5593 H   0  0  0  0  0  0  0  0  0  0  0  0
    8.0830   -4.1851    0.3031 H   0  0  0  0  0  0  0  0  0  0  0  0
   10.4250   -4.9961   -0.4751 H   0  0  0  0  0  0  0  0  0  0  0  0
   10.6612   -1.9810    3.0287 H   0  0  0  0  0  0  0  0  0  0  0  0
    2.8917   -1.4948    3.2444 H   0  0  0  0  0  0  0  0  0  0  0  0
    2.1896   -1.8412    1.6750 H   0  0  0  0  0  0  0  0  0  0  0  0
    3.0932    0.2114    0.7123 H   0  0  0  0  0  0  0  0  0  0  0  0
    3.9976    0.5695    2.2424 H   0  0  0  0  0  0  0  0  0  0  0  0
    2.1905    0.5849    2.2137 H   0  0  0  0  0  0  0  0  0  0  0  0
    9.0283   -1.3331   -1.3063 H   0  0  0  0  0  0  0  0  0  0  0  0
    6.2055    2.9678    2.3881 H   0  0  0  0  0  0  0  0  0  0  0  0
   10.7397    3.8733    0.2414 H   0  0  0  0  0  0  0  0  0  0  0  0
    9.8612    6.3794    2.4746 H   0  0  0  0  0  0  0  0  0  0  0  0
    9.4101    7.6642    0.2704 H   0  0  0  0  0  0  0  0  0  0  0  0
    7.7296    6.3160   -1.3072 H   0  0  0  0  0  0  0  0  0  0  0  0
    5.5370    5.8874    0.0338 H   0  0  0  0  0  0  0  0  0  0  0  0
    5.8179    6.9066    2.4576 H   0  0  0  0  0  0  0  0  0  0  0  0
    8.0502    8.3666    2.4703 H   0  0  0  0  0  0  0  0  0  0  0  0
    7.0758    8.6953    0.9712 H   0  0  0  0  0  0  0  0  0  0  0  0
    7.8625    5.8778    3.6385 H   0  0  0  0  0  0  0  0  0  0  0  0
  1  2  2  3
  2  3  1  0
  3  4  2  0
  3  5  1  0
  5  6  2  0
  6  7  1  0
  7  8  2  0
  8  9  1  0
  9 10  2  0
 10 11  1  0
 11 12  2  3
 12 13  1  0
 13 14  3  0
 12 15  1  0
 15 16  3  0
  8 17  1  0
 17 18  1  0
 18 19  1  0
 19 20  2  0
 20 21  1  0
 21 22  1  0
 21 23  1  0
  1 24  1  0
 24 25  2  0
 25 26  1  0
 25 27  1  0
 27 28  1  0
 27 29  2  0
 29 30  1  0
 30 31  2  0
 31 32  1  0
 32 33  1  0
 33 34  2  0
 34 35  1  0
 35 36  2  0
 36 37  1  0
 37 38  1  0
 38 39  1  0
 39 40  1  0
 37 41  2  0
 32 42  2  0
 42 43  1  0
 43 44  2  0
 42 45  1  0
 45 46  2  0
 46 47  1  0
 47 48  2  0
 48 49  1  0
 49 50  1  0
 50 51  1  0
 51 52  1  0
 49 53  2  0
 29 54  1  0
 54 55  2  0
 55 56  1  0
 56 57  1  0
 57 58  2  0
 58 59  1  0
 59 60  2  0
 60 61  1  0
 61 62  1  0
 60 63  1  0
 63 64  2  0
 56 65  1  0
 65 66  2  0
 66 67  1  0
 67 68  2  0
 68 69  1  0
 69 70  1  0
 68 71  1  0
 71 72  2  0
 55 73  1  0
 73 74  1  0
 74 75  1  0
 75 76  2  0
 76 77  1  0
 77 78  1  0
 78 79  2  0
 79 80  1  0
 80 81  2  0
 81 82  1  0
 82 83  1  0
 81 84  1  0
 84 85  2  0
 77 86  1  0
 86 87  2  0
 87 88  1  0
 88 89  2  0
 89 90  1  0
 90 91  1  0
 89 92  1  0
 92 93  2  0
 76 94  1  0
 94 95  1  0
 75 96  1  0
 96 97  2  0
 97 98  1  0
 98 99  2  0
 99100  1  0
100101  1  0
101102  2  3
102103  1  0
103104  1  0
104105  2  0
105106  1  0
106107  1  0
101108  1  0
108109  2  0
108110  1  0
110111  1  0
111112  1  0
110113  1  0
 99114  1  0
114115  2  3
115116  1  0
116117  2  0
116118  1  0
118119  2  0
119120  1  0
120121  2  0
121122  1  0
122123  2  0
123124  1  0
124125  2  3
125126  1  0
126127  3  0
125128  1  0
128129  3  0
121130  1  0
130131  1  0
131132  1  0
132133  2  0
133134  1  0
134135  1  0
134136  1  0
 11  2  1  0
 23 17  1  0
 44 24  1  0
 53 45  1  0
 95 54  1  0
113 96  1  0
124115  1  0
136130  1  0
 10  5  1  0
 22 18  1  0
 44 30  1  0
 64 57  1  0
 72 65  1  0
 94 73  2  0
113100  2  0
123118  1  0
135131  1  0
 23  7  1  0
 41 33  1  0
 85 78  1  0
 93 86  1  0
107103  2  0
136120  1  0
  1137  1  0
  6138  1  0
  9139  1  0
 17140  1  0
 18141  1  0
 19142  1  0
 20143  1  0
 21144  1  0
 22145  1  0
 22146  1  0
 23147  1  0
 34148  1  0
 35149  1  0
 36150  1  0
 39151  1  0
 39152  1  0
 40153  1  0
 40154  1  0
 40155  1  0
 41156  1  0
 46157  1  0
 47158  1  0
 48159  1  0
 51160  1  0
 51161  1  0
 52162  1  0
 52163  1  0
 52164  1  0
 53165  1  0
 58166  1  0
 59167  1  0
 62168  1  0
 62169  1  0
 62170  1  0
 63171  1  0
 64172  1  0
 66173  1  0
 67174  1  0
 70175  1  0
 70176  1  0
 70177  1  0
 71178  1  0
 72179  1  0
 79180  1  0
 80181  1  0
 83182  1  0
 83183  1  0
 83184  1  0
 84185  1  0
 85186  1  0
 87187  1  0
 88188  1  0
 91189  1  0
 91190  1  0
 91191  1  0
 92192  1  0
 93193  1  0
 97194  1  0
 98195  1  0
102196  1  0
104197  1  0
105198  1  0
107199  1  0
111200  1  0
111201  1  0
112202  1  0
112203  1  0
112204  1  0
114205  1  0
119206  1  0
122207  1  0
130208  1  0
131209  1  0
132210  1  0
133211  1  0
134212  1  0
135213  1  0
135214  1  0
136215  1  0
M  END

