
     RDKit          3D

197218  0  0  0  0  0  0  0  0999 V2000
    0.9149    0.7634    6.4366 C   0  0  0  0  0  0  0  0  0  0  0  0
    1.0846    2.0877    6.2355 C   0  0  0  0  0  0  0  0  0  0  0  0
    0.7935    3.0607    7.2734 C   0  0  0  0  0  0  0  0  0  0  0  0
    0.1838    2.8666    8.3935 O   0  0  0  0  0  0  0  0  0  0  0  0
    1.3194    4.3473    6.8735 C   0  0  0  0  0  0  0  0  0  0  0  0
    1.1622    5.5928    7.5828 C   0  0  0  0  0  0  0  0  0  0  0  0
    1.6999    6.6753    6.8668 C   0  0  0  0  0  0  0  0  0  0  0  0
    2.3258    6.5373    5.5722 C   0  0  0  0  0  0  0  0  0  0  0  0
    2.4860    5.3294    4.8862 C   0  0  0  0  0  0  0  0  0  0  0  0
    1.9369    4.2140    5.5759 C   0  0  0  0  0  0  0  0  0  0  0  0
    1.6857    2.8475    5.0715 C   0  0  0  0  0  0  0  0  0  0  0  0
    1.6172    2.5646    3.7489 C   0  0  0  0  0  0  0  0  0  0  0  0
    2.4039    3.1612    2.7609 C   0  0  0  0  0  0  0  0  0  0  0  0
    3.0827    3.7325    1.9447 N   0  0  0  0  0  0  0  0  0  0  0  0
    0.5909    1.6784    3.2344 C   0  0  0  0  0  0  0  0  0  0  0  0
   -0.1972    0.9490    2.8762 N   0  0  0  0  0  0  0  0  0  0  0  0
    2.7925    7.9652    5.6119 C   0  0  0  0  0  0  0  0  0  0  0  0
    4.3084    8.2106    5.9305 C   0  0  0  0  0  0  0  0  0  0  0  0
    4.4047    9.6905    6.2674 C   0  0  0  0  0  0  0  0  0  0  0  0
    3.8093    9.8519    7.4748 C   0  0  0  0  0  0  0  0  0  0  0  0
    3.3223    8.4706    7.8857 C   0  0  0  0  0  0  0  0  0  0  0  0
    4.4779    7.6529    7.3430 C   0  0  0  0  0  0  0  0  0  0  0  0
    2.1412    8.1015    6.9237 C   0  0  0  0  0  0  0  0  0  0  0  0
    1.2106   -0.3573    5.4976 C   0  0  0  0  0  0  0  0  0  0  0  0
    2.4916   -0.5404    4.4101 S   0  0  0  0  0  0  0  0  0  0  0  0
    1.8875   -1.8082    3.4488 C   0  0  0  0  0  0  0  0  0  0  0  0
    0.7314   -2.2319    4.1440 C   0  0  0  0  0  0  0  0  0  0  0  0
   -0.4478   -3.4454    3.9992 S   0  0  0  0  0  0  0  0  0  0  0  0
   -1.4298   -2.9845    5.3002 C   0  0  0  0  0  0  0  0  0  0  0  0
   -2.8178   -3.4161    5.5918 C   0  0  0  0  0  0  0  0  0  0  0  0
   -3.2423   -3.9625    6.8493 C   0  0  0  0  0  0  0  0  0  0  0  0
   -4.6542   -3.8235    7.1264 C   0  0  0  0  0  0  0  0  0  0  0  0
   -5.3296   -3.1146    6.1259 C   0  0  0  0  0  0  0  0  0  0  0  0
   -6.7563   -2.8801    6.1153 C   0  0  0  0  0  0  0  0  0  0  0  0
   -7.5024   -3.1706    7.0765 O   0  0  0  0  0  0  0  0  0  0  0  0
   -7.2985   -2.5646    4.8350 O   0  0  0  0  0  0  0  0  0  0  0  0
   -8.1601   -1.4789    4.3383 C   0  0  0  0  0  0  0  0  0  0  0  0
   -7.2556   -0.7369    3.3186 C   0  0  0  0  0  0  0  0  0  0  0  0
   -4.1991   -2.6983    4.9415 S   0  0  0  0  0  0  0  0  0  0  0  0
   -2.2109   -4.6762    8.0665 Cl  0  0  0  0  0  0  0  0  0  0  0  0
   -0.8198   -1.8792    5.9402 C   0  0  0  0  0  0  0  0  0  0  0  0
    0.3800   -1.4664    5.2721 C   0  0  0  0  0  0  0  0  0  0  0  0
   -1.5550   -0.9888    7.3740 Cl  0  0  0  0  0  0  0  0  0  0  0  0
    2.5174   -2.2441    2.1550 C   0  0  0  0  0  0  0  0  0  0  0  0
    2.2268   -3.3291    1.3149 C   0  0  0  0  0  0  0  0  0  0  0  0
    1.7450   -4.7154    1.7182 N   0  0  0  0  0  0  0  0  0  0  0  0
    1.0451   -5.4098    0.7488 C   0  0  0  0  0  0  0  0  0  0  0  0
    1.7313   -6.2418   -0.1581 C   0  0  0  0  0  0  0  0  0  0  0  0
    1.0498   -7.2083   -0.9070 C   0  0  0  0  0  0  0  0  0  0  0  0
   -0.3101   -7.0009   -1.1781 C   0  0  0  0  0  0  0  0  0  0  0  0
   -1.2654   -8.1971   -2.1351 S   0  0  0  0  0  0  0  0  0  0  0  0
   -0.2772   -8.0434   -3.6983 C   0  0  0  0  0  0  0  0  0  0  0  0
   -0.9897   -5.9366   -0.5012 C   0  0  0  0  0  0  0  0  0  0  0  0
   -0.3323   -5.1416    0.4428 C   0  0  0  0  0  0  0  0  0  0  0  0
    2.4494   -5.4444    2.7967 C   0  0  0  0  0  0  0  0  0  0  0  0
    3.0169   -4.8369    3.9368 C   0  0  0  0  0  0  0  0  0  0  0  0
    3.5660   -5.5342    5.0281 C   0  0  0  0  0  0  0  0  0  0  0  0
    3.7146   -6.9263    4.9647 C   0  0  0  0  0  0  0  0  0  0  0  0
    4.3286   -7.9296    6.3312 S   0  0  0  0  0  0  0  0  0  0  0  0
    4.6673   -6.5214    7.4900 C   0  0  0  0  0  0  0  0  0  0  0  0
    3.3246   -7.5676    3.7863 C   0  0  0  0  0  0  0  0  0  0  0  0
    2.6415   -6.8986    2.7643 C   0  0  0  0  0  0  0  0  0  0  0  0
    2.5924   -3.0464   -0.0233 C   0  0  0  0  0  0  0  0  0  0  0  0
    1.7966   -3.2292   -1.5241 S   0  0  0  0  0  0  0  0  0  0  0  0
    2.4509   -1.8407   -2.2223 C   0  0  0  0  0  0  0  0  0  0  0  0
    3.4107   -1.2549   -1.3590 C   0  0  0  0  0  0  0  0  0  0  0  0
    4.6655   -0.7722   -1.8802 N   0  0  0  0  0  0  0  0  0  0  0  0
    4.8689    0.6203   -2.2273 C   0  0  0  0  0  0  0  0  0  0  0  0
    5.4237    0.9569   -3.4811 C   0  0  0  0  0  0  0  0  0  0  0  0
    6.0238    2.2106   -3.6681 C   0  0  0  0  0  0  0  0  0  0  0  0
    6.0812    3.1415   -2.6267 C   0  0  0  0  0  0  0  0  0  0  0  0
    6.7632    4.8060   -2.9299 S   0  0  0  0  0  0  0  0  0  0  0  0
    8.5240    4.3566   -2.6659 C   0  0  0  0  0  0  0  0  0  0  0  0
    5.3176    2.8769   -1.4584 C   0  0  0  0  0  0  0  0  0  0  0  0
    4.7142    1.6084   -1.2707 C   0  0  0  0  0  0  0  0  0  0  0  0
    5.6452   -1.7182   -2.2956 C   0  0  0  0  0  0  0  0  0  0  0  0
    5.3566   -2.7590   -3.2752 C   0  0  0  0  0  0  0  0  0  0  0  0
    6.3386   -3.7228   -3.5985 C   0  0  0  0  0  0  0  0  0  0  0  0
    7.6515   -3.6351   -3.0912 C   0  0  0  0  0  0  0  0  0  0  0  0
    8.9861   -4.7433   -3.5111 S   0  0  0  0  0  0  0  0  0  0  0  0
    8.0749   -6.0231   -4.5064 C   0  0  0  0  0  0  0  0  0  0  0  0
    7.9645   -2.5349   -2.2356 C   0  0  0  0  0  0  0  0  0  0  0  0
    6.9835   -1.5704   -1.8859 C   0  0  0  0  0  0  0  0  0  0  0  0
    3.4199   -1.8656   -0.1364 C   0  0  0  0  0  0  0  0  0  0  0  0
    3.5458   -1.1163    1.2922 S   0  0  0  0  0  0  0  0  0  0  0  0
    1.9338   -1.1615   -3.4141 C   0  0  0  0  0  0  0  0  0  0  0  0
    1.2257   -1.6456   -4.5904 C   0  0  0  0  0  0  0  0  0  0  0  0
    1.2331   -3.0670   -5.1350 C   0  0  0  0  0  0  0  0  0  0  0  0
    0.2765   -4.0177   -4.3773 C   0  0  0  0  0  0  0  0  0  0  0  0
    0.5815   -0.5867   -5.2966 C   0  0  0  0  0  0  0  0  0  0  0  0
    0.7961    0.6628   -4.7180 C   0  0  0  0  0  0  0  0  0  0  0  0
    1.7146    0.5209   -3.3423 S   0  0  0  0  0  0  0  0  0  0  0  0
   -0.1053    1.6662   -5.2788 C   0  0  0  0  0  0  0  0  0  0  0  0
   -0.8584    1.0380   -6.2277 C   0  0  0  0  0  0  0  0  0  0  0  0
   -0.5906   -0.4850   -6.2541 C   0  0  0  0  0  0  0  0  0  0  0  0
   -0.2632   -0.8717   -7.7294 C   0  0  0  0  0  0  0  0  0  0  0  0
    1.0156   -0.1909   -8.2694 C   0  0  0  0  0  0  0  0  0  0  0  0
   -1.8094   -1.2774   -5.7632 C   0  0  0  0  0  0  0  0  0  0  0  0
   -2.2041   -1.0500   -4.2596 C   0  0  0  0  0  0  0  0  0  0  0  0
   -1.9346    1.7890   -6.7286 C   0  0  0  0  0  0  0  0  0  0  0  0
   -2.0004    3.0186   -6.0425 C   0  0  0  0  0  0  0  0  0  0  0  0
   -0.7310    3.1834   -4.8498 S   0  0  0  0  0  0  0  0  0  0  0  0
   -3.1926    3.9010   -6.0396 C   0  0  0  0  0  0  0  0  0  0  0  0
   -4.5371    3.5821   -5.6641 C   0  0  0  0  0  0  0  0  0  0  0  0
   -4.8689    2.2417   -5.0993 C   0  0  0  0  0  0  0  0  0  0  0  0
   -4.2037    1.2231   -4.8005 O   0  0  0  0  0  0  0  0  0  0  0  0
   -6.2573    2.2540   -4.7309 C   0  0  0  0  0  0  0  0  0  0  0  0
   -6.9199    1.0750   -4.2409 C   0  0  0  0  0  0  0  0  0  0  0  0
   -8.2312    1.3362   -4.0041 C   0  0  0  0  0  0  0  0  0  0  0  0
   -8.8952    2.6110   -4.2313 C   0  0  0  0  0  0  0  0  0  0  0  0
   -8.2326    3.7900   -4.7456 C   0  0  0  0  0  0  0  0  0  0  0  0
   -6.8531    3.5889   -4.9643 C   0  0  0  0  0  0  0  0  0  0  0  0
   -5.8280    4.4571   -5.5603 C   0  0  0  0  0  0  0  0  0  0  0  0
   -5.9338    5.6990   -6.1908 C   0  0  0  0  0  0  0  0  0  0  0  0
   -6.9677    6.6620   -6.0345 C   0  0  0  0  0  0  0  0  0  0  0  0
   -7.8147    7.5119   -5.8796 N   0  0  0  0  0  0  0  0  0  0  0  0
   -5.1229    5.9750   -7.3234 C   0  0  0  0  0  0  0  0  0  0  0  0
   -4.5023    6.1790   -8.2608 N   0  0  0  0  0  0  0  0  0  0  0  0
  -10.1228    2.0096   -3.5384 C   0  0  0  0  0  0  0  0  0  0  0  0
  -10.4519    2.5216   -2.0741 C   0  0  0  0  0  0  0  0  0  0  0  0
  -11.4417    1.5084   -1.4954 C   0  0  0  0  0  0  0  0  0  0  0  0
  -10.7289    0.3731   -1.2775 C   0  0  0  0  0  0  0  0  0  0  0  0
   -9.3237    0.6513   -1.7546 C   0  0  0  0  0  0  0  0  0  0  0  0
   -9.2030    2.1158   -1.2754 C   0  0  0  0  0  0  0  0  0  0  0  0
   -9.4005    0.7526   -3.3122 C   0  0  0  0  0  0  0  0  0  0  0  0
    0.4710    0.4756    7.3762 H   0  0  0  0  0  0  0  0  0  0  0  0
    0.7434    5.7041    8.6340 H   0  0  0  0  0  0  0  0  0  0  0  0
    3.0234    5.3222    3.9271 H   0  0  0  0  0  0  0  0  0  0  0  0
    2.3446    8.5835    4.7776 H   0  0  0  0  0  0  0  0  0  0  0  0
    5.0319    7.8558    5.1700 H   0  0  0  0  0  0  0  0  0  0  0  0
    4.8988   10.4775    5.6714 H   0  0  0  0  0  0  0  0  0  0  0  0
    3.8158   10.7904    8.0613 H   0  0  0  0  0  0  0  0  0  0  0  0
    3.1226    8.3712    8.9847 H   0  0  0  0  0  0  0  0  0  0  0  0
    4.3785    6.5381    7.4388 H   0  0  0  0  0  0  0  0  0  0  0  0
    5.5065    7.8457    7.8252 H   0  0  0  0  0  0  0  0  0  0  0  0
    1.2952    8.8250    6.9357 H   0  0  0  0  0  0  0  0  0  0  0  0
   -5.1366   -4.2096    8.0290 H   0  0  0  0  0  0  0  0  0  0  0  0
   -8.6004   -0.7551    5.1090 H   0  0  0  0  0  0  0  0  0  0  0  0
   -9.0316   -1.9870    3.7811 H   0  0  0  0  0  0  0  0  0  0  0  0
   -7.2172   -1.3306    2.3780 H   0  0  0  0  0  0  0  0  0  0  0  0
   -6.2342   -0.6952    3.7597 H   0  0  0  0  0  0  0  0  0  0  0  0
   -7.6025    0.3311    3.0932 H   0  0  0  0  0  0  0  0  0  0  0  0
    2.8333   -6.4454   -0.0325 H   0  0  0  0  0  0  0  0  0  0  0  0
    1.5927   -8.0988   -1.2461 H   0  0  0  0  0  0  0  0  0  0  0  0
    0.6920   -8.6517   -3.6865 H   0  0  0  0  0  0  0  0  0  0  0  0
   -0.0069   -6.9947   -3.9880 H   0  0  0  0  0  0  0  0  0  0  0  0
   -0.8854   -8.4534   -4.5259 H   0  0  0  0  0  0  0  0  0  0  0  0
   -2.0351   -5.7514   -0.6663 H   0  0  0  0  0  0  0  0  0  0  0  0
   -0.7747   -4.3317    0.9826 H   0  0  0  0  0  0  0  0  0  0  0  0
    2.9308   -3.8132    4.1486 H   0  0  0  0  0  0  0  0  0  0  0  0
    3.8139   -4.8525    5.8859 H   0  0  0  0  0  0  0  0  0  0  0  0
    5.5176   -5.8762    7.1457 H   0  0  0  0  0  0  0  0  0  0  0  0
    4.9640   -6.9410    8.4165 H   0  0  0  0  0  0  0  0  0  0  0  0
    3.7513   -5.9356    7.7856 H   0  0  0  0  0  0  0  0  0  0  0  0
    3.4098   -8.6012    3.6831 H   0  0  0  0  0  0  0  0  0  0  0  0
    2.2658   -7.6277    2.0467 H   0  0  0  0  0  0  0  0  0  0  0  0
    5.5667    0.2488   -4.2606 H   0  0  0  0  0  0  0  0  0  0  0  0
    6.5313    2.3807   -4.6219 H   0  0  0  0  0  0  0  0  0  0  0  0
    9.1289    5.2879   -2.7347 H   0  0  0  0  0  0  0  0  0  0  0  0
    8.6982    3.9108   -1.6727 H   0  0  0  0  0  0  0  0  0  0  0  0
    8.9270    3.6321   -3.4212 H   0  0  0  0  0  0  0  0  0  0  0  0
    5.2259    3.6364   -0.7039 H   0  0  0  0  0  0  0  0  0  0  0  0
    4.2677    1.3969   -0.3084 H   0  0  0  0  0  0  0  0  0  0  0  0
    4.3739   -2.8610   -3.7746 H   0  0  0  0  0  0  0  0  0  0  0  0
    5.9044   -4.5160   -4.2450 H   0  0  0  0  0  0  0  0  0  0  0  0
    7.6854   -6.8560   -3.8945 H   0  0  0  0  0  0  0  0  0  0  0  0
    8.7925   -6.4652   -5.2319 H   0  0  0  0  0  0  0  0  0  0  0  0
    7.2475   -5.7298   -5.1929 H   0  0  0  0  0  0  0  0  0  0  0  0
    8.9510   -2.4081   -1.8365 H   0  0  0  0  0  0  0  0  0  0  0  0
    7.2180   -0.6973   -1.2232 H   0  0  0  0  0  0  0  0  0  0  0  0
    0.9500   -3.1035   -6.2122 H   0  0  0  0  0  0  0  0  0  0  0  0
    2.2782   -3.4550   -5.1021 H   0  0  0  0  0  0  0  0  0  0  0  0
   -0.5340   -4.4040   -5.0806 H   0  0  0  0  0  0  0  0  0  0  0  0
    0.8707   -4.9153   -4.0161 H   0  0  0  0  0  0  0  0  0  0  0  0
   -0.1704   -3.5285   -3.5058 H   0  0  0  0  0  0  0  0  0  0  0  0
   -1.1434   -0.4992   -8.3633 H   0  0  0  0  0  0  0  0  0  0  0  0
   -0.1306   -1.9763   -7.8664 H   0  0  0  0  0  0  0  0  0  0  0  0
    1.0717    0.8926   -7.9957 H   0  0  0  0  0  0  0  0  0  0  0  0
    1.9029   -0.7256   -7.9268 H   0  0  0  0  0  0  0  0  0  0  0  0
    0.9718   -0.2701   -9.3769 H   0  0  0  0  0  0  0  0  0  0  0  0
   -2.7292   -1.0931   -6.4042 H   0  0  0  0  0  0  0  0  0  0  0  0
   -1.6444   -2.3904   -5.8490 H   0  0  0  0  0  0  0  0  0  0  0  0
   -1.8988   -0.0425   -3.8552 H   0  0  0  0  0  0  0  0  0  0  0  0
   -3.3032   -1.0618   -4.1706 H   0  0  0  0  0  0  0  0  0  0  0  0
   -1.6745   -1.7933   -3.6145 H   0  0  0  0  0  0  0  0  0  0  0  0
   -2.7661    1.3506   -7.2786 H   0  0  0  0  0  0  0  0  0  0  0  0
   -3.0479    4.9061   -6.2890 H   0  0  0  0  0  0  0  0  0  0  0  0
   -6.3387    0.1016   -4.0053 H   0  0  0  0  0  0  0  0  0  0  0  0
   -8.8373    4.7891   -4.8638 H   0  0  0  0  0  0  0  0  0  0  0  0
  -11.0079    1.9526   -4.2045 H   0  0  0  0  0  0  0  0  0  0  0  0
  -10.7750    3.5486   -1.9783 H   0  0  0  0  0  0  0  0  0  0  0  0
  -12.5223    1.6510   -1.2079 H   0  0  0  0  0  0  0  0  0  0  0  0
  -11.0694   -0.4796   -0.6721 H   0  0  0  0  0  0  0  0  0  0  0  0
   -8.5485   -0.0299   -1.3442 H   0  0  0  0  0  0  0  0  0  0  0  0
   -8.2733    2.6211   -1.5742 H   0  0  0  0  0  0  0  0  0  0  0  0
   -9.2735    2.2799   -0.1254 H   0  0  0  0  0  0  0  0  0  0  0  0
   -9.8413   -0.1235   -3.8463 H   0  0  0  0  0  0  0  0  0  0  0  0
  1  2  2  3
  2  3  1  0
  3  4  2  0
  3  5  1  0
  5  6  2  0
  6  7  1  0
  7  8  2  0
  8  9  1  0
  9 10  2  0
 10 11  1  0
 11 12  2  3
 12 13  1  0
 13 14  3  0
 12 15  1  0
 15 16  3  0
  8 17  1  0
 17 18  1  0
 18 19  1  0
 19 20  2  0
 20 21  1  0
 21 22  1  0
 21 23  1  0
  1 24  1  0
 24 25  1  0
 25 26  1  0
 26 27  2  0
 27 28  1  0
 28 29  1  0
 29 30  1  0
 30 31  2  0
 31 32  1  0
 32 33  2  0
 33 34  1  0
 34 35  2  0
 34 36  1  0
 36 37  1  0
 37 38  1  0
 33 39  1  0
 31 40  1  0
 29 41  2  0
 41 42  1  0
 41 43  1  0
 26 44  1  0
 44 45  2  0
 45 46  1  0
 46 47  1  0
 47 48  2  0
 48 49  1  0
 49 50  2  0
 50 51  1  0
 51 52  1  0
 50 53  1  0
 53 54  2  0
 46 55  1  0
 55 56  2  0
 56 57  1  0
 57 58  2  0
 58 59  1  0
 59 60  1  0
 58 61  1  0
 61 62  2  0
 45 63  1  0
 63 64  1  0
 64 65  1  0
 65 66  2  0
 66 67  1  0
 67 68  1  0
 68 69  2  0
 69 70  1  0
 70 71  2  0
 71 72  1  0
 72 73  1  0
 71 74  1  0
 74 75  2  0
 67 76  1  0
 76 77  2  0
 77 78  1  0
 78 79  2  0
 79 80  1  0
 80 81  1  0
 79 82  1  0
 82 83  2  0
 66 84  1  0
 84 85  1  0
 65 86  1  0
 86 87  2  0
 87 88  1  0
 88 89  1  0
 87 90  1  0
 90 91  2  0
 91 92  1  0
 91 93  1  0
 93 94  2  0
 94 95  1  0
 95 96  1  0
 96 97  1  0
 95 98  1  0
 98 99  1  0
 94100  1  0
100101  2  0
101102  1  0
101103  1  0
103104  2  3
104105  1  0
105106  2  0
105107  1  0
107108  2  0
108109  1  0
109110  2  0
110111  1  0
111112  2  0
112113  1  0
113114  2  3
114115  1  0
115116  3  0
114117  1  0
117118  3  0
110119  1  0
119120  1  0
120121  1  0
121122  2  0
122123  1  0
123124  1  0
123125  1  0
 11  2  1  0
 23 17  1  0
 42 24  2  0
 85 44  1  0
 92 86  1  0
102 93  1  0
113104  1  0
125119  1  0
 10  5  1  0
 22 18  1  0
 42 27  1  0
 54 47  1  0
 62 55  1  0
 84 63  2  0
 95 90  1  0
112107  1  0
124120  1  0
 23  7  1  0
 39 30  1  0
 75 68  1  0
 83 76  1  0
125109  1  0
  1126  1  0
  6127  1  0
  9128  1  0
 17129  1  0
 18130  1  0
 19131  1  0
 20132  1  0
 21133  1  0
 22134  1  0
 22135  1  0
 23136  1  0
 32137  1  0
 37138  1  0
 37139  1  0
 38140  1  0
 38141  1  0
 38142  1  0
 48143  1  0
 49144  1  0
 52145  1  0
 52146  1  0
 52147  1  0
 53148  1  0
 54149  1  0
 56150  1  0
 57151  1  0
 60152  1  0
 60153  1  0
 60154  1  0
 61155  1  0
 62156  1  0
 69157  1  0
 70158  1  0
 73159  1  0
 73160  1  0
 73161  1  0
 74162  1  0
 75163  1  0
 77164  1  0
 78165  1  0
 81166  1  0
 81167  1  0
 81168  1  0
 82169  1  0
 83170  1  0
 88171  1  0
 88172  1  0
 89173  1  0
 89174  1  0
 89175  1  0
 96176  1  0
 96177  1  0
 97178  1  0
 97179  1  0
 97180  1  0
 98181  1  0
 98182  1  0
 99183  1  0
 99184  1  0
 99185  1  0
100186  1  0
103187  1  0
108188  1  0
111189  1  0
119190  1  0
120191  1  0
121192  1  0
122193  1  0
123194  1  0
124195  1  0
124196  1  0
125197  1  0
M  END

