
     RDKit          3D

104117  0  0  0  0  0  0  0  0999 V2000
    2.7533   -4.4699   -4.7347 C   0  0  0  0  0  0  0  0  0  0  0  0
    3.2606   -5.0766   -3.6415 C   0  0  0  0  0  0  0  0  0  0  0  0
    2.4693   -5.7118   -2.5766 C   0  0  0  0  0  0  0  0  0  0  0  0
    1.3704   -6.3104   -2.7288 O   0  0  0  0  0  0  0  0  0  0  0  0
    3.2030   -5.6174   -1.3344 C   0  0  0  0  0  0  0  0  0  0  0  0
    2.7042   -5.8640   -0.0347 C   0  0  0  0  0  0  0  0  0  0  0  0
    3.5677   -5.4722    0.9724 C   0  0  0  0  0  0  0  0  0  0  0  0
    4.8472   -4.8733    0.7307 C   0  0  0  0  0  0  0  0  0  0  0  0
    5.3443   -4.6406   -0.5447 C   0  0  0  0  0  0  0  0  0  0  0  0
    4.4779   -5.0487   -1.5999 C   0  0  0  0  0  0  0  0  0  0  0  0
    4.6219   -4.8416   -3.0717 C   0  0  0  0  0  0  0  0  0  0  0  0
    5.7765   -4.6534   -3.7545 C   0  0  0  0  0  0  0  0  0  0  0  0
    7.0537   -4.5367   -3.0956 C   0  0  0  0  0  0  0  0  0  0  0  0
    8.0848   -4.4283   -2.5754 N   0  0  0  0  0  0  0  0  0  0  0  0
    5.8240   -4.6592   -5.1939 C   0  0  0  0  0  0  0  0  0  0  0  0
    5.8709   -4.6593   -6.3530 N   0  0  0  0  0  0  0  0  0  0  0  0
    5.0553   -4.6870    2.2059 C   0  0  0  0  0  0  0  0  0  0  0  0
    4.8963   -3.2296    2.7447 C   0  0  0  0  0  0  0  0  0  0  0  0
    4.7528   -3.3532    4.2408 C   0  0  0  0  0  0  0  0  0  0  0  0
    3.5550   -3.9076    4.4648 C   0  0  0  0  0  0  0  0  0  0  0  0
    2.9286   -4.1342    3.1076 C   0  0  0  0  0  0  0  0  0  0  0  0
    3.4517   -2.8957    2.4012 C   0  0  0  0  0  0  0  0  0  0  0  0
    3.7404   -5.2938    2.4478 C   0  0  0  0  0  0  0  0  0  0  0  0
    1.3198   -4.1552   -4.9080 C   0  0  0  0  0  0  0  0  0  0  0  0
    0.7784   -3.8380   -6.1093 N   0  0  0  0  0  0  0  0  0  0  0  0
   -0.4166   -3.2473   -6.0173 N   0  0  0  0  0  0  0  0  0  0  0  0
   -0.8403   -3.0815   -4.7392 C   0  0  0  0  0  0  0  0  0  0  0  0
    0.3102   -3.6344   -3.6548 S   0  0  0  0  0  0  0  0  0  0  0  0
   -1.9241   -2.1740   -4.3454 C   0  0  0  0  0  0  0  0  0  0  0  0
   -3.2508   -2.6187   -4.3114 C   0  0  0  0  0  0  0  0  0  0  0  0
   -3.5633   -3.8522   -4.7872 F   0  0  0  0  0  0  0  0  0  0  0  0
   -4.2501   -1.8226   -3.7325 C   0  0  0  0  0  0  0  0  0  0  0  0
   -5.5233   -2.2965   -3.6761 F   0  0  0  0  0  0  0  0  0  0  0  0
   -3.9352   -0.5601   -3.1951 C   0  0  0  0  0  0  0  0  0  0  0  0
   -2.6038   -0.0937   -3.2729 C   0  0  0  0  0  0  0  0  0  0  0  0
   -2.2374    1.0994   -2.7277 N   0  0  0  0  0  0  0  0  0  0  0  0
   -0.9534    1.5476   -2.7313 C   0  0  0  0  0  0  0  0  0  0  0  0
   -0.6748    2.8948   -2.1094 C   0  0  0  0  0  0  0  0  0  0  0  0
   -0.6077    3.9876   -3.1761 C   0  0  0  0  0  0  0  0  0  0  0  0
    0.0430    0.7455   -3.3360 C   0  0  0  0  0  0  0  0  0  0  0  0
   -0.3233   -0.4594   -3.8555 N   0  0  0  0  0  0  0  0  0  0  0  0
   -1.6063   -0.9023   -3.8444 C   0  0  0  0  0  0  0  0  0  0  0  0
    1.5116    1.1035   -3.3792 C   0  0  0  0  0  0  0  0  0  0  0  0
    2.0197    1.1814   -4.8183 C   0  0  0  0  0  0  0  0  0  0  0  0
   -4.9527    0.1682   -2.4052 C   0  0  0  0  0  0  0  0  0  0  0  0
   -5.6934   -0.4294   -1.4421 N   0  0  0  0  0  0  0  0  0  0  0  0
   -6.3398    0.4273   -0.6503 N   0  0  0  0  0  0  0  0  0  0  0  0
   -6.1336    1.7150   -0.9829 C   0  0  0  0  0  0  0  0  0  0  0  0
   -5.1132    1.8395   -2.3096 S   0  0  0  0  0  0  0  0  0  0  0  0
   -6.3582    2.8428   -0.0741 C   0  0  0  0  0  0  0  0  0  0  0  0
   -5.6149    3.0093    1.0433 C   0  0  0  0  0  0  0  0  0  0  0  0
   -4.6499    2.0375    1.5891 C   0  0  0  0  0  0  0  0  0  0  0  0
   -4.7028    0.7830    1.4686 O   0  0  0  0  0  0  0  0  0  0  0  0
   -3.6368    2.7449    2.3352 C   0  0  0  0  0  0  0  0  0  0  0  0
   -2.4429    2.2111    2.8663 C   0  0  0  0  0  0  0  0  0  0  0  0
   -1.5767    3.1722    3.3482 C   0  0  0  0  0  0  0  0  0  0  0  0
   -1.8523    4.5780    3.2911 C   0  0  0  0  0  0  0  0  0  0  0  0
   -3.0356    5.1032    2.7958 C   0  0  0  0  0  0  0  0  0  0  0  0
   -3.9636    4.1256    2.3416 C   0  0  0  0  0  0  0  0  0  0  0  0
   -5.2838    4.3214    1.6774 C   0  0  0  0  0  0  0  0  0  0  0  0
   -6.1052    5.3934    1.8125 C   0  0  0  0  0  0  0  0  0  0  0  0
   -5.7654    6.5085    2.6587 C   0  0  0  0  0  0  0  0  0  0  0  0
   -5.5092    7.4005    3.3486 N   0  0  0  0  0  0  0  0  0  0  0  0
   -7.4419    5.4081    1.2811 C   0  0  0  0  0  0  0  0  0  0  0  0
   -8.5229    5.4317    0.8620 N   0  0  0  0  0  0  0  0  0  0  0  0
   -0.5016    4.8784    3.8615 C   0  0  0  0  0  0  0  0  0  0  0  0
    0.6075    5.3969    2.8918 C   0  0  0  0  0  0  0  0  0  0  0  0
    0.4134    4.8174    1.5082 C   0  0  0  0  0  0  0  0  0  0  0  0
    0.6582    3.5114    1.6025 C   0  0  0  0  0  0  0  0  0  0  0  0
    1.0179    3.2403    3.0439 C   0  0  0  0  0  0  0  0  0  0  0  0
    1.7681    4.5285    3.3450 C   0  0  0  0  0  0  0  0  0  0  0  0
   -0.2331    3.4403    3.9488 C   0  0  0  0  0  0  0  0  0  0  0  0
    3.4082   -3.9794   -5.4391 H   0  0  0  0  0  0  0  0  0  0  0  0
    1.7036   -6.2432    0.1589 H   0  0  0  0  0  0  0  0  0  0  0  0
    6.2664   -4.1095   -0.6861 H   0  0  0  0  0  0  0  0  0  0  0  0
    5.9159   -5.2607    2.6181 H   0  0  0  0  0  0  0  0  0  0  0  0
    5.6575   -2.4975    2.3993 H   0  0  0  0  0  0  0  0  0  0  0  0
    5.4265   -2.9754    5.0015 H   0  0  0  0  0  0  0  0  0  0  0  0
    3.0901   -4.0520    5.4338 H   0  0  0  0  0  0  0  0  0  0  0  0
    1.8290   -4.2620    3.1012 H   0  0  0  0  0  0  0  0  0  0  0  0
    3.2353   -2.8657    1.3087 H   0  0  0  0  0  0  0  0  0  0  0  0
    3.0928   -1.9407    2.8569 H   0  0  0  0  0  0  0  0  0  0  0  0
    3.7693   -6.2486    3.0144 H   0  0  0  0  0  0  0  0  0  0  0  0
    0.2628    2.8739   -1.5180 H   0  0  0  0  0  0  0  0  0  0  0  0
   -1.4816    3.1454   -1.3847 H   0  0  0  0  0  0  0  0  0  0  0  0
   -0.2671    4.9386   -2.7201 H   0  0  0  0  0  0  0  0  0  0  0  0
   -1.6157    4.1478   -3.6084 H   0  0  0  0  0  0  0  0  0  0  0  0
    0.1065    3.7121   -3.9795 H   0  0  0  0  0  0  0  0  0  0  0  0
    2.0825    0.3150   -2.8399 H   0  0  0  0  0  0  0  0  0  0  0  0
    1.7508    2.0657   -2.8844 H   0  0  0  0  0  0  0  0  0  0  0  0
    1.8308    0.2263   -5.3655 H   0  0  0  0  0  0  0  0  0  0  0  0
    1.5261    2.0117   -5.3668 H   0  0  0  0  0  0  0  0  0  0  0  0
    3.1140    1.3613   -4.8128 H   0  0  0  0  0  0  0  0  0  0  0  0
   -6.8579    3.6887   -0.5158 H   0  0  0  0  0  0  0  0  0  0  0  0
   -2.2023    1.1543    2.8393 H   0  0  0  0  0  0  0  0  0  0  0  0
   -3.1850    6.1716    2.7217 H   0  0  0  0  0  0  0  0  0  0  0  0
   -0.5268    5.3874    4.8491 H   0  0  0  0  0  0  0  0  0  0  0  0
    0.7987    6.4877    2.9118 H   0  0  0  0  0  0  0  0  0  0  0  0
    0.1946    5.3464    0.5871 H   0  0  0  0  0  0  0  0  0  0  0  0
    0.6705    2.7966    0.7892 H   0  0  0  0  0  0  0  0  0  0  0  0
    1.5881    2.3038    3.2195 H   0  0  0  0  0  0  0  0  0  0  0  0
    2.0207    4.6593    4.4258 H   0  0  0  0  0  0  0  0  0  0  0  0
    2.6914    4.6570    2.7284 H   0  0  0  0  0  0  0  0  0  0  0  0
   -0.1268    3.0698    4.9916 H   0  0  0  0  0  0  0  0  0  0  0  0
  1  2  2  3
  2  3  1  0
  3  4  2  0
  3  5  1  0
  5  6  2  0
  6  7  1  0
  7  8  2  0
  8  9  1  0
  9 10  2  0
 10 11  1  0
 11 12  2  3
 12 13  1  0
 13 14  3  0
 12 15  1  0
 15 16  3  0
  8 17  1  0
 17 18  1  0
 18 19  1  0
 19 20  2  0
 20 21  1  0
 21 22  1  0
 21 23  1  0
  1 24  1  0
 24 25  2  0
 25 26  1  0
 26 27  2  0
 27 28  1  0
 27 29  1  0
 29 30  2  0
 30 31  1  0
 30 32  1  0
 32 33  1  0
 32 34  2  0
 34 35  1  0
 35 36  2  0
 36 37  1  0
 37 38  1  0
 38 39  1  0
 37 40  2  0
 40 41  1  0
 41 42  2  0
 40 43  1  0
 43 44  1  0
 34 45  1  0
 45 46  2  0
 46 47  1  0
 47 48  2  0
 48 49  1  0
 48 50  1  0
 50 51  2  3
 51 52  1  0
 52 53  2  0
 52 54  1  0
 54 55  2  0
 55 56  1  0
 56 57  2  0
 57 58  1  0
 58 59  2  0
 59 60  1  0
 60 61  2  3
 61 62  1  0
 62 63  3  0
 61 64  1  0
 64 65  3  0
 57 66  1  0
 66 67  1  0
 67 68  1  0
 68 69  2  0
 69 70  1  0
 70 71  1  0
 70 72  1  0
 11  2  1  0
 23 17  1  0
 28 24  1  0
 42 29  1  0
 49 45  1  0
 60 51  1  0
 72 66  1  0
 10  5  1  0
 22 18  1  0
 42 35  1  0
 59 54  1  0
 71 67  1  0
 23  7  1  0
 72 56  1  0
  1 73  1  0
  6 74  1  0
  9 75  1  0
 17 76  1  0
 18 77  1  0
 19 78  1  0
 20 79  1  0
 21 80  1  0
 22 81  1  0
 22 82  1  0
 23 83  1  0
 38 84  1  0
 38 85  1  0
 39 86  1  0
 39 87  1  0
 39 88  1  0
 43 89  1  0
 43 90  1  0
 44 91  1  0
 44 92  1  0
 44 93  1  0
 50 94  1  0
 55 95  1  0
 58 96  1  0
 66 97  1  0
 67 98  1  0
 68 99  1  0
 69100  1  0
 70101  1  0
 71102  1  0
 71103  1  0
 72104  1  0
M  END

