
     RDKit          3D

214236  0  0  0  0  0  0  0  0999 V2000
    1.3736    4.1703   -7.5952 C   0  0  0  0  0  0  0  0  0  0  0  0
    0.3888    3.8854   -8.4734 C   0  0  0  0  0  0  0  0  0  0  0  0
   -0.9460    3.3907   -8.1074 C   0  0  0  0  0  0  0  0  0  0  0  0
   -1.5498    3.6048   -7.0247 O   0  0  0  0  0  0  0  0  0  0  0  0
   -1.4798    2.6324   -9.2158 C   0  0  0  0  0  0  0  0  0  0  0  0
   -2.6235    1.8055   -9.2010 C   0  0  0  0  0  0  0  0  0  0  0  0
   -2.7990    1.0781  -10.3625 C   0  0  0  0  0  0  0  0  0  0  0  0
   -1.8975    1.1446  -11.4732 C   0  0  0  0  0  0  0  0  0  0  0  0
   -0.7688    1.9502  -11.4893 C   0  0  0  0  0  0  0  0  0  0  0  0
   -0.5865    2.7341  -10.3137 C   0  0  0  0  0  0  0  0  0  0  0  0
    0.5392    3.6422   -9.9396 C   0  0  0  0  0  0  0  0  0  0  0  0
    1.3902    4.2753  -10.7854 C   0  0  0  0  0  0  0  0  0  0  0  0
    2.3150    5.2814  -10.3338 C   0  0  0  0  0  0  0  0  0  0  0  0
    3.0606    6.0948   -9.9813 N   0  0  0  0  0  0  0  0  0  0  0  0
    1.3270    4.0893  -12.2135 C   0  0  0  0  0  0  0  0  0  0  0  0
    1.2800    3.9570  -13.3615 N   0  0  0  0  0  0  0  0  0  0  0  0
   -2.7049    0.1230  -12.2121 C   0  0  0  0  0  0  0  0  0  0  0  0
   -3.5873    0.6488  -13.3809 C   0  0  0  0  0  0  0  0  0  0  0  0
   -4.5650   -0.4573  -13.6888 C   0  0  0  0  0  0  0  0  0  0  0  0
   -5.4126   -0.5129  -12.6534 C   0  0  0  0  0  0  0  0  0  0  0  0
   -4.9797    0.5612  -11.6880 C   0  0  0  0  0  0  0  0  0  0  0  0
   -4.5350    1.6134  -12.6888 C   0  0  0  0  0  0  0  0  0  0  0  0
   -3.6357    0.0639  -11.0813 C   0  0  0  0  0  0  0  0  0  0  0  0
    1.2382    3.8244   -6.1730 C   0  0  0  0  0  0  0  0  0  0  0  0
    0.8417    2.5727   -5.7238 C   0  0  0  0  0  0  0  0  0  0  0  0
    0.4747    2.5677   -4.3760 C   0  0  0  0  0  0  0  0  0  0  0  0
   -0.1287    1.4976   -3.6872 C   0  0  0  0  0  0  0  0  0  0  0  0
   -0.3552    0.1775   -4.3180 C   0  0  0  0  0  0  0  0  0  0  0  0
    0.2272   -0.9758   -3.7644 C   0  0  0  0  0  0  0  0  0  0  0  0
    0.0920   -2.2088   -4.4056 C   0  0  0  0  0  0  0  0  0  0  0  0
   -0.6073   -2.3022   -5.6104 C   0  0  0  0  0  0  0  0  0  0  0  0
   -1.1916   -1.1521   -6.1805 C   0  0  0  0  0  0  0  0  0  0  0  0
   -1.8446   -1.1685   -7.4235 O   0  0  0  0  0  0  0  0  0  0  0  0
   -2.0253   -2.3211   -8.2399 C   0  0  0  0  0  0  0  0  0  0  0  0
   -3.2283   -3.1272   -7.7680 C   0  0  0  0  0  0  0  0  0  0  0  0
   -1.0943    0.0686   -5.5060 C   0  0  0  0  0  0  0  0  0  0  0  0
   -0.4923    1.7411   -2.3560 C   0  0  0  0  0  0  0  0  0  0  0  0
   -0.1984    2.9331   -1.6900 C   0  0  0  0  0  0  0  0  0  0  0  0
    0.3965    4.0048   -2.3834 C   0  0  0  0  0  0  0  0  0  0  0  0
    0.6053    5.3139   -1.7450 C   0  0  0  0  0  0  0  0  0  0  0  0
   -0.2182    6.3922   -2.0812 C   0  0  0  0  0  0  0  0  0  0  0  0
   -0.0192    7.6391   -1.4883 C   0  0  0  0  0  0  0  0  0  0  0  0
    1.0085    7.8184   -0.5579 C   0  0  0  0  0  0  0  0  0  0  0  0
    1.8428    6.7387   -0.2059 C   0  0  0  0  0  0  0  0  0  0  0  0
    2.8877    6.8646    0.7195 O   0  0  0  0  0  0  0  0  0  0  0  0
    3.2820    8.0937    1.3226 C   0  0  0  0  0  0  0  0  0  0  0  0
    4.4916    7.8631    2.2129 C   0  0  0  0  0  0  0  0  0  0  0  0
    1.6316    5.4896   -0.8012 C   0  0  0  0  0  0  0  0  0  0  0  0
    0.6929    3.7963   -3.7427 C   0  0  0  0  0  0  0  0  0  0  0  0
    1.2609    4.9087   -4.8784 S   0  0  0  0  0  0  0  0  0  0  0  0
   -0.5913    2.9267   -0.3426 C   0  0  0  0  0  0  0  0  0  0  0  0
   -1.2967    1.7744    0.0205 C   0  0  0  0  0  0  0  0  0  0  0  0
   -1.3323    0.7368   -1.3172 S   0  0  0  0  0  0  0  0  0  0  0  0
   -1.7326    1.3334    1.3643 C   0  0  0  0  0  0  0  0  0  0  0  0
   -1.5298    1.9495    2.6283 C   0  0  0  0  0  0  0  0  0  0  0  0
   -1.3991    3.3761    2.8751 N   0  0  0  0  0  0  0  0  0  0  0  0
   -2.0421    4.3736    2.0465 C   0  0  0  0  0  0  0  0  0  0  0  0
   -3.2515    4.1086    1.3804 C   0  0  0  0  0  0  0  0  0  0  0  0
   -3.8288    5.0777    0.5553 C   0  0  0  0  0  0  0  0  0  0  0  0
   -3.2341    6.3393    0.4239 C   0  0  0  0  0  0  0  0  0  0  0  0
   -3.9715    7.5844   -0.6320 S   0  0  0  0  0  0  0  0  0  0  0  0
   -5.1284    8.1640    0.6472 C   0  0  0  0  0  0  0  0  0  0  0  0
   -2.0532    6.6244    1.1149 C   0  0  0  0  0  0  0  0  0  0  0  0
   -1.4555    5.6481    1.9105 C   0  0  0  0  0  0  0  0  0  0  0  0
   -0.9334    3.8247    4.1597 C   0  0  0  0  0  0  0  0  0  0  0  0
    0.4277    3.7650    4.4833 C   0  0  0  0  0  0  0  0  0  0  0  0
    0.8621    4.1562    5.7568 C   0  0  0  0  0  0  0  0  0  0  0  0
   -0.0617    4.6170    6.7048 C   0  0  0  0  0  0  0  0  0  0  0  0
    0.4895    5.1168    8.3356 S   0  0  0  0  0  0  0  0  0  0  0  0
    0.2638    3.4593    9.0509 C   0  0  0  0  0  0  0  0  0  0  0  0
   -1.4200    4.6921    6.3761 C   0  0  0  0  0  0  0  0  0  0  0  0
   -1.8530    4.3050    5.1060 C   0  0  0  0  0  0  0  0  0  0  0  0
   -1.6092    0.9784    3.6463 C   0  0  0  0  0  0  0  0  0  0  0  0
   -1.0285    0.8617    5.2069 S   0  0  0  0  0  0  0  0  0  0  0  0
   -1.2083   -0.8316    5.4107 C   0  0  0  0  0  0  0  0  0  0  0  0
   -1.8076   -1.2954    4.2070 C   0  0  0  0  0  0  0  0  0  0  0  0
   -2.3626   -2.6031    3.9688 N   0  0  0  0  0  0  0  0  0  0  0  0
   -1.9338   -3.2575    2.7516 C   0  0  0  0  0  0  0  0  0  0  0  0
   -0.5589   -3.4027    2.4803 C   0  0  0  0  0  0  0  0  0  0  0  0
   -0.1234   -3.9277    1.2651 C   0  0  0  0  0  0  0  0  0  0  0  0
   -1.0526   -4.2946    0.2875 C   0  0  0  0  0  0  0  0  0  0  0  0
   -0.4870   -4.9579   -1.2796 S   0  0  0  0  0  0  0  0  0  0  0  0
   -0.2966   -6.6464   -0.6322 C   0  0  0  0  0  0  0  0  0  0  0  0
   -2.4199   -4.1183    0.5249 C   0  0  0  0  0  0  0  0  0  0  0  0
   -2.8585   -3.5881    1.7411 C   0  0  0  0  0  0  0  0  0  0  0  0
   -3.5242   -3.0501    4.7356 C   0  0  0  0  0  0  0  0  0  0  0  0
   -4.1105   -4.3174    4.5169 C   0  0  0  0  0  0  0  0  0  0  0  0
   -5.2037   -4.7484    5.2740 C   0  0  0  0  0  0  0  0  0  0  0  0
   -5.7314   -3.9324    6.2743 C   0  0  0  0  0  0  0  0  0  0  0  0
   -7.0931   -4.5170    7.2850 S   0  0  0  0  0  0  0  0  0  0  0  0
   -5.9906   -5.2753    8.5177 C   0  0  0  0  0  0  0  0  0  0  0  0
   -5.1858   -2.6670    6.4954 C   0  0  0  0  0  0  0  0  0  0  0  0
   -4.0998   -2.2256    5.7325 C   0  0  0  0  0  0  0  0  0  0  0  0
   -1.9563   -0.2709    3.2642 C   0  0  0  0  0  0  0  0  0  0  0  0
   -2.1544   -0.2968    1.6125 S   0  0  0  0  0  0  0  0  0  0  0  0
   -0.3562   -1.5776    6.4094 C   0  0  0  0  0  0  0  0  0  0  0  0
    0.3016   -0.8009    7.3981 C   0  0  0  0  0  0  0  0  0  0  0  0
   -0.2529    0.3424    7.8760 F   0  0  0  0  0  0  0  0  0  0  0  0
    1.5994   -1.1196    7.8057 C   0  0  0  0  0  0  0  0  0  0  0  0
    2.2849   -0.2521    8.5942 F   0  0  0  0  0  0  0  0  0  0  0  0
    2.2212   -2.2712    7.3255 C   0  0  0  0  0  0  0  0  0  0  0  0
    1.4589   -3.2069    6.6166 C   0  0  0  0  0  0  0  0  0  0  0  0
    1.9714   -4.4325    6.3406 N   0  0  0  0  0  0  0  0  0  0  0  0
    1.2487   -5.4009    5.7242 C   0  0  0  0  0  0  0  0  0  0  0  0
    1.9337   -6.7106    5.4270 C   0  0  0  0  0  0  0  0  0  0  0  0
    2.5074   -6.7159    4.0106 C   0  0  0  0  0  0  0  0  0  0  0  0
   -0.0823   -5.1157    5.3494 C   0  0  0  0  0  0  0  0  0  0  0  0
   -0.5806   -3.8657    5.5887 N   0  0  0  0  0  0  0  0  0  0  0  0
    0.1551   -2.8864    6.1817 C   0  0  0  0  0  0  0  0  0  0  0  0
   -0.9983   -6.1675    4.7787 C   0  0  0  0  0  0  0  0  0  0  0  0
   -1.8165   -6.8287    5.8842 C   0  0  0  0  0  0  0  0  0  0  0  0
    3.6764   -2.4575    7.4948 C   0  0  0  0  0  0  0  0  0  0  0  0
    4.5488   -2.2488    6.4807 C   0  0  0  0  0  0  0  0  0  0  0  0
    4.1574   -1.8254    5.1261 C   0  0  0  0  0  0  0  0  0  0  0  0
    3.0070   -1.4712    4.7543 O   0  0  0  0  0  0  0  0  0  0  0  0
    5.3207   -1.8224    4.2758 C   0  0  0  0  0  0  0  0  0  0  0  0
    5.3602   -1.4788    2.9032 C   0  0  0  0  0  0  0  0  0  0  0  0
    6.6252   -1.5112    2.3534 C   0  0  0  0  0  0  0  0  0  0  0  0
    7.7906   -1.8634    3.1027 C   0  0  0  0  0  0  0  0  0  0  0  0
    7.7611   -2.1988    4.4463 C   0  0  0  0  0  0  0  0  0  0  0  0
    6.4622   -2.1836    5.0391 C   0  0  0  0  0  0  0  0  0  0  0  0
    6.0398   -2.4575    6.4545 C   0  0  0  0  0  0  0  0  0  0  0  0
    6.8576   -2.7760    7.4969 C   0  0  0  0  0  0  0  0  0  0  0  0
    6.3972   -2.8975    8.8527 C   0  0  0  0  0  0  0  0  0  0  0  0
    6.0492   -3.0222    9.9496 N   0  0  0  0  0  0  0  0  0  0  0  0
    8.2665   -3.0282    7.3455 C   0  0  0  0  0  0  0  0  0  0  0  0
    9.4001   -3.2379    7.2510 N   0  0  0  0  0  0  0  0  0  0  0  0
    8.6503   -1.6749    1.8855 C   0  0  0  0  0  0  0  0  0  0  0  0
    9.1726   -2.9492    1.1593 C   0  0  0  0  0  0  0  0  0  0  0  0
    8.1886   -4.0843    1.3307 C   0  0  0  0  0  0  0  0  0  0  0  0
    7.1031   -3.7577    0.6309 C   0  0  0  0  0  0  0  0  0  0  0  0
    7.3803   -2.4073    0.0096 C   0  0  0  0  0  0  0  0  0  0  0  0
    8.8587   -2.5804   -0.2805 C   0  0  0  0  0  0  0  0  0  0  0  0
    7.4534   -1.3136    1.1182 C   0  0  0  0  0  0  0  0  0  0  0  0
    2.3558    4.4633   -7.9263 H   0  0  0  0  0  0  0  0  0  0  0  0
   -3.2810    1.7132   -8.3457 H   0  0  0  0  0  0  0  0  0  0  0  0
   -0.0805    1.9263  -12.3188 H   0  0  0  0  0  0  0  0  0  0  0  0
   -2.1508   -0.8226  -12.4057 H   0  0  0  0  0  0  0  0  0  0  0  0
   -3.0376    1.0505  -14.2564 H   0  0  0  0  0  0  0  0  0  0  0  0
   -4.6404   -1.0392  -14.6016 H   0  0  0  0  0  0  0  0  0  0  0  0
   -6.2894   -1.1466  -12.5803 H   0  0  0  0  0  0  0  0  0  0  0  0
   -5.7459    0.8783  -10.9535 H   0  0  0  0  0  0  0  0  0  0  0  0
   -5.3591    1.9766  -13.3454 H   0  0  0  0  0  0  0  0  0  0  0  0
   -4.0366    2.4934  -12.2304 H   0  0  0  0  0  0  0  0  0  0  0  0
   -3.6884   -0.9176  -10.5697 H   0  0  0  0  0  0  0  0  0  0  0  0
    0.7415    1.7235   -6.3839 H   0  0  0  0  0  0  0  0  0  0  0  0
    0.8135   -0.9152   -2.8555 H   0  0  0  0  0  0  0  0  0  0  0  0
    0.5575   -3.0904   -3.9839 H   0  0  0  0  0  0  0  0  0  0  0  0
   -0.6745   -3.2635   -6.0927 H   0  0  0  0  0  0  0  0  0  0  0  0
   -1.1087   -2.9442   -8.2638 H   0  0  0  0  0  0  0  0  0  0  0  0
   -2.2024   -1.9922   -9.2812 H   0  0  0  0  0  0  0  0  0  0  0  0
   -3.3381   -4.0361   -8.3957 H   0  0  0  0  0  0  0  0  0  0  0  0
   -3.0965   -3.4381   -6.7135 H   0  0  0  0  0  0  0  0  0  0  0  0
   -4.1536   -2.5174   -7.8506 H   0  0  0  0  0  0  0  0  0  0  0  0
   -1.5568    0.9503   -5.9347 H   0  0  0  0  0  0  0  0  0  0  0  0
   -1.0252    6.2634   -2.7957 H   0  0  0  0  0  0  0  0  0  0  0  0
   -0.6710    8.4677   -1.7423 H   0  0  0  0  0  0  0  0  0  0  0  0
    1.1356    8.7943   -0.1090 H   0  0  0  0  0  0  0  0  0  0  0  0
    3.5477    8.8284    0.5316 H   0  0  0  0  0  0  0  0  0  0  0  0
    2.4487    8.4949    1.9390 H   0  0  0  0  0  0  0  0  0  0  0  0
    5.3312    7.4451    1.6162 H   0  0  0  0  0  0  0  0  0  0  0  0
    4.8167    8.8263    2.6605 H   0  0  0  0  0  0  0  0  0  0  0  0
    4.2374    7.1517    3.0299 H   0  0  0  0  0  0  0  0  0  0  0  0
    2.2729    4.6564   -0.5367 H   0  0  0  0  0  0  0  0  0  0  0  0
   -0.3185    3.7140    0.3378 H   0  0  0  0  0  0  0  0  0  0  0  0
   -3.7485    3.1559    1.4963 H   0  0  0  0  0  0  0  0  0  0  0  0
   -4.7463    4.8511    0.0235 H   0  0  0  0  0  0  0  0  0  0  0  0
   -5.6281    9.0854    0.2919 H   0  0  0  0  0  0  0  0  0  0  0  0
   -5.8987    7.3863    0.8312 H   0  0  0  0  0  0  0  0  0  0  0  0
   -4.5930    8.3884    1.5931 H   0  0  0  0  0  0  0  0  0  0  0  0
   -1.5908    7.5984    1.0233 H   0  0  0  0  0  0  0  0  0  0  0  0
   -0.5222    5.8772    2.4088 H   0  0  0  0  0  0  0  0  0  0  0  0
    1.1454    3.4076    3.7589 H   0  0  0  0  0  0  0  0  0  0  0  0
    1.9142    4.1004    6.0039 H   0  0  0  0  0  0  0  0  0  0  0  0
   -0.7990    3.1502    8.9631 H   0  0  0  0  0  0  0  0  0  0  0  0
    0.5390    3.4914   10.1251 H   0  0  0  0  0  0  0  0  0  0  0  0
    0.9122    2.7265    8.5285 H   0  0  0  0  0  0  0  0  0  0  0  0
   -2.1436    5.0419    7.1034 H   0  0  0  0  0  0  0  0  0  0  0  0
   -2.9053    4.3620    4.8650 H   0  0  0  0  0  0  0  0  0  0  0  0
    0.1773   -3.0838    3.2030 H   0  0  0  0  0  0  0  0  0  0  0  0
    0.9370   -4.0416    1.0779 H   0  0  0  0  0  0  0  0  0  0  0  0
   -1.2642   -7.0194   -0.2390 H   0  0  0  0  0  0  0  0  0  0  0  0
    0.4647   -6.6586    0.1739 H   0  0  0  0  0  0  0  0  0  0  0  0
    0.0410   -7.3097   -1.4509 H   0  0  0  0  0  0  0  0  0  0  0  0
   -3.1433   -4.3723   -0.2409 H   0  0  0  0  0  0  0  0  0  0  0  0
   -3.9151   -3.4030    1.8830 H   0  0  0  0  0  0  0  0  0  0  0  0
   -3.7408   -4.9904    3.7622 H   0  0  0  0  0  0  0  0  0  0  0  0
   -5.6254   -5.7286    5.0900 H   0  0  0  0  0  0  0  0  0  0  0  0
   -5.3827   -6.0738    8.0411 H   0  0  0  0  0  0  0  0  0  0  0  0
   -6.6023   -5.7237    9.3259 H   0  0  0  0  0  0  0  0  0  0  0  0
   -5.3198   -4.5069    8.9566 H   0  0  0  0  0  0  0  0  0  0  0  0
   -5.5980   -2.0240    7.2634 H   0  0  0  0  0  0  0  0  0  0  0  0
   -3.7285   -1.2337    5.9368 H   0  0  0  0  0  0  0  0  0  0  0  0
    2.7692   -6.8585    6.1464 H   0  0  0  0  0  0  0  0  0  0  0  0
    1.2385   -7.5632    5.5722 H   0  0  0  0  0  0  0  0  0  0  0  0
    2.9643   -7.7073    3.8049 H   0  0  0  0  0  0  0  0  0  0  0  0
    3.2918   -5.9379    3.9075 H   0  0  0  0  0  0  0  0  0  0  0  0
    1.7076   -6.5305    3.2683 H   0  0  0  0  0  0  0  0  0  0  0  0
   -0.4429   -6.9398    4.2089 H   0  0  0  0  0  0  0  0  0  0  0  0
   -1.6769   -5.7030    4.0442 H   0  0  0  0  0  0  0  0  0  0  0  0
   -2.3243   -7.7281    5.4823 H   0  0  0  0  0  0  0  0  0  0  0  0
   -1.1578   -7.1399    6.7210 H   0  0  0  0  0  0  0  0  0  0  0  0
   -2.5869   -6.1272    6.2648 H   0  0  0  0  0  0  0  0  0  0  0  0
    3.9844   -2.7984    8.4617 H   0  0  0  0  0  0  0  0  0  0  0  0
    4.4832   -1.2043    2.3323 H   0  0  0  0  0  0  0  0  0  0  0  0
    8.6811   -2.4249    4.9568 H   0  0  0  0  0  0  0  0  0  0  0  0
    9.3891   -0.8469    1.9736 H   0  0  0  0  0  0  0  0  0  0  0  0
   10.2334   -3.2077    1.3611 H   0  0  0  0  0  0  0  0  0  0  0  0
    8.3495   -5.0186    1.8553 H   0  0  0  0  0  0  0  0  0  0  0  0
    6.2287   -4.3840    0.4879 H   0  0  0  0  0  0  0  0  0  0  0  0
    6.7474   -2.1528   -0.8640 H   0  0  0  0  0  0  0  0  0  0  0  0
    9.3673   -1.6469   -0.6197 H   0  0  0  0  0  0  0  0  0  0  0  0
    9.0756   -3.4008   -1.0046 H   0  0  0  0  0  0  0  0  0  0  0  0
    7.4572   -0.2650    0.7457 H   0  0  0  0  0  0  0  0  0  0  0  0
  1  2  2  3
  2  3  1  0
  3  4  2  0
  3  5  1  0
  5  6  2  0
  6  7  1  0
  7  8  2  0
  8  9  1  0
  9 10  2  0
 10 11  1  0
 11 12  2  3
 12 13  1  0
 13 14  3  0
 12 15  1  0
 15 16  3  0
  8 17  1  0
 17 18  1  0
 18 19  1  0
 19 20  2  0
 20 21  1  0
 21 22  1  0
 21 23  1  0
  1 24  1  0
 24 25  2  0
 25 26  1  0
 26 27  2  0
 27 28  1  0
 28 29  2  0
 29 30  1  0
 30 31  2  0
 31 32  1  0
 32 33  1  0
 33 34  1  0
 34 35  1  0
 32 36  2  0
 27 37  1  0
 37 38  2  0
 38 39  1  0
 39 40  1  0
 40 41  2  0
 41 42  1  0
 42 43  2  0
 43 44  1  0
 44 45  1  0
 45 46  1  0
 46 47  1  0
 44 48  2  0
 39 49  2  0
 49 50  1  0
 38 51  1  0
 51 52  2  0
 52 53  1  0
 52 54  1  0
 54 55  2  0
 55 56  1  0
 56 57  1  0
 57 58  2  0
 58 59  1  0
 59 60  2  0
 60 61  1  0
 61 62  1  0
 60 63  1  0
 63 64  2  0
 56 65  1  0
 65 66  2  0
 66 67  1  0
 67 68  2  0
 68 69  1  0
 69 70  1  0
 68 71  1  0
 71 72  2  0
 55 73  1  0
 73 74  1  0
 74 75  1  0
 75 76  2  0
 76 77  1  0
 77 78  1  0
 78 79  2  0
 79 80  1  0
 80 81  2  0
 81 82  1  0
 82 83  1  0
 81 84  1  0
 84 85  2  0
 77 86  1  0
 86 87  2  0
 87 88  1  0
 88 89  2  0
 89 90  1  0
 90 91  1  0
 89 92  1  0
 92 93  2  0
 76 94  1  0
 94 95  1  0
 75 96  1  0
 96 97  2  0
 97 98  1  0
 97 99  1  0
 99100  1  0
 99101  2  0
101102  1  0
102103  2  0
103104  1  0
104105  1  0
105106  1  0
104107  2  0
107108  1  0
108109  2  0
107110  1  0
110111  1  0
101112  1  0
112113  2  3
113114  1  0
114115  2  0
114116  1  0
116117  2  0
117118  1  0
118119  2  0
119120  1  0
120121  2  0
121122  1  0
122123  2  3
123124  1  0
124125  3  0
123126  1  0
126127  3  0
119128  1  0
128129  1  0
129130  1  0
130131  2  0
131132  1  0
132133  1  0
132134  1  0
 11  2  1  0
 23 17  1  0
 50 24  1  0
 95 54  1  0
109 96  1  0
122113  1  0
134128  1  0
 10  5  1  0
 22 18  1  0
 49 26  1  0
 64 57  1  0
 72 65  1  0
 94 73  2  0
109102  1  0
121116  1  0
133129  1  0
 23  7  1  0
 36 28  1  0
 53 37  1  0
 85 78  1  0
 93 86  1  0
134118  1  0
 48 40  1  0
  1135  1  0
  6136  1  0
  9137  1  0
 17138  1  0
 18139  1  0
 19140  1  0
 20141  1  0
 21142  1  0
 22143  1  0
 22144  1  0
 23145  1  0
 25146  1  0
 29147  1  0
 30148  1  0
 31149  1  0
 34150  1  0
 34151  1  0
 35152  1  0
 35153  1  0
 35154  1  0
 36155  1  0
 41156  1  0
 42157  1  0
 43158  1  0
 46159  1  0
 46160  1  0
 47161  1  0
 47162  1  0
 47163  1  0
 48164  1  0
 51165  1  0
 58166  1  0
 59167  1  0
 62168  1  0
 62169  1  0
 62170  1  0
 63171  1  0
 64172  1  0
 66173  1  0
 67174  1  0
 70175  1  0
 70176  1  0
 70177  1  0
 71178  1  0
 72179  1  0
 79180  1  0
 80181  1  0
 83182  1  0
 83183  1  0
 83184  1  0
 84185  1  0
 85186  1  0
 87187  1  0
 88188  1  0
 91189  1  0
 91190  1  0
 91191  1  0
 92192  1  0
 93193  1  0
105194  1  0
105195  1  0
106196  1  0
106197  1  0
106198  1  0
110199  1  0
110200  1  0
111201  1  0
111202  1  0
111203  1  0
112204  1  0
117205  1  0
120206  1  0
128207  1  0
129208  1  0
130209  1  0
131210  1  0
132211  1  0
133212  1  0
133213  1  0
134214  1  0
M  END

