
     RDKit          3D

218238  0  0  0  0  0  0  0  0999 V2000
    2.2074    1.5772   -8.0835 C   0  0  0  0  0  0  0  0  0  0  0  0
    1.0745    2.4225   -8.1302 C   0  0  0  0  0  0  0  0  0  0  0  0
    0.4810    3.0731   -9.4094 C   0  0  0  0  0  0  0  0  0  0  0  0
    0.9836    3.1833  -10.5397 O   0  0  0  0  0  0  0  0  0  0  0  0
   -0.8784    3.4444   -9.0054 C   0  0  0  0  0  0  0  0  0  0  0  0
   -1.8427    4.1305   -9.7612 C   0  0  0  0  0  0  0  0  0  0  0  0
   -3.0025    4.3989   -9.0041 C   0  0  0  0  0  0  0  0  0  0  0  0
   -3.1784    4.0892   -7.6236 C   0  0  0  0  0  0  0  0  0  0  0  0
   -2.3373    3.3143   -6.9306 C   0  0  0  0  0  0  0  0  0  0  0  0
   -1.1604    3.0461   -7.6636 C   0  0  0  0  0  0  0  0  0  0  0  0
    0.1530    2.9024   -7.0236 C   0  0  0  0  0  0  0  0  0  0  0  0
    0.4974    2.9163   -5.7672 C   0  0  0  0  0  0  0  0  0  0  0  0
   -0.4020    2.7964   -4.7762 C   0  0  0  0  0  0  0  0  0  0  0  0
   -1.2121    2.8275   -3.9207 N   0  0  0  0  0  0  0  0  0  0  0  0
    1.7872    3.3163   -5.5313 C   0  0  0  0  0  0  0  0  0  0  0  0
    2.9210    3.6036   -5.5109 N   0  0  0  0  0  0  0  0  0  0  0  0
   -4.6306    4.4890   -7.6591 C   0  0  0  0  0  0  0  0  0  0  0  0
   -5.7803    3.3709   -7.6230 C   0  0  0  0  0  0  0  0  0  0  0  0
   -5.2403    2.0500   -8.1364 C   0  0  0  0  0  0  0  0  0  0  0  0
   -5.0213    2.1985   -9.4516 C   0  0  0  0  0  0  0  0  0  0  0  0
   -5.4314    3.6555   -9.7572 C   0  0  0  0  0  0  0  0  0  0  0  0
   -6.6164    3.7401   -8.8104 C   0  0  0  0  0  0  0  0  0  0  0  0
   -4.4646    4.7626   -9.0950 C   0  0  0  0  0  0  0  0  0  0  0  0
    2.1533    0.5694   -6.9334 C   0  0  0  0  0  0  0  0  0  0  0  0
    0.9872   -0.2426   -6.7673 C   0  0  0  0  0  0  0  0  0  0  0  0
   -0.0277   -0.1717   -7.6940 F   0  0  0  0  0  0  0  0  0  0  0  0
    0.5684   -0.5798   -5.4817 C   0  0  0  0  0  0  0  0  0  0  0  0
   -0.7322   -0.9835   -5.2912 F   0  0  0  0  0  0  0  0  0  0  0  0
    1.4430   -0.5486   -4.3824 C   0  0  0  0  0  0  0  0  0  0  0  0
    2.7423   -0.1274   -4.6765 C   0  0  0  0  0  0  0  0  0  0  0  0
    3.5957   -0.1964   -3.6566 N   0  0  0  0  0  0  0  0  0  0  0  0
    4.8538    0.2283   -3.7720 C   0  0  0  0  0  0  0  0  0  0  0  0
    5.5465    0.1844   -2.5582 C   0  0  0  0  0  0  0  0  0  0  0  0
    6.3088   -0.9541   -2.2579 C   0  0  0  0  0  0  0  0  0  0  0  0
    7.0261   -0.9807   -1.0290 C   0  0  0  0  0  0  0  0  0  0  0  0
    6.9827    0.1851   -0.2025 C   0  0  0  0  0  0  0  0  0  0  0  0
    7.7837    0.5438    0.9243 O   0  0  0  0  0  0  0  0  0  0  0  0
    8.2235   -0.1604    2.1030 C   0  0  0  0  0  0  0  0  0  0  0  0
    8.2651    1.0097    3.0908 C   0  0  0  0  0  0  0  0  0  0  0  0
    6.1621    1.2778   -0.5526 C   0  0  0  0  0  0  0  0  0  0  0  0
    5.4163    1.2711   -1.7001 C   0  0  0  0  0  0  0  0  0  0  0  0
    6.1217    2.3529    0.2641 F   0  0  0  0  0  0  0  0  0  0  0  0
    5.3058    0.8770   -5.0163 C   0  0  0  0  0  0  0  0  0  0  0  0
    4.4130    0.9896   -6.0201 N   0  0  0  0  0  0  0  0  0  0  0  0
    3.1361    0.5003   -5.8885 C   0  0  0  0  0  0  0  0  0  0  0  0
    6.7264    1.2597   -5.2791 C   0  0  0  0  0  0  0  0  0  0  0  0
    7.5935    1.4901   -4.2345 C   0  0  0  0  0  0  0  0  0  0  0  0
    8.8653    1.7618   -4.3769 C   0  0  0  0  0  0  0  0  0  0  0  0
    9.4490    1.7924   -5.6418 C   0  0  0  0  0  0  0  0  0  0  0  0
   10.8206    1.9274   -5.7306 O   0  0  0  0  0  0  0  0  0  0  0  0
   11.6792    1.8283   -4.5963 C   0  0  0  0  0  0  0  0  0  0  0  0
   11.5039    0.4581   -3.9463 C   0  0  0  0  0  0  0  0  0  0  0  0
    8.6137    1.5671   -6.7743 C   0  0  0  0  0  0  0  0  0  0  0  0
    9.1427    1.6016   -8.0541 F   0  0  0  0  0  0  0  0  0  0  0  0
    7.2709    1.3042   -6.6008 C   0  0  0  0  0  0  0  0  0  0  0  0
    0.9325   -0.7235   -2.9800 C   0  0  0  0  0  0  0  0  0  0  0  0
    1.3229   -1.7062   -2.0157 C   0  0  0  0  0  0  0  0  0  0  0  0
    1.8427   -3.0262   -2.2641 N   0  0  0  0  0  0  0  0  0  0  0  0
    2.3009   -3.4713   -3.5856 C   0  0  0  0  0  0  0  0  0  0  0  0
    1.4966   -4.3637   -4.2978 C   0  0  0  0  0  0  0  0  0  0  0  0
    2.0664   -5.1039   -5.3224 C   0  0  0  0  0  0  0  0  0  0  0  0
    3.4237   -4.9641   -5.6495 C   0  0  0  0  0  0  0  0  0  0  0  0
    4.1403   -5.8663   -7.0652 S   0  0  0  0  0  0  0  0  0  0  0  0
    4.4918   -7.4331   -6.1619 C   0  0  0  0  0  0  0  0  0  0  0  0
    4.2086   -3.9905   -4.9851 C   0  0  0  0  0  0  0  0  0  0  0  0
    3.6480   -3.2884   -3.9194 C   0  0  0  0  0  0  0  0  0  0  0  0
    2.0090   -3.9214   -1.1778 C   0  0  0  0  0  0  0  0  0  0  0  0
    2.9961   -3.6414   -0.2177 C   0  0  0  0  0  0  0  0  0  0  0  0
    2.9990   -4.3876    0.9590 C   0  0  0  0  0  0  0  0  0  0  0  0
    2.1584   -5.5224    1.1025 C   0  0  0  0  0  0  0  0  0  0  0  0
    2.5042   -6.6642    2.5086 S   0  0  0  0  0  0  0  0  0  0  0  0
    1.2635   -5.9844    3.7181 C   0  0  0  0  0  0  0  0  0  0  0  0
    1.3702   -5.9271    0.0236 C   0  0  0  0  0  0  0  0  0  0  0  0
    1.2639   -5.1178   -1.1040 C   0  0  0  0  0  0  0  0  0  0  0  0
    0.8514   -1.2573   -0.7577 C   0  0  0  0  0  0  0  0  0  0  0  0
    0.8654   -1.9065    0.7858 S   0  0  0  0  0  0  0  0  0  0  0  0
   -0.0025   -0.6994    1.5277 C   0  0  0  0  0  0  0  0  0  0  0  0
   -0.3532    0.2963    0.5648 C   0  0  0  0  0  0  0  0  0  0  0  0
   -1.4184    1.1922    0.8216 N   0  0  0  0  0  0  0  0  0  0  0  0
   -1.1649    2.6529    0.7717 C   0  0  0  0  0  0  0  0  0  0  0  0
   -1.8500    3.3887   -0.1709 C   0  0  0  0  0  0  0  0  0  0  0  0
   -2.0561    4.7442    0.0060 C   0  0  0  0  0  0  0  0  0  0  0  0
   -1.5437    5.4063    1.1349 C   0  0  0  0  0  0  0  0  0  0  0  0
   -1.7650    7.2383    1.2968 S   0  0  0  0  0  0  0  0  0  0  0  0
   -2.9485    7.5936   -0.0968 C   0  0  0  0  0  0  0  0  0  0  0  0
   -0.8075    4.6750    2.0931 C   0  0  0  0  0  0  0  0  0  0  0  0
   -0.6372    3.2651    1.9381 C   0  0  0  0  0  0  0  0  0  0  0  0
   -2.7723    0.7651    0.6219 C   0  0  0  0  0  0  0  0  0  0  0  0
   -3.7103    1.3482    1.4568 C   0  0  0  0  0  0  0  0  0  0  0  0
   -5.0404    1.1210    1.2269 C   0  0  0  0  0  0  0  0  0  0  0  0
   -5.4687    0.3194    0.1556 C   0  0  0  0  0  0  0  0  0  0  0  0
   -7.2536    0.0789   -0.1232 S   0  0  0  0  0  0  0  0  0  0  0  0
   -7.2968   -1.6928    0.4087 C   0  0  0  0  0  0  0  0  0  0  0  0
   -4.5477   -0.1045   -0.8028 C   0  0  0  0  0  0  0  0  0  0  0  0
   -3.1908    0.0832   -0.5780 C   0  0  0  0  0  0  0  0  0  0  0  0
    0.1252   -0.1088   -0.7145 C   0  0  0  0  0  0  0  0  0  0  0  0
    0.0314    0.5475   -2.2568 S   0  0  0  0  0  0  0  0  0  0  0  0
    0.2145   -0.5732    3.0020 C   0  0  0  0  0  0  0  0  0  0  0  0
    1.5164   -0.7159    3.5381 C   0  0  0  0  0  0  0  0  0  0  0  0
    2.5536   -0.5314    2.7309 F   0  0  0  0  0  0  0  0  0  0  0  0
    1.7673   -1.0684    4.8739 C   0  0  0  0  0  0  0  0  0  0  0  0
    3.0807   -1.0893    5.2557 F   0  0  0  0  0  0  0  0  0  0  0  0
    0.6650   -1.2339    5.7579 C   0  0  0  0  0  0  0  0  0  0  0  0
   -0.6326   -1.1029    5.2711 C   0  0  0  0  0  0  0  0  0  0  0  0
   -1.6869   -1.3109    6.1163 N   0  0  0  0  0  0  0  0  0  0  0  0
   -2.9777   -1.0819    5.8034 C   0  0  0  0  0  0  0  0  0  0  0  0
   -3.9199   -2.0218    6.3417 C   0  0  0  0  0  0  0  0  0  0  0  0
   -4.3871   -2.9065    5.3996 C   0  0  0  0  0  0  0  0  0  0  0  0
   -5.2082   -3.8679    5.7882 C   0  0  0  0  0  0  0  0  0  0  0  0
   -5.6136   -4.0384    7.1364 C   0  0  0  0  0  0  0  0  0  0  0  0
   -6.3806   -5.1900    7.4762 O   0  0  0  0  0  0  0  0  0  0  0  0
   -6.7686   -6.1301    6.4500 C   0  0  0  0  0  0  0  0  0  0  0  0
   -7.4753   -7.4062    6.9121 C   0  0  0  0  0  0  0  0  0  0  0  0
   -5.2008   -3.0496    8.0925 C   0  0  0  0  0  0  0  0  0  0  0  0
   -4.3502   -2.0246    7.6790 C   0  0  0  0  0  0  0  0  0  0  0  0
   -5.5858   -3.1732    9.3942 F   0  0  0  0  0  0  0  0  0  0  0  0
   -3.2153   -0.5433    4.5630 C   0  0  0  0  0  0  0  0  0  0  0  0
   -2.1836   -0.4444    3.6810 N   0  0  0  0  0  0  0  0  0  0  0  0
   -0.8810   -0.7412    3.9301 C   0  0  0  0  0  0  0  0  0  0  0  0
   -4.3287    0.3994    4.4534 C   0  0  0  0  0  0  0  0  0  0  0  0
   -3.9602    1.6627    4.7523 C   0  0  0  0  0  0  0  0  0  0  0  0
   -4.9161    2.5881    5.0552 C   0  0  0  0  0  0  0  0  0  0  0  0
   -6.2849    2.2820    5.0644 C   0  0  0  0  0  0  0  0  0  0  0  0
   -7.2581    3.2972    5.3588 O   0  0  0  0  0  0  0  0  0  0  0  0
   -6.8720    4.6348    5.7551 C   0  0  0  0  0  0  0  0  0  0  0  0
   -6.2264    5.4369    4.6041 C   0  0  0  0  0  0  0  0  0  0  0  0
   -6.7222    0.9404    4.7832 C   0  0  0  0  0  0  0  0  0  0  0  0
   -8.0387    0.5950    4.8007 F   0  0  0  0  0  0  0  0  0  0  0  0
   -5.6868   -0.0253    4.4983 C   0  0  0  0  0  0  0  0  0  0  0  0
    0.8136   -0.9089    7.1867 C   0  0  0  0  0  0  0  0  0  0  0  0
    1.4161   -1.5449    8.2632 C   0  0  0  0  0  0  0  0  0  0  0  0
    0.8179   -1.1337    9.5460 C   0  0  0  0  0  0  0  0  0  0  0  0
   -0.3268   -0.7040    9.7596 O   0  0  0  0  0  0  0  0  0  0  0  0
    1.8434   -1.1353   10.5153 C   0  0  0  0  0  0  0  0  0  0  0  0
    3.0309   -1.5213    9.9715 C   0  0  0  0  0  0  0  0  0  0  0  0
    4.0947   -1.6257   10.8704 C   0  0  0  0  0  0  0  0  0  0  0  0
    3.5797   -1.1128   12.3546 S   0  0  0  0  0  0  0  0  0  0  0  0
    1.9524   -0.8324   11.8408 C   0  0  0  0  0  0  0  0  0  0  0  0
    0.6921   -0.2094   12.8693 Cl  0  0  0  0  0  0  0  0  0  0  0  0
    2.9057   -1.9070    8.5458 C   0  0  0  0  0  0  0  0  0  0  0  0
    3.8802   -2.4628    7.7693 C   0  0  0  0  0  0  0  0  0  0  0  0
    5.2182   -2.1496    8.0752 C   0  0  0  0  0  0  0  0  0  0  0  0
    6.3037   -1.8835    8.3754 N   0  0  0  0  0  0  0  0  0  0  0  0
    3.6747   -3.4378    6.7530 C   0  0  0  0  0  0  0  0  0  0  0  0
    3.6855   -4.3126    5.9583 N   0  0  0  0  0  0  0  0  0  0  0  0
    3.2166    2.2577   -8.0898 H   0  0  0  0  0  0  0  0  0  0  0  0
   -1.7322    4.3764  -10.7802 H   0  0  0  0  0  0  0  0  0  0  0  0
   -2.5884    2.9311   -5.9388 H   0  0  0  0  0  0  0  0  0  0  0  0
   -4.8379    5.3646   -7.0189 H   0  0  0  0  0  0  0  0  0  0  0  0
   -6.3272    3.2951   -6.6129 H   0  0  0  0  0  0  0  0  0  0  0  0
   -4.9239    1.2019   -7.5260 H   0  0  0  0  0  0  0  0  0  0  0  0
   -4.1813    1.6883  -10.0071 H   0  0  0  0  0  0  0  0  0  0  0  0
   -5.6753    3.8209  -10.8380 H   0  0  0  0  0  0  0  0  0  0  0  0
   -7.4094    3.0014   -9.0274 H   0  0  0  0  0  0  0  0  0  0  0  0
   -7.0868    4.7464   -8.7298 H   0  0  0  0  0  0  0  0  0  0  0  0
   -4.6977    5.8146   -9.4264 H   0  0  0  0  0  0  0  0  0  0  0  0
    6.4023   -1.7938   -2.9228 H   0  0  0  0  0  0  0  0  0  0  0  0
    7.6210   -1.8167   -0.7577 H   0  0  0  0  0  0  0  0  0  0  0  0
    7.5142   -0.9361    2.4969 H   0  0  0  0  0  0  0  0  0  0  0  0
    9.2444   -0.5987    1.9640 H   0  0  0  0  0  0  0  0  0  0  0  0
    9.3077    1.3289    3.2511 H   0  0  0  0  0  0  0  0  0  0  0  0
    7.7617    0.7649    4.0300 H   0  0  0  0  0  0  0  0  0  0  0  0
    7.7211    1.9370    2.6339 H   0  0  0  0  0  0  0  0  0  0  0  0
    4.9228    2.1683   -2.0278 H   0  0  0  0  0  0  0  0  0  0  0  0
    7.3951    1.5539   -3.2081 H   0  0  0  0  0  0  0  0  0  0  0  0
    9.3826    1.9293   -3.4617 H   0  0  0  0  0  0  0  0  0  0  0  0
   11.4094    2.6713   -3.8853 H   0  0  0  0  0  0  0  0  0  0  0  0
   12.7536    2.0256   -4.8278 H   0  0  0  0  0  0  0  0  0  0  0  0
   10.7297   -0.1430   -4.4588 H   0  0  0  0  0  0  0  0  0  0  0  0
   11.1763    0.5519   -2.8823 H   0  0  0  0  0  0  0  0  0  0  0  0
   12.4205   -0.1120   -4.0020 H   0  0  0  0  0  0  0  0  0  0  0  0
    6.6136    1.1444   -7.4320 H   0  0  0  0  0  0  0  0  0  0  0  0
    0.4837   -4.5190   -4.0068 H   0  0  0  0  0  0  0  0  0  0  0  0
    1.4559   -5.8134   -5.8671 H   0  0  0  0  0  0  0  0  0  0  0  0
    5.0317   -8.1209   -6.8500 H   0  0  0  0  0  0  0  0  0  0  0  0
    3.5567   -7.9607   -5.8425 H   0  0  0  0  0  0  0  0  0  0  0  0
    5.1464   -7.2590   -5.2732 H   0  0  0  0  0  0  0  0  0  0  0  0
    5.2363   -3.8197   -5.2204 H   0  0  0  0  0  0  0  0  0  0  0  0
    4.2457   -2.6023   -3.3116 H   0  0  0  0  0  0  0  0  0  0  0  0
    3.4451   -2.6805   -0.2540 H   0  0  0  0  0  0  0  0  0  0  0  0
    3.6303   -4.0736    1.7507 H   0  0  0  0  0  0  0  0  0  0  0  0
    1.2295   -4.8612    3.7845 H   0  0  0  0  0  0  0  0  0  0  0  0
    0.2250   -6.3816    3.5455 H   0  0  0  0  0  0  0  0  0  0  0  0
    1.5562   -6.3428    4.7306 H   0  0  0  0  0  0  0  0  0  0  0  0
    0.8180   -6.8514    0.0821 H   0  0  0  0  0  0  0  0  0  0  0  0
    0.5643   -5.4277   -1.9078 H   0  0  0  0  0  0  0  0  0  0  0  0
   -2.3237    2.8816   -0.9542 H   0  0  0  0  0  0  0  0  0  0  0  0
   -2.6116    5.1795   -0.7484 H   0  0  0  0  0  0  0  0  0  0  0  0
   -2.5708    7.3009   -1.1062 H   0  0  0  0  0  0  0  0  0  0  0  0
   -3.9505    7.1367    0.0684 H   0  0  0  0  0  0  0  0  0  0  0  0
   -3.0927    8.6927   -0.1578 H   0  0  0  0  0  0  0  0  0  0  0  0
   -0.3926    5.1982    2.9574 H   0  0  0  0  0  0  0  0  0  0  0  0
   -0.1282    2.6903    2.7484 H   0  0  0  0  0  0  0  0  0  0  0  0
   -3.3268    1.9560    2.2908 H   0  0  0  0  0  0  0  0  0  0  0  0
   -5.7281    1.5405    1.9399 H   0  0  0  0  0  0  0  0  0  0  0  0
   -6.7844   -2.3754   -0.3043 H   0  0  0  0  0  0  0  0  0  0  0  0
   -6.8683   -1.8783    1.4286 H   0  0  0  0  0  0  0  0  0  0  0  0
   -8.3468   -2.0028    0.4461 H   0  0  0  0  0  0  0  0  0  0  0  0
   -4.8597   -0.6286   -1.6444 H   0  0  0  0  0  0  0  0  0  0  0  0
   -2.4727   -0.2888   -1.3274 H   0  0  0  0  0  0  0  0  0  0  0  0
   -4.0908   -2.8898    4.3795 H   0  0  0  0  0  0  0  0  0  0  0  0
   -5.4896   -4.4384    4.9538 H   0  0  0  0  0  0  0  0  0  0  0  0
   -7.4081   -5.5713    5.7151 H   0  0  0  0  0  0  0  0  0  0  0  0
   -5.8230   -6.4564    5.9556 H   0  0  0  0  0  0  0  0  0  0  0  0
   -8.4976   -7.3594    6.4844 H   0  0  0  0  0  0  0  0  0  0  0  0
   -7.4495   -7.4531    8.0225 H   0  0  0  0  0  0  0  0  0  0  0  0
   -6.8898   -8.2340    6.4583 H   0  0  0  0  0  0  0  0  0  0  0  0
   -4.0128   -1.2352    8.3898 H   0  0  0  0  0  0  0  0  0  0  0  0
   -2.9671    1.9490    4.7863 H   0  0  0  0  0  0  0  0  0  0  0  0
   -4.5539    3.5363    5.2474 H   0  0  0  0  0  0  0  0  0  0  0  0
   -7.7603    5.1831    6.1134 H   0  0  0  0  0  0  0  0  0  0  0  0
   -6.1476    4.5987    6.5907 H   0  0  0  0  0  0  0  0  0  0  0  0
   -6.8892    6.2675    4.2668 H   0  0  0  0  0  0  0  0  0  0  0  0
   -5.2596    5.8890    4.9352 H   0  0  0  0  0  0  0  0  0  0  0  0
   -5.9928    4.8054    3.7034 H   0  0  0  0  0  0  0  0  0  0  0  0
   -6.0177   -1.0577    4.2932 H   0  0  0  0  0  0  0  0  0  0  0  0
    0.1976   -0.0765    7.4123 H   0  0  0  0  0  0  0  0  0  0  0  0
    5.1140   -1.9470   10.7004 H   0  0  0  0  0  0  0  0  0  0  0  0
  1  2  2  3
  2  3  1  0
  3  4  2  0
  3  5  1  0
  5  6  2  0
  6  7  1  0
  7  8  2  0
  8  9  1  0
  9 10  2  0
 10 11  1  0
 11 12  2  3
 12 13  1  0
 13 14  3  0
 12 15  1  0
 15 16  3  0
  8 17  1  0
 17 18  1  0
 18 19  1  0
 19 20  2  0
 20 21  1  0
 21 22  1  0
 21 23  1  0
  1 24  1  0
 24 25  2  0
 25 26  1  0
 25 27  1  0
 27 28  1  0
 27 29  2  0
 29 30  1  0
 30 31  2  0
 31 32  1  0
 32 33  1  0
 33 34  2  0
 34 35  1  0
 35 36  2  0
 36 37  1  0
 37 38  1  0
 38 39  1  0
 36 40  1  0
 40 41  2  0
 40 42  1  0
 32 43  2  0
 43 44  1  0
 44 45  2  0
 43 46  1  0
 46 47  2  0
 47 48  1  0
 48 49  2  0
 49 50  1  0
 50 51  1  0
 51 52  1  0
 49 53  1  0
 53 54  1  0
 53 55  2  0
 29 56  1  0
 56 57  2  0
 57 58  1  0
 58 59  1  0
 59 60  2  0
 60 61  1  0
 61 62  2  0
 62 63  1  0
 63 64  1  0
 62 65  1  0
 65 66  2  0
 58 67  1  0
 67 68  2  0
 68 69  1  0
 69 70  2  0
 70 71  1  0
 71 72  1  0
 70 73  1  0
 73 74  2  0
 57 75  1  0
 75 76  1  0
 76 77  1  0
 77 78  2  0
 78 79  1  0
 79 80  1  0
 80 81  2  0
 81 82  1  0
 82 83  2  0
 83 84  1  0
 84 85  1  0
 83 86  1  0
 86 87  2  0
 79 88  1  0
 88 89  2  0
 89 90  1  0
 90 91  2  0
 91 92  1  0
 92 93  1  0
 91 94  1  0
 94 95  2  0
 78 96  1  0
 96 97  1  0
 77 98  1  0
 98 99  2  0
 99100  1  0
 99101  1  0
101102  1  0
101103  2  0
103104  1  0
104105  2  0
105106  1  0
106107  1  0
107108  2  0
108109  1  0
109110  2  0
110111  1  0
111112  1  0
112113  1  0
110114  1  0
114115  2  0
114116  1  0
106117  2  0
117118  1  0
118119  2  0
117120  1  0
120121  2  0
121122  1  0
122123  2  0
123124  1  0
124125  1  0
125126  1  0
123127  1  0
127128  1  0
127129  2  0
103130  1  0
130131  2  3
131132  1  0
132133  2  0
132134  1  0
134135  1  0
135136  2  0
136137  1  0
137138  1  0
138139  1  0
135140  1  0
140141  2  3
141142  1  0
142143  3  0
141144  1  0
144145  3  0
 11  2  1  0
 23 17  1  0
 45 24  1  0
 55 46  1  0
 97 56  1  0
119 98  1  0
129120  1  0
140131  1  0
 10  5  1  0
 22 18  1  0
 45 30  1  0
 66 59  1  0
 74 67  1  0
 96 75  2  0
119104  1  0
138134  2  0
 23  7  1  0
 41 33  1  0
 87 80  1  0
 95 88  1  0
115107  1  0
  1146  1  0
  6147  1  0
  9148  1  0
 17149  1  0
 18150  1  0
 19151  1  0
 20152  1  0
 21153  1  0
 22154  1  0
 22155  1  0
 23156  1  0
 34157  1  0
 35158  1  0
 38159  1  0
 38160  1  0
 39161  1  0
 39162  1  0
 39163  1  0
 41164  1  0
 47165  1  0
 48166  1  0
 51167  1  0
 51168  1  0
 52169  1  0
 52170  1  0
 52171  1  0
 55172  1  0
 60173  1  0
 61174  1  0
 64175  1  0
 64176  1  0
 64177  1  0
 65178  1  0
 66179  1  0
 68180  1  0
 69181  1  0
 72182  1  0
 72183  1  0
 72184  1  0
 73185  1  0
 74186  1  0
 81187  1  0
 82188  1  0
 85189  1  0
 85190  1  0
 85191  1  0
 86192  1  0
 87193  1  0
 89194  1  0
 90195  1  0
 93196  1  0
 93197  1  0
 93198  1  0
 94199  1  0
 95200  1  0
108201  1  0
109202  1  0
112203  1  0
112204  1  0
113205  1  0
113206  1  0
113207  1  0
115208  1  0
121209  1  0
122210  1  0
125211  1  0
125212  1  0
126213  1  0
126214  1  0
126215  1  0
129216  1  0
130217  1  0
136218  1  0
M  END

