
     RDKit          3D

206228  0  0  0  0  0  0  0  0999 V2000
  -10.1231   -2.0918    1.9570 C   0  0  0  0  0  0  0  0  0  0  0  0
   -8.9662   -2.7141    2.4112 C   0  0  0  0  0  0  0  0  0  0  0  0
   -7.6244   -2.6515    1.7302 C   0  0  0  0  0  0  0  0  0  0  0  0
   -7.3608   -2.4095    0.5038 O   0  0  0  0  0  0  0  0  0  0  0  0
   -6.6052   -3.0534    2.6382 C   0  0  0  0  0  0  0  0  0  0  0  0
   -5.2356   -2.7551    2.3891 C   0  0  0  0  0  0  0  0  0  0  0  0
   -4.4905   -3.0461    3.5031 C   0  0  0  0  0  0  0  0  0  0  0  0
   -5.0394   -3.6008    4.7138 C   0  0  0  0  0  0  0  0  0  0  0  0
   -6.3568   -3.8663    4.9568 C   0  0  0  0  0  0  0  0  0  0  0  0
   -7.2091   -3.5642    3.8443 C   0  0  0  0  0  0  0  0  0  0  0  0
   -8.7177   -3.4326    3.7526 C   0  0  0  0  0  0  0  0  0  0  0  0
   -9.6074   -3.8215    4.7389 C   0  0  0  0  0  0  0  0  0  0  0  0
  -10.9798   -3.4797    4.7347 C   0  0  0  0  0  0  0  0  0  0  0  0
  -12.0552   -3.0739    4.9353 N   0  0  0  0  0  0  0  0  0  0  0  0
   -9.1609   -4.4101    6.0233 C   0  0  0  0  0  0  0  0  0  0  0  0
   -8.8453   -4.6713    7.0888 N   0  0  0  0  0  0  0  0  0  0  0  0
   -3.7235   -3.7571    5.2879 C   0  0  0  0  0  0  0  0  0  0  0  0
   -3.1094   -5.2116    5.2697 C   0  0  0  0  0  0  0  0  0  0  0  0
   -1.6473   -5.0605    5.6504 C   0  0  0  0  0  0  0  0  0  0  0  0
   -1.0623   -4.3755    4.6582 C   0  0  0  0  0  0  0  0  0  0  0  0
   -2.1413   -4.1671    3.5860 C   0  0  0  0  0  0  0  0  0  0  0  0
   -2.8997   -5.4731    3.7749 C   0  0  0  0  0  0  0  0  0  0  0  0
   -3.1461   -3.0920    4.1147 C   0  0  0  0  0  0  0  0  0  0  0  0
  -10.1157   -0.8764    1.0578 C   0  0  0  0  0  0  0  0  0  0  0  0
   -9.7103   -0.8674   -0.3326 C   0  0  0  0  0  0  0  0  0  0  0  0
   -8.7637    0.2081   -0.5679 C   0  0  0  0  0  0  0  0  0  0  0  0
   -7.7122    0.1872   -1.5093 C   0  0  0  0  0  0  0  0  0  0  0  0
   -7.5724   -0.6143   -2.7546 C   0  0  0  0  0  0  0  0  0  0  0  0
   -7.8183   -2.0089   -2.8097 C   0  0  0  0  0  0  0  0  0  0  0  0
   -7.5530   -2.7497   -3.9877 C   0  0  0  0  0  0  0  0  0  0  0  0
   -6.9219   -2.1228   -5.0872 C   0  0  0  0  0  0  0  0  0  0  0  0
   -6.5149   -2.8256   -6.2225 C   0  0  0  0  0  0  0  0  0  0  0  0
   -5.8712   -2.1900   -7.2965 C   0  0  0  0  0  0  0  0  0  0  0  0
   -5.6076   -0.8248   -7.1868 C   0  0  0  0  0  0  0  0  0  0  0  0
   -5.9721   -0.0860   -6.0728 C   0  0  0  0  0  0  0  0  0  0  0  0
   -6.6463   -0.7428   -5.0369 C   0  0  0  0  0  0  0  0  0  0  0  0
   -7.0697    0.0282   -3.9311 C   0  0  0  0  0  0  0  0  0  0  0  0
   -6.6283    1.0833   -1.2231 C   0  0  0  0  0  0  0  0  0  0  0  0
   -6.6394    2.0853   -0.2230 C   0  0  0  0  0  0  0  0  0  0  0  0
   -7.7944    2.2560    0.5473 C   0  0  0  0  0  0  0  0  0  0  0  0
   -8.0057    3.3315    1.3950 O   0  0  0  0  0  0  0  0  0  0  0  0
   -7.5184    4.6972    1.2307 C   0  0  0  0  0  0  0  0  0  0  0  0
   -7.2388    5.0541   -0.2519 C   0  0  0  0  0  0  0  0  0  0  0  0
   -8.7191    1.2122    0.4841 C   0  0  0  0  0  0  0  0  0  0  0  0
   -9.6392    0.5986    1.7801 S   0  0  0  0  0  0  0  0  0  0  0  0
   -5.3576    2.6393    0.0602 C   0  0  0  0  0  0  0  0  0  0  0  0
   -4.2988    2.0500   -0.6940 C   0  0  0  0  0  0  0  0  0  0  0  0
   -5.0052    0.8990   -1.7389 S   0  0  0  0  0  0  0  0  0  0  0  0
   -2.8697    1.8118   -0.2940 C   0  0  0  0  0  0  0  0  0  0  0  0
   -1.9407    2.6019    0.4181 C   0  0  0  0  0  0  0  0  0  0  0  0
   -2.1918    3.8821    0.9295 N   0  0  0  0  0  0  0  0  0  0  0  0
   -2.2970    5.0349    0.0726 C   0  0  0  0  0  0  0  0  0  0  0  0
   -1.4544    5.1744   -1.0494 C   0  0  0  0  0  0  0  0  0  0  0  0
   -1.5754    6.3105   -1.8677 C   0  0  0  0  0  0  0  0  0  0  0  0
   -2.5008    7.3221   -1.5671 C   0  0  0  0  0  0  0  0  0  0  0  0
   -2.6500    8.7761   -2.6171 S   0  0  0  0  0  0  0  0  0  0  0  0
   -4.3070    8.3193   -3.2644 C   0  0  0  0  0  0  0  0  0  0  0  0
   -3.2273    7.2481   -0.3718 C   0  0  0  0  0  0  0  0  0  0  0  0
   -3.1295    6.1098    0.4452 C   0  0  0  0  0  0  0  0  0  0  0  0
   -2.0828    4.0854    2.3659 C   0  0  0  0  0  0  0  0  0  0  0  0
   -1.0384    4.8543    2.8862 C   0  0  0  0  0  0  0  0  0  0  0  0
   -0.9286    5.0973    4.2716 C   0  0  0  0  0  0  0  0  0  0  0  0
   -1.8816    4.5779    5.1530 C   0  0  0  0  0  0  0  0  0  0  0  0
   -1.6415    4.7350    6.9602 S   0  0  0  0  0  0  0  0  0  0  0  0
   -2.2711    6.4583    7.0530 C   0  0  0  0  0  0  0  0  0  0  0  0
   -2.9041    3.7074    4.6691 C   0  0  0  0  0  0  0  0  0  0  0  0
   -2.9811    3.4593    3.2745 C   0  0  0  0  0  0  0  0  0  0  0  0
   -0.7383    1.9116    0.6040 C   0  0  0  0  0  0  0  0  0  0  0  0
    0.8390    2.2473    1.1347 S   0  0  0  0  0  0  0  0  0  0  0  0
    1.5046    0.7160    0.7083 C   0  0  0  0  0  0  0  0  0  0  0  0
    0.4740   -0.0491    0.0889 C   0  0  0  0  0  0  0  0  0  0  0  0
    0.6761   -1.1291   -0.8087 N   0  0  0  0  0  0  0  0  0  0  0  0
    0.4613   -0.9090   -2.2617 C   0  0  0  0  0  0  0  0  0  0  0  0
    0.9606    0.2583   -2.8602 C   0  0  0  0  0  0  0  0  0  0  0  0
    0.6270    0.5372   -4.2306 C   0  0  0  0  0  0  0  0  0  0  0  0
   -0.2289   -0.3355   -4.9160 C   0  0  0  0  0  0  0  0  0  0  0  0
   -0.8324    0.1198   -6.5433 S   0  0  0  0  0  0  0  0  0  0  0  0
    0.4256   -0.8289   -7.4424 C   0  0  0  0  0  0  0  0  0  0  0  0
   -0.7134   -1.5038   -4.3041 C   0  0  0  0  0  0  0  0  0  0  0  0
   -0.3592   -1.7702   -2.9580 C   0  0  0  0  0  0  0  0  0  0  0  0
    0.9929   -2.4567   -0.3109 C   0  0  0  0  0  0  0  0  0  0  0  0
    1.7530   -3.3567   -1.0953 C   0  0  0  0  0  0  0  0  0  0  0  0
    2.1219   -4.6075   -0.5704 C   0  0  0  0  0  0  0  0  0  0  0  0
    1.7639   -4.9663    0.7323 C   0  0  0  0  0  0  0  0  0  0  0  0
    2.3930   -6.4937    1.4411 S   0  0  0  0  0  0  0  0  0  0  0  0
    1.0161   -7.4822    0.7989 C   0  0  0  0  0  0  0  0  0  0  0  0
    1.0457   -4.0575    1.5156 C   0  0  0  0  0  0  0  0  0  0  0  0
    0.6621   -2.8039    0.9935 C   0  0  0  0  0  0  0  0  0  0  0  0
   -0.7265    0.6534    0.0683 C   0  0  0  0  0  0  0  0  0  0  0  0
   -2.1616    0.2737   -0.6630 S   0  0  0  0  0  0  0  0  0  0  0  0
    2.9492    0.3816    0.7598 C   0  0  0  0  0  0  0  0  0  0  0  0
    4.0061    1.2929    0.9548 C   0  0  0  0  0  0  0  0  0  0  0  0
    5.2980    0.6414    0.9775 C   0  0  0  0  0  0  0  0  0  0  0  0
    6.5621    1.2768    0.9913 C   0  0  0  0  0  0  0  0  0  0  0  0
    6.6596    2.7367    1.0258 C   0  0  0  0  0  0  0  0  0  0  0  0
    6.0886    3.4677   -0.0210 C   0  0  0  0  0  0  0  0  0  0  0  0
    6.2090    4.8652   -0.0223 C   0  0  0  0  0  0  0  0  0  0  0  0
    6.9170    5.5093    1.0172 C   0  0  0  0  0  0  0  0  0  0  0  0
    7.0859    6.8919    0.9979 C   0  0  0  0  0  0  0  0  0  0  0  0
    7.8036    7.5397    2.0222 C   0  0  0  0  0  0  0  0  0  0  0  0
    8.3291    6.8192    3.0855 C   0  0  0  0  0  0  0  0  0  0  0  0
    8.1604    5.4336    3.1419 C   0  0  0  0  0  0  0  0  0  0  0  0
    7.4392    4.7674    2.1099 C   0  0  0  0  0  0  0  0  0  0  0  0
    7.3130    3.3779    2.0999 C   0  0  0  0  0  0  0  0  0  0  0  0
    7.7036    0.4641    0.8434 C   0  0  0  0  0  0  0  0  0  0  0  0
    7.5869   -0.9268    0.7550 C   0  0  0  0  0  0  0  0  0  0  0  0
    6.3712   -1.5592    0.7131 C   0  0  0  0  0  0  0  0  0  0  0  0
    6.2949   -2.9337    0.4770 O   0  0  0  0  0  0  0  0  0  0  0  0
    5.7544   -3.8798    1.4051 C   0  0  0  0  0  0  0  0  0  0  0  0
    6.7022   -4.0548    2.5783 C   0  0  0  0  0  0  0  0  0  0  0  0
    5.2460   -0.7628    0.8664 C   0  0  0  0  0  0  0  0  0  0  0  0
    3.6147   -1.1669    0.6760 S   0  0  0  0  0  0  0  0  0  0  0  0
    8.8197   -1.5590    0.5520 C   0  0  0  0  0  0  0  0  0  0  0  0
    9.8934   -0.6549    0.4084 C   0  0  0  0  0  0  0  0  0  0  0  0
    9.3303    0.9158    0.5830 S   0  0  0  0  0  0  0  0  0  0  0  0
   11.1552   -1.0505   -0.3409 C   0  0  0  0  0  0  0  0  0  0  0  0
   11.1194   -1.6103   -1.5688 C   0  0  0  0  0  0  0  0  0  0  0  0
    9.9127   -1.6680   -2.4591 C   0  0  0  0  0  0  0  0  0  0  0  0
    8.9001   -0.8891   -2.4514 O   0  0  0  0  0  0  0  0  0  0  0  0
   10.0930   -2.6932   -3.4240 C   0  0  0  0  0  0  0  0  0  0  0  0
    9.1660   -3.0410   -4.4205 C   0  0  0  0  0  0  0  0  0  0  0  0
    9.5848   -3.9946   -5.3666 C   0  0  0  0  0  0  0  0  0  0  0  0
    8.6725   -4.4699   -6.4644 C   0  0  0  0  0  0  0  0  0  0  0  0
    7.6242   -3.5687   -6.6675 F   0  0  0  0  0  0  0  0  0  0  0  0
    9.3667   -4.5737   -7.6572 F   0  0  0  0  0  0  0  0  0  0  0  0
    8.1604   -5.7240   -6.1503 F   0  0  0  0  0  0  0  0  0  0  0  0
   10.8785   -4.5677   -5.2737 C   0  0  0  0  0  0  0  0  0  0  0  0
   11.7662   -4.2051   -4.2503 C   0  0  0  0  0  0  0  0  0  0  0  0
   11.3419   -3.2597   -3.2942 C   0  0  0  0  0  0  0  0  0  0  0  0
   12.0794   -2.6195   -2.1387 C   0  0  0  0  0  0  0  0  0  0  0  0
   13.3304   -2.9648   -1.7150 C   0  0  0  0  0  0  0  0  0  0  0  0
   14.1296   -2.1520   -0.8726 C   0  0  0  0  0  0  0  0  0  0  0  0
   14.8039   -1.5113   -0.1491 N   0  0  0  0  0  0  0  0  0  0  0  0
   13.9391   -4.2528   -2.0675 C   0  0  0  0  0  0  0  0  0  0  0  0
   14.3302   -5.3209   -2.1716 N   0  0  0  0  0  0  0  0  0  0  0  0
  -11.0379   -2.2121    2.5149 H   0  0  0  0  0  0  0  0  0  0  0  0
   -4.8443   -2.3124    1.4465 H   0  0  0  0  0  0  0  0  0  0  0  0
   -6.5711   -4.2468    5.9423 H   0  0  0  0  0  0  0  0  0  0  0  0
   -3.6326   -3.2140    6.2490 H   0  0  0  0  0  0  0  0  0  0  0  0
   -3.6593   -5.9979    5.8201 H   0  0  0  0  0  0  0  0  0  0  0  0
   -1.1494   -5.4474    6.5448 H   0  0  0  0  0  0  0  0  0  0  0  0
   -0.0105   -4.0301    4.6793 H   0  0  0  0  0  0  0  0  0  0  0  0
   -1.7713   -3.9745    2.5824 H   0  0  0  0  0  0  0  0  0  0  0  0
   -3.7900   -5.5874    3.1972 H   0  0  0  0  0  0  0  0  0  0  0  0
   -2.3125   -6.4342    3.5136 H   0  0  0  0  0  0  0  0  0  0  0  0
   -2.7123   -2.0967    4.3534 H   0  0  0  0  0  0  0  0  0  0  0  0
   -9.7726   -1.7816   -0.8010 H   0  0  0  0  0  0  0  0  0  0  0  0
   -8.1581   -2.6236   -1.9670 H   0  0  0  0  0  0  0  0  0  0  0  0
   -7.7952   -3.8320   -3.9891 H   0  0  0  0  0  0  0  0  0  0  0  0
   -6.7126   -3.8771   -6.2710 H   0  0  0  0  0  0  0  0  0  0  0  0
   -5.5708   -2.7555   -8.1759 H   0  0  0  0  0  0  0  0  0  0  0  0
   -5.0955   -0.3151   -7.9563 H   0  0  0  0  0  0  0  0  0  0  0  0
   -5.7320    0.9628   -5.9882 H   0  0  0  0  0  0  0  0  0  0  0  0
   -6.9005    1.0685   -3.9496 H   0  0  0  0  0  0  0  0  0  0  0  0
   -8.2657    5.4023    1.6528 H   0  0  0  0  0  0  0  0  0  0  0  0
   -6.5682    4.7136    1.9080 H   0  0  0  0  0  0  0  0  0  0  0  0
   -7.9884    4.4880   -0.8630 H   0  0  0  0  0  0  0  0  0  0  0  0
   -6.1258    5.0099   -0.3728 H   0  0  0  0  0  0  0  0  0  0  0  0
   -7.4545    6.1183   -0.4275 H   0  0  0  0  0  0  0  0  0  0  0  0
   -5.1609    3.1835    0.9514 H   0  0  0  0  0  0  0  0  0  0  0  0
   -0.6934    4.3848   -1.2914 H   0  0  0  0  0  0  0  0  0  0  0  0
   -0.9489    6.3885   -2.7436 H   0  0  0  0  0  0  0  0  0  0  0  0
   -4.5547    7.2475   -3.1066 H   0  0  0  0  0  0  0  0  0  0  0  0
   -4.3493    8.4876   -4.3826 H   0  0  0  0  0  0  0  0  0  0  0  0
   -5.0732    8.9180   -2.6761 H   0  0  0  0  0  0  0  0  0  0  0  0
   -3.9216    8.0172   -0.0498 H   0  0  0  0  0  0  0  0  0  0  0  0
   -3.7284    6.0182    1.3410 H   0  0  0  0  0  0  0  0  0  0  0  0
   -0.2655    5.3254    2.2633 H   0  0  0  0  0  0  0  0  0  0  0  0
   -0.1102    5.6510    4.6688 H   0  0  0  0  0  0  0  0  0  0  0  0
   -1.7017    7.1562    6.4023 H   0  0  0  0  0  0  0  0  0  0  0  0
   -3.3615    6.4496    6.7782 H   0  0  0  0  0  0  0  0  0  0  0  0
   -2.2206    6.8164    8.1299 H   0  0  0  0  0  0  0  0  0  0  0  0
   -3.6463    3.2294    5.3152 H   0  0  0  0  0  0  0  0  0  0  0  0
   -3.7763    2.8175    2.8542 H   0  0  0  0  0  0  0  0  0  0  0  0
    1.6120    0.9523   -2.3187 H   0  0  0  0  0  0  0  0  0  0  0  0
    0.9920    1.4759   -4.6213 H   0  0  0  0  0  0  0  0  0  0  0  0
    0.5532   -1.8723   -7.0376 H   0  0  0  0  0  0  0  0  0  0  0  0
    0.0823   -0.9153   -8.5039 H   0  0  0  0  0  0  0  0  0  0  0  0
    1.3971   -0.2726   -7.4239 H   0  0  0  0  0  0  0  0  0  0  0  0
   -1.3896   -2.1891   -4.8205 H   0  0  0  0  0  0  0  0  0  0  0  0
   -0.7635   -2.6586   -2.4917 H   0  0  0  0  0  0  0  0  0  0  0  0
    2.0613   -3.0991   -2.0715 H   0  0  0  0  0  0  0  0  0  0  0  0
    2.7557   -5.2512   -1.2109 H   0  0  0  0  0  0  0  0  0  0  0  0
    0.9582   -7.4464   -0.3175 H   0  0  0  0  0  0  0  0  0  0  0  0
    0.0319   -7.2261    1.2559 H   0  0  0  0  0  0  0  0  0  0  0  0
    1.2335   -8.5509    0.9927 H   0  0  0  0  0  0  0  0  0  0  0  0
    0.8086   -4.3260    2.5142 H   0  0  0  0  0  0  0  0  0  0  0  0
    0.0899   -2.0939    1.6441 H   0  0  0  0  0  0  0  0  0  0  0  0
    3.8770    2.3869    1.0066 H   0  0  0  0  0  0  0  0  0  0  0  0
    5.5546    2.9385   -0.8587 H   0  0  0  0  0  0  0  0  0  0  0  0
    5.7979    5.4265   -0.8579 H   0  0  0  0  0  0  0  0  0  0  0  0
    6.6871    7.4945    0.1719 H   0  0  0  0  0  0  0  0  0  0  0  0
    7.9323    8.6106    1.9567 H   0  0  0  0  0  0  0  0  0  0  0  0
    8.8876    7.3164    3.8880 H   0  0  0  0  0  0  0  0  0  0  0  0
    8.5904    4.8903    4.0003 H   0  0  0  0  0  0  0  0  0  0  0  0
    7.7183    2.7917    2.8861 H   0  0  0  0  0  0  0  0  0  0  0  0
    4.7597   -3.5354    1.7447 H   0  0  0  0  0  0  0  0  0  0  0  0
    5.6430   -4.8633    0.8466 H   0  0  0  0  0  0  0  0  0  0  0  0
    6.5529   -3.2322    3.3168 H   0  0  0  0  0  0  0  0  0  0  0  0
    6.4918   -5.0091    3.0970 H   0  0  0  0  0  0  0  0  0  0  0  0
    7.7564   -3.9981    2.2662 H   0  0  0  0  0  0  0  0  0  0  0  0
    8.8908   -2.6178    0.2446 H   0  0  0  0  0  0  0  0  0  0  0  0
   12.0156   -1.1692    0.3005 H   0  0  0  0  0  0  0  0  0  0  0  0
    8.1578   -2.5858   -4.4598 H   0  0  0  0  0  0  0  0  0  0  0  0
   11.2367   -5.3084   -5.9546 H   0  0  0  0  0  0  0  0  0  0  0  0
   12.7305   -4.6851   -4.2888 H   0  0  0  0  0  0  0  0  0  0  0  0
  1  2  2  3
  2  3  1  0
  3  4  2  0
  3  5  1  0
  5  6  2  0
  6  7  1  0
  7  8  2  0
  8  9  1  0
  9 10  2  0
 10 11  1  0
 11 12  2  3
 12 13  1  0
 13 14  3  0
 12 15  1  0
 15 16  3  0
  8 17  1  0
 17 18  1  0
 18 19  1  0
 19 20  2  0
 20 21  1  0
 21 22  1  0
 21 23  1  0
  1 24  1  0
 24 25  2  0
 25 26  1  0
 26 27  2  0
 27 28  1  0
 28 29  2  0
 29 30  1  0
 30 31  2  0
 31 32  1  0
 32 33  2  0
 33 34  1  0
 34 35  2  0
 35 36  1  0
 36 37  2  0
 27 38  1  0
 38 39  2  0
 39 40  1  0
 40 41  1  0
 41 42  1  0
 42 43  1  0
 40 44  2  0
 44 45  1  0
 39 46  1  0
 46 47  2  0
 47 48  1  0
 47 49  1  0
 49 50  2  0
 50 51  1  0
 51 52  1  0
 52 53  2  0
 53 54  1  0
 54 55  2  0
 55 56  1  0
 56 57  1  0
 55 58  1  0
 58 59  2  0
 51 60  1  0
 60 61  2  0
 61 62  1  0
 62 63  2  0
 63 64  1  0
 64 65  1  0
 63 66  1  0
 66 67  2  0
 50 68  1  0
 68 69  1  0
 69 70  1  0
 70 71  2  0
 71 72  1  0
 72 73  1  0
 73 74  2  0
 74 75  1  0
 75 76  2  0
 76 77  1  0
 77 78  1  0
 76 79  1  0
 79 80  2  0
 72 81  1  0
 81 82  2  0
 82 83  1  0
 83 84  2  0
 84 85  1  0
 85 86  1  0
 84 87  1  0
 87 88  2  0
 71 89  1  0
 89 90  1  0
 70 91  1  0
 91 92  2  0
 92 93  1  0
 93 94  2  0
 94 95  1  0
 95 96  2  0
 96 97  1  0
 97 98  2  0
 98 99  1  0
 99100  2  0
100101  1  0
101102  2  0
102103  1  0
103104  2  0
 94105  1  0
105106  2  0
106107  1  0
107108  1  0
108109  1  0
109110  1  0
107111  2  0
111112  1  0
106113  1  0
113114  2  0
114115  1  0
114116  1  0
116117  2  3
117118  1  0
118119  2  0
118120  1  0
120121  2  0
121122  1  0
122123  1  0
123124  1  0
123125  1  0
123126  1  0
122127  2  0
127128  1  0
128129  2  0
129130  1  0
130131  2  3
131132  1  0
132133  3  0
131134  1  0
134135  3  0
 11  2  1  0
 23 17  1  0
 45 24  1  0
 90 49  1  0
112 91  1  0
130117  1  0
 10  5  1  0
 22 18  1  0
 44 26  1  0
 59 52  1  0
 67 60  1  0
 89 68  2  0
111 93  1  0
129120  1  0
 23  7  1  0
 37 28  1  0
 48 38  1  0
 80 73  1  0
 88 81  1  0
104 95  1  0
115105  1  0
 36 31  1  0
103 98  1  0
  1136  1  0
  6137  1  0
  9138  1  0
 17139  1  0
 18140  1  0
 19141  1  0
 20142  1  0
 21143  1  0
 22144  1  0
 22145  1  0
 23146  1  0
 25147  1  0
 29148  1  0
 30149  1  0
 32150  1  0
 33151  1  0
 34152  1  0
 35153  1  0
 37154  1  0
 42155  1  0
 42156  1  0
 43157  1  0
 43158  1  0
 43159  1  0
 46160  1  0
 53161  1  0
 54162  1  0
 57163  1  0
 57164  1  0
 57165  1  0
 58166  1  0
 59167  1  0
 61168  1  0
 62169  1  0
 65170  1  0
 65171  1  0
 65172  1  0
 66173  1  0
 67174  1  0
 74175  1  0
 75176  1  0
 78177  1  0
 78178  1  0
 78179  1  0
 79180  1  0
 80181  1  0
 82182  1  0
 83183  1  0
 86184  1  0
 86185  1  0
 86186  1  0
 87187  1  0
 88188  1  0
 92189  1  0
 96190  1  0
 97191  1  0
 99192  1  0
100193  1  0
101194  1  0
102195  1  0
104196  1  0
109197  1  0
109198  1  0
110199  1  0
110200  1  0
110201  1  0
113202  1  0
116203  1  0
121204  1  0
127205  1  0
128206  1  0
M  END

