
     RDKit          3D

230255  0  0  0  0  0  0  0  0999 V2000
   -4.3363   -7.2318   -5.2248 C   0  0  0  0  0  0  0  0  0  0  0  0
   -5.0423   -6.0894   -5.3186 C   0  0  0  0  0  0  0  0  0  0  0  0
   -4.5597   -4.8000   -4.8432 C   0  0  0  0  0  0  0  0  0  0  0  0
   -3.5273   -4.5144   -4.1496 O   0  0  0  0  0  0  0  0  0  0  0  0
   -5.4714   -3.7056   -5.2461 C   0  0  0  0  0  0  0  0  0  0  0  0
   -5.3546   -2.3601   -5.1043 C   0  0  0  0  0  0  0  0  0  0  0  0
   -6.2755   -1.4542   -5.6720 C   0  0  0  0  0  0  0  0  0  0  0  0
   -7.2863   -2.0941   -6.3754 C   0  0  0  0  0  0  0  0  0  0  0  0
   -7.4031   -3.4550   -6.5111 C   0  0  0  0  0  0  0  0  0  0  0  0
   -6.4806   -4.3284   -5.9424 C   0  0  0  0  0  0  0  0  0  0  0  0
   -6.2795   -5.7653   -6.0055 C   0  0  0  0  0  0  0  0  0  0  0  0
   -7.0661   -6.6011   -6.6232 C   0  0  0  0  0  0  0  0  0  0  0  0
   -6.8080   -8.0467   -6.7503 C   0  0  0  0  0  0  0  0  0  0  0  0
   -6.6241   -9.1737   -6.8387 N   0  0  0  0  0  0  0  0  0  0  0  0
   -8.3700   -6.2406   -7.0763 C   0  0  0  0  0  0  0  0  0  0  0  0
   -9.4921   -5.9316   -7.4854 N   0  0  0  0  0  0  0  0  0  0  0  0
   -7.8763   -0.7711   -6.7455 C   0  0  0  0  0  0  0  0  0  0  0  0
   -7.5889   -0.3081   -8.1549 C   0  0  0  0  0  0  0  0  0  0  0  0
   -6.2737   -0.8773   -8.5250 C   0  0  0  0  0  0  0  0  0  0  0  0
   -5.3194   -0.2038   -7.8918 C   0  0  0  0  0  0  0  0  0  0  0  0
   -5.9975    0.7176   -6.9541 C   0  0  0  0  0  0  0  0  0  0  0  0
   -7.1628    1.1461   -7.8717 C   0  0  0  0  0  0  0  0  0  0  0  0
   -6.7622   -0.0909   -5.9512 C   0  0  0  0  0  0  0  0  0  0  0  0
   -2.9671   -7.1029   -4.6084 C   0  0  0  0  0  0  0  0  0  0  0  0
   -2.0098   -6.2447   -5.1382 C   0  0  0  0  0  0  0  0  0  0  0  0
   -0.9346   -6.0081   -4.3890 C   0  0  0  0  0  0  0  0  0  0  0  0
   -0.0040   -4.9205   -4.6341 C   0  0  0  0  0  0  0  0  0  0  0  0
    0.1071   -4.4169   -5.9589 C   0  0  0  0  0  0  0  0  0  0  0  0
   -0.2449   -3.1653   -6.4943 C   0  0  0  0  0  0  0  0  0  0  0  0
   -0.0487   -2.9156   -7.8368 C   0  0  0  0  0  0  0  0  0  0  0  0
    0.4694   -3.8170   -8.7069 C   0  0  0  0  0  0  0  0  0  0  0  0
    0.9345   -3.4723  -10.4129 S   0  0  0  0  0  0  0  0  0  0  0  0
    2.7561   -3.2969  -10.4596 C   0  0  0  0  0  0  0  0  0  0  0  0
    3.4329   -4.6233  -10.3214 C   0  0  0  0  0  0  0  0  0  0  0  0
    0.8221   -5.0989   -8.1894 C   0  0  0  0  0  0  0  0  0  0  0  0
    1.2576   -6.0204   -9.0713 F   0  0  0  0  0  0  0  0  0  0  0  0
    0.6243   -5.3125   -6.8794 C   0  0  0  0  0  0  0  0  0  0  0  0
    0.8828   -4.5743   -3.6354 C   0  0  0  0  0  0  0  0  0  0  0  0
    1.0210   -5.1723   -2.4331 C   0  0  0  0  0  0  0  0  0  0  0  0
    0.1087   -6.2849   -2.2219 C   0  0  0  0  0  0  0  0  0  0  0  0
    0.3988   -7.2170   -1.1747 C   0  0  0  0  0  0  0  0  0  0  0  0
    0.9583   -8.4332   -1.6054 C   0  0  0  0  0  0  0  0  0  0  0  0
    1.4788   -9.3979   -0.8161 C   0  0  0  0  0  0  0  0  0  0  0  0
    1.4877   -9.2147    0.5789 C   0  0  0  0  0  0  0  0  0  0  0  0
    2.3081  -10.4500    1.5784 S   0  0  0  0  0  0  0  0  0  0  0  0
    4.1198  -10.3390    1.3610 C   0  0  0  0  0  0  0  0  0  0  0  0
    4.5306  -10.7894   -0.0432 C   0  0  0  0  0  0  0  0  0  0  0  0
    0.9415   -8.0536    1.0191 C   0  0  0  0  0  0  0  0  0  0  0  0
    0.4018   -7.0676    0.1996 C   0  0  0  0  0  0  0  0  0  0  0  0
    0.9362   -7.8526    2.3765 F   0  0  0  0  0  0  0  0  0  0  0  0
   -0.8059   -6.6039   -3.1875 C   0  0  0  0  0  0  0  0  0  0  0  0
   -2.2891   -7.5427   -3.1311 S   0  0  0  0  0  0  0  0  0  0  0  0
    1.7386   -4.5611   -1.4687 C   0  0  0  0  0  0  0  0  0  0  0  0
    2.2813   -3.3289   -1.7908 C   0  0  0  0  0  0  0  0  0  0  0  0
    1.7994   -3.1136   -3.3840 S   0  0  0  0  0  0  0  0  0  0  0  0
    2.8033   -2.3529   -0.7687 C   0  0  0  0  0  0  0  0  0  0  0  0
    2.7405   -1.0245   -0.8059 C   0  0  0  0  0  0  0  0  0  0  0  0
    2.6314   -0.2061   -1.9690 N   0  0  0  0  0  0  0  0  0  0  0  0
    3.7052    0.5489   -2.4811 C   0  0  0  0  0  0  0  0  0  0  0  0
    4.9871   -0.0689   -2.5590 C   0  0  0  0  0  0  0  0  0  0  0  0
    5.9659    0.7493   -3.0818 C   0  0  0  0  0  0  0  0  0  0  0  0
    5.8334    2.0126   -3.4958 C   0  0  0  0  0  0  0  0  0  0  0  0
    7.1525    2.9962   -4.1763 S   0  0  0  0  0  0  0  0  0  0  0  0
    6.5203    4.6489   -4.6233 C   0  0  0  0  0  0  0  0  0  0  0  0
    4.5331    2.6066   -3.4029 C   0  0  0  0  0  0  0  0  0  0  0  0
    3.5272    1.8210   -2.8910 C   0  0  0  0  0  0  0  0  0  0  0  0
    1.3896   -0.0818   -2.6176 C   0  0  0  0  0  0  0  0  0  0  0  0
    0.2076    0.0678   -1.8807 C   0  0  0  0  0  0  0  0  0  0  0  0
   -1.0025    0.2811   -2.3997 C   0  0  0  0  0  0  0  0  0  0  0  0
   -1.0972    0.3537   -3.7863 C   0  0  0  0  0  0  0  0  0  0  0  0
   -2.7243    0.6816   -4.4530 S   0  0  0  0  0  0  0  0  0  0  0  0
   -3.9460    0.8706   -3.1420 C   0  0  0  0  0  0  0  0  0  0  0  0
    0.0014    0.2126   -4.6043 C   0  0  0  0  0  0  0  0  0  0  0  0
    1.2502   -0.0026   -3.9790 C   0  0  0  0  0  0  0  0  0  0  0  0
    2.9009   -0.3699    0.4119 C   0  0  0  0  0  0  0  0  0  0  0  0
    2.5638    1.2343    1.0337 S   0  0  0  0  0  0  0  0  0  0  0  0
    2.7237    0.9206    2.7092 C   0  0  0  0  0  0  0  0  0  0  0  0
    3.0729   -0.3627    2.7591 C   0  0  0  0  0  0  0  0  0  0  0  0
    3.5874   -1.0022    3.9362 N   0  0  0  0  0  0  0  0  0  0  0  0
    4.0726   -2.3858    3.8754 C   0  0  0  0  0  0  0  0  0  0  0  0
    3.6741   -3.3686    4.6887 C   0  0  0  0  0  0  0  0  0  0  0  0
    4.3869   -4.6011    4.6116 C   0  0  0  0  0  0  0  0  0  0  0  0
    5.4127   -4.6768    3.7316 C   0  0  0  0  0  0  0  0  0  0  0  0
    6.3178   -6.2478    3.6946 S   0  0  0  0  0  0  0  0  0  0  0  0
    7.6535   -6.2356    2.5119 C   0  0  0  0  0  0  0  0  0  0  0  0
    5.8490   -3.7018    2.8825 C   0  0  0  0  0  0  0  0  0  0  0  0
    5.1331   -2.4854    2.9652 C   0  0  0  0  0  0  0  0  0  0  0  0
    4.0160   -0.3817    5.1208 C   0  0  0  0  0  0  0  0  0  0  0  0
    3.6315   -0.7241    6.3563 C   0  0  0  0  0  0  0  0  0  0  0  0
    4.1847   -0.2196    7.4968 C   0  0  0  0  0  0  0  0  0  0  0  0
    5.2066    0.6883    7.4254 C   0  0  0  0  0  0  0  0  0  0  0  0
    6.0040    1.3847    8.8680 S   0  0  0  0  0  0  0  0  0  0  0  0
    5.3345    0.6993   10.3734 C   0  0  0  0  0  0  0  0  0  0  0  0
    5.6695    1.0828    6.1486 C   0  0  0  0  0  0  0  0  0  0  0  0
    5.0641    0.5536    5.0414 C   0  0  0  0  0  0  0  0  0  0  0  0
    3.1335   -1.0186    1.5066 C   0  0  0  0  0  0  0  0  0  0  0  0
    3.1372   -2.6784    0.8974 S   0  0  0  0  0  0  0  0  0  0  0  0
    2.1667    1.8535    3.7782 C   0  0  0  0  0  0  0  0  0  0  0  0
    1.0182    2.5900    3.3628 C   0  0  0  0  0  0  0  0  0  0  0  0
    0.3246    3.2391    4.2810 C   0  0  0  0  0  0  0  0  0  0  0  0
   -0.9083    3.8912    4.0271 C   0  0  0  0  0  0  0  0  0  0  0  0
   -1.3077    4.2335    2.7036 C   0  0  0  0  0  0  0  0  0  0  0  0
   -0.8761    4.4337    1.4948 C   0  0  0  0  0  0  0  0  0  0  0  0
   -1.1736    4.6275    0.3680 C   0  0  0  0  0  0  0  0  0  0  0  0
   -2.6988    4.6383    0.2365 C   0  0  0  0  0  0  0  0  0  0  0  0
   -3.4927    4.8280   -0.9221 C   0  0  0  0  0  0  0  0  0  0  0  0
   -3.6040    6.3477   -1.1289 C   0  0  0  0  0  0  0  0  0  0  0  0
   -3.1591    4.3360    2.0781 Se  0  0  0  0  0  2  0  0  0  0  0  0
   -1.6114    4.3677    5.0853 C   0  0  0  0  0  0  0  0  0  0  0  0
   -1.2721    4.2933    6.4155 C   0  0  0  0  0  0  0  0  0  0  0  0
   -0.0213    3.6632    6.6358 C   0  0  0  0  0  0  0  0  0  0  0  0
    0.4527    3.4662    7.9855 C   0  0  0  0  0  0  0  0  0  0  0  0
    1.8465    3.1706    8.4210 C   0  0  0  0  0  0  0  0  0  0  0  0
    1.6613    3.0073    9.8243 C   0  0  0  0  0  0  0  0  0  0  0  0
    0.9520    3.0007   10.6799 C   0  0  0  0  0  0  0  0  0  0  0  0
    0.6194    2.8173   12.1518 C   0  0  0  0  0  0  0  0  0  0  0  0
    0.1932    1.3634   12.3242 C   0  0  0  0  0  0  0  0  0  0  0  0
   -0.6324    3.4283    9.5050 Se  0  0  0  0  0  2  0  0  0  0  0  0
    0.7317    3.1660    5.5796 C   0  0  0  0  0  0  0  0  0  0  0  0
    2.1390    2.1573    5.3989 S   0  0  0  0  0  0  0  0  0  0  0  0
   -2.1867    4.7790    7.2655 C   0  0  0  0  0  0  0  0  0  0  0  0
   -3.3742    5.3213    6.7308 C   0  0  0  0  0  0  0  0  0  0  0  0
   -3.1690    5.1267    5.1379 S   0  0  0  0  0  0  0  0  0  0  0  0
   -4.4102    5.9360    7.7061 C   0  0  0  0  0  0  0  0  0  0  0  0
   -3.7872    7.1581    8.0574 C   0  0  0  0  0  0  0  0  0  0  0  0
   -3.2706    8.2642    8.4086 C   0  0  0  0  0  0  0  0  0  0  0  0
   -2.9303    8.4099    9.7540 O   0  0  0  0  0  0  0  0  0  0  0  0
   -3.0049    9.4161    7.6077 C   0  0  0  0  0  0  0  0  0  0  0  0
   -2.2545   10.5846    7.8151 C   0  0  0  0  0  0  0  0  0  0  0  0
   -1.9411   11.4181    6.7465 C   0  0  0  0  0  0  0  0  0  0  0  0
   -2.4103   11.0507    5.5172 C   0  0  0  0  0  0  0  0  0  0  0  0
   -3.1452    9.9348    5.3055 C   0  0  0  0  0  0  0  0  0  0  0  0
   -3.4483    9.0769    6.3795 C   0  0  0  0  0  0  0  0  0  0  0  0
   -3.9938    7.7570    6.4239 C   0  0  0  0  0  0  0  0  0  0  0  0
   -4.8329    7.2712    5.6318 C   0  0  0  0  0  0  0  0  0  0  0  0
   -5.0370    7.7270    4.2461 C   0  0  0  0  0  0  0  0  0  0  0  0
   -5.1880    8.0725    3.1619 N   0  0  0  0  0  0  0  0  0  0  0  0
   -6.0177    6.2869    5.9118 C   0  0  0  0  0  0  0  0  0  0  0  0
   -6.7596    5.6510    6.0984 N   0  0  0  0  0  0  0  0  0  0  0  0
   -1.6987   12.2344    4.9155 C   0  0  0  0  0  0  0  0  0  0  0  0
   -0.4555   11.8069    4.1632 C   0  0  0  0  0  0  0  0  0  0  0  0
    0.0190   10.5393    4.8160 C   0  0  0  0  0  0  0  0  0  0  0  0
    0.4189   10.8359    6.0563 C   0  0  0  0  0  0  0  0  0  0  0  0
    0.3212   12.3279    6.2003 C   0  0  0  0  0  0  0  0  0  0  0  0
    0.5815   12.7494    4.7647 C   0  0  0  0  0  0  0  0  0  0  0  0
   -1.1761   12.6101    6.2869 C   0  0  0  0  0  0  0  0  0  0  0  0
   -4.6592   -8.1483   -5.4928 H   0  0  0  0  0  0  0  0  0  0  0  0
   -4.5700   -1.8787   -4.5202 H   0  0  0  0  0  0  0  0  0  0  0  0
   -8.2163   -3.8368   -7.0722 H   0  0  0  0  0  0  0  0  0  0  0  0
   -8.8889   -0.5887   -6.3752 H   0  0  0  0  0  0  0  0  0  0  0  0
   -8.3760   -0.3836   -8.8692 H   0  0  0  0  0  0  0  0  0  0  0  0
   -6.1393   -1.7159   -9.2224 H   0  0  0  0  0  0  0  0  0  0  0  0
   -4.2590   -0.3228   -8.0504 H   0  0  0  0  0  0  0  0  0  0  0  0
   -5.4141    1.5364   -6.5965 H   0  0  0  0  0  0  0  0  0  0  0  0
   -6.7900    1.6331   -8.7938 H   0  0  0  0  0  0  0  0  0  0  0  0
   -7.9301    1.7096   -7.3496 H   0  0  0  0  0  0  0  0  0  0  0  0
   -7.1394    0.4757   -5.0720 H   0  0  0  0  0  0  0  0  0  0  0  0
   -2.1933   -5.8660   -6.1663 H   0  0  0  0  0  0  0  0  0  0  0  0
   -0.6807   -2.4655   -5.8096 H   0  0  0  0  0  0  0  0  0  0  0  0
   -0.3197   -1.9408   -8.2368 H   0  0  0  0  0  0  0  0  0  0  0  0
    3.0795   -2.6433   -9.5826 H   0  0  0  0  0  0  0  0  0  0  0  0
    3.0989   -2.8103  -11.3957 H   0  0  0  0  0  0  0  0  0  0  0  0
    2.9627   -5.4309  -10.9606 H   0  0  0  0  0  0  0  0  0  0  0  0
    4.4880   -4.5880  -10.7913 H   0  0  0  0  0  0  0  0  0  0  0  0
    3.6262   -4.9696   -9.2997 H   0  0  0  0  0  0  0  0  0  0  0  0
    0.9415   -6.3342   -6.4941 H   0  0  0  0  0  0  0  0  0  0  0  0
    0.9807   -8.6162   -2.6987 H   0  0  0  0  0  0  0  0  0  0  0  0
    1.8665  -10.3412   -1.1657 H   0  0  0  0  0  0  0  0  0  0  0  0
    4.5990  -10.9366    2.1556 H   0  0  0  0  0  0  0  0  0  0  0  0
    4.4101   -9.2732    1.5255 H   0  0  0  0  0  0  0  0  0  0  0  0
    4.0749  -10.1792   -0.8195 H   0  0  0  0  0  0  0  0  0  0  0  0
    5.6244  -10.7322   -0.1708 H   0  0  0  0  0  0  0  0  0  0  0  0
    4.2418  -11.8804   -0.1272 H   0  0  0  0  0  0  0  0  0  0  0  0
   -0.0385   -6.1717    0.5710 H   0  0  0  0  0  0  0  0  0  0  0  0
    1.9399   -4.9914   -0.4864 H   0  0  0  0  0  0  0  0  0  0  0  0
    5.1482   -1.0660   -2.2459 H   0  0  0  0  0  0  0  0  0  0  0  0
    6.9662    0.2398   -3.1609 H   0  0  0  0  0  0  0  0  0  0  0  0
    7.3997    5.3040   -4.8024 H   0  0  0  0  0  0  0  0  0  0  0  0
    5.8064    4.6197   -5.4618 H   0  0  0  0  0  0  0  0  0  0  0  0
    6.0147    5.0773   -3.7328 H   0  0  0  0  0  0  0  0  0  0  0  0
    4.4053    3.6054   -3.7062 H   0  0  0  0  0  0  0  0  0  0  0  0
    2.5029    2.2990   -2.8656 H   0  0  0  0  0  0  0  0  0  0  0  0
    0.3620   -0.0345   -0.7933 H   0  0  0  0  0  0  0  0  0  0  0  0
   -1.8780    0.3791   -1.7914 H   0  0  0  0  0  0  0  0  0  0  0  0
   -3.5691    1.5308   -2.3245 H   0  0  0  0  0  0  0  0  0  0  0  0
   -4.1882   -0.1503   -2.7778 H   0  0  0  0  0  0  0  0  0  0  0  0
   -4.8930    1.3161   -3.5189 H   0  0  0  0  0  0  0  0  0  0  0  0
   -0.0944    0.2682   -5.6458 H   0  0  0  0  0  0  0  0  0  0  0  0
    2.1018   -0.0907   -4.6351 H   0  0  0  0  0  0  0  0  0  0  0  0
    2.8460   -3.2736    5.3293 H   0  0  0  0  0  0  0  0  0  0  0  0
    4.0439   -5.3759    5.2487 H   0  0  0  0  0  0  0  0  0  0  0  0
    8.4790   -6.9157    2.8709 H   0  0  0  0  0  0  0  0  0  0  0  0
    8.1440   -5.2601    2.3532 H   0  0  0  0  0  0  0  0  0  0  0  0
    7.3514   -6.6228    1.5076 H   0  0  0  0  0  0  0  0  0  0  0  0
    6.6777   -3.8078    2.2022 H   0  0  0  0  0  0  0  0  0  0  0  0
    5.4462   -1.7020    2.3025 H   0  0  0  0  0  0  0  0  0  0  0  0
    2.8143   -1.4239    6.5050 H   0  0  0  0  0  0  0  0  0  0  0  0
    3.8458   -0.5348    8.4647 H   0  0  0  0  0  0  0  0  0  0  0  0
    4.4900    1.2922   10.7216 H   0  0  0  0  0  0  0  0  0  0  0  0
    4.9324   -0.3494   10.2677 H   0  0  0  0  0  0  0  0  0  0  0  0
    6.0798    0.6470   11.2059 H   0  0  0  0  0  0  0  0  0  0  0  0
    6.4940    1.7777    6.1098 H   0  0  0  0  0  0  0  0  0  0  0  0
    5.4724    0.8835    4.0797 H   0  0  0  0  0  0  0  0  0  0  0  0
    0.7104    2.4890    2.3046 H   0  0  0  0  0  0  0  0  0  0  0  0
    0.4104    4.4900    1.6257 H   0  0  0  0  0  0  0  0  0  0  0  0
   -0.7162    4.8146   -0.6285 H   0  0  0  0  0  0  0  0  0  0  0  0
   -4.5664    4.4759   -0.7037 H   0  0  0  0  0  0  0  0  0  0  0  0
   -3.2302    4.3118   -1.8452 H   0  0  0  0  0  0  0  0  0  0  0  0
   -3.9663    6.8105   -0.1956 H   0  0  0  0  0  0  0  0  0  0  0  0
   -2.5525    6.6939   -1.2840 H   0  0  0  0  0  0  0  0  0  0  0  0
   -4.1546    6.5847   -2.0348 H   0  0  0  0  0  0  0  0  0  0  0  0
    2.6353    3.1190    7.8138 H   0  0  0  0  0  0  0  0  0  0  0  0
    2.8860    2.8566   10.2233 H   0  0  0  0  0  0  0  0  0  0  0  0
    1.4998    3.0282   12.7759 H   0  0  0  0  0  0  0  0  0  0  0  0
   -0.2056    3.4617   12.4474 H   0  0  0  0  0  0  0  0  0  0  0  0
   -0.5248    1.0907   11.5022 H   0  0  0  0  0  0  0  0  0  0  0  0
   -0.2484    1.1282   13.2897 H   0  0  0  0  0  0  0  0  0  0  0  0
    1.1010    0.7147   12.1510 H   0  0  0  0  0  0  0  0  0  0  0  0
   -2.1519    4.7886    8.3724 H   0  0  0  0  0  0  0  0  0  0  0  0
   -5.2472    5.5833    8.0159 H   0  0  0  0  0  0  0  0  0  0  0  0
   -1.9369   10.8348    8.8132 H   0  0  0  0  0  0  0  0  0  0  0  0
   -3.4757    9.6703    4.3337 H   0  0  0  0  0  0  0  0  0  0  0  0
   -2.3881   12.9083    4.4487 H   0  0  0  0  0  0  0  0  0  0  0  0
   -0.5097   11.8218    3.1056 H   0  0  0  0  0  0  0  0  0  0  0  0
    0.0325    9.5537    4.3737 H   0  0  0  0  0  0  0  0  0  0  0  0
    0.7451   10.1020    6.8072 H   0  0  0  0  0  0  0  0  0  0  0  0
    0.9349   12.7709    6.9509 H   0  0  0  0  0  0  0  0  0  0  0  0
    1.6090   12.4387    4.4515 H   0  0  0  0  0  0  0  0  0  0  0  0
    0.3231   13.7881    4.5768 H   0  0  0  0  0  0  0  0  0  0  0  0
   -1.4917   13.5509    6.6845 H   0  0  0  0  0  0  0  0  0  0  0  0
  1  2  2  3
  2  3  1  0
  3  4  2  0
  3  5  1  0
  5  6  2  0
  6  7  1  0
  7  8  2  0
  8  9  1  0
  9 10  2  0
 10 11  1  0
 11 12  2  3
 12 13  1  0
 13 14  3  0
 12 15  1  0
 15 16  3  0
  8 17  1  0
 17 18  1  0
 18 19  1  0
 19 20  2  0
 20 21  1  0
 21 22  1  0
 21 23  1  0
  1 24  1  0
 24 25  2  0
 25 26  1  0
 26 27  2  0
 27 28  1  0
 28 29  2  0
 29 30  1  0
 30 31  2  0
 31 32  1  0
 32 33  1  0
 33 34  1  0
 31 35  1  0
 35 36  1  0
 35 37  2  0
 27 38  1  0
 38 39  2  0
 39 40  1  0
 40 41  1  0
 41 42  2  0
 42 43  1  0
 43 44  2  0
 44 45  1  0
 45 46  1  0
 46 47  1  0
 44 48  1  0
 48 49  2  0
 48 50  1  0
 40 51  2  0
 51 52  1  0
 39 53  1  0
 53 54  2  0
 54 55  1  0
 54 56  1  0
 56 57  2  0
 57 58  1  0
 58 59  1  0
 59 60  2  0
 60 61  1  0
 61 62  2  0
 62 63  1  0
 63 64  1  0
 62 65  1  0
 65 66  2  0
 58 67  1  0
 67 68  2  0
 68 69  1  0
 69 70  2  0
 70 71  1  0
 71 72  1  0
 70 73  1  0
 73 74  2  0
 57 75  1  0
 75 76  1  0
 76 77  1  0
 77 78  2  0
 78 79  1  0
 79 80  1  0
 80 81  2  0
 81 82  1  0
 82 83  2  0
 83 84  1  0
 84 85  1  0
 83 86  1  0
 86 87  2  0
 79 88  1  0
 88 89  2  0
 89 90  1  0
 90 91  2  0
 91 92  1  0
 92 93  1  0
 91 94  1  0
 94 95  2  0
 78 96  1  0
 96 97  1  0
 77 98  1  0
 98 99  2  0
 99100  1  0
100101  2  0
101102  1  0
102103  2  0
103104  1  0
104105  2  0
105106  1  0
106107  1  0
105108  1  0
101109  1  0
109110  2  0
110111  1  0
111112  1  0
112113  2  0
113114  1  0
114115  2  0
115116  1  0
116117  1  0
115118  1  0
111119  2  0
119120  1  0
110121  1  0
121122  2  0
122123  1  0
122124  1  0
124125  2  3
125126  1  0
126127  2  0
126128  1  0
128129  2  0
129130  1  0
130131  2  0
131132  1  0
132133  2  0
133134  1  0
134135  2  3
135136  1  0
136137  3  0
135138  1  0
138139  3  0
131140  1  0
140141  1  0
141142  1  0
142143  2  0
143144  1  0
144145  1  0
144146  1  0
 11  2  1  0
 23 17  1  0
 52 24  1  0
 97 56  1  0
120 98  1  0
134125  1  0
146140  1  0
 10  5  1  0
 22 18  1  0
 51 26  1  0
 66 59  1  0
 74 67  1  0
 96 75  2  0
119100  1  0
133128  1  0
145141  1  0
 23  7  1  0
 37 28  1  0
 55 38  1  0
 87 80  1  0
 95 88  1  0
108102  1  0
123109  1  0
146130  1  0
 49 41  1  0
118112  1  0
  1147  1  0
  6148  1  0
  9149  1  0
 17150  1  0
 18151  1  0
 19152  1  0
 20153  1  0
 21154  1  0
 22155  1  0
 22156  1  0
 23157  1  0
 25158  1  0
 29159  1  0
 30160  1  0
 33161  1  0
 33162  1  0
 34163  1  0
 34164  1  0
 34165  1  0
 37166  1  0
 42167  1  0
 43168  1  0
 46169  1  0
 46170  1  0
 47171  1  0
 47172  1  0
 47173  1  0
 49174  1  0
 53175  1  0
 60176  1  0
 61177  1  0
 64178  1  0
 64179  1  0
 64180  1  0
 65181  1  0
 66182  1  0
 68183  1  0
 69184  1  0
 72185  1  0
 72186  1  0
 72187  1  0
 73188  1  0
 74189  1  0
 81190  1  0
 82191  1  0
 85192  1  0
 85193  1  0
 85194  1  0
 86195  1  0
 87196  1  0
 89197  1  0
 90198  1  0
 93199  1  0
 93200  1  0
 93201  1  0
 94202  1  0
 95203  1  0
 99204  1  0
103205  1  0
104206  1  0
106207  1  0
106208  1  0
107209  1  0
107210  1  0
107211  1  0
113212  1  0
114213  1  0
116214  1  0
116215  1  0
117216  1  0
117217  1  0
117218  1  0
121219  1  0
124220  1  0
129221  1  0
132222  1  0
140223  1  0
141224  1  0
142225  1  0
143226  1  0
144227  1  0
145228  1  0
145229  1  0
146230  1  0
M  END

