
     RDKit          3D

230253  0  0  0  0  0  0  0  0999 V2000
   -7.0168   -3.7455    3.7030 C   0  0  0  0  0  0  0  0  0  0  0  0
   -7.9211   -2.9511    3.0867 C   0  0  0  0  0  0  0  0  0  0  0  0
   -7.6088   -1.8735    2.1349 C   0  0  0  0  0  0  0  0  0  0  0  0
   -6.4842   -1.3444    1.9344 O   0  0  0  0  0  0  0  0  0  0  0  0
   -8.7966   -1.5696    1.3699 C   0  0  0  0  0  0  0  0  0  0  0  0
   -8.9048   -0.6367    0.3129 C   0  0  0  0  0  0  0  0  0  0  0  0
  -10.1500   -0.6158   -0.2867 C   0  0  0  0  0  0  0  0  0  0  0  0
  -11.2279   -1.4668    0.1196 C   0  0  0  0  0  0  0  0  0  0  0  0
  -11.1285   -2.3812    1.1573 C   0  0  0  0  0  0  0  0  0  0  0  0
   -9.8603   -2.4007    1.8063 C   0  0  0  0  0  0  0  0  0  0  0  0
   -9.3890   -3.2159    2.9644 C   0  0  0  0  0  0  0  0  0  0  0  0
  -10.1627   -3.8645    3.8722 C   0  0  0  0  0  0  0  0  0  0  0  0
  -11.5834   -4.0332    3.7105 C   0  0  0  0  0  0  0  0  0  0  0  0
  -12.7264   -4.1818    3.5976 N   0  0  0  0  0  0  0  0  0  0  0  0
   -9.6361   -4.3200    5.1326 C   0  0  0  0  0  0  0  0  0  0  0  0
   -9.2185   -4.6826    6.1489 N   0  0  0  0  0  0  0  0  0  0  0  0
  -12.1157   -0.8718   -0.9321 C   0  0  0  0  0  0  0  0  0  0  0  0
  -13.2048    0.1239   -0.4325 C   0  0  0  0  0  0  0  0  0  0  0  0
  -13.6801    0.8681   -1.6561 C   0  0  0  0  0  0  0  0  0  0  0  0
  -12.6723    1.6653   -2.0339 C   0  0  0  0  0  0  0  0  0  0  0  0
  -11.5525    1.4350   -1.0476 C   0  0  0  0  0  0  0  0  0  0  0  0
  -12.3863    1.2334    0.2075 C   0  0  0  0  0  0  0  0  0  0  0  0
  -11.0148    0.0052   -1.3434 C   0  0  0  0  0  0  0  0  0  0  0  0
   -5.5690   -3.4884    3.6768 C   0  0  0  0  0  0  0  0  0  0  0  0
   -4.9423   -2.3208    4.0920 C   0  0  0  0  0  0  0  0  0  0  0  0
   -3.6191   -2.4785    3.7259 C   0  0  0  0  0  0  0  0  0  0  0  0
   -2.5367   -1.5716    3.7264 C   0  0  0  0  0  0  0  0  0  0  0  0
   -2.6751   -0.1491    4.1115 C   0  0  0  0  0  0  0  0  0  0  0  0
   -3.7731    0.6727    3.8515 C   0  0  0  0  0  0  0  0  0  0  0  0
   -3.5837    2.0021    4.2365 C   0  0  0  0  0  0  0  0  0  0  0  0
   -2.3376    2.2426    4.7978 C   0  0  0  0  0  0  0  0  0  0  0  0
   -1.6602    3.9115    5.1940 Si  0  0  0  0  0  4  0  0  0  0  0  0
   -0.3931    3.7011    6.5783 C   0  0  0  0  0  0  0  0  0  0  0  0
    0.6040    4.8487    6.6572 C   0  0  0  0  0  0  0  0  0  0  0  0
   -3.1165    4.9900    5.7159 C   0  0  0  0  0  0  0  0  0  0  0  0
   -2.7079    6.1769    6.5795 C   0  0  0  0  0  0  0  0  0  0  0  0
   -0.9131    4.5071    3.5722 C   0  0  0  0  0  0  0  0  0  0  0  0
   -0.7041    6.0143    3.5176 C   0  0  0  0  0  0  0  0  0  0  0  0
   -1.4571    0.8081    4.7807 S   0  0  0  0  0  0  0  0  0  0  0  0
   -1.3587   -2.0487    3.1224 C   0  0  0  0  0  0  0  0  0  0  0  0
   -1.2484   -3.3384    2.6240 C   0  0  0  0  0  0  0  0  0  0  0  0
   -2.3202   -4.2495    2.6433 C   0  0  0  0  0  0  0  0  0  0  0  0
   -2.2256   -5.5871    2.0214 C   0  0  0  0  0  0  0  0  0  0  0  0
   -3.2026   -6.2069    1.2472 C   0  0  0  0  0  0  0  0  0  0  0  0
   -2.8019   -7.4495    0.7390 C   0  0  0  0  0  0  0  0  0  0  0  0
   -1.5096   -7.8081    1.1077 C   0  0  0  0  0  0  0  0  0  0  0  0
   -0.6124   -9.3478    0.6237 Si  0  0  0  0  0  4  0  0  0  0  0  0
   -1.7828  -10.4561   -0.3516 C   0  0  0  0  0  0  0  0  0  0  0  0
   -1.9708   -9.9660   -1.7843 C   0  0  0  0  0  0  0  0  0  0  0  0
    0.8730   -8.9254   -0.4543 C   0  0  0  0  0  0  0  0  0  0  0  0
    1.9874   -8.2426    0.3319 C   0  0  0  0  0  0  0  0  0  0  0  0
   -0.0815  -10.2200    2.2024 C   0  0  0  0  0  0  0  0  0  0  0  0
    0.6971  -11.4991    1.9196 C   0  0  0  0  0  0  0  0  0  0  0  0
   -0.8787   -6.5958    2.0806 S   0  0  0  0  0  0  0  0  0  0  0  0
   -3.5225   -3.7489    3.1771 C   0  0  0  0  0  0  0  0  0  0  0  0
   -4.6953   -4.3381    3.1781 O   0  0  0  0  0  0  0  0  0  0  0  0
   -0.0658   -3.3836    1.9152 C   0  0  0  0  0  0  0  0  0  0  0  0
    0.4558   -2.1079    2.0252 C   0  0  0  0  0  0  0  0  0  0  0  0
   -0.3083   -1.3435    2.7814 O   0  0  0  0  0  0  0  0  0  0  0  0
    1.5461   -1.5839    1.2087 C   0  0  0  0  0  0  0  0  0  0  0  0
    2.4924   -0.6381    1.6355 C   0  0  0  0  0  0  0  0  0  0  0  0
    2.8839   -0.4523    3.0159 N   0  0  0  0  0  0  0  0  0  0  0  0
    2.9584   -1.5825    3.9141 C   0  0  0  0  0  0  0  0  0  0  0  0
    3.3900   -2.8419    3.4561 C   0  0  0  0  0  0  0  0  0  0  0  0
    3.4470   -3.9310    4.3270 C   0  0  0  0  0  0  0  0  0  0  0  0
    3.1077   -3.7719    5.6743 C   0  0  0  0  0  0  0  0  0  0  0  0
    3.1990   -5.1722    6.7936 S   0  0  0  0  0  0  0  0  0  0  0  0
    4.9812   -4.9655    7.1018 C   0  0  0  0  0  0  0  0  0  0  0  0
    2.6949   -2.5227    6.1448 C   0  0  0  0  0  0  0  0  0  0  0  0
    2.6110   -1.4346    5.2701 C   0  0  0  0  0  0  0  0  0  0  0  0
    3.3487    0.8293    3.4658 C   0  0  0  0  0  0  0  0  0  0  0  0
    2.5149    1.9535    3.3882 C   0  0  0  0  0  0  0  0  0  0  0  0
    2.9810    3.2016    3.8130 C   0  0  0  0  0  0  0  0  0  0  0  0
    4.2747    3.3330    4.3310 C   0  0  0  0  0  0  0  0  0  0  0  0
    4.8469    4.9334    4.9002 S   0  0  0  0  0  0  0  0  0  0  0  0
    4.4210    4.6142    6.6432 C   0  0  0  0  0  0  0  0  0  0  0  0
    5.1141    2.2145    4.3986 C   0  0  0  0  0  0  0  0  0  0  0  0
    4.6514    0.9665    3.9730 C   0  0  0  0  0  0  0  0  0  0  0  0
    3.0321    0.0468    0.5392 C   0  0  0  0  0  0  0  0  0  0  0  0
    3.8519    1.5005    0.3564 S   0  0  0  0  0  0  0  0  0  0  0  0
    3.5979    1.6052   -1.3293 C   0  0  0  0  0  0  0  0  0  0  0  0
    2.8758    0.4765   -1.7513 C   0  0  0  0  0  0  0  0  0  0  0  0
    2.2669    0.3367   -3.0479 N   0  0  0  0  0  0  0  0  0  0  0  0
    0.9625    0.9170   -3.3190 C   0  0  0  0  0  0  0  0  0  0  0  0
    0.3696    1.8257   -2.4099 C   0  0  0  0  0  0  0  0  0  0  0  0
   -0.8859    2.3803   -2.6658 C   0  0  0  0  0  0  0  0  0  0  0  0
   -1.5755    2.0485   -3.8347 C   0  0  0  0  0  0  0  0  0  0  0  0
   -3.1847    2.7716   -4.1600 S   0  0  0  0  0  0  0  0  0  0  0  0
   -2.4923    4.2401   -4.9851 C   0  0  0  0  0  0  0  0  0  0  0  0
   -1.0157    1.1414   -4.7374 C   0  0  0  0  0  0  0  0  0  0  0  0
    0.2335    0.5693   -4.4775 C   0  0  0  0  0  0  0  0  0  0  0  0
    2.9621   -0.4690   -4.0233 C   0  0  0  0  0  0  0  0  0  0  0  0
    3.2653    0.0507   -5.2959 C   0  0  0  0  0  0  0  0  0  0  0  0
    3.9419   -0.7314   -6.2355 C   0  0  0  0  0  0  0  0  0  0  0  0
    4.3116   -2.0451   -5.9219 C   0  0  0  0  0  0  0  0  0  0  0  0
    5.1398   -3.0610   -7.1443 S   0  0  0  0  0  0  0  0  0  0  0  0
    3.5788   -3.6769   -7.8484 C   0  0  0  0  0  0  0  0  0  0  0  0
    4.0291   -2.5638   -4.6530 C   0  0  0  0  0  0  0  0  0  0  0  0
    3.3636   -1.7800   -3.7081 C   0  0  0  0  0  0  0  0  0  0  0  0
    2.5671   -0.3518   -0.6779 C   0  0  0  0  0  0  0  0  0  0  0  0
    1.4179   -1.5498   -0.4863 S   0  0  0  0  0  0  0  0  0  0  0  0
    3.6900    2.8657   -2.0786 C   0  0  0  0  0  0  0  0  0  0  0  0
    4.0469    2.9939   -3.7523 S   0  0  0  0  0  0  0  0  0  0  0  0
    3.7048    4.6271   -3.7686 C   0  0  0  0  0  0  0  0  0  0  0  0
    3.7965    5.7267   -4.5694 C   0  0  0  0  0  0  0  0  0  0  0  0
    3.5144    6.7981   -3.7875 C   0  0  0  0  0  0  0  0  0  0  0  0
    3.2374    6.4352   -2.5072 N   0  0  0  0  0  0  0  0  0  0  0  0
    2.9143    7.2885   -1.3634 C   0  0  0  0  0  0  0  0  0  0  0  0
    1.4059    7.4833   -1.2647 C   0  0  0  0  0  0  0  0  0  0  0  0
    3.3603    5.0832   -2.5405 C   0  0  0  0  0  0  0  0  0  0  0  0
    3.3429    4.1208   -1.5424 C   0  0  0  0  0  0  0  0  0  0  0  0
    3.8086    8.0303   -4.3620 C   0  0  0  0  0  0  0  0  0  0  0  0
    4.3712    7.8603   -5.6407 C   0  0  0  0  0  0  0  0  0  0  0  0
    4.4792    6.1842   -6.0147 S   0  0  0  0  0  0  0  0  0  0  0  0
    5.0500    8.9486   -6.3822 C   0  0  0  0  0  0  0  0  0  0  0  0
    6.2803    8.7476   -6.8837 C   0  0  0  0  0  0  0  0  0  0  0  0
    6.5063    7.6777   -7.8674 C   0  0  0  0  0  0  0  0  0  0  0  0
    5.8226    7.5012   -8.9113 O   0  0  0  0  0  0  0  0  0  0  0  0
    7.5496    6.7866   -7.4043 C   0  0  0  0  0  0  0  0  0  0  0  0
    7.8190    5.4819   -7.8765 C   0  0  0  0  0  0  0  0  0  0  0  0
    8.6061    4.7298   -7.0238 C   0  0  0  0  0  0  0  0  0  0  0  0
    9.1036    5.2249   -5.7746 C   0  0  0  0  0  0  0  0  0  0  0  0
    8.8594    6.5114   -5.3170 C   0  0  0  0  0  0  0  0  0  0  0  0
    8.0660    7.3016   -6.1931 C   0  0  0  0  0  0  0  0  0  0  0  0
    7.4157    8.6057   -5.9264 C   0  0  0  0  0  0  0  0  0  0  0  0
    7.8371    9.5679   -5.0742 C   0  0  0  0  0  0  0  0  0  0  0  0
    7.1851   10.8530   -5.0150 C   0  0  0  0  0  0  0  0  0  0  0  0
    6.6664   11.8877   -4.9677 N   0  0  0  0  0  0  0  0  0  0  0  0
    9.0235    9.4170   -4.2709 C   0  0  0  0  0  0  0  0  0  0  0  0
    9.9747    9.3074   -3.6211 N   0  0  0  0  0  0  0  0  0  0  0  0
    9.6722    3.8773   -5.4493 C   0  0  0  0  0  0  0  0  0  0  0  0
    8.8921    3.0270   -4.4022 C   0  0  0  0  0  0  0  0  0  0  0  0
    9.4087    1.6161   -4.5426 C   0  0  0  0  0  0  0  0  0  0  0  0
    8.9586    1.1602   -5.7203 C   0  0  0  0  0  0  0  0  0  0  0  0
    8.1479    2.2780   -6.3285 C   0  0  0  0  0  0  0  0  0  0  0  0
    7.5321    2.8370   -5.0567 C   0  0  0  0  0  0  0  0  0  0  0  0
    9.1751    3.3736   -6.7352 C   0  0  0  0  0  0  0  0  0  0  0  0
   -7.3281   -4.6959    4.1112 H   0  0  0  0  0  0  0  0  0  0  0  0
   -8.0881   -0.0060   -0.0119 H   0  0  0  0  0  0  0  0  0  0  0  0
  -11.9619   -3.0125    1.4095 H   0  0  0  0  0  0  0  0  0  0  0  0
  -12.4397   -1.6047   -1.7053 H   0  0  0  0  0  0  0  0  0  0  0  0
  -14.0044   -0.3170    0.2001 H   0  0  0  0  0  0  0  0  0  0  0  0
  -14.6711    0.8428   -2.0988 H   0  0  0  0  0  0  0  0  0  0  0  0
  -12.7065    2.3987   -2.8318 H   0  0  0  0  0  0  0  0  0  0  0  0
  -10.7872    2.2381   -1.0022 H   0  0  0  0  0  0  0  0  0  0  0  0
  -11.8048    0.9127    1.1002 H   0  0  0  0  0  0  0  0  0  0  0  0
  -12.9933    2.1285    0.4850 H   0  0  0  0  0  0  0  0  0  0  0  0
  -10.6455   -0.1667   -2.3803 H   0  0  0  0  0  0  0  0  0  0  0  0
   -5.4168   -1.4608    4.5416 H   0  0  0  0  0  0  0  0  0  0  0  0
   -4.6619    0.3458    3.3316 H   0  0  0  0  0  0  0  0  0  0  0  0
   -4.3210    2.7752    4.0651 H   0  0  0  0  0  0  0  0  0  0  0  0
   -0.9379    3.6158    7.5434 H   0  0  0  0  0  0  0  0  0  0  0  0
    0.1661    2.7567    6.4131 H   0  0  0  0  0  0  0  0  0  0  0  0
    1.2582    4.7067    7.5415 H   0  0  0  0  0  0  0  0  0  0  0  0
    1.2417    4.8647    5.7506 H   0  0  0  0  0  0  0  0  0  0  0  0
    0.0891    5.8231    6.7655 H   0  0  0  0  0  0  0  0  0  0  0  0
   -3.8328    4.3612    6.2874 H   0  0  0  0  0  0  0  0  0  0  0  0
   -3.6286    5.3549    4.8004 H   0  0  0  0  0  0  0  0  0  0  0  0
   -3.6064    6.7817    6.8148 H   0  0  0  0  0  0  0  0  0  0  0  0
   -1.9849    6.8237    6.0432 H   0  0  0  0  0  0  0  0  0  0  0  0
   -2.2679    5.8293    7.5375 H   0  0  0  0  0  0  0  0  0  0  0  0
    0.0474    3.9836    3.4094 H   0  0  0  0  0  0  0  0  0  0  0  0
   -1.6031    4.2163    2.7523 H   0  0  0  0  0  0  0  0  0  0  0  0
   -0.2572    6.2844    2.5370 H   0  0  0  0  0  0  0  0  0  0  0  0
   -1.6758    6.5435    3.6129 H   0  0  0  0  0  0  0  0  0  0  0  0
   -0.0173    6.3514    4.3191 H   0  0  0  0  0  0  0  0  0  0  0  0
   -4.1676   -5.7683    1.0270 H   0  0  0  0  0  0  0  0  0  0  0  0
   -3.4436   -8.0578    0.1170 H   0  0  0  0  0  0  0  0  0  0  0  0
   -2.7622  -10.4835    0.1712 H   0  0  0  0  0  0  0  0  0  0  0  0
   -1.3761  -11.4884   -0.3784 H   0  0  0  0  0  0  0  0  0  0  0  0
   -1.0542  -10.1764   -2.3746 H   0  0  0  0  0  0  0  0  0  0  0  0
   -2.8229  -10.5037   -2.2500 H   0  0  0  0  0  0  0  0  0  0  0  0
   -2.1815   -8.8763   -1.8147 H   0  0  0  0  0  0  0  0  0  0  0  0
    0.5368   -8.2535   -1.2726 H   0  0  0  0  0  0  0  0  0  0  0  0
    1.2652   -9.8614   -0.9075 H   0  0  0  0  0  0  0  0  0  0  0  0
    2.3871   -8.9224    1.1139 H   0  0  0  0  0  0  0  0  0  0  0  0
    2.8152   -7.9797   -0.3591 H   0  0  0  0  0  0  0  0  0  0  0  0
    1.6227   -7.3054    0.8016 H   0  0  0  0  0  0  0  0  0  0  0  0
    0.5509   -9.5274    2.7962 H   0  0  0  0  0  0  0  0  0  0  0  0
   -0.9880  -10.4618    2.7965 H   0  0  0  0  0  0  0  0  0  0  0  0
    0.9989  -11.9643    2.8801 H   0  0  0  0  0  0  0  0  0  0  0  0
    0.0686  -12.2288    1.3661 H   0  0  0  0  0  0  0  0  0  0  0  0
    1.6146  -11.2800    1.3333 H   0  0  0  0  0  0  0  0  0  0  0  0
    0.2941   -4.1733    1.2705 H   0  0  0  0  0  0  0  0  0  0  0  0
    3.6884   -2.9797    2.4264 H   0  0  0  0  0  0  0  0  0  0  0  0
    3.7703   -4.8959    3.9557 H   0  0  0  0  0  0  0  0  0  0  0  0
    5.3137   -5.7224    7.8425 H   0  0  0  0  0  0  0  0  0  0  0  0
    5.5444   -5.1193    6.1580 H   0  0  0  0  0  0  0  0  0  0  0  0
    5.1854   -3.9518    7.5061 H   0  0  0  0  0  0  0  0  0  0  0  0
    2.4259   -2.3949    7.1879 H   0  0  0  0  0  0  0  0  0  0  0  0
    2.2694   -0.4777    5.6488 H   0  0  0  0  0  0  0  0  0  0  0  0
    1.5104    1.8597    2.9956 H   0  0  0  0  0  0  0  0  0  0  0  0
    2.3405    4.0714    3.7350 H   0  0  0  0  0  0  0  0  0  0  0  0
    3.4754    4.0434    6.7306 H   0  0  0  0  0  0  0  0  0  0  0  0
    4.3003    5.5849    7.1673 H   0  0  0  0  0  0  0  0  0  0  0  0
    5.2392    4.0398    7.1240 H   0  0  0  0  0  0  0  0  0  0  0  0
    6.1207    2.3076    4.7889 H   0  0  0  0  0  0  0  0  0  0  0  0
    5.3077    0.1093    4.0264 H   0  0  0  0  0  0  0  0  0  0  0  0
    0.8759    2.1186   -1.5016 H   0  0  0  0  0  0  0  0  0  0  0  0
   -1.3180    3.0737   -1.9562 H   0  0  0  0  0  0  0  0  0  0  0  0
   -1.7920    4.7727   -4.3061 H   0  0  0  0  0  0  0  0  0  0  0  0
   -3.3177    4.9318   -5.2490 H   0  0  0  0  0  0  0  0  0  0  0  0
   -1.9612    3.9422   -5.9122 H   0  0  0  0  0  0  0  0  0  0  0  0
   -1.5484    0.8716   -5.6428 H   0  0  0  0  0  0  0  0  0  0  0  0
    0.6160   -0.1489   -5.1910 H   0  0  0  0  0  0  0  0  0  0  0  0
    2.9625    1.0552   -5.5651 H   0  0  0  0  0  0  0  0  0  0  0  0
    4.1595   -0.3232   -7.2166 H   0  0  0  0  0  0  0  0  0  0  0  0
    2.9673   -2.8280   -8.2217 H   0  0  0  0  0  0  0  0  0  0  0  0
    3.0103   -4.2381   -7.0760 H   0  0  0  0  0  0  0  0  0  0  0  0
    3.8073   -4.3520   -8.6976 H   0  0  0  0  0  0  0  0  0  0  0  0
    4.3132   -3.5797   -4.4003 H   0  0  0  0  0  0  0  0  0  0  0  0
    3.1380   -2.2082   -2.7413 H   0  0  0  0  0  0  0  0  0  0  0  0
    3.4134    8.2759   -1.4741 H   0  0  0  0  0  0  0  0  0  0  0  0
    3.2868    6.8217   -0.4265 H   0  0  0  0  0  0  0  0  0  0  0  0
    0.8995    6.5005   -1.1435 H   0  0  0  0  0  0  0  0  0  0  0  0
    1.1696    8.1169   -0.3869 H   0  0  0  0  0  0  0  0  0  0  0  0
    1.0212    7.9790   -2.1806 H   0  0  0  0  0  0  0  0  0  0  0  0
    3.0818    4.3101   -0.5088 H   0  0  0  0  0  0  0  0  0  0  0  0
    3.7373    8.9751   -3.8458 H   0  0  0  0  0  0  0  0  0  0  0  0
    4.8543    9.9260   -5.9570 H   0  0  0  0  0  0  0  0  0  0  0  0
    7.3557    5.0661   -8.7603 H   0  0  0  0  0  0  0  0  0  0  0  0
    9.1512    6.8157   -4.3227 H   0  0  0  0  0  0  0  0  0  0  0  0
   10.7814    3.8732   -5.3489 H   0  0  0  0  0  0  0  0  0  0  0  0
    8.8821    3.4278   -3.3644 H   0  0  0  0  0  0  0  0  0  0  0  0
    9.9509    1.0352   -3.8033 H   0  0  0  0  0  0  0  0  0  0  0  0
    9.0703    0.1502   -6.0961 H   0  0  0  0  0  0  0  0  0  0  0  0
    7.4294    1.9719   -7.1179 H   0  0  0  0  0  0  0  0  0  0  0  0
    6.8776    2.1074   -4.5231 H   0  0  0  0  0  0  0  0  0  0  0  0
    6.9576    3.7792   -5.2065 H   0  0  0  0  0  0  0  0  0  0  0  0
    9.9675    3.0584   -7.4507 H   0  0  0  0  0  0  0  0  0  0  0  0
  1  2  2  3
  2  3  1  0
  3  4  2  0
  3  5  1  0
  5  6  2  0
  6  7  1  0
  7  8  2  0
  8  9  1  0
  9 10  2  0
 10 11  1  0
 11 12  2  3
 12 13  1  0
 13 14  3  0
 12 15  1  0
 15 16  3  0
  8 17  1  0
 17 18  1  0
 18 19  1  0
 19 20  2  0
 20 21  1  0
 21 22  1  0
 21 23  1  0
  1 24  1  0
 24 25  2  0
 25 26  1  0
 26 27  2  0
 27 28  1  0
 28 29  2  0
 29 30  1  0
 30 31  2  0
 31 32  1  0
 32 33  1  0
 33 34  1  0
 32 35  1  0
 35 36  1  0
 32 37  1  0
 37 38  1  0
 31 39  1  0
 27 40  1  0
 40 41  2  0
 41 42  1  0
 42 43  1  0
 43 44  2  0
 44 45  1  0
 45 46  2  0
 46 47  1  0
 47 48  1  0
 48 49  1  0
 47 50  1  0
 50 51  1  0
 47 52  1  0
 52 53  1  0
 46 54  1  0
 42 55  2  0
 55 56  1  0
 41 57  1  0
 57 58  2  0
 58 59  1  0
 58 60  1  0
 60 61  2  0
 61 62  1  0
 62 63  1  0
 63 64  2  0
 64 65  1  0
 65 66  2  0
 66 67  1  0
 67 68  1  0
 66 69  1  0
 69 70  2  0
 62 71  1  0
 71 72  2  0
 72 73  1  0
 73 74  2  0
 74 75  1  0
 75 76  1  0
 74 77  1  0
 77 78  2  0
 61 79  1  0
 79 80  1  0
 80 81  1  0
 81 82  2  0
 82 83  1  0
 83 84  1  0
 84 85  2  0
 85 86  1  0
 86 87  2  0
 87 88  1  0
 88 89  1  0
 87 90  1  0
 90 91  2  0
 83 92  1  0
 92 93  2  0
 93 94  1  0
 94 95  2  0
 95 96  1  0
 96 97  1  0
 95 98  1  0
 98 99  2  0
 82100  1  0
100101  1  0
 81102  1  0
102103  1  0
103104  1  0
104105  1  0
105106  2  0
106107  1  0
107108  1  0
108109  1  0
107110  1  0
110111  1  0
106112  1  0
112113  2  0
113114  1  0
113115  1  0
115116  2  3
116117  1  0
117118  2  0
117119  1  0
119120  2  0
120121  1  0
121122  2  0
122123  1  0
123124  2  0
124125  1  0
125126  2  3
126127  1  0
127128  3  0
126129  1  0
129130  3  0
122131  1  0
131132  1  0
132133  1  0
133134  2  0
134135  1  0
135136  1  0
135137  1  0
 11  2  1  0
 23 17  1  0
 56 24  1  0
101 60  1  0
111102  2  0
125116  1  0
137131  1  0
 10  5  1  0
 22 18  1  0
 55 26  1  0
 70 63  1  0
 78 71  1  0
100 79  2  0
110104  2  0
124119  1  0
136132  1  0
 23  7  1  0
 39 28  1  0
 59 40  1  0
 91 84  1  0
 99 92  1  0
114105  1  0
137121  1  0
 54 43  1  0
  1138  1  0
  6139  1  0
  9140  1  0
 17141  1  0
 18142  1  0
 19143  1  0
 20144  1  0
 21145  1  0
 22146  1  0
 22147  1  0
 23148  1  0
 25149  1  0
 29150  1  0
 30151  1  0
 33152  1  0
 33153  1  0
 34154  1  0
 34155  1  0
 34156  1  0
 35157  1  0
 35158  1  0
 36159  1  0
 36160  1  0
 36161  1  0
 37162  1  0
 37163  1  0
 38164  1  0
 38165  1  0
 38166  1  0
 44167  1  0
 45168  1  0
 48169  1  0
 48170  1  0
 49171  1  0
 49172  1  0
 49173  1  0
 50174  1  0
 50175  1  0
 51176  1  0
 51177  1  0
 51178  1  0
 52179  1  0
 52180  1  0
 53181  1  0
 53182  1  0
 53183  1  0
 57184  1  0
 64185  1  0
 65186  1  0
 68187  1  0
 68188  1  0
 68189  1  0
 69190  1  0
 70191  1  0
 72192  1  0
 73193  1  0
 76194  1  0
 76195  1  0
 76196  1  0
 77197  1  0
 78198  1  0
 85199  1  0
 86200  1  0
 89201  1  0
 89202  1  0
 89203  1  0
 90204  1  0
 91205  1  0
 93206  1  0
 94207  1  0
 97208  1  0
 97209  1  0
 97210  1  0
 98211  1  0
 99212  1  0
108213  1  0
108214  1  0
109215  1  0
109216  1  0
109217  1  0
111218  1  0
112219  1  0
115220  1  0
120221  1  0
123222  1  0
131223  1  0
132224  1  0
133225  1  0
134226  1  0
135227  1  0
136228  1  0
136229  1  0
137230  1  0
M  END

