
     RDKit          3D

204225  0  0  0  0  0  0  0  0999 V2000
    4.0018   -0.1508    7.4321 C   0  0  0  0  0  0  0  0  0  0  0  0
    4.4717   -0.8478    6.2980 C   0  0  0  0  0  0  0  0  0  0  0  0
    3.7483   -0.9601    5.0879 C   0  0  0  0  0  0  0  0  0  0  0  0
    2.6349   -0.7040    4.7351 O   0  0  0  0  0  0  0  0  0  0  0  0
    4.7275   -1.5457    4.0825 C   0  0  0  0  0  0  0  0  0  0  0  0
    4.4728   -1.9568    2.8011 C   0  0  0  0  0  0  0  0  0  0  0  0
    5.4876   -2.6635    2.1117 C   0  0  0  0  0  0  0  0  0  0  0  0
    6.5729   -2.8676    2.7282 C   0  0  0  0  0  0  0  0  0  0  0  0
    6.8894   -2.4339    4.0537 C   0  0  0  0  0  0  0  0  0  0  0  0
    5.9080   -1.7365    4.7126 C   0  0  0  0  0  0  0  0  0  0  0  0
    5.8400   -1.2819    6.2069 C   0  0  0  0  0  0  0  0  0  0  0  0
    6.7278   -1.8741    7.0376 C   0  0  0  0  0  0  0  0  0  0  0  0
    8.0913   -1.9543    6.4200 C   0  0  0  0  0  0  0  0  0  0  0  0
    9.1337   -2.0311    5.9605 N   0  0  0  0  0  0  0  0  0  0  0  0
    6.3566   -2.5076    8.1575 C   0  0  0  0  0  0  0  0  0  0  0  0
    6.0010   -3.1170    9.1940 N   0  0  0  0  0  0  0  0  0  0  0  0
    7.1918   -3.7087    1.6215 C   0  0  0  0  0  0  0  0  0  0  0  0
    7.0495   -5.1913    1.8241 C   0  0  0  0  0  0  0  0  0  0  0  0
    7.1653   -5.8737    0.5333 C   0  0  0  0  0  0  0  0  0  0  0  0
    5.9996   -5.5992   -0.1259 C   0  0  0  0  0  0  0  0  0  0  0  0
    5.1991   -4.6811    0.6970 C   0  0  0  0  0  0  0  0  0  0  0  0
    5.5513   -5.2859    2.0968 C   0  0  0  0  0  0  0  0  0  0  0  0
    5.8909   -3.3682    0.8433 C   0  0  0  0  0  0  0  0  0  0  0  0
    2.6252    0.4534    7.3073 C   0  0  0  0  0  0  0  0  0  0  0  0
    2.4822    1.3533    6.3224 C   0  0  0  0  0  0  0  0  0  0  0  0
    1.2021    1.6117    5.7227 C   0  0  0  0  0  0  0  0  0  0  0  0
    1.2156    2.5955    4.6521 C   0  0  0  0  0  0  0  0  0  0  0  0
    1.3103    2.1342    3.2321 C   0  0  0  0  0  0  0  0  0  0  0  0
    0.1593    0.8963    6.2015 C   0  0  0  0  0  0  0  0  0  0  0  0
    0.2327    0.0021    7.2426 C   0  0  0  0  0  0  0  0  0  0  0  0
    1.5243   -0.2215    7.8133 C   0  0  0  0  0  0  0  0  0  0  0  0
    1.6872   -1.1314    8.9494 C   0  0  0  0  0  0  0  0  0  0  0  0
    2.2483   -2.4311    8.5029 C   0  0  0  0  0  0  0  0  0  0  0  0
   -0.7714    0.4886    5.0201 C   0  0  0  0  0  0  0  0  0  0  0  0
   -1.4763    0.9729    4.1561 C   0  0  0  0  0  0  0  0  0  0  0  0
   -2.5803    1.9067    4.6135 N   0  0  0  0  0  0  0  0  0  0  0  0
   -2.6737    2.4682    5.8655 C   0  0  0  0  0  0  0  0  0  0  0  0
   -4.1158    2.3630    6.4840 C   0  0  0  0  0  0  0  0  0  0  0  0
   -4.3702    2.9959    7.7062 C   0  0  0  0  0  0  0  0  0  0  0  0
   -3.2722    3.7025    8.3446 C   0  0  0  0  0  0  0  0  0  0  0  0
   -3.7264    4.4922    9.8908 S   0  0  0  0  0  0  0  0  0  0  0  0
   -3.5620    3.2922   11.2168 C   0  0  0  0  0  0  0  0  0  0  0  0
   -2.0352    3.8072    7.8487 C   0  0  0  0  0  0  0  0  0  0  0  0
   -2.0728    3.1143    6.6575 C   0  0  0  0  0  0  0  0  0  0  0  0
   -3.5492    2.2913    3.6620 C   0  0  0  0  0  0  0  0  0  0  0  0
   -3.2927    3.0044    2.4775 C   0  0  0  0  0  0  0  0  0  0  0  0
   -4.1584    3.2132    1.4582 C   0  0  0  0  0  0  0  0  0  0  0  0
   -5.4447    2.6712    1.5645 C   0  0  0  0  0  0  0  0  0  0  0  0
   -6.6755    2.8130    0.2390 S   0  0  0  0  0  0  0  0  0  0  0  0
   -7.2014    1.1428   -0.2406 C   0  0  0  0  0  0  0  0  0  0  0  0
   -5.7604    1.9805    2.6480 C   0  0  0  0  0  0  0  0  0  0  0  0
   -4.8317    1.7764    3.7015 C   0  0  0  0  0  0  0  0  0  0  0  0
   -1.5973    0.4370    2.8802 C   0  0  0  0  0  0  0  0  0  0  0  0
   -1.9680    0.8183    1.2047 S   0  0  0  0  0  0  0  0  0  0  0  0
   -1.2326   -0.5396    0.4149 C   0  0  0  0  0  0  0  0  0  0  0  0
   -0.7546   -1.2590    1.4742 C   0  0  0  0  0  0  0  0  0  0  0  0
    0.0382   -2.4423    1.2192 N   0  0  0  0  0  0  0  0  0  0  0  0
    1.0308   -2.3493    0.2238 C   0  0  0  0  0  0  0  0  0  0  0  0
    1.6873   -1.1064    0.0863 C   0  0  0  0  0  0  0  0  0  0  0  0
    2.6555   -0.8919   -0.8948 C   0  0  0  0  0  0  0  0  0  0  0  0
    2.9838   -1.9077   -1.7463 C   0  0  0  0  0  0  0  0  0  0  0  0
    4.0927   -1.4980   -3.0869 S   0  0  0  0  0  0  0  0  0  0  0  0
    5.8308   -1.6380   -2.6733 C   0  0  0  0  0  0  0  0  0  0  0  0
    2.3774   -3.1192   -1.6460 C   0  0  0  0  0  0  0  0  0  0  0  0
    1.4051   -3.3202   -0.6574 C   0  0  0  0  0  0  0  0  0  0  0  0
   -0.2174   -3.5958    1.9863 C   0  0  0  0  0  0  0  0  0  0  0  0
   -1.4626   -3.9797    2.2218 C   0  0  0  0  0  0  0  0  0  0  0  0
   -1.7509   -5.1286    2.9202 C   0  0  0  0  0  0  0  0  0  0  0  0
   -0.7098   -5.9031    3.3830 C   0  0  0  0  0  0  0  0  0  0  0  0
   -0.9782   -7.3788    4.2981 S   0  0  0  0  0  0  0  0  0  0  0  0
    0.5906   -8.2068    4.6908 C   0  0  0  0  0  0  0  0  0  0  0  0
    0.6522   -5.5139    3.1231 C   0  0  0  0  0  0  0  0  0  0  0  0
    0.8814   -4.3419    2.4194 C   0  0  0  0  0  0  0  0  0  0  0  0
   -0.9497   -0.7060    2.6567 C   0  0  0  0  0  0  0  0  0  0  0  0
   -0.1573   -1.0109    4.2092 S   0  0  0  0  0  0  0  0  0  0  0  0
   -0.9965   -0.7212   -1.0018 C   0  0  0  0  0  0  0  0  0  0  0  0
   -0.8991   -1.5206   -1.9898 C   0  0  0  0  0  0  0  0  0  0  0  0
   -0.6232   -1.3241   -3.2279 C   0  0  0  0  0  0  0  0  0  0  0  0
   -0.6295   -2.1820   -4.3167 C   0  0  0  0  0  0  0  0  0  0  0  0
   -1.0392   -3.5291   -4.2455 C   0  0  0  0  0  0  0  0  0  0  0  0
   -0.6864   -4.5649   -5.4027 C   0  0  0  0  0  0  0  0  0  0  0  0
   -1.3669   -5.5611   -5.1457 C   0  0  0  0  0  0  0  0  0  0  0  0
   -2.2024   -6.1346   -4.4173 C   0  0  0  0  0  0  0  0  0  0  0  0
   -3.1918   -7.4226   -3.7721 S   0  0  0  0  0  0  0  0  0  0  0  0
   -2.5376   -7.9768   -2.1414 C   0  0  0  0  0  0  0  0  0  0  0  0
   -3.5943   -8.8632   -1.5483 C   0  0  0  0  0  0  0  0  0  0  0  0
   -2.2346   -4.4141   -3.2113 Se  0  0  0  0  0  2  0  0  0  0  0  0
   -0.4771   -1.6031   -5.6411 C   0  0  0  0  0  0  0  0  0  0  0  0
   -0.2933   -0.2647   -5.8803 C   0  0  0  0  0  0  0  0  0  0  0  0
   -0.2555    0.6071   -4.7387 C   0  0  0  0  0  0  0  0  0  0  0  0
    0.1973    1.9507   -4.7400 C   0  0  0  0  0  0  0  0  0  0  0  0
    0.9789    2.5595   -6.0174 C   0  0  0  0  0  0  0  0  0  0  0  0
    0.9239    3.8116   -5.3470 C   0  0  0  0  0  0  0  0  0  0  0  0
    0.9736    4.7278   -5.0320 C   0  0  0  0  0  0  0  0  0  0  0  0
    0.9711    6.3943   -4.2710 S   0  0  0  0  0  0  0  0  0  0  0  0
    2.3814    6.5091   -3.1186 C   0  0  0  0  0  0  0  0  0  0  0  0
    3.6737    6.3156   -3.8483 C   0  0  0  0  0  0  0  0  0  0  0  0
   -0.0566    3.3459   -3.5465 Se  0  0  0  0  0  2  0  0  0  0  0  0
   -0.4346    0.0432   -3.4972 C   0  0  0  0  0  0  0  0  0  0  0  0
   -0.6530    0.7941   -1.9832 S   0  0  0  0  0  0  0  0  0  0  0  0
   -0.4359    0.0060   -7.0129 C   0  0  0  0  0  0  0  0  0  0  0  0
   -0.8309   -0.8221   -8.3530 C   0  0  0  0  0  0  0  0  0  0  0  0
   -0.8181   -2.1036   -7.1631 S   0  0  0  0  0  0  0  0  0  0  0  0
   -0.7559    0.3436   -9.1550 C   0  0  0  0  0  0  0  0  0  0  0  0
   -1.7762    1.2796   -9.0772 C   0  0  0  0  0  0  0  0  0  0  0  0
   -2.9002    1.1137   -8.2398 C   0  0  0  0  0  0  0  0  0  0  0  0
   -3.2292   -0.0188   -7.6991 O   0  0  0  0  0  0  0  0  0  0  0  0
   -3.6287    2.3495   -8.0675 C   0  0  0  0  0  0  0  0  0  0  0  0
   -4.6599    2.7822   -7.3176 C   0  0  0  0  0  0  0  0  0  0  0  0
   -5.1217    4.0508   -7.2109 C   0  0  0  0  0  0  0  0  0  0  0  0
   -4.4732    4.9219   -7.9557 C   0  0  0  0  0  0  0  0  0  0  0  0
   -3.3969    4.6956   -8.8111 C   0  0  0  0  0  0  0  0  0  0  0  0
   -2.9503    3.3253   -8.8339 C   0  0  0  0  0  0  0  0  0  0  0  0
   -1.7754    2.6723   -9.4775 C   0  0  0  0  0  0  0  0  0  0  0  0
   -0.8351    3.3138  -10.1919 C   0  0  0  0  0  0  0  0  0  0  0  0
    0.3414    2.7517  -10.7157 C   0  0  0  0  0  0  0  0  0  0  0  0
    1.3412    2.2893  -11.1585 N   0  0  0  0  0  0  0  0  0  0  0  0
   -0.8327    4.7182  -10.0803 C   0  0  0  0  0  0  0  0  0  0  0  0
   -0.8159    6.0252   -9.9586 N   0  0  0  0  0  0  0  0  0  0  0  0
   -5.3280    6.0806   -7.4750 C   0  0  0  0  0  0  0  0  0  0  0  0
   -6.3614    6.3989   -8.4584 C   0  0  0  0  0  0  0  0  0  0  0  0
   -7.3382    7.3280   -7.7028 C   0  0  0  0  0  0  0  0  0  0  0  0
   -7.6867    6.6622   -6.6470 C   0  0  0  0  0  0  0  0  0  0  0  0
   -7.3899    5.1665   -6.9112 C   0  0  0  0  0  0  0  0  0  0  0  0
   -7.2850    5.1817   -8.4220 C   0  0  0  0  0  0  0  0  0  0  0  0
   -5.9732    5.0533   -6.5416 C   0  0  0  0  0  0  0  0  0  0  0  0
    4.6049   -0.0843    8.2597 H   0  0  0  0  0  0  0  0  0  0  0  0
    3.5087   -1.7845    2.3472 H   0  0  0  0  0  0  0  0  0  0  0  0
    7.8496   -2.7326    4.3911 H   0  0  0  0  0  0  0  0  0  0  0  0
    8.0713   -3.3146    1.1547 H   0  0  0  0  0  0  0  0  0  0  0  0
    7.6504   -5.6074    2.6423 H   0  0  0  0  0  0  0  0  0  0  0  0
    7.8990   -6.5100    0.1049 H   0  0  0  0  0  0  0  0  0  0  0  0
    5.7362   -6.0120   -1.1062 H   0  0  0  0  0  0  0  0  0  0  0  0
    4.1560   -4.6769    0.4990 H   0  0  0  0  0  0  0  0  0  0  0  0
    5.2293   -4.6158    2.8988 H   0  0  0  0  0  0  0  0  0  0  0  0
    5.2007   -6.3294    2.1849 H   0  0  0  0  0  0  0  0  0  0  0  0
    6.0404   -2.7585   -0.0351 H   0  0  0  0  0  0  0  0  0  0  0  0
    3.3741    1.9154    5.9513 H   0  0  0  0  0  0  0  0  0  0  0  0
    0.3686    3.3219    4.6990 H   0  0  0  0  0  0  0  0  0  0  0  0
    2.1292    3.3097    4.7891 H   0  0  0  0  0  0  0  0  0  0  0  0
    2.1584    2.6873    2.7229 H   0  0  0  0  0  0  0  0  0  0  0  0
    0.3969    2.4988    2.6503 H   0  0  0  0  0  0  0  0  0  0  0  0
    1.4000    1.0819    3.0527 H   0  0  0  0  0  0  0  0  0  0  0  0
   -0.6250   -0.4862    7.5778 H   0  0  0  0  0  0  0  0  0  0  0  0
    0.7077   -1.2462    9.5104 H   0  0  0  0  0  0  0  0  0  0  0  0
    2.3660   -0.6906    9.7166 H   0  0  0  0  0  0  0  0  0  0  0  0
    1.8316   -3.2869    9.0140 H   0  0  0  0  0  0  0  0  0  0  0  0
    2.1490   -2.6001    7.4176 H   0  0  0  0  0  0  0  0  0  0  0  0
    3.3409   -2.4197    8.7115 H   0  0  0  0  0  0  0  0  0  0  0  0
   -4.7693    1.8198    5.9905 H   0  0  0  0  0  0  0  0  0  0  0  0
   -5.3390    2.9610    8.1688 H   0  0  0  0  0  0  0  0  0  0  0  0
   -4.5846    2.9747   11.4802 H   0  0  0  0  0  0  0  0  0  0  0  0
   -3.0689    3.7174   12.1138 H   0  0  0  0  0  0  0  0  0  0  0  0
   -3.0089    2.4009   10.9036 H   0  0  0  0  0  0  0  0  0  0  0  0
   -1.2006    4.3111    8.2926 H   0  0  0  0  0  0  0  0  0  0  0  0
   -0.9122    3.3777    6.2585 H   0  0  0  0  0  0  0  0  0  0  0  0
   -2.2984    3.4529    2.3889 H   0  0  0  0  0  0  0  0  0  0  0  0
   -3.9785    3.7677    0.5694 H   0  0  0  0  0  0  0  0  0  0  0  0
   -7.8919    1.1748   -1.0985 H   0  0  0  0  0  0  0  0  0  0  0  0
   -6.3050    0.5244   -0.4219 H   0  0  0  0  0  0  0  0  0  0  0  0
   -7.7082    0.6712    0.6644 H   0  0  0  0  0  0  0  0  0  0  0  0
   -6.7684    1.5427    2.8284 H   0  0  0  0  0  0  0  0  0  0  0  0
   -5.1822    1.1099    4.4647 H   0  0  0  0  0  0  0  0  0  0  0  0
    1.4115   -0.3076    0.7203 H   0  0  0  0  0  0  0  0  0  0  0  0
    3.1108    0.0919   -1.0078 H   0  0  0  0  0  0  0  0  0  0  0  0
    6.1087   -1.0818   -1.7273 H   0  0  0  0  0  0  0  0  0  0  0  0
    6.4150   -1.1038   -3.4877 H   0  0  0  0  0  0  0  0  0  0  0  0
    6.2299   -2.6999   -2.6409 H   0  0  0  0  0  0  0  0  0  0  0  0
    2.6594   -3.9019   -2.2868 H   0  0  0  0  0  0  0  0  0  0  0  0
    0.9486   -4.3000   -0.5331 H   0  0  0  0  0  0  0  0  0  0  0  0
   -2.3117   -3.3592    1.8470 H   0  0  0  0  0  0  0  0  0  0  0  0
   -2.7881   -5.4112    3.1138 H   0  0  0  0  0  0  0  0  0  0  0  0
    0.9735   -8.7229    3.7915 H   0  0  0  0  0  0  0  0  0  0  0  0
    0.4063   -8.9451    5.4437 H   0  0  0  0  0  0  0  0  0  0  0  0
    1.3496   -7.4502    5.0530 H   0  0  0  0  0  0  0  0  0  0  0  0
    1.4612   -6.1254    3.4422 H   0  0  0  0  0  0  0  0  0  0  0  0
    1.8804   -4.0444    2.1962 H   0  0  0  0  0  0  0  0  0  0  0  0
   -1.1369   -2.6640   -1.6516 H   0  0  0  0  0  0  0  0  0  0  0  0
    0.0138   -4.1562   -6.0517 H   0  0  0  0  0  0  0  0  0  0  0  0
   -1.1578   -6.4368   -6.1058 H   0  0  0  0  0  0  0  0  0  0  0  0
   -1.6372   -8.5953   -2.3405 H   0  0  0  0  0  0  0  0  0  0  0  0
   -2.3390   -7.1318   -1.4896 H   0  0  0  0  0  0  0  0  0  0  0  0
   -3.4548   -8.9879   -0.4418 H   0  0  0  0  0  0  0  0  0  0  0  0
   -4.6138   -8.3980   -1.6439 H   0  0  0  0  0  0  0  0  0  0  0  0
   -3.6244   -9.8510   -1.9983 H   0  0  0  0  0  0  0  0  0  0  0  0
    1.2578    1.9507   -6.6923 H   0  0  0  0  0  0  0  0  0  0  0  0
    1.6176    4.3030   -6.6674 H   0  0  0  0  0  0  0  0  0  0  0  0
    2.3162    5.7432   -2.2720 H   0  0  0  0  0  0  0  0  0  0  0  0
    2.3310    7.5085   -2.6253 H   0  0  0  0  0  0  0  0  0  0  0  0
    3.9404    7.1951   -4.4981 H   0  0  0  0  0  0  0  0  0  0  0  0
    4.5144    6.0549   -3.1394 H   0  0  0  0  0  0  0  0  0  0  0  0
    3.5645    5.4280   -4.5198 H   0  0  0  0  0  0  0  0  0  0  0  0
   -0.3130    1.1087   -7.4153 H   0  0  0  0  0  0  0  0  0  0  0  0
    0.0615    0.4812   -9.8246 H   0  0  0  0  0  0  0  0  0  0  0  0
   -5.1709    1.9653   -6.7393 H   0  0  0  0  0  0  0  0  0  0  0  0
   -2.9751    5.3945   -9.3822 H   0  0  0  0  0  0  0  0  0  0  0  0
   -4.7644    6.8760   -6.9647 H   0  0  0  0  0  0  0  0  0  0  0  0
   -6.1152    6.7569   -9.4184 H   0  0  0  0  0  0  0  0  0  0  0  0
   -7.5475    8.2873   -8.0724 H   0  0  0  0  0  0  0  0  0  0  0  0
   -8.0729    6.9392   -5.7199 H   0  0  0  0  0  0  0  0  0  0  0  0
   -8.1204    4.5507   -6.4674 H   0  0  0  0  0  0  0  0  0  0  0  0
   -6.8434    4.2746   -8.8279 H   0  0  0  0  0  0  0  0  0  0  0  0
   -8.2457    5.4674   -8.8789 H   0  0  0  0  0  0  0  0  0  0  0  0
   -5.7042    5.2145   -5.4655 H   0  0  0  0  0  0  0  0  0  0  0  0
  1  2  2  3
  2  3  1  0
  3  4  2  0
  3  5  1  0
  5  6  2  0
  6  7  1  0
  7  8  2  0
  8  9  1  0
  9 10  2  0
 10 11  1  0
 11 12  2  3
 12 13  1  0
 13 14  3  0
 12 15  1  0
 15 16  3  0
  8 17  1  0
 17 18  1  0
 18 19  1  0
 19 20  2  0
 20 21  1  0
 21 22  1  0
 21 23  1  0
  1 24  1  0
 24 25  2  0
 25 26  1  0
 26 27  1  0
 27 28  1  0
 26 29  2  0
 29 30  1  0
 30 31  2  0
 31 32  1  0
 32 33  1  0
 29 34  1  0
 34 35  2  0
 35 36  1  0
 36 37  1  0
 37 38  2  0
 38 39  1  0
 39 40  2  0
 40 41  1  0
 41 42  1  0
 40 43  1  0
 43 44  2  0
 36 45  1  0
 45 46  2  0
 46 47  1  0
 47 48  2  0
 48 49  1  0
 49 50  1  0
 48 51  1  0
 51 52  2  0
 35 53  1  0
 53 54  1  0
 54 55  1  0
 55 56  2  0
 56 57  1  0
 57 58  1  0
 58 59  2  0
 59 60  1  0
 60 61  2  0
 61 62  1  0
 62 63  1  0
 61 64  1  0
 64 65  2  0
 57 66  1  0
 66 67  2  0
 67 68  1  0
 68 69  2  0
 69 70  1  0
 70 71  1  0
 69 72  1  0
 72 73  2  0
 56 74  1  0
 74 75  1  0
 55 76  1  0
 76 77  2  0
 77 78  1  0
 78 79  2  0
 79 80  1  0
 80 81  2  0
 81 82  1  0
 82 83  2  0
 83 84  1  0
 84 85  1  0
 85 86  1  0
 83 87  1  0
 79 88  1  0
 88 89  2  0
 89 90  1  0
 90 91  1  0
 91 92  2  0
 92 93  1  0
 93 94  2  0
 94 95  1  0
 95 96  1  0
 96 97  1  0
 94 98  1  0
 90 99  2  0
 99100  1  0
 89101  1  0
101102  2  0
102103  1  0
102104  1  0
104105  2  3
105106  1  0
106107  2  0
106108  1  0
108109  2  0
109110  1  0
110111  2  0
111112  1  0
112113  2  0
113114  1  0
114115  2  3
115116  1  0
116117  3  0
115118  1  0
118119  3  0
111120  1  0
120121  1  0
121122  1  0
122123  2  0
123124  1  0
124125  1  0
124126  1  0
 11  2  1  0
 23 17  1  0
 31 24  1  0
 75 34  1  0
100 76  1  0
114105  1  0
126120  1  0
 10  5  1  0
 22 18  1  0
 44 37  1  0
 52 45  1  0
 74 53  2  0
 99 78  1  0
113108  1  0
125121  1  0
 23  7  1  0
 65 58  1  0
 73 66  1  0
 87 80  1  0
103 88  1  0
126110  1  0
 98 91  1  0
  1127  1  0
  6128  1  0
  9129  1  0
 17130  1  0
 18131  1  0
 19132  1  0
 20133  1  0
 21134  1  0
 22135  1  0
 22136  1  0
 23137  1  0
 25138  1  0
 27139  1  0
 27140  1  0
 28141  1  0
 28142  1  0
 28143  1  0
 30144  1  0
 32145  1  0
 32146  1  0
 33147  1  0
 33148  1  0
 33149  1  0
 38150  1  0
 39151  1  0
 42152  1  0
 42153  1  0
 42154  1  0
 43155  1  0
 44156  1  0
 46157  1  0
 47158  1  0
 50159  1  0
 50160  1  0
 50161  1  0
 51162  1  0
 52163  1  0
 59164  1  0
 60165  1  0
 63166  1  0
 63167  1  0
 63168  1  0
 64169  1  0
 65170  1  0
 67171  1  0
 68172  1  0
 71173  1  0
 71174  1  0
 71175  1  0
 72176  1  0
 73177  1  0
 77178  1  0
 81179  1  0
 82180  1  0
 85181  1  0
 85182  1  0
 86183  1  0
 86184  1  0
 86185  1  0
 92186  1  0
 93187  1  0
 96188  1  0
 96189  1  0
 97190  1  0
 97191  1  0
 97192  1  0
101193  1  0
104194  1  0
109195  1  0
112196  1  0
120197  1  0
121198  1  0
122199  1  0
123200  1  0
124201  1  0
125202  1  0
125203  1  0
126204  1  0
M  END

