
     RDKit          3D

212234  0  0  0  0  0  0  0  0999 V2000
    2.0023   -7.4272    6.1065 C   0  0  0  0  0  0  0  0  0  0  0  0
    0.9163   -7.9215    5.4669 C   0  0  0  0  0  0  0  0  0  0  0  0
    0.7537   -8.1201    4.0170 C   0  0  0  0  0  0  0  0  0  0  0  0
    1.5802   -8.6768    3.2477 O   0  0  0  0  0  0  0  0  0  0  0  0
   -0.6133   -7.8137    3.6547 C   0  0  0  0  0  0  0  0  0  0  0  0
   -1.1470   -7.6907    2.3499 C   0  0  0  0  0  0  0  0  0  0  0  0
   -2.4637   -7.2698    2.3261 C   0  0  0  0  0  0  0  0  0  0  0  0
   -3.2143   -6.9734    3.5108 C   0  0  0  0  0  0  0  0  0  0  0  0
   -2.6989   -7.1068    4.7899 C   0  0  0  0  0  0  0  0  0  0  0  0
   -1.3565   -7.5769    4.8364 C   0  0  0  0  0  0  0  0  0  0  0  0
   -0.4701   -7.8044    6.0098 C   0  0  0  0  0  0  0  0  0  0  0  0
   -0.8622   -8.0924    7.2745 C   0  0  0  0  0  0  0  0  0  0  0  0
   -2.2450   -8.0963    7.6715 C   0  0  0  0  0  0  0  0  0  0  0  0
   -3.3549   -8.1030    8.0019 N   0  0  0  0  0  0  0  0  0  0  0  0
    0.0696   -8.5506    8.2730 C   0  0  0  0  0  0  0  0  0  0  0  0
    0.8142   -8.9195    9.0807 N   0  0  0  0  0  0  0  0  0  0  0  0
   -4.3923   -6.5600    2.6807 C   0  0  0  0  0  0  0  0  0  0  0  0
   -4.6518   -5.0307    2.5552 C   0  0  0  0  0  0  0  0  0  0  0  0
   -5.6135   -4.8694    1.4026 C   0  0  0  0  0  0  0  0  0  0  0  0
   -4.9255   -5.1629    0.2921 C   0  0  0  0  0  0  0  0  0  0  0  0
   -3.5223   -5.5097    0.7340 C   0  0  0  0  0  0  0  0  0  0  0  0
   -3.3905   -4.5196    1.8759 C   0  0  0  0  0  0  0  0  0  0  0  0
   -3.6302   -6.8781    1.4691 C   0  0  0  0  0  0  0  0  0  0  0  0
    3.1686   -6.7682    5.4659 C   0  0  0  0  0  0  0  0  0  0  0  0
    3.7250   -5.5879    5.9711 C   0  0  0  0  0  0  0  0  0  0  0  0
    4.5213   -4.9010    5.0372 C   0  0  0  0  0  0  0  0  0  0  0  0
    4.9680   -3.5690    5.1584 C   0  0  0  0  0  0  0  0  0  0  0  0
    4.8349   -2.8125    6.4142 C   0  0  0  0  0  0  0  0  0  0  0  0
    3.6376   -2.1496    6.7295 C   0  0  0  0  0  0  0  0  0  0  0  0
    3.5537   -1.3696    7.8874 C   0  0  0  0  0  0  0  0  0  0  0  0
    4.6628   -1.2498    8.7363 C   0  0  0  0  0  0  0  0  0  0  0  0
    4.5653   -0.2099   10.1951 S   0  0  0  0  0  0  0  0  0  0  0  0
    5.1723    1.2741    9.3218 C   0  0  0  0  0  0  0  0  0  0  0  0
    5.4959    2.3684   10.3268 C   0  0  0  0  0  0  0  0  0  0  0  0
    5.8491   -1.9317    8.4343 C   0  0  0  0  0  0  0  0  0  0  0  0
    6.9291   -1.8241    9.2497 F   0  0  0  0  0  0  0  0  0  0  0  0
    5.9351   -2.7054    7.2741 C   0  0  0  0  0  0  0  0  0  0  0  0
    5.3967   -2.9349    3.9813 C   0  0  0  0  0  0  0  0  0  0  0  0
    5.4746   -3.5986    2.7563 C   0  0  0  0  0  0  0  0  0  0  0  0
    5.1613   -4.9702    2.6669 C   0  0  0  0  0  0  0  0  0  0  0  0
    5.1472   -5.6838    1.3767 C   0  0  0  0  0  0  0  0  0  0  0  0
    6.1489   -6.6169    1.0826 C   0  0  0  0  0  0  0  0  0  0  0  0
    6.1592   -7.2674   -0.1545 C   0  0  0  0  0  0  0  0  0  0  0  0
    5.1698   -6.9875   -1.1063 C   0  0  0  0  0  0  0  0  0  0  0  0
    5.2207   -7.7949   -2.7115 S   0  0  0  0  0  0  0  0  0  0  0  0
    6.0992   -6.4298   -3.5512 C   0  0  0  0  0  0  0  0  0  0  0  0
    7.5995   -6.4999   -3.2949 C   0  0  0  0  0  0  0  0  0  0  0  0
    4.1465   -6.0799   -0.7985 C   0  0  0  0  0  0  0  0  0  0  0  0
    4.1359   -5.4304    0.4387 C   0  0  0  0  0  0  0  0  0  0  0  0
    3.1687   -5.8144   -1.7021 F   0  0  0  0  0  0  0  0  0  0  0  0
    4.6530   -5.5793    3.8246 C   0  0  0  0  0  0  0  0  0  0  0  0
    3.7748   -7.0054    3.9081 S   0  0  0  0  0  0  0  0  0  0  0  0
    5.6144   -2.7277    1.6655 C   0  0  0  0  0  0  0  0  0  0  0  0
    5.5350   -1.3782    2.0128 C   0  0  0  0  0  0  0  0  0  0  0  0
    5.4341   -1.2822    3.6963 S   0  0  0  0  0  0  0  0  0  0  0  0
    4.7107   -0.4826    1.1997 C   0  0  0  0  0  0  0  0  0  0  0  0
    3.4012   -0.6380    1.0666 C   0  0  0  0  0  0  0  0  0  0  0  0
    2.8674    0.2134    0.0893 C   0  0  0  0  0  0  0  0  0  0  0  0
    3.9892    0.9844   -0.3991 C   0  0  0  0  0  0  0  0  0  0  0  0
    3.9712    1.8259   -1.3350 O   0  0  0  0  0  0  0  0  0  0  0  0
    5.1677    0.5601    0.3140 N   0  0  0  0  0  0  0  0  0  0  0  0
    6.5455    0.7716   -0.1203 C   0  0  0  0  0  0  0  0  0  0  0  0
    6.9149   -0.2143   -1.2242 C   0  0  0  0  0  0  0  0  0  0  0  0
    1.5861   -0.0621   -0.1267 C   0  0  0  0  0  0  0  0  0  0  0  0
    1.1599   -1.1491    0.7264 N   0  0  0  0  0  0  0  0  0  0  0  0
    0.0231   -2.0346    0.4787 C   0  0  0  0  0  0  0  0  0  0  0  0
    0.3790   -3.0880   -0.5634 C   0  0  0  0  0  0  0  0  0  0  0  0
    2.3303   -1.5197    1.4660 C   0  0  0  0  0  0  0  0  0  0  0  0
    2.4021   -2.4773    2.2803 O   0  0  0  0  0  0  0  0  0  0  0  0
    0.7012    0.6818   -1.0180 C   0  0  0  0  0  0  0  0  0  0  0  0
   -0.2317    1.6394   -0.6015 C   0  0  0  0  0  0  0  0  0  0  0  0
   -0.4447    2.0285    0.7642 N   0  0  0  0  0  0  0  0  0  0  0  0
    0.0831    3.2838    1.2411 C   0  0  0  0  0  0  0  0  0  0  0  0
    1.2728    3.8119    0.7066 C   0  0  0  0  0  0  0  0  0  0  0  0
    1.7810    5.0268    1.1710 C   0  0  0  0  0  0  0  0  0  0  0  0
    1.1003    5.7363    2.1656 C   0  0  0  0  0  0  0  0  0  0  0  0
    1.7394    7.3092    2.7392 S   0  0  0  0  0  0  0  0  0  0  0  0
    0.8310    8.2636    1.4882 C   0  0  0  0  0  0  0  0  0  0  0  0
   -0.0808    5.2186    2.7080 C   0  0  0  0  0  0  0  0  0  0  0  0
   -0.5877    4.0011    2.2499 C   0  0  0  0  0  0  0  0  0  0  0  0
   -1.1036    1.1058    1.6553 C   0  0  0  0  0  0  0  0  0  0  0  0
   -0.5337    0.7885    2.9002 C   0  0  0  0  0  0  0  0  0  0  0  0
   -1.1424   -0.1523    3.7365 C   0  0  0  0  0  0  0  0  0  0  0  0
   -2.3237   -0.7870    3.3360 C   0  0  0  0  0  0  0  0  0  0  0  0
   -3.0798   -2.0269    4.3896 S   0  0  0  0  0  0  0  0  0  0  0  0
   -4.2869   -0.8686    5.1041 C   0  0  0  0  0  0  0  0  0  0  0  0
   -2.8993   -0.4709    2.1005 C   0  0  0  0  0  0  0  0  0  0  0  0
   -2.2982    0.4764    1.2677 C   0  0  0  0  0  0  0  0  0  0  0  0
   -0.9240    2.1603   -1.6835 C   0  0  0  0  0  0  0  0  0  0  0  0
   -2.1920    3.2377   -1.8695 S   0  0  0  0  0  0  0  0  0  0  0  0
   -2.3603    2.9759   -3.5532 C   0  0  0  0  0  0  0  0  0  0  0  0
   -1.3632    2.0676   -3.9553 C   0  0  0  0  0  0  0  0  0  0  0  0
   -1.1672    1.6143   -5.3029 N   0  0  0  0  0  0  0  0  0  0  0  0
   -0.1659    2.2990   -6.0738 C   0  0  0  0  0  0  0  0  0  0  0  0
    1.0810    1.6975   -6.2972 C   0  0  0  0  0  0  0  0  0  0  0  0
    2.0498    2.3493   -7.0649 C   0  0  0  0  0  0  0  0  0  0  0  0
    1.7829    3.6118   -7.6054 C   0  0  0  0  0  0  0  0  0  0  0  0
    3.0257    4.4477   -8.5941 S   0  0  0  0  0  0  0  0  0  0  0  0
    2.4872    3.6717  -10.1526 C   0  0  0  0  0  0  0  0  0  0  0  0
    0.5473    4.2269   -7.3695 C   0  0  0  0  0  0  0  0  0  0  0  0
   -0.4242    3.5743   -6.6070 C   0  0  0  0  0  0  0  0  0  0  0  0
   -1.7961    0.3952   -5.7779 C   0  0  0  0  0  0  0  0  0  0  0  0
   -1.5598   -0.0807   -7.0868 C   0  0  0  0  0  0  0  0  0  0  0  0
   -2.1490   -1.2673   -7.5327 C   0  0  0  0  0  0  0  0  0  0  0  0
   -2.9937   -1.9923   -6.6900 C   0  0  0  0  0  0  0  0  0  0  0  0
   -3.7479   -3.5156   -7.2637 S   0  0  0  0  0  0  0  0  0  0  0  0
   -2.3815   -4.5633   -6.6696 C   0  0  0  0  0  0  0  0  0  0  0  0
   -3.2641   -1.5202   -5.4032 C   0  0  0  0  0  0  0  0  0  0  0  0
   -2.6702   -0.3401   -4.9483 C   0  0  0  0  0  0  0  0  0  0  0  0
   -0.5919    1.6298   -2.8856 C   0  0  0  0  0  0  0  0  0  0  0  0
    0.6287    0.4888   -2.7086 S   0  0  0  0  0  0  0  0  0  0  0  0
   -3.3711    3.5326   -4.4831 C   0  0  0  0  0  0  0  0  0  0  0  0
   -4.1010    4.6523   -4.3216 C   0  0  0  0  0  0  0  0  0  0  0  0
   -4.4984    5.4606   -5.4777 C   0  0  0  0  0  0  0  0  0  0  0  0
   -4.6215    5.0493   -6.6617 O   0  0  0  0  0  0  0  0  0  0  0  0
   -4.5825    6.8453   -5.0601 C   0  0  0  0  0  0  0  0  0  0  0  0
   -4.7765    7.9796   -5.8780 C   0  0  0  0  0  0  0  0  0  0  0  0
   -4.7041    9.1773   -5.1961 C   0  0  0  0  0  0  0  0  0  0  0  0
   -4.4411    9.2668   -3.7888 C   0  0  0  0  0  0  0  0  0  0  0  0
   -4.2548    8.1554   -2.9793 C   0  0  0  0  0  0  0  0  0  0  0  0
   -4.3525    6.9123   -3.6637 C   0  0  0  0  0  0  0  0  0  0  0  0
   -4.2427    5.5307   -3.1262 C   0  0  0  0  0  0  0  0  0  0  0  0
   -4.7920    5.1327   -1.9516 C   0  0  0  0  0  0  0  0  0  0  0  0
   -5.0794    6.0503   -0.8820 C   0  0  0  0  0  0  0  0  0  0  0  0
   -5.2918    6.7816   -0.0071 N   0  0  0  0  0  0  0  0  0  0  0  0
   -5.2539    3.7807   -1.7640 C   0  0  0  0  0  0  0  0  0  0  0  0
   -5.6183    2.6933   -1.6152 N   0  0  0  0  0  0  0  0  0  0  0  0
   -4.5101   10.7647   -3.8558 C   0  0  0  0  0  0  0  0  0  0  0  0
   -5.7793   11.4591   -3.2799 C   0  0  0  0  0  0  0  0  0  0  0  0
   -6.9678   10.5345   -3.4015 C   0  0  0  0  0  0  0  0  0  0  0  0
   -7.2360   10.4308   -4.7041 C   0  0  0  0  0  0  0  0  0  0  0  0
   -6.2209   11.2922   -5.4256 C   0  0  0  0  0  0  0  0  0  0  0  0
   -6.0985   12.4167   -4.4155 C   0  0  0  0  0  0  0  0  0  0  0  0
   -4.7989   10.6681   -5.2937 C   0  0  0  0  0  0  0  0  0  0  0  0
    1.9023   -7.1789    7.1532 H   0  0  0  0  0  0  0  0  0  0  0  0
   -0.5665   -7.8566    1.4510 H   0  0  0  0  0  0  0  0  0  0  0  0
   -3.2785   -6.8230    5.6540 H   0  0  0  0  0  0  0  0  0  0  0  0
   -5.2917   -7.1935    2.8449 H   0  0  0  0  0  0  0  0  0  0  0  0
   -4.9431   -4.5136    3.4929 H   0  0  0  0  0  0  0  0  0  0  0  0
   -6.6318   -4.4996    1.4408 H   0  0  0  0  0  0  0  0  0  0  0  0
   -5.2918   -5.0732   -0.7231 H   0  0  0  0  0  0  0  0  0  0  0  0
   -2.7476   -5.4447   -0.0575 H   0  0  0  0  0  0  0  0  0  0  0  0
   -3.4625   -3.4563    1.5484 H   0  0  0  0  0  0  0  0  0  0  0  0
   -2.4647   -4.6400    2.4806 H   0  0  0  0  0  0  0  0  0  0  0  0
   -4.0475   -7.7169    0.8683 H   0  0  0  0  0  0  0  0  0  0  0  0
    3.4294   -5.1651    6.9236 H   0  0  0  0  0  0  0  0  0  0  0  0
    2.7832   -2.2216    6.0685 H   0  0  0  0  0  0  0  0  0  0  0  0
    2.6340   -0.8454    8.1158 H   0  0  0  0  0  0  0  0  0  0  0  0
    6.0922    1.0305    8.7490 H   0  0  0  0  0  0  0  0  0  0  0  0
    4.3912    1.6332    8.6178 H   0  0  0  0  0  0  0  0  0  0  0  0
    4.5819    2.6625   10.8857 H   0  0  0  0  0  0  0  0  0  0  0  0
    5.8918    3.2583    9.7965 H   0  0  0  0  0  0  0  0  0  0  0  0
    6.2644    2.0086   11.0447 H   0  0  0  0  0  0  0  0  0  0  0  0
    6.8639   -3.2105    7.0367 H   0  0  0  0  0  0  0  0  0  0  0  0
    6.9275   -6.8312    1.8045 H   0  0  0  0  0  0  0  0  0  0  0  0
    6.9469   -7.9780   -0.3778 H   0  0  0  0  0  0  0  0  0  0  0  0
    5.7019   -5.4441   -3.2267 H   0  0  0  0  0  0  0  0  0  0  0  0
    5.9163   -6.5256   -4.6411 H   0  0  0  0  0  0  0  0  0  0  0  0
    8.1124   -5.7054   -3.8769 H   0  0  0  0  0  0  0  0  0  0  0  0
    7.8189   -6.3416   -2.2185 H   0  0  0  0  0  0  0  0  0  0  0  0
    7.9936   -7.4888   -3.6089 H   0  0  0  0  0  0  0  0  0  0  0  0
    3.3477   -4.7234    0.6669 H   0  0  0  0  0  0  0  0  0  0  0  0
    5.5269   -3.0547    0.6380 H   0  0  0  0  0  0  0  0  0  0  0  0
    7.2315    0.6397    0.7419 H   0  0  0  0  0  0  0  0  0  0  0  0
    6.6620    1.8118   -0.4955 H   0  0  0  0  0  0  0  0  0  0  0  0
    6.8179   -1.2569   -0.8542 H   0  0  0  0  0  0  0  0  0  0  0  0
    7.9652   -0.0394   -1.5422 H   0  0  0  0  0  0  0  0  0  0  0  0
    6.2437   -0.0767   -2.0991 H   0  0  0  0  0  0  0  0  0  0  0  0
   -0.2734   -2.5312    1.4277 H   0  0  0  0  0  0  0  0  0  0  0  0
   -0.8394   -1.4475    0.1072 H   0  0  0  0  0  0  0  0  0  0  0  0
    0.5631   -2.6036   -1.5451 H   0  0  0  0  0  0  0  0  0  0  0  0
   -0.4627   -3.8041   -0.6677 H   0  0  0  0  0  0  0  0  0  0  0  0
    1.2847   -3.6463   -0.2545 H   0  0  0  0  0  0  0  0  0  0  0  0
    1.8160    3.2784   -0.0614 H   0  0  0  0  0  0  0  0  0  0  0  0
    2.7027    5.4164    0.7557 H   0  0  0  0  0  0  0  0  0  0  0  0
   -0.2636    8.1483    1.6440 H   0  0  0  0  0  0  0  0  0  0  0  0
    1.0946    9.3376    1.5890 H   0  0  0  0  0  0  0  0  0  0  0  0
    1.1011    7.9219    0.4673 H   0  0  0  0  0  0  0  0  0  0  0  0
   -0.6107    5.7615    3.4807 H   0  0  0  0  0  0  0  0  0  0  0  0
   -1.5104    3.6237    2.6708 H   0  0  0  0  0  0  0  0  0  0  0  0
    0.3957    1.2520    3.2085 H   0  0  0  0  0  0  0  0  0  0  0  0
   -0.6850   -0.3960    4.6883 H   0  0  0  0  0  0  0  0  0  0  0  0
   -4.9532   -0.4722    4.3085 H   0  0  0  0  0  0  0  0  0  0  0  0
   -4.9053   -1.4060    5.8523 H   0  0  0  0  0  0  0  0  0  0  0  0
   -3.7584   -0.0294    5.6041 H   0  0  0  0  0  0  0  0  0  0  0  0
   -3.8143   -0.9566    1.7848 H   0  0  0  0  0  0  0  0  0  0  0  0
   -2.7519    0.7087    0.3127 H   0  0  0  0  0  0  0  0  0  0  0  0
    1.2927    0.7181   -5.8855 H   0  0  0  0  0  0  0  0  0  0  0  0
    3.0038    1.8680   -7.2428 H   0  0  0  0  0  0  0  0  0  0  0  0
    1.4632    4.0181  -10.4217 H   0  0  0  0  0  0  0  0  0  0  0  0
    2.4806    2.5681  -10.0552 H   0  0  0  0  0  0  0  0  0  0  0  0
    3.1872    3.9582  -10.9634 H   0  0  0  0  0  0  0  0  0  0  0  0
    0.3388    5.2063   -7.7817 H   0  0  0  0  0  0  0  0  0  0  0  0
   -1.3792    4.0531   -6.4458 H   0  0  0  0  0  0  0  0  0  0  0  0
   -0.9167    0.4576   -7.7709 H   0  0  0  0  0  0  0  0  0  0  0  0
   -1.9424   -1.6245   -8.5353 H   0  0  0  0  0  0  0  0  0  0  0  0
   -2.6178   -5.6226   -6.8883 H   0  0  0  0  0  0  0  0  0  0  0  0
   -1.4415   -4.2856   -7.1870 H   0  0  0  0  0  0  0  0  0  0  0  0
   -2.2580   -4.4401   -5.5723 H   0  0  0  0  0  0  0  0  0  0  0  0
   -3.9341   -2.0680   -4.7523 H   0  0  0  0  0  0  0  0  0  0  0  0
   -2.9012   -0.0100   -3.9435 H   0  0  0  0  0  0  0  0  0  0  0  0
   -3.3687    3.0908   -5.4741 H   0  0  0  0  0  0  0  0  0  0  0  0
   -4.9465    7.9192   -6.9437 H   0  0  0  0  0  0  0  0  0  0  0  0
   -4.0304    8.2458   -1.9262 H   0  0  0  0  0  0  0  0  0  0  0  0
   -3.5461   11.2738   -3.6278 H   0  0  0  0  0  0  0  0  0  0  0  0
   -5.6548   11.9289   -2.2837 H   0  0  0  0  0  0  0  0  0  0  0  0
   -7.5343   10.0820   -2.5952 H   0  0  0  0  0  0  0  0  0  0  0  0
   -8.0674    9.8874   -5.1425 H   0  0  0  0  0  0  0  0  0  0  0  0
   -6.5132   11.6038   -6.4508 H   0  0  0  0  0  0  0  0  0  0  0  0
   -7.0495   12.9831   -4.2663 H   0  0  0  0  0  0  0  0  0  0  0  0
   -5.2726   13.1330   -4.6404 H   0  0  0  0  0  0  0  0  0  0  0  0
   -4.0213   11.1329   -5.9417 H   0  0  0  0  0  0  0  0  0  0  0  0
  1  2  2  3
  2  3  1  0
  3  4  2  0
  3  5  1  0
  5  6  2  0
  6  7  1  0
  7  8  2  0
  8  9  1  0
  9 10  2  0
 10 11  1  0
 11 12  2  3
 12 13  1  0
 13 14  3  0
 12 15  1  0
 15 16  3  0
  8 17  1  0
 17 18  1  0
 18 19  1  0
 19 20  2  0
 20 21  1  0
 21 22  1  0
 21 23  1  0
  1 24  1  0
 24 25  2  0
 25 26  1  0
 26 27  2  0
 27 28  1  0
 28 29  2  0
 29 30  1  0
 30 31  2  0
 31 32  1  0
 32 33  1  0
 33 34  1  0
 31 35  1  0
 35 36  1  0
 35 37  2  0
 27 38  1  0
 38 39  2  0
 39 40  1  0
 40 41  1  0
 41 42  2  0
 42 43  1  0
 43 44  2  0
 44 45  1  0
 45 46  1  0
 46 47  1  0
 44 48  1  0
 48 49  2  0
 48 50  1  0
 40 51  2  0
 51 52  1  0
 39 53  1  0
 53 54  2  0
 54 55  1  0
 54 56  1  0
 56 57  2  0
 57 58  1  0
 58 59  1  0
 59 60  2  0
 59 61  1  0
 61 62  1  0
 62 63  1  0
 58 64  2  0
 64 65  1  0
 65 66  1  0
 66 67  1  0
 65 68  1  0
 68 69  2  0
 64 70  1  0
 70 71  2  0
 71 72  1  0
 72 73  1  0
 73 74  2  0
 74 75  1  0
 75 76  2  0
 76 77  1  0
 77 78  1  0
 76 79  1  0
 79 80  2  0
 72 81  1  0
 81 82  2  0
 82 83  1  0
 83 84  2  0
 84 85  1  0
 85 86  1  0
 84 87  1  0
 87 88  2  0
 71 89  1  0
 89 90  1  0
 90 91  1  0
 91 92  2  0
 92 93  1  0
 93 94  1  0
 94 95  2  0
 95 96  1  0
 96 97  2  0
 97 98  1  0
 98 99  1  0
 97100  1  0
100101  2  0
 93102  1  0
102103  2  0
103104  1  0
104105  2  0
105106  1  0
106107  1  0
105108  1  0
108109  2  0
 92110  1  0
110111  1  0
 91112  1  0
112113  2  3
113114  1  0
114115  2  0
114116  1  0
116117  2  0
117118  1  0
118119  2  0
119120  1  0
120121  2  0
121122  1  0
122123  2  3
123124  1  0
124125  3  0
123126  1  0
126127  3  0
119128  1  0
128129  1  0
129130  1  0
130131  2  0
131132  1  0
132133  1  0
132134  1  0
 11  2  1  0
 23 17  1  0
 52 24  1  0
 61 56  1  0
111 70  1  0
122113  1  0
134128  1  0
 10  5  1  0
 22 18  1  0
 51 26  1  0
 68 57  1  0
 80 73  1  0
 88 81  1  0
110 89  2  0
121116  1  0
133129  1  0
 23  7  1  0
 37 28  1  0
 55 38  1  0
101 94  1  0
109102  1  0
134118  1  0
 49 41  1  0
  1135  1  0
  6136  1  0
  9137  1  0
 17138  1  0
 18139  1  0
 19140  1  0
 20141  1  0
 21142  1  0
 22143  1  0
 22144  1  0
 23145  1  0
 25146  1  0
 29147  1  0
 30148  1  0
 33149  1  0
 33150  1  0
 34151  1  0
 34152  1  0
 34153  1  0
 37154  1  0
 42155  1  0
 43156  1  0
 46157  1  0
 46158  1  0
 47159  1  0
 47160  1  0
 47161  1  0
 49162  1  0
 53163  1  0
 62164  1  0
 62165  1  0
 63166  1  0
 63167  1  0
 63168  1  0
 66169  1  0
 66170  1  0
 67171  1  0
 67172  1  0
 67173  1  0
 74174  1  0
 75175  1  0
 78176  1  0
 78177  1  0
 78178  1  0
 79179  1  0
 80180  1  0
 82181  1  0
 83182  1  0
 86183  1  0
 86184  1  0
 86185  1  0
 87186  1  0
 88187  1  0
 95188  1  0
 96189  1  0
 99190  1  0
 99191  1  0
 99192  1  0
100193  1  0
101194  1  0
103195  1  0
104196  1  0
107197  1  0
107198  1  0
107199  1  0
108200  1  0
109201  1  0
112202  1  0
117203  1  0
120204  1  0
128205  1  0
129206  1  0
130207  1  0
131208  1  0
132209  1  0
133210  1  0
133211  1  0
134212  1  0
M  END

