
     RDKit          3D

226248  0  0  0  0  0  0  0  0999 V2000
    5.6899    6.9376   -1.3394 C   0  0  0  0  0  0  0  0  0  0  0  0
    6.2413    6.1300   -2.2680 C   0  0  0  0  0  0  0  0  0  0  0  0
    5.4939    5.7570   -3.4780 C   0  0  0  0  0  0  0  0  0  0  0  0
    4.9188    6.5701   -4.2505 O   0  0  0  0  0  0  0  0  0  0  0  0
    5.4990    4.3200   -3.6508 C   0  0  0  0  0  0  0  0  0  0  0  0
    4.7419    3.5630   -4.5763 C   0  0  0  0  0  0  0  0  0  0  0  0
    4.8339    2.1940   -4.3869 C   0  0  0  0  0  0  0  0  0  0  0  0
    5.6150    1.6026   -3.3408 C   0  0  0  0  0  0  0  0  0  0  0  0
    6.3615    2.3429   -2.4322 C   0  0  0  0  0  0  0  0  0  0  0  0
    6.3008    3.7491   -2.6387 C   0  0  0  0  0  0  0  0  0  0  0  0
    6.8992    4.8529   -1.8434 C   0  0  0  0  0  0  0  0  0  0  0  0
    7.9964    4.7797   -1.0540 C   0  0  0  0  0  0  0  0  0  0  0  0
    8.7307    3.5546   -0.8697 C   0  0  0  0  0  0  0  0  0  0  0  0
    9.3382    2.5788   -0.7224 N   0  0  0  0  0  0  0  0  0  0  0  0
    8.5869    5.9622   -0.4795 C   0  0  0  0  0  0  0  0  0  0  0  0
    9.0658    6.9093   -0.0207 N   0  0  0  0  0  0  0  0  0  0  0  0
    5.1942    0.2320   -3.7798 C   0  0  0  0  0  0  0  0  0  0  0  0
    6.2618   -0.6053   -4.5382 C   0  0  0  0  0  0  0  0  0  0  0  0
    5.5101   -1.7323   -5.2052 C   0  0  0  0  0  0  0  0  0  0  0  0
    4.7971   -1.1825   -6.1879 C   0  0  0  0  0  0  0  0  0  0  0  0
    5.0780    0.2983   -6.1527 C   0  0  0  0  0  0  0  0  0  0  0  0
    6.5491    0.2376   -5.7701 C   0  0  0  0  0  0  0  0  0  0  0  0
    4.4012    0.8373   -4.8538 C   0  0  0  0  0  0  0  0  0  0  0  0
    4.4565    6.5098   -0.6093 C   0  0  0  0  0  0  0  0  0  0  0  0
    3.3168    6.1527   -1.3442 C   0  0  0  0  0  0  0  0  0  0  0  0
    2.2534    5.4527   -0.7610 C   0  0  0  0  0  0  0  0  0  0  0  0
    1.2051    4.9009   -1.6980 C   0  0  0  0  0  0  0  0  0  0  0  0
    0.3249    6.0182   -2.2598 C   0  0  0  0  0  0  0  0  0  0  0  0
    2.2739    5.2103    0.6356 C   0  0  0  0  0  0  0  0  0  0  0  0
    3.3313    5.7080    1.4012 C   0  0  0  0  0  0  0  0  0  0  0  0
    4.4291    6.3497    0.8009 C   0  0  0  0  0  0  0  0  0  0  0  0
    5.5320    6.8648    1.6994 C   0  0  0  0  0  0  0  0  0  0  0  0
    5.3456    8.3577    1.9622 C   0  0  0  0  0  0  0  0  0  0  0  0
    1.3845    4.2117    1.2588 C   0  0  0  0  0  0  0  0  0  0  0  0
   -0.0250    4.2440    1.2649 C   0  0  0  0  0  0  0  0  0  0  0  0
   -0.7838    5.4509    1.4958 N   0  0  0  0  0  0  0  0  0  0  0  0
   -2.1473    5.5826    1.0329 C   0  0  0  0  0  0  0  0  0  0  0  0
   -3.1485    6.0986    1.8821 C   0  0  0  0  0  0  0  0  0  0  0  0
   -4.4707    6.1983    1.4413 C   0  0  0  0  0  0  0  0  0  0  0  0
   -4.8192    5.7683    0.1547 C   0  0  0  0  0  0  0  0  0  0  0  0
   -6.5260    5.8315   -0.3906 S   0  0  0  0  0  0  0  0  0  0  0  0
   -6.9760    4.2954    0.4717 C   0  0  0  0  0  0  0  0  0  0  0  0
   -3.8321    5.2565   -0.6973 C   0  0  0  0  0  0  0  0  0  0  0  0
   -2.5057    5.1731   -0.2656 C   0  0  0  0  0  0  0  0  0  0  0  0
   -0.2710    6.3708    2.4849 C   0  0  0  0  0  0  0  0  0  0  0  0
    0.2391    5.8919    3.7059 C   0  0  0  0  0  0  0  0  0  0  0  0
    0.7576    6.7778    4.6536 C   0  0  0  0  0  0  0  0  0  0  0  0
    0.7574    8.1519    4.3987 C   0  0  0  0  0  0  0  0  0  0  0  0
    1.4512    9.2803    5.6097 S   0  0  0  0  0  0  0  0  0  0  0  0
   -0.0999    9.4356    6.5458 C   0  0  0  0  0  0  0  0  0  0  0  0
    0.2391    8.6379    3.1907 C   0  0  0  0  0  0  0  0  0  0  0  0
   -0.2741    7.7507    2.2373 C   0  0  0  0  0  0  0  0  0  0  0  0
   -0.5416    2.9518    1.3933 C   0  0  0  0  0  0  0  0  0  0  0  0
   -2.0026    2.2444    0.9465 S   0  0  0  0  0  0  0  0  0  0  0  0
   -1.4079    0.6532    1.0038 C   0  0  0  0  0  0  0  0  0  0  0  0
   -0.0759    0.6738    1.4418 C   0  0  0  0  0  0  0  0  0  0  0  0
    0.6487   -0.5008    1.8703 N   0  0  0  0  0  0  0  0  0  0  0  0
    2.0711   -0.5905    1.6777 C   0  0  0  0  0  0  0  0  0  0  0  0
    2.9224   -0.7484    2.7836 C   0  0  0  0  0  0  0  0  0  0  0  0
    4.3071   -0.6703    2.6182 C   0  0  0  0  0  0  0  0  0  0  0  0
    4.8485   -0.4131    1.3535 C   0  0  0  0  0  0  0  0  0  0  0  0
    6.6205   -0.2030    1.1571 S   0  0  0  0  0  0  0  0  0  0  0  0
    6.5599    1.5824    1.5087 C   0  0  0  0  0  0  0  0  0  0  0  0
    4.0048   -0.3007    0.2417 C   0  0  0  0  0  0  0  0  0  0  0  0
    2.6221   -0.4066    0.3999 C   0  0  0  0  0  0  0  0  0  0  0  0
   -0.0327   -1.4771    2.6864 C   0  0  0  0  0  0  0  0  0  0  0  0
    0.1619   -2.8464    2.4575 C   0  0  0  0  0  0  0  0  0  0  0  0
   -0.5754   -3.7945    3.1720 C   0  0  0  0  0  0  0  0  0  0  0  0
   -1.4845   -3.3837    4.1527 C   0  0  0  0  0  0  0  0  0  0  0  0
   -2.4152   -4.6046    5.0799 S   0  0  0  0  0  0  0  0  0  0  0  0
   -1.0976   -4.8330    6.3159 C   0  0  0  0  0  0  0  0  0  0  0  0
   -1.6630   -2.0208    4.4121 C   0  0  0  0  0  0  0  0  0  0  0  0
   -0.9442   -1.0708    3.6790 C   0  0  0  0  0  0  0  0  0  0  0  0
    0.3863    1.9761    1.5815 C   0  0  0  0  0  0  0  0  0  0  0  0
    1.9249    2.6284    1.5296 S   0  0  0  0  0  0  0  0  0  0  0  0
   -1.9556   -0.4661    0.2312 C   0  0  0  0  0  0  0  0  0  0  0  0
   -3.3014   -0.8290    0.0523 C   0  0  0  0  0  0  0  0  0  0  0  0
   -4.4221   -0.0685    0.5164 N   0  0  0  0  0  0  0  0  0  0  0  0
   -5.1810    0.6912   -0.4447 C   0  0  0  0  0  0  0  0  0  0  0  0
   -4.5263    1.4544   -1.4292 C   0  0  0  0  0  0  0  0  0  0  0  0
   -5.2595    2.1913   -2.3641 C   0  0  0  0  0  0  0  0  0  0  0  0
   -6.6596    2.1461   -2.3538 C   0  0  0  0  0  0  0  0  0  0  0  0
   -7.4395    2.9931   -3.3166 C   0  0  0  0  0  0  0  0  0  0  0  0
   -7.3189    1.3703   -1.3863 C   0  0  0  0  0  0  0  0  0  0  0  0
   -6.5853    0.6519   -0.4377 C   0  0  0  0  0  0  0  0  0  0  0  0
   -4.7980   -0.1140    1.9084 C   0  0  0  0  0  0  0  0  0  0  0  0
   -5.2400    1.0459    2.5640 C   0  0  0  0  0  0  0  0  0  0  0  0
   -5.6244    0.9997    3.9063 C   0  0  0  0  0  0  0  0  0  0  0  0
   -5.5877   -0.2168    4.6088 C   0  0  0  0  0  0  0  0  0  0  0  0
   -5.9779   -0.2718    6.0559 C   0  0  0  0  0  0  0  0  0  0  0  0
   -5.1136   -1.3702    3.9676 C   0  0  0  0  0  0  0  0  0  0  0  0
   -4.7160   -1.3192    2.6271 C   0  0  0  0  0  0  0  0  0  0  0  0
   -3.4161   -1.9747   -0.7305 C   0  0  0  0  0  0  0  0  0  0  0  0
   -4.6423   -3.0934   -1.0103 S   0  0  0  0  0  0  0  0  0  0  0  0
   -3.6074   -4.2174   -1.7718 C   0  0  0  0  0  0  0  0  0  0  0  0
   -2.3067   -3.6954   -1.8218 C   0  0  0  0  0  0  0  0  0  0  0  0
   -1.1717   -4.3459   -2.4137 N   0  0  0  0  0  0  0  0  0  0  0  0
   -0.5799   -5.4760   -1.7575 C   0  0  0  0  0  0  0  0  0  0  0  0
   -0.3694   -6.6702   -2.4605 C   0  0  0  0  0  0  0  0  0  0  0  0
    0.1944   -7.7749   -1.8152 C   0  0  0  0  0  0  0  0  0  0  0  0
    0.5762   -7.6872   -0.4678 C   0  0  0  0  0  0  0  0  0  0  0  0
    1.1552   -8.8789    0.2277 C   0  0  0  0  0  0  0  0  0  0  0  0
    0.3570   -6.4937    0.2355 C   0  0  0  0  0  0  0  0  0  0  0  0
   -0.2121   -5.3944   -0.4092 C   0  0  0  0  0  0  0  0  0  0  0  0
   -0.5445   -3.7523   -3.5703 C   0  0  0  0  0  0  0  0  0  0  0  0
    0.8571   -3.7118   -3.6910 C   0  0  0  0  0  0  0  0  0  0  0  0
    1.4581   -3.1157   -4.8077 C   0  0  0  0  0  0  0  0  0  0  0  0
    0.6652   -2.5639   -5.8248 C   0  0  0  0  0  0  0  0  0  0  0  0
    1.3090   -1.9314   -7.0205 C   0  0  0  0  0  0  0  0  0  0  0  0
   -0.7317   -2.5859   -5.6987 C   0  0  0  0  0  0  0  0  0  0  0  0
   -1.3300   -3.1743   -4.5838 C   0  0  0  0  0  0  0  0  0  0  0  0
   -2.2433   -2.4579   -1.2085 C   0  0  0  0  0  0  0  0  0  0  0  0
   -0.9680   -1.5344   -0.6631 S   0  0  0  0  0  0  0  0  0  0  0  0
   -3.9196   -5.6343   -1.9778 C   0  0  0  0  0  0  0  0  0  0  0  0
   -3.6043   -6.5662   -1.0516 C   0  0  0  0  0  0  0  0  0  0  0  0
   -3.2393   -6.2852    0.3464 C   0  0  0  0  0  0  0  0  0  0  0  0
   -3.0855   -5.1486    0.8710 O   0  0  0  0  0  0  0  0  0  0  0  0
   -3.1631   -7.5353    1.0647 C   0  0  0  0  0  0  0  0  0  0  0  0
   -2.9069   -7.7038    2.4448 C   0  0  0  0  0  0  0  0  0  0  0  0
   -3.0012   -9.0123    2.8737 C   0  0  0  0  0  0  0  0  0  0  0  0
   -3.3283  -10.0992    2.0005 C   0  0  0  0  0  0  0  0  0  0  0  0
   -3.5788   -9.9376    0.6473 C   0  0  0  0  0  0  0  0  0  0  0  0
   -3.4589   -8.5978    0.1769 C   0  0  0  0  0  0  0  0  0  0  0  0
   -3.6403   -8.0512   -1.2013 C   0  0  0  0  0  0  0  0  0  0  0  0
   -3.5375   -8.7510   -2.3629 C   0  0  0  0  0  0  0  0  0  0  0  0
   -3.4041   -8.1103   -3.6437 C   0  0  0  0  0  0  0  0  0  0  0  0
   -3.2877   -7.6039   -4.6787 N   0  0  0  0  0  0  0  0  0  0  0  0
   -3.4096  -10.1846   -2.3961 C   0  0  0  0  0  0  0  0  0  0  0  0
   -3.3045  -11.3371   -2.4489 N   0  0  0  0  0  0  0  0  0  0  0  0
   -3.2446  -11.0645    3.1447 C   0  0  0  0  0  0  0  0  0  0  0  0
   -1.9806  -11.9720    3.1934 C   0  0  0  0  0  0  0  0  0  0  0  0
   -1.9312  -12.5400    4.5901 C   0  0  0  0  0  0  0  0  0  0  0  0
   -1.6136  -11.5210    5.4029 C   0  0  0  0  0  0  0  0  0  0  0  0
   -1.4648  -10.3042    4.5244 C   0  0  0  0  0  0  0  0  0  0  0  0
   -0.8430  -10.9702    3.3101 C   0  0  0  0  0  0  0  0  0  0  0  0
   -2.9001   -9.9512    4.0393 C   0  0  0  0  0  0  0  0  0  0  0  0
    6.3865    7.5354   -0.7723 H   0  0  0  0  0  0  0  0  0  0  0  0
    4.1173    4.0080   -5.3410 H   0  0  0  0  0  0  0  0  0  0  0  0
    6.9026    1.8620   -1.6321 H   0  0  0  0  0  0  0  0  0  0  0  0
    4.5965   -0.3264   -3.0312 H   0  0  0  0  0  0  0  0  0  0  0  0
    7.1433   -0.9145   -3.9383 H   0  0  0  0  0  0  0  0  0  0  0  0
    5.6181   -2.7983   -5.0149 H   0  0  0  0  0  0  0  0  0  0  0  0
    4.2439   -1.7271   -6.9469 H   0  0  0  0  0  0  0  0  0  0  0  0
    4.8375    0.8507   -7.0843 H   0  0  0  0  0  0  0  0  0  0  0  0
    7.1842   -0.2823   -6.5293 H   0  0  0  0  0  0  0  0  0  0  0  0
    7.0033    1.2261   -5.5514 H   0  0  0  0  0  0  0  0  0  0  0  0
    3.3078    0.6612   -4.7728 H   0  0  0  0  0  0  0  0  0  0  0  0
    3.2696    6.3630   -2.4018 H   0  0  0  0  0  0  0  0  0  0  0  0
    0.5670    4.1341   -1.2251 H   0  0  0  0  0  0  0  0  0  0  0  0
    1.7078    4.3836   -2.5418 H   0  0  0  0  0  0  0  0  0  0  0  0
    0.9140    6.6672   -2.9416 H   0  0  0  0  0  0  0  0  0  0  0  0
   -0.5161    5.5765   -2.8395 H   0  0  0  0  0  0  0  0  0  0  0  0
   -0.0912    6.6384   -1.4318 H   0  0  0  0  0  0  0  0  0  0  0  0
    3.3379    5.5278    2.4700 H   0  0  0  0  0  0  0  0  0  0  0  0
    6.5284    6.6691    1.2629 H   0  0  0  0  0  0  0  0  0  0  0  0
    5.5267    6.3316    2.6786 H   0  0  0  0  0  0  0  0  0  0  0  0
    5.2382    8.9164    1.0092 H   0  0  0  0  0  0  0  0  0  0  0  0
    6.2223    8.7581    2.5168 H   0  0  0  0  0  0  0  0  0  0  0  0
    4.4366    8.5202    2.5774 H   0  0  0  0  0  0  0  0  0  0  0  0
   -2.9120    6.4072    2.8911 H   0  0  0  0  0  0  0  0  0  0  0  0
   -5.2287    6.5867    2.1055 H   0  0  0  0  0  0  0  0  0  0  0  0
   -6.2152    3.5038    0.2930 H   0  0  0  0  0  0  0  0  0  0  0  0
   -7.9513    3.9344    0.0951 H   0  0  0  0  0  0  0  0  0  0  0  0
   -7.0523    4.4861    1.5652 H   0  0  0  0  0  0  0  0  0  0  0  0
   -4.0917    4.9063   -1.6850 H   0  0  0  0  0  0  0  0  0  0  0  0
   -1.7675    4.7415   -0.9202 H   0  0  0  0  0  0  0  0  0  0  0  0
    0.2383    4.8322    3.9247 H   0  0  0  0  0  0  0  0  0  0  0  0
    1.1505    6.3983    5.5867 H   0  0  0  0  0  0  0  0  0  0  0  0
   -0.8925    9.8807    5.9021 H   0  0  0  0  0  0  0  0  0  0  0  0
    0.0678   10.0925    7.4215 H   0  0  0  0  0  0  0  0  0  0  0  0
   -0.4274    8.4375    6.9055 H   0  0  0  0  0  0  0  0  0  0  0  0
    0.2447    9.7003    2.9864 H   0  0  0  0  0  0  0  0  0  0  0  0
   -0.6592    8.1366    1.3024 H   0  0  0  0  0  0  0  0  0  0  0  0
    2.5109   -0.8837    3.7750 H   0  0  0  0  0  0  0  0  0  0  0  0
    4.9536   -0.7646    3.4821 H   0  0  0  0  0  0  0  0  0  0  0  0
    7.5876    1.9944    1.4939 H   0  0  0  0  0  0  0  0  0  0  0  0
    5.9482    2.1052    0.7385 H   0  0  0  0  0  0  0  0  0  0  0  0
    6.1254    1.7586    2.5151 H   0  0  0  0  0  0  0  0  0  0  0  0
    4.4197   -0.0936   -0.7340 H   0  0  0  0  0  0  0  0  0  0  0  0
    1.9783   -0.3036   -0.4644 H   0  0  0  0  0  0  0  0  0  0  0  0
    0.8699   -3.1749    1.7098 H   0  0  0  0  0  0  0  0  0  0  0  0
   -0.4358   -4.8471    2.9704 H   0  0  0  0  0  0  0  0  0  0  0  0
   -1.4288   -5.5773    7.0663 H   0  0  0  0  0  0  0  0  0  0  0  0
   -0.1801   -5.2122    5.8215 H   0  0  0  0  0  0  0  0  0  0  0  0
   -0.8763   -3.8719    6.8257 H   0  0  0  0  0  0  0  0  0  0  0  0
   -2.3615   -1.6950    5.1723 H   0  0  0  0  0  0  0  0  0  0  0  0
   -1.0960   -0.0211    3.8876 H   0  0  0  0  0  0  0  0  0  0  0  0
   -3.4473    1.4989   -1.4658 H   0  0  0  0  0  0  0  0  0  0  0  0
   -4.7343    2.8005   -3.0877 H   0  0  0  0  0  0  0  0  0  0  0  0
   -8.4649    2.5857   -3.4615 H   0  0  0  0  0  0  0  0  0  0  0  0
   -7.5108    4.0309   -2.9258 H   0  0  0  0  0  0  0  0  0  0  0  0
   -6.9358    3.0137   -4.3065 H   0  0  0  0  0  0  0  0  0  0  0  0
   -8.4031    1.3374   -1.3597 H   0  0  0  0  0  0  0  0  0  0  0  0
   -7.1119    0.0565    0.2975 H   0  0  0  0  0  0  0  0  0  0  0  0
   -5.2783    1.9877    2.0346 H   0  0  0  0  0  0  0  0  0  0  0  0
   -5.9540    1.9065    4.3947 H   0  0  0  0  0  0  0  0  0  0  0  0
   -6.6576    0.5668    6.3179 H   0  0  0  0  0  0  0  0  0  0  0  0
   -6.5115   -1.2218    6.2748 H   0  0  0  0  0  0  0  0  0  0  0  0
   -5.0694   -0.2137    6.6905 H   0  0  0  0  0  0  0  0  0  0  0  0
   -5.0499   -2.3089    4.5033 H   0  0  0  0  0  0  0  0  0  0  0  0
   -4.3675   -2.2232    2.1471 H   0  0  0  0  0  0  0  0  0  0  0  0
   -0.6559   -6.7452   -3.5056 H   0  0  0  0  0  0  0  0  0  0  0  0
    0.3359   -8.6979   -2.3698 H   0  0  0  0  0  0  0  0  0  0  0  0
    0.3300   -9.5283    0.5830 H   0  0  0  0  0  0  0  0  0  0  0  0
    1.7926   -9.4667   -0.4728 H   0  0  0  0  0  0  0  0  0  0  0  0
    1.7839   -8.5716    1.0931 H   0  0  0  0  0  0  0  0  0  0  0  0
    0.6280   -6.4113    1.2796 H   0  0  0  0  0  0  0  0  0  0  0  0
   -0.3722   -4.4758    0.1356 H   0  0  0  0  0  0  0  0  0  0  0  0
    1.4870   -4.1189   -2.9103 H   0  0  0  0  0  0  0  0  0  0  0  0
    2.5406   -3.0819   -4.8759 H   0  0  0  0  0  0  0  0  0  0  0  0
    0.5621   -1.6951   -7.8105 H   0  0  0  0  0  0  0  0  0  0  0  0
    2.0580   -2.6267   -7.4599 H   0  0  0  0  0  0  0  0  0  0  0  0
    1.8149   -0.9850   -6.7189 H   0  0  0  0  0  0  0  0  0  0  0  0
   -1.3577   -2.1518   -6.4691 H   0  0  0  0  0  0  0  0  0  0  0  0
   -2.4082   -3.1906   -4.5145 H   0  0  0  0  0  0  0  0  0  0  0  0
   -4.3635   -5.9083   -2.9197 H   0  0  0  0  0  0  0  0  0  0  0  0
   -2.6840   -6.8829    3.1144 H   0  0  0  0  0  0  0  0  0  0  0  0
   -3.8624  -10.7781    0.0386 H   0  0  0  0  0  0  0  0  0  0  0  0
   -4.2085  -11.5676    3.3820 H   0  0  0  0  0  0  0  0  0  0  0  0
   -1.8890  -12.7211    2.3771 H   0  0  0  0  0  0  0  0  0  0  0  0
   -2.0324  -13.5766    4.8853 H   0  0  0  0  0  0  0  0  0  0  0  0
   -1.4089  -11.5966    6.4642 H   0  0  0  0  0  0  0  0  0  0  0  0
   -0.8854   -9.4675    4.9690 H   0  0  0  0  0  0  0  0  0  0  0  0
    0.1491  -11.4430    3.5185 H   0  0  0  0  0  0  0  0  0  0  0  0
   -0.7426  -10.2942    2.4368 H   0  0  0  0  0  0  0  0  0  0  0  0
   -3.6456   -9.7508    4.8373 H   0  0  0  0  0  0  0  0  0  0  0  0
  1  2  2  3
  2  3  1  0
  3  4  2  0
  3  5  1  0
  5  6  2  0
  6  7  1  0
  7  8  2  0
  8  9  1  0
  9 10  2  0
 10 11  1  0
 11 12  2  3
 12 13  1  0
 13 14  3  0
 12 15  1  0
 15 16  3  0
  8 17  1  0
 17 18  1  0
 18 19  1  0
 19 20  2  0
 20 21  1  0
 21 22  1  0
 21 23  1  0
  1 24  1  0
 24 25  2  0
 25 26  1  0
 26 27  1  0
 27 28  1  0
 26 29  2  0
 29 30  1  0
 30 31  2  0
 31 32  1  0
 32 33  1  0
 29 34  1  0
 34 35  2  0
 35 36  1  0
 36 37  1  0
 37 38  2  0
 38 39  1  0
 39 40  2  0
 40 41  1  0
 41 42  1  0
 40 43  1  0
 43 44  2  0
 36 45  1  0
 45 46  2  0
 46 47  1  0
 47 48  2  0
 48 49  1  0
 49 50  1  0
 48 51  1  0
 51 52  2  0
 35 53  1  0
 53 54  1  0
 54 55  1  0
 55 56  2  0
 56 57  1  0
 57 58  1  0
 58 59  2  0
 59 60  1  0
 60 61  2  0
 61 62  1  0
 62 63  1  0
 61 64  1  0
 64 65  2  0
 57 66  1  0
 66 67  2  0
 67 68  1  0
 68 69  2  0
 69 70  1  0
 70 71  1  0
 69 72  1  0
 72 73  2  0
 56 74  1  0
 74 75  1  0
 55 76  1  0
 76 77  2  0
 77 78  1  0
 78 79  1  0
 79 80  2  0
 80 81  1  0
 81 82  2  0
 82 83  1  0
 82 84  1  0
 84 85  2  0
 78 86  1  0
 86 87  2  0
 87 88  1  0
 88 89  2  0
 89 90  1  0
 89 91  1  0
 91 92  2  0
 77 93  1  0
 93 94  1  0
 94 95  1  0
 95 96  2  0
 96 97  1  0
 97 98  1  0
 98 99  2  0
 99100  1  0
100101  2  0
101102  1  0
101103  1  0
103104  2  0
 97105  1  0
105106  2  0
106107  1  0
107108  2  0
108109  1  0
108110  1  0
110111  2  0
 96112  1  0
112113  1  0
 95114  1  0
114115  2  3
115116  1  0
116117  2  0
116118  1  0
118119  2  0
119120  1  0
120121  2  0
121122  1  0
122123  2  0
123124  1  0
124125  2  3
125126  1  0
126127  3  0
125128  1  0
128129  3  0
121130  1  0
130131  1  0
131132  1  0
132133  2  0
133134  1  0
134135  1  0
134136  1  0
 11  2  1  0
 23 17  1  0
 31 24  1  0
 75 34  1  0
113 76  1  0
124115  1  0
136130  1  0
 10  5  1  0
 22 18  1  0
 44 37  1  0
 52 45  1  0
 74 53  2  0
 85 79  1  0
 92 86  1  0
112 93  2  0
123118  1  0
135131  1  0
 23  7  1  0
 65 58  1  0
 73 66  1  0
104 98  1  0
111105  1  0
136120  1  0
  1137  1  0
  6138  1  0
  9139  1  0
 17140  1  0
 18141  1  0
 19142  1  0
 20143  1  0
 21144  1  0
 22145  1  0
 22146  1  0
 23147  1  0
 25148  1  0
 27149  1  0
 27150  1  0
 28151  1  0
 28152  1  0
 28153  1  0
 30154  1  0
 32155  1  0
 32156  1  0
 33157  1  0
 33158  1  0
 33159  1  0
 38160  1  0
 39161  1  0
 42162  1  0
 42163  1  0
 42164  1  0
 43165  1  0
 44166  1  0
 46167  1  0
 47168  1  0
 50169  1  0
 50170  1  0
 50171  1  0
 51172  1  0
 52173  1  0
 59174  1  0
 60175  1  0
 63176  1  0
 63177  1  0
 63178  1  0
 64179  1  0
 65180  1  0
 67181  1  0
 68182  1  0
 71183  1  0
 71184  1  0
 71185  1  0
 72186  1  0
 73187  1  0
 80188  1  0
 81189  1  0
 83190  1  0
 83191  1  0
 83192  1  0
 84193  1  0
 85194  1  0
 87195  1  0
 88196  1  0
 90197  1  0
 90198  1  0
 90199  1  0
 91200  1  0
 92201  1  0
 99202  1  0
100203  1  0
102204  1  0
102205  1  0
102206  1  0
103207  1  0
104208  1  0
106209  1  0
107210  1  0
109211  1  0
109212  1  0
109213  1  0
110214  1  0
111215  1  0
114216  1  0
119217  1  0
122218  1  0
130219  1  0
131220  1  0
132221  1  0
133222  1  0
134223  1  0
135224  1  0
135225  1  0
136226  1  0
M  END

