
     RDKit          3D

213235  0  0  0  0  0  0  0  0999 V2000
    0.3723    0.9907   -7.9837 C   0  0  0  0  0  0  0  0  0  0  0  0
    1.4123    0.3778   -7.3944 C   0  0  0  0  0  0  0  0  0  0  0  0
    1.5183    0.0176   -5.9792 C   0  0  0  0  0  0  0  0  0  0  0  0
    0.5593   -0.2135   -5.1905 O   0  0  0  0  0  0  0  0  0  0  0  0
    2.9218   -0.1219   -5.6586 C   0  0  0  0  0  0  0  0  0  0  0  0
    3.4826   -0.4486   -4.4041 C   0  0  0  0  0  0  0  0  0  0  0  0
    4.8592   -0.5221   -4.4072 C   0  0  0  0  0  0  0  0  0  0  0  0
    5.6546   -0.2396   -5.5655 C   0  0  0  0  0  0  0  0  0  0  0  0
    5.1122    0.0573   -6.8041 C   0  0  0  0  0  0  0  0  0  0  0  0
    3.6903    0.0940   -6.8318 C   0  0  0  0  0  0  0  0  0  0  0  0
    2.7638    0.2651   -7.9869 C   0  0  0  0  0  0  0  0  0  0  0  0
    3.0150   -0.1361   -9.2469 C   0  0  0  0  0  0  0  0  0  0  0  0
    4.3303   -0.0874   -9.8210 C   0  0  0  0  0  0  0  0  0  0  0  0
    5.3960   -0.0431  -10.2911 N   0  0  0  0  0  0  0  0  0  0  0  0
    2.0642   -1.0061   -9.9124 C   0  0  0  0  0  0  0  0  0  0  0  0
    1.3705   -1.8172  -10.3389 N   0  0  0  0  0  0  0  0  0  0  0  0
    6.9089   -0.4435   -4.7766 C   0  0  0  0  0  0  0  0  0  0  0  0
    7.6575    0.8457   -4.3308 C   0  0  0  0  0  0  0  0  0  0  0  0
    8.6392    0.3861   -3.2860 C   0  0  0  0  0  0  0  0  0  0  0  0
    7.9207    0.0434   -2.2082 C   0  0  0  0  0  0  0  0  0  0  0  0
    6.4755    0.2953   -2.5608 C   0  0  0  0  0  0  0  0  0  0  0  0
    6.6546    1.5393   -3.4181 C   0  0  0  0  0  0  0  0  0  0  0  0
    6.0981   -0.7889   -3.6030 C   0  0  0  0  0  0  0  0  0  0  0  0
   -0.7650    1.5262   -7.2193 C   0  0  0  0  0  0  0  0  0  0  0  0
   -2.0669    1.0670   -7.3047 C   0  0  0  0  0  0  0  0  0  0  0  0
   -2.8700    1.4828   -6.2207 C   0  0  0  0  0  0  0  0  0  0  0  0
   -4.1591    0.9733   -5.9308 C   0  0  0  0  0  0  0  0  0  0  0  0
   -4.8852    0.1990   -6.9579 C   0  0  0  0  0  0  0  0  0  0  0  0
   -5.2306   -1.1458   -6.7663 C   0  0  0  0  0  0  0  0  0  0  0  0
   -5.7032   -1.9106   -7.8384 C   0  0  0  0  0  0  0  0  0  0  0  0
   -5.8029   -1.3514   -9.1174 C   0  0  0  0  0  0  0  0  0  0  0  0
   -6.2534   -2.3716  -10.5123 S   0  0  0  0  0  0  0  0  0  0  0  0
   -4.5571   -2.9889  -10.8240 C   0  0  0  0  0  0  0  0  0  0  0  0
   -3.6865   -1.9445  -11.5162 C   0  0  0  0  0  0  0  0  0  0  0  0
   -5.5282    0.0073   -9.2980 C   0  0  0  0  0  0  0  0  0  0  0  0
   -5.6320    0.5762  -10.5278 F   0  0  0  0  0  0  0  0  0  0  0  0
   -5.0753    0.7790   -8.2256 C   0  0  0  0  0  0  0  0  0  0  0  0
   -4.6284    1.1691   -4.6194 C   0  0  0  0  0  0  0  0  0  0  0  0
   -3.9246    1.9458   -3.6924 C   0  0  0  0  0  0  0  0  0  0  0  0
   -2.7468    2.6591   -4.0634 C   0  0  0  0  0  0  0  0  0  0  0  0
   -2.1493    3.6552   -3.1291 C   0  0  0  0  0  0  0  0  0  0  0  0
   -0.7733    3.7054   -2.8676 C   0  0  0  0  0  0  0  0  0  0  0  0
   -0.2625    4.6073   -1.9164 C   0  0  0  0  0  0  0  0  0  0  0  0
   -1.1256    5.3876   -1.1498 C   0  0  0  0  0  0  0  0  0  0  0  0
   -0.4856    6.2923    0.2569 S   0  0  0  0  0  0  0  0  0  0  0  0
   -0.4986    7.9475   -0.5218 C   0  0  0  0  0  0  0  0  0  0  0  0
   -1.4452    8.8560    0.2538 C   0  0  0  0  0  0  0  0  0  0  0  0
   -2.4944    5.3713   -1.4250 C   0  0  0  0  0  0  0  0  0  0  0  0
   -2.9940    4.5401   -2.4278 C   0  0  0  0  0  0  0  0  0  0  0  0
   -3.3565    6.1446   -0.7150 F   0  0  0  0  0  0  0  0  0  0  0  0
   -2.2044    2.3238   -5.3209 C   0  0  0  0  0  0  0  0  0  0  0  0
   -0.6254    2.5332   -5.8742 S   0  0  0  0  0  0  0  0  0  0  0  0
   -4.3548    1.7555   -2.3748 C   0  0  0  0  0  0  0  0  0  0  0  0
   -5.3512    0.7911   -2.2321 C   0  0  0  0  0  0  0  0  0  0  0  0
   -5.7717    0.2638   -3.7795 S   0  0  0  0  0  0  0  0  0  0  0  0
   -5.4110   -0.0149   -0.9910 C   0  0  0  0  0  0  0  0  0  0  0  0
   -4.7397   -1.2536   -0.9316 C   0  0  0  0  0  0  0  0  0  0  0  0
   -4.3593   -1.9168   -2.1130 O   0  0  0  0  0  0  0  0  0  0  0  0
   -5.1864   -2.8728   -2.7684 C   0  0  0  0  0  0  0  0  0  0  0  0
   -4.3235   -3.7419   -3.6630 C   0  0  0  0  0  0  0  0  0  0  0  0
   -4.3341   -1.7887    0.3156 C   0  0  0  0  0  0  0  0  0  0  0  0
   -3.7091   -3.0344    0.3001 O   0  0  0  0  0  0  0  0  0  0  0  0
   -4.4281   -4.2473    0.5577 C   0  0  0  0  0  0  0  0  0  0  0  0
   -3.4871   -5.4300    0.4353 C   0  0  0  0  0  0  0  0  0  0  0  0
   -4.5155   -1.0535    1.5262 C   0  0  0  0  0  0  0  0  0  0  0  0
   -5.3937    0.0474    1.4762 C   0  0  0  0  0  0  0  0  0  0  0  0
   -5.8114    0.5858    0.2123 C   0  0  0  0  0  0  0  0  0  0  0  0
   -6.6178    1.6777    0.2587 N   0  0  0  0  0  0  0  0  0  0  0  0
   -6.7998    1.8543    1.8952 S   0  0  0  0  0  0  0  0  0  0  0  0
   -5.8828    0.6634    2.5821 N   0  0  0  0  0  0  0  0  0  0  0  0
   -3.7409   -1.3840    2.7771 C   0  0  0  0  0  0  0  0  0  0  0  0
   -3.0913   -0.4928    3.6709 C   0  0  0  0  0  0  0  0  0  0  0  0
   -2.8027    0.8920    3.3343 N   0  0  0  0  0  0  0  0  0  0  0  0
   -3.6116    1.9505    3.8943 C   0  0  0  0  0  0  0  0  0  0  0  0
   -3.8294    2.0275    5.2865 C   0  0  0  0  0  0  0  0  0  0  0  0
   -4.3232    3.2060    5.8646 C   0  0  0  0  0  0  0  0  0  0  0  0
   -4.6620    4.2940    5.0528 C   0  0  0  0  0  0  0  0  0  0  0  0
   -5.3062    5.8040    5.7861 S   0  0  0  0  0  0  0  0  0  0  0  0
   -3.6585    6.5395    6.0584 C   0  0  0  0  0  0  0  0  0  0  0  0
   -4.5232    4.2039    3.6623 C   0  0  0  0  0  0  0  0  0  0  0  0
   -3.9932    3.0392    3.0891 C   0  0  0  0  0  0  0  0  0  0  0  0
   -1.5415    1.1986    2.6732 C   0  0  0  0  0  0  0  0  0  0  0  0
   -0.7933    0.1832    2.0386 C   0  0  0  0  0  0  0  0  0  0  0  0
    0.4438    0.4661    1.4549 C   0  0  0  0  0  0  0  0  0  0  0  0
    0.9332    1.7714    1.4403 C   0  0  0  0  0  0  0  0  0  0  0  0
    2.5203    2.1440    0.6877 S   0  0  0  0  0  0  0  0  0  0  0  0
    1.9638    1.7369   -1.0000 C   0  0  0  0  0  0  0  0  0  0  0  0
    0.2052    2.7971    2.0395 C   0  0  0  0  0  0  0  0  0  0  0  0
   -0.9943    2.5051    2.6898 C   0  0  0  0  0  0  0  0  0  0  0  0
   -2.2562   -1.1892    4.5751 C   0  0  0  0  0  0  0  0  0  0  0  0
   -0.9970   -0.6905    5.5627 S   0  0  0  0  0  0  0  0  0  0  0  0
   -0.1737   -2.1938    5.5723 C   0  0  0  0  0  0  0  0  0  0  0  0
   -0.8861   -3.0992    4.7719 C   0  0  0  0  0  0  0  0  0  0  0  0
   -0.2239   -4.1581    4.0477 N   0  0  0  0  0  0  0  0  0  0  0  0
   -0.2516   -5.5292    4.5195 C   0  0  0  0  0  0  0  0  0  0  0  0
   -1.0319   -5.9066    5.6299 C   0  0  0  0  0  0  0  0  0  0  0  0
   -1.0178   -7.2298    6.0954 C   0  0  0  0  0  0  0  0  0  0  0  0
   -0.2176   -8.1863    5.4663 C   0  0  0  0  0  0  0  0  0  0  0  0
   -0.1512   -9.8731    6.0834 S   0  0  0  0  0  0  0  0  0  0  0  0
   -1.2255  -10.5887    4.7917 C   0  0  0  0  0  0  0  0  0  0  0  0
    0.5415   -7.8291    4.3556 C   0  0  0  0  0  0  0  0  0  0  0  0
    0.5088   -6.5240    3.8666 C   0  0  0  0  0  0  0  0  0  0  0  0
    0.6973   -3.7595    3.0165 C   0  0  0  0  0  0  0  0  0  0  0  0
    0.2475   -3.4566    1.7190 C   0  0  0  0  0  0  0  0  0  0  0  0
    1.1703   -3.0807    0.7340 C   0  0  0  0  0  0  0  0  0  0  0  0
    2.5424   -3.0558    1.0237 C   0  0  0  0  0  0  0  0  0  0  0  0
    3.7371   -2.5919   -0.2278 S   0  0  0  0  0  0  0  0  0  0  0  0
    4.0839   -0.9373    0.4597 C   0  0  0  0  0  0  0  0  0  0  0  0
    2.9932   -3.3919    2.3018 C   0  0  0  0  0  0  0  0  0  0  0  0
    2.0709   -3.7335    3.2907 C   0  0  0  0  0  0  0  0  0  0  0  0
   -2.0838   -2.5215    4.3241 C   0  0  0  0  0  0  0  0  0  0  0  0
   -3.0997   -2.9254    3.0859 S   0  0  0  0  0  0  0  0  0  0  0  0
    1.1495   -2.4577    6.1809 C   0  0  0  0  0  0  0  0  0  0  0  0
    2.2118   -1.6557    5.9882 C   0  0  0  0  0  0  0  0  0  0  0  0
    2.2339   -0.4856    5.1206 C   0  0  0  0  0  0  0  0  0  0  0  0
    1.5305   -0.3144    4.0953 O   0  0  0  0  0  0  0  0  0  0  0  0
    3.3300    0.3514    5.5168 C   0  0  0  0  0  0  0  0  0  0  0  0
    3.6547    1.6088    4.9731 C   0  0  0  0  0  0  0  0  0  0  0  0
    4.8054    2.1558    5.4878 C   0  0  0  0  0  0  0  0  0  0  0  0
    5.6132    1.5083    6.4768 C   0  0  0  0  0  0  0  0  0  0  0  0
    5.2798    0.2878    7.0497 C   0  0  0  0  0  0  0  0  0  0  0  0
    4.0843   -0.2952    6.5324 C   0  0  0  0  0  0  0  0  0  0  0  0
    3.4577   -1.6220    6.8049 C   0  0  0  0  0  0  0  0  0  0  0  0
    4.0794   -2.7031    7.3308 C   0  0  0  0  0  0  0  0  0  0  0  0
    3.9688   -3.9686    6.6459 C   0  0  0  0  0  0  0  0  0  0  0  0
    3.9264   -4.9512    6.0327 N   0  0  0  0  0  0  0  0  0  0  0  0
    5.2056   -2.5947    8.2233 C   0  0  0  0  0  0  0  0  0  0  0  0
    6.1182   -2.5304    8.9347 N   0  0  0  0  0  0  0  0  0  0  0  0
    6.5859    2.6532    6.4567 C   0  0  0  0  0  0  0  0  0  0  0  0
    6.5836    3.6191    7.6786 C   0  0  0  0  0  0  0  0  0  0  0  0
    5.2139    3.6268    8.3086 C   0  0  0  0  0  0  0  0  0  0  0  0
    4.3942    4.2049    7.4310 C   0  0  0  0  0  0  0  0  0  0  0  0
    5.2474    4.6041    6.2366 C   0  0  0  0  0  0  0  0  0  0  0  0
    6.5322    4.9593    6.9617 C   0  0  0  0  0  0  0  0  0  0  0  0
    5.7299    3.3331    5.4738 C   0  0  0  0  0  0  0  0  0  0  0  0
    0.4028    1.2011   -9.0418 H   0  0  0  0  0  0  0  0  0  0  0  0
    2.8898   -0.6419   -3.5251 H   0  0  0  0  0  0  0  0  0  0  0  0
    5.7389    0.2424   -7.6542 H   0  0  0  0  0  0  0  0  0  0  0  0
    7.5404   -1.2755   -5.1557 H   0  0  0  0  0  0  0  0  0  0  0  0
    8.0794    1.4668   -5.1507 H   0  0  0  0  0  0  0  0  0  0  0  0
    9.7213    0.4229   -3.3427 H   0  0  0  0  0  0  0  0  0  0  0  0
    8.3230   -0.2562   -1.2481 H   0  0  0  0  0  0  0  0  0  0  0  0
    5.7877    0.3994   -1.6969 H   0  0  0  0  0  0  0  0  0  0  0  0
    5.7226    1.8672   -3.9368 H   0  0  0  0  0  0  0  0  0  0  0  0
    7.0967    2.4030   -2.8601 H   0  0  0  0  0  0  0  0  0  0  0  0
    6.1944   -1.8432   -3.2624 H   0  0  0  0  0  0  0  0  0  0  0  0
   -2.3927    0.3569   -8.0492 H   0  0  0  0  0  0  0  0  0  0  0  0
   -5.0728   -1.6219   -5.8037 H   0  0  0  0  0  0  0  0  0  0  0  0
   -5.9274   -2.9603   -7.6928 H   0  0  0  0  0  0  0  0  0  0  0  0
   -4.6324   -3.8821  -11.4849 H   0  0  0  0  0  0  0  0  0  0  0  0
   -4.0767   -3.3064   -9.8772 H   0  0  0  0  0  0  0  0  0  0  0  0
   -2.7312   -2.4101  -11.8393 H   0  0  0  0  0  0  0  0  0  0  0  0
   -4.2016   -1.5419  -12.4113 H   0  0  0  0  0  0  0  0  0  0  0  0
   -3.4461   -1.1104  -10.8255 H   0  0  0  0  0  0  0  0  0  0  0  0
   -4.8166    1.8171   -8.3980 H   0  0  0  0  0  0  0  0  0  0  0  0
   -0.0915    3.0100   -3.3377 H   0  0  0  0  0  0  0  0  0  0  0  0
    0.7980    4.6401   -1.7214 H   0  0  0  0  0  0  0  0  0  0  0  0
   -0.8107    7.9032   -1.5857 H   0  0  0  0  0  0  0  0  0  0  0  0
    0.5279    8.3740   -0.4787 H   0  0  0  0  0  0  0  0  0  0  0  0
   -2.4588    8.4013    0.2991 H   0  0  0  0  0  0  0  0  0  0  0  0
   -1.0693    8.9950    1.2905 H   0  0  0  0  0  0  0  0  0  0  0  0
   -1.5176    9.8454   -0.2461 H   0  0  0  0  0  0  0  0  0  0  0  0
   -4.0618    4.5523   -2.6168 H   0  0  0  0  0  0  0  0  0  0  0  0
   -3.8254    2.1441   -1.5175 H   0  0  0  0  0  0  0  0  0  0  0  0
   -5.7233   -3.5029   -2.0362 H   0  0  0  0  0  0  0  0  0  0  0  0
   -5.9650   -2.3694   -3.3710 H   0  0  0  0  0  0  0  0  0  0  0  0
   -4.9639   -4.4230   -4.2566 H   0  0  0  0  0  0  0  0  0  0  0  0
   -3.6225   -4.3415   -3.0425 H   0  0  0  0  0  0  0  0  0  0  0  0
   -3.7295   -3.0946   -4.3457 H   0  0  0  0  0  0  0  0  0  0  0  0
   -4.8926   -4.2366    1.5635 H   0  0  0  0  0  0  0  0  0  0  0  0
   -5.2575   -4.3737   -0.1511 H   0  0  0  0  0  0  0  0  0  0  0  0
   -4.0149   -6.3644    0.7148 H   0  0  0  0  0  0  0  0  0  0  0  0
   -2.6179   -5.2961    1.1082 H   0  0  0  0  0  0  0  0  0  0  0  0
   -3.1253   -5.5184   -0.6088 H   0  0  0  0  0  0  0  0  0  0  0  0
   -3.4839    1.2342    5.9393 H   0  0  0  0  0  0  0  0  0  0  0  0
   -4.4238    3.2869    6.9434 H   0  0  0  0  0  0  0  0  0  0  0  0
   -3.7804    7.5894    6.4071 H   0  0  0  0  0  0  0  0  0  0  0  0
   -3.0767    6.5445    5.1122 H   0  0  0  0  0  0  0  0  0  0  0  0
   -3.1104    5.9645    6.8391 H   0  0  0  0  0  0  0  0  0  0  0  0
   -4.7227    5.0573    3.0298 H   0  0  0  0  0  0  0  0  0  0  0  0
   -3.8203    3.0026    2.0188 H   0  0  0  0  0  0  0  0  0  0  0  0
   -1.1400   -0.8391    2.0132 H   0  0  0  0  0  0  0  0  0  0  0  0
    1.0219   -0.3279    1.0113 H   0  0  0  0  0  0  0  0  0  0  0  0
    1.0381    2.2930   -1.2306 H   0  0  0  0  0  0  0  0  0  0  0  0
    1.7582    0.6489   -1.0839 H   0  0  0  0  0  0  0  0  0  0  0  0
    2.7573    2.0020   -1.7316 H   0  0  0  0  0  0  0  0  0  0  0  0
    0.5934    3.8098    2.0481 H   0  0  0  0  0  0  0  0  0  0  0  0
   -1.4707    3.3148    3.2176 H   0  0  0  0  0  0  0  0  0  0  0  0
   -1.6459   -5.1873    6.1569 H   0  0  0  0  0  0  0  0  0  0  0  0
   -1.6079   -7.5041    6.9588 H   0  0  0  0  0  0  0  0  0  0  0  0
   -1.4935   -9.8586    4.0035 H   0  0  0  0  0  0  0  0  0  0  0  0
   -2.1542  -10.9687    5.2657 H   0  0  0  0  0  0  0  0  0  0  0  0
   -0.6888  -11.4363    4.3143 H   0  0  0  0  0  0  0  0  0  0  0  0
    1.1541   -8.5714    3.8572 H   0  0  0  0  0  0  0  0  0  0  0  0
    1.0948   -6.2954    2.9894 H   0  0  0  0  0  0  0  0  0  0  0  0
   -0.8069   -3.5289    1.4644 H   0  0  0  0  0  0  0  0  0  0  0  0
    0.8308   -2.8220   -0.2592 H   0  0  0  0  0  0  0  0  0  0  0  0
    3.9236   -0.1901   -0.3458 H   0  0  0  0  0  0  0  0  0  0  0  0
    3.4401   -0.6964    1.3355 H   0  0  0  0  0  0  0  0  0  0  0  0
    5.1487   -0.8976    0.7737 H   0  0  0  0  0  0  0  0  0  0  0  0
    4.0536   -3.3749    2.5241 H   0  0  0  0  0  0  0  0  0  0  0  0
    2.4156   -3.9889    4.2791 H   0  0  0  0  0  0  0  0  0  0  0  0
    1.2434   -3.3050    6.8503 H   0  0  0  0  0  0  0  0  0  0  0  0
    3.0748    2.0977    4.2152 H   0  0  0  0  0  0  0  0  0  0  0  0
    5.8796   -0.1330    7.8322 H   0  0  0  0  0  0  0  0  0  0  0  0
    7.5887    2.3872    6.0619 H   0  0  0  0  0  0  0  0  0  0  0  0
    7.4277    3.4843    8.3899 H   0  0  0  0  0  0  0  0  0  0  0  0
    4.9399    3.2635    9.2909 H   0  0  0  0  0  0  0  0  0  0  0  0
    3.3323    4.3896    7.5856 H   0  0  0  0  0  0  0  0  0  0  0  0
    4.8115    5.4035    5.6051 H   0  0  0  0  0  0  0  0  0  0  0  0
    6.4193    5.8239    7.6580 H   0  0  0  0  0  0  0  0  0  0  0  0
    7.3986    5.1365    6.2745 H   0  0  0  0  0  0  0  0  0  0  0  0
    6.2242    3.5349    4.4928 H   0  0  0  0  0  0  0  0  0  0  0  0
  1  2  2  3
  2  3  1  0
  3  4  2  0
  3  5  1  0
  5  6  2  0
  6  7  1  0
  7  8  2  0
  8  9  1  0
  9 10  2  0
 10 11  1  0
 11 12  2  3
 12 13  1  0
 13 14  3  0
 12 15  1  0
 15 16  3  0
  8 17  1  0
 17 18  1  0
 18 19  1  0
 19 20  2  0
 20 21  1  0
 21 22  1  0
 21 23  1  0
  1 24  1  0
 24 25  2  0
 25 26  1  0
 26 27  2  0
 27 28  1  0
 28 29  2  0
 29 30  1  0
 30 31  2  0
 31 32  1  0
 32 33  1  0
 33 34  1  0
 31 35  1  0
 35 36  1  0
 35 37  2  0
 27 38  1  0
 38 39  2  0
 39 40  1  0
 40 41  1  0
 41 42  2  0
 42 43  1  0
 43 44  2  0
 44 45  1  0
 45 46  1  0
 46 47  1  0
 44 48  1  0
 48 49  2  0
 48 50  1  0
 40 51  2  0
 51 52  1  0
 39 53  1  0
 53 54  2  0
 54 55  1  0
 54 56  1  0
 56 57  2  0
 57 58  1  0
 58 59  1  0
 59 60  1  0
 57 61  1  0
 61 62  1  0
 62 63  1  0
 63 64  1  0
 61 65  2  0
 65 66  1  0
 66 67  1  0
 67 68  2  0
 68 69  1  0
 69 70  1  0
 65 71  1  0
 71 72  2  0
 72 73  1  0
 73 74  1  0
 74 75  2  0
 75 76  1  0
 76 77  2  0
 77 78  1  0
 78 79  1  0
 77 80  1  0
 80 81  2  0
 73 82  1  0
 82 83  2  0
 83 84  1  0
 84 85  2  0
 85 86  1  0
 86 87  1  0
 85 88  1  0
 88 89  2  0
 72 90  1  0
 90 91  1  0
 91 92  1  0
 92 93  2  0
 93 94  1  0
 94 95  1  0
 95 96  2  0
 96 97  1  0
 97 98  2  0
 98 99  1  0
 99100  1  0
 98101  1  0
101102  2  0
 94103  1  0
103104  2  0
104105  1  0
105106  2  0
106107  1  0
107108  1  0
106109  1  0
109110  2  0
 93111  1  0
111112  1  0
 92113  1  0
113114  2  3
114115  1  0
115116  2  0
115117  1  0
117118  2  0
118119  1  0
119120  2  0
120121  1  0
121122  2  0
122123  1  0
123124  2  3
124125  1  0
125126  3  0
124127  1  0
127128  3  0
120129  1  0
129130  1  0
130131  1  0
131132  2  0
132133  1  0
133134  1  0
133135  1  0
 11  2  1  0
 23 17  1  0
 52 24  1  0
 67 56  1  0
112 71  1  0
123114  1  0
135129  1  0
 10  5  1  0
 22 18  1  0
 51 26  1  0
 70 66  2  0
 81 74  1  0
 89 82  1  0
111 90  2  0
122117  1  0
134130  1  0
 23  7  1  0
 37 28  1  0
 55 38  1  0
102 95  1  0
110103  1  0
135119  1  0
 49 41  1  0
  1136  1  0
  6137  1  0
  9138  1  0
 17139  1  0
 18140  1  0
 19141  1  0
 20142  1  0
 21143  1  0
 22144  1  0
 22145  1  0
 23146  1  0
 25147  1  0
 29148  1  0
 30149  1  0
 33150  1  0
 33151  1  0
 34152  1  0
 34153  1  0
 34154  1  0
 37155  1  0
 42156  1  0
 43157  1  0
 46158  1  0
 46159  1  0
 47160  1  0
 47161  1  0
 47162  1  0
 49163  1  0
 53164  1  0
 59165  1  0
 59166  1  0
 60167  1  0
 60168  1  0
 60169  1  0
 63170  1  0
 63171  1  0
 64172  1  0
 64173  1  0
 64174  1  0
 75175  1  0
 76176  1  0
 79177  1  0
 79178  1  0
 79179  1  0
 80180  1  0
 81181  1  0
 83182  1  0
 84183  1  0
 87184  1  0
 87185  1  0
 87186  1  0
 88187  1  0
 89188  1  0
 96189  1  0
 97190  1  0
100191  1  0
100192  1  0
100193  1  0
101194  1  0
102195  1  0
104196  1  0
105197  1  0
108198  1  0
108199  1  0
108200  1  0
109201  1  0
110202  1  0
113203  1  0
118204  1  0
121205  1  0
129206  1  0
130207  1  0
131208  1  0
132209  1  0
133210  1  0
134211  1  0
134212  1  0
135213  1  0
M  END

