
     RDKit          3D

205226  0  0  0  0  0  0  0  0999 V2000
   -6.3644   -6.3756   -0.5841 C   0  0  0  0  0  0  0  0  0  0  0  0
   -5.3622   -6.9431   -1.2849 C   0  0  0  0  0  0  0  0  0  0  0  0
   -4.0094   -6.3774   -1.4094 C   0  0  0  0  0  0  0  0  0  0  0  0
   -3.3985   -5.7018   -0.5368 O   0  0  0  0  0  0  0  0  0  0  0  0
   -3.4855   -6.7129   -2.7108 C   0  0  0  0  0  0  0  0  0  0  0  0
   -2.3765   -6.1123   -3.3477 C   0  0  0  0  0  0  0  0  0  0  0  0
   -2.2768   -6.4291   -4.6882 C   0  0  0  0  0  0  0  0  0  0  0  0
   -3.2024   -7.2899   -5.3662 C   0  0  0  0  0  0  0  0  0  0  0  0
   -4.2849   -7.8890   -4.7420 C   0  0  0  0  0  0  0  0  0  0  0  0
   -4.4047   -7.5796   -3.3595 C   0  0  0  0  0  0  0  0  0  0  0  0
   -5.5268   -7.8833   -2.4278 C   0  0  0  0  0  0  0  0  0  0  0  0
   -6.3834   -8.9258   -2.4965 C   0  0  0  0  0  0  0  0  0  0  0  0
   -6.3420   -9.8817   -3.5711 C   0  0  0  0  0  0  0  0  0  0  0  0
   -6.3118  -10.6573   -4.4293 N   0  0  0  0  0  0  0  0  0  0  0  0
   -7.2775   -9.2445   -1.4142 C   0  0  0  0  0  0  0  0  0  0  0  0
   -7.9928   -9.5165   -0.5435 N   0  0  0  0  0  0  0  0  0  0  0  0
   -2.5127   -7.0267   -6.6720 C   0  0  0  0  0  0  0  0  0  0  0  0
   -3.2480   -6.0679   -7.6532 C   0  0  0  0  0  0  0  0  0  0  0  0
   -2.2167   -5.6467   -8.6727 C   0  0  0  0  0  0  0  0  0  0  0  0
   -1.3589   -4.8400   -8.0362 C   0  0  0  0  0  0  0  0  0  0  0  0
   -1.8392   -4.7458   -6.6076 C   0  0  0  0  0  0  0  0  0  0  0  0
   -3.3375   -4.7703   -6.8646 C   0  0  0  0  0  0  0  0  0  0  0  0
   -1.5691   -6.1452   -5.9756 C   0  0  0  0  0  0  0  0  0  0  0  0
   -6.1912   -5.0466    0.0219 C   0  0  0  0  0  0  0  0  0  0  0  0
   -5.8067   -3.9340   -0.7208 C   0  0  0  0  0  0  0  0  0  0  0  0
   -5.2087   -2.9343    0.0539 C   0  0  0  0  0  0  0  0  0  0  0  0
   -4.5637   -1.7899   -0.4496 C   0  0  0  0  0  0  0  0  0  0  0  0
   -4.5235   -1.4973   -1.9008 C   0  0  0  0  0  0  0  0  0  0  0  0
   -3.3198   -1.6159   -2.6150 C   0  0  0  0  0  0  0  0  0  0  0  0
   -3.3014   -1.4200   -3.9998 C   0  0  0  0  0  0  0  0  0  0  0  0
   -4.4761   -1.0799   -4.6778 C   0  0  0  0  0  0  0  0  0  0  0  0
   -4.4374   -0.8651   -6.4652 S   0  0  0  0  0  0  0  0  0  0  0  0
   -3.8720    0.8717   -6.4129 C   0  0  0  0  0  0  0  0  0  0  0  0
   -5.0514    1.8262   -6.2874 C   0  0  0  0  0  0  0  0  0  0  0  0
   -5.6798   -0.9569   -3.9693 C   0  0  0  0  0  0  0  0  0  0  0  0
   -6.8309   -0.6556   -4.6212 F   0  0  0  0  0  0  0  0  0  0  0  0
   -5.7025   -1.1672   -2.5862 C   0  0  0  0  0  0  0  0  0  0  0  0
   -3.8498   -1.0149    0.4771 C   0  0  0  0  0  0  0  0  0  0  0  0
   -3.7761   -1.3232    1.8402 C   0  0  0  0  0  0  0  0  0  0  0  0
   -4.4776   -2.4380    2.3532 C   0  0  0  0  0  0  0  0  0  0  0  0
   -4.5476   -2.7233    3.8043 C   0  0  0  0  0  0  0  0  0  0  0  0
   -4.1736   -3.9762    4.3159 C   0  0  0  0  0  0  0  0  0  0  0  0
   -4.3850   -4.2773    5.6644 C   0  0  0  0  0  0  0  0  0  0  0  0
   -4.9651   -3.3275    6.5147 C   0  0  0  0  0  0  0  0  0  0  0  0
   -5.2943   -3.7451    8.2314 S   0  0  0  0  0  0  0  0  0  0  0  0
   -6.9292   -4.5027    7.9077 C   0  0  0  0  0  0  0  0  0  0  0  0
   -8.0209   -3.4473    7.7803 C   0  0  0  0  0  0  0  0  0  0  0  0
   -5.2831   -2.0546    6.0224 C   0  0  0  0  0  0  0  0  0  0  0  0
   -5.0783   -1.7564    4.6721 C   0  0  0  0  0  0  0  0  0  0  0  0
   -5.8118   -1.1097    6.8409 F   0  0  0  0  0  0  0  0  0  0  0  0
   -5.1588   -3.2436    1.4174 C   0  0  0  0  0  0  0  0  0  0  0  0
   -5.8474   -4.7683    1.6467 S   0  0  0  0  0  0  0  0  0  0  0  0
   -2.8725   -0.4980    2.5439 C   0  0  0  0  0  0  0  0  0  0  0  0
   -2.2363    0.4442    1.7252 C   0  0  0  0  0  0  0  0  0  0  0  0
   -2.8428    0.2794    0.1582 S   0  0  0  0  0  0  0  0  0  0  0  0
   -1.0567    1.2631    2.0806 C   0  0  0  0  0  0  0  0  0  0  0  0
   -0.3312    2.0996    1.2068 C   0  0  0  0  0  0  0  0  0  0  0  0
   -0.6450    2.3592   -0.1713 N   0  0  0  0  0  0  0  0  0  0  0  0
   -0.1646    1.4640   -1.2131 C   0  0  0  0  0  0  0  0  0  0  0  0
   -0.8463    1.3704   -2.4435 C   0  0  0  0  0  0  0  0  0  0  0  0
   -0.3754    0.5256   -3.4553 C   0  0  0  0  0  0  0  0  0  0  0  0
    0.7702   -0.2452   -3.2512 C   0  0  0  0  0  0  0  0  0  0  0  0
    1.4062   -1.2882   -4.5664 S   0  0  0  0  0  0  0  0  0  0  0  0
    0.6489   -2.8146   -3.9189 C   0  0  0  0  0  0  0  0  0  0  0  0
    1.4490   -0.1680   -2.0325 C   0  0  0  0  0  0  0  0  0  0  0  0
    0.9736    0.6587   -1.0117 C   0  0  0  0  0  0  0  0  0  0  0  0
   -1.1713    3.6665   -0.4880 C   0  0  0  0  0  0  0  0  0  0  0  0
   -0.6265    4.4270   -1.5396 C   0  0  0  0  0  0  0  0  0  0  0  0
   -1.0667    5.7296   -1.7761 C   0  0  0  0  0  0  0  0  0  0  0  0
   -2.0440    6.3013   -0.9539 C   0  0  0  0  0  0  0  0  0  0  0  0
   -2.5252    8.0110   -1.2018 S   0  0  0  0  0  0  0  0  0  0  0  0
   -3.8469    7.6037   -2.3851 C   0  0  0  0  0  0  0  0  0  0  0  0
   -2.5969    5.5572    0.0932 C   0  0  0  0  0  0  0  0  0  0  0  0
   -2.1680    4.2439    0.3230 C   0  0  0  0  0  0  0  0  0  0  0  0
    0.8349    2.5650    1.7937 C   0  0  0  0  0  0  0  0  0  0  0  0
    2.1816    3.3088    1.1547 S   0  0  0  0  0  0  0  0  0  0  0  0
    3.1479    3.0556    2.5344 C   0  0  0  0  0  0  0  0  0  0  0  0
    2.3880    2.3778    3.5122 C   0  0  0  0  0  0  0  0  0  0  0  0
    2.8124    2.1420    4.8633 N   0  0  0  0  0  0  0  0  0  0  0  0
    3.9133    1.2685    5.1477 C   0  0  0  0  0  0  0  0  0  0  0  0
    3.8574   -0.0811    4.7698 C   0  0  0  0  0  0  0  0  0  0  0  0
    4.9646   -0.9091    4.9614 C   0  0  0  0  0  0  0  0  0  0  0  0
    6.1460   -0.3868    5.5081 C   0  0  0  0  0  0  0  0  0  0  0  0
    7.5884   -1.4410    5.6864 S   0  0  0  0  0  0  0  0  0  0  0  0
    7.1946   -1.9027    7.4009 C   0  0  0  0  0  0  0  0  0  0  0  0
    6.1993    0.9525    5.9112 C   0  0  0  0  0  0  0  0  0  0  0  0
    5.0774    1.7714    5.7532 C   0  0  0  0  0  0  0  0  0  0  0  0
    2.2823    2.9775    5.9043 C   0  0  0  0  0  0  0  0  0  0  0  0
    1.6372    2.4053    7.0115 C   0  0  0  0  0  0  0  0  0  0  0  0
    1.1111    3.2224    8.0173 C   0  0  0  0  0  0  0  0  0  0  0  0
    1.2479    4.6132    7.9317 C   0  0  0  0  0  0  0  0  0  0  0  0
    0.6081    5.6563    9.2399 S   0  0  0  0  0  0  0  0  0  0  0  0
   -0.9443    6.0119    8.3583 C   0  0  0  0  0  0  0  0  0  0  0  0
    1.9116    5.1866    6.8395 C   0  0  0  0  0  0  0  0  0  0  0  0
    2.4179    4.3724    5.8230 C   0  0  0  0  0  0  0  0  0  0  0  0
    1.0912    2.1259    3.0494 C   0  0  0  0  0  0  0  0  0  0  0  0
   -0.1699    1.1242    3.5462 S   0  0  0  0  0  0  0  0  0  0  0  0
    4.6031    3.2590    2.4801 C   0  0  0  0  0  0  0  0  0  0  0  0
    5.2829    4.4775    1.5224 S   0  0  0  0  0  0  0  0  0  0  0  0
    6.7383    3.7015    1.2357 C   0  0  0  0  0  0  0  0  0  0  0  0
    7.4872    3.6983   -0.0182 C   0  0  0  0  0  0  0  0  0  0  0  0
    8.1032    2.5062   -0.3226 C   0  0  0  0  0  0  0  0  0  0  0  0
    7.8857    1.1987    1.0542 Ge  0  0  0  0  0  4  0  0  0  0  0  0
    9.5501    0.8775    2.0173 C   0  0  0  0  0  0  0  0  0  0  0  0
    9.4359    1.3533    3.4574 C   0  0  0  0  0  0  0  0  0  0  0  0
    6.9429   -0.4006    0.4546 C   0  0  0  0  0  0  0  0  0  0  0  0
    6.8253   -1.4106    1.5871 C   0  0  0  0  0  0  0  0  0  0  0  0
    6.7166    2.4808    1.8739 C   0  0  0  0  0  0  0  0  0  0  0  0
    5.5198    2.2065    2.5389 C   0  0  0  0  0  0  0  0  0  0  0  0
    8.2594    2.2603   -1.6863 C   0  0  0  0  0  0  0  0  0  0  0  0
    7.7186    3.2691   -2.4858 C   0  0  0  0  0  0  0  0  0  0  0  0
    7.0436    4.4302   -1.4553 S   0  0  0  0  0  0  0  0  0  0  0  0
    7.4961    3.0829   -3.9400 C   0  0  0  0  0  0  0  0  0  0  0  0
    6.4100    3.4846   -4.6292 C   0  0  0  0  0  0  0  0  0  0  0  0
    5.8034    2.6281   -5.6541 C   0  0  0  0  0  0  0  0  0  0  0  0
    6.3981    1.7506   -6.3357 O   0  0  0  0  0  0  0  0  0  0  0  0
    4.3741    2.8743   -5.6672 C   0  0  0  0  0  0  0  0  0  0  0  0
    3.3697    2.1789   -6.3570 C   0  0  0  0  0  0  0  0  0  0  0  0
    2.0453    2.5713   -6.1223 C   0  0  0  0  0  0  0  0  0  0  0  0
    0.9084    2.0232   -6.7254 C   0  0  0  0  0  0  0  0  0  0  0  0
   -0.2693    2.6274   -6.2958 C   0  0  0  0  0  0  0  0  0  0  0  0
    0.0953    3.8267   -5.1576 S   0  0  0  0  0  0  0  0  0  0  0  0
    1.7556    3.5902   -5.2134 C   0  0  0  0  0  0  0  0  0  0  0  0
    2.7569    4.2756   -4.5143 C   0  0  0  0  0  0  0  0  0  0  0  0
    4.0880    3.9099   -4.7781 C   0  0  0  0  0  0  0  0  0  0  0  0
    5.3549    4.4538   -4.2292 C   0  0  0  0  0  0  0  0  0  0  0  0
    5.5853    5.7583   -3.9684 C   0  0  0  0  0  0  0  0  0  0  0  0
    6.9262    6.2951   -3.9839 C   0  0  0  0  0  0  0  0  0  0  0  0
    7.9992    6.7299   -3.9963 N   0  0  0  0  0  0  0  0  0  0  0  0
    4.5187    6.7211   -3.8620 C   0  0  0  0  0  0  0  0  0  0  0  0
    3.6671    7.4986   -3.7924 N   0  0  0  0  0  0  0  0  0  0  0  0
   -7.3722   -6.7565   -0.6480 H   0  0  0  0  0  0  0  0  0  0  0  0
   -1.7290   -5.3945   -2.8638 H   0  0  0  0  0  0  0  0  0  0  0  0
   -5.0181   -8.4518   -5.3031 H   0  0  0  0  0  0  0  0  0  0  0  0
   -2.0588   -7.9318   -7.1290 H   0  0  0  0  0  0  0  0  0  0  0  0
   -4.1990   -6.4479   -8.0765 H   0  0  0  0  0  0  0  0  0  0  0  0
   -2.2152   -5.8671   -9.7360 H   0  0  0  0  0  0  0  0  0  0  0  0
   -0.5412   -4.2937   -8.4930 H   0  0  0  0  0  0  0  0  0  0  0  0
   -1.4620   -3.8705   -6.0388 H   0  0  0  0  0  0  0  0  0  0  0  0
   -3.6979   -3.9086   -7.4766 H   0  0  0  0  0  0  0  0  0  0  0  0
   -3.9555   -4.8371   -5.9451 H   0  0  0  0  0  0  0  0  0  0  0  0
   -0.5116   -6.4862   -5.9899 H   0  0  0  0  0  0  0  0  0  0  0  0
   -5.8355   -3.9143   -1.8011 H   0  0  0  0  0  0  0  0  0  0  0  0
   -2.4051   -1.8863   -2.1059 H   0  0  0  0  0  0  0  0  0  0  0  0
   -2.3735   -1.5313   -4.5471 H   0  0  0  0  0  0  0  0  0  0  0  0
   -3.1571    1.0395   -5.5760 H   0  0  0  0  0  0  0  0  0  0  0  0
   -3.3390    1.0835   -7.3619 H   0  0  0  0  0  0  0  0  0  0  0  0
   -5.7614    1.6686   -7.1274 H   0  0  0  0  0  0  0  0  0  0  0  0
   -5.5793    1.6664   -5.3241 H   0  0  0  0  0  0  0  0  0  0  0  0
   -4.6846    2.8729   -6.3181 H   0  0  0  0  0  0  0  0  0  0  0  0
   -6.6412   -1.0895   -2.0531 H   0  0  0  0  0  0  0  0  0  0  0  0
   -3.7423   -4.7288    3.6661 H   0  0  0  0  0  0  0  0  0  0  0  0
   -4.1180   -5.2576    6.0436 H   0  0  0  0  0  0  0  0  0  0  0  0
   -6.8985   -5.1310    6.9934 H   0  0  0  0  0  0  0  0  0  0  0  0
   -7.1746   -5.1690    8.7617 H   0  0  0  0  0  0  0  0  0  0  0  0
   -9.0119   -3.9442    7.7170 H   0  0  0  0  0  0  0  0  0  0  0  0
   -8.0143   -2.7775    8.6671 H   0  0  0  0  0  0  0  0  0  0  0  0
   -7.8718   -2.8454    6.8620 H   0  0  0  0  0  0  0  0  0  0  0  0
   -5.3687   -0.7843    4.2948 H   0  0  0  0  0  0  0  0  0  0  0  0
   -2.6330   -0.6318    3.5887 H   0  0  0  0  0  0  0  0  0  0  0  0
   -1.7356    1.9584   -2.6245 H   0  0  0  0  0  0  0  0  0  0  0  0
   -0.9034    0.4772   -4.4005 H   0  0  0  0  0  0  0  0  0  0  0  0
   -0.4544   -2.7147   -3.8954 H   0  0  0  0  0  0  0  0  0  0  0  0
    0.9180   -3.6636   -4.5805 H   0  0  0  0  0  0  0  0  0  0  0  0
    1.0253   -3.0305   -2.8964 H   0  0  0  0  0  0  0  0  0  0  0  0
    2.3399   -0.7579   -1.8677 H   0  0  0  0  0  0  0  0  0  0  0  0
    1.5208    0.6865   -0.0802 H   0  0  0  0  0  0  0  0  0  0  0  0
    0.1710    4.0235   -2.1482 H   0  0  0  0  0  0  0  0  0  0  0  0
   -0.6260    6.3046   -2.5812 H   0  0  0  0  0  0  0  0  0  0  0  0
   -3.4445    7.0057   -3.2307 H   0  0  0  0  0  0  0  0  0  0  0  0
   -4.2708    8.5457   -2.7889 H   0  0  0  0  0  0  0  0  0  0  0  0
   -4.6519    7.0334   -1.8740 H   0  0  0  0  0  0  0  0  0  0  0  0
   -3.3479    5.9942    0.7397 H   0  0  0  0  0  0  0  0  0  0  0  0
   -2.5961    3.6837    1.1443 H   0  0  0  0  0  0  0  0  0  0  0  0
    2.9654   -0.4766    4.3001 H   0  0  0  0  0  0  0  0  0  0  0  0
    4.9160   -1.9464    4.6563 H   0  0  0  0  0  0  0  0  0  0  0  0
    6.1206   -2.1627    7.5004 H   0  0  0  0  0  0  0  0  0  0  0  0
    7.8050   -2.7826    7.6864 H   0  0  0  0  0  0  0  0  0  0  0  0
    7.4401   -1.0560    8.0743 H   0  0  0  0  0  0  0  0  0  0  0  0
    7.1063    1.3580    6.3411 H   0  0  0  0  0  0  0  0  0  0  0  0
    5.1343    2.8110    6.0445 H   0  0  0  0  0  0  0  0  0  0  0  0
    1.5437    1.3306    7.0904 H   0  0  0  0  0  0  0  0  0  0  0  0
    0.6206    2.7762    8.8699 H   0  0  0  0  0  0  0  0  0  0  0  0
   -1.5708    6.6785    8.9860 H   0  0  0  0  0  0  0  0  0  0  0  0
   -1.4943    5.0670    8.1664 H   0  0  0  0  0  0  0  0  0  0  0  0
   -0.7247    6.5197    7.3945 H   0  0  0  0  0  0  0  0  0  0  0  0
    2.0202    6.2608    6.7713 H   0  0  0  0  0  0  0  0  0  0  0  0
    2.9332    4.8229    4.9833 H   0  0  0  0  0  0  0  0  0  0  0  0
   10.3726    1.4255    1.5105 H   0  0  0  0  0  0  0  0  0  0  0  0
    9.7816   -0.2072    1.9965 H   0  0  0  0  0  0  0  0  0  0  0  0
   10.3618    1.0993    4.0121 H   0  0  0  0  0  0  0  0  0  0  0  0
    8.5730    0.8615    3.9508 H   0  0  0  0  0  0  0  0  0  0  0  0
    9.2933    2.4541    3.4800 H   0  0  0  0  0  0  0  0  0  0  0  0
    7.5030   -0.8567   -0.3901 H   0  0  0  0  0  0  0  0  0  0  0  0
    5.9286   -0.1086    0.1065 H   0  0  0  0  0  0  0  0  0  0  0  0
    7.8335   -1.7569    1.9002 H   0  0  0  0  0  0  0  0  0  0  0  0
    6.2372   -2.2885    1.2495 H   0  0  0  0  0  0  0  0  0  0  0  0
    6.3112   -0.9553    2.4572 H   0  0  0  0  0  0  0  0  0  0  0  0
    5.2514    1.2038    2.8172 H   0  0  0  0  0  0  0  0  0  0  0  0
    8.5843    1.3063   -2.0794 H   0  0  0  0  0  0  0  0  0  0  0  0
    8.1027    2.3052   -4.3938 H   0  0  0  0  0  0  0  0  0  0  0  0
    3.6092    1.3741   -7.0354 H   0  0  0  0  0  0  0  0  0  0  0  0
    0.9369    1.2232   -7.4577 H   0  0  0  0  0  0  0  0  0  0  0  0
   -1.2609    2.3708   -6.6345 H   0  0  0  0  0  0  0  0  0  0  0  0
    2.4972    5.0352   -3.7935 H   0  0  0  0  0  0  0  0  0  0  0  0
  1  2  2  3
  2  3  1  0
  3  4  2  0
  3  5  1  0
  5  6  2  0
  6  7  1  0
  7  8  2  0
  8  9  1  0
  9 10  2  0
 10 11  1  0
 11 12  2  3
 12 13  1  0
 13 14  3  0
 12 15  1  0
 15 16  3  0
  8 17  1  0
 17 18  1  0
 18 19  1  0
 19 20  2  0
 20 21  1  0
 21 22  1  0
 21 23  1  0
  1 24  1  0
 24 25  2  0
 25 26  1  0
 26 27  2  0
 27 28  1  0
 28 29  2  0
 29 30  1  0
 30 31  2  0
 31 32  1  0
 32 33  1  0
 33 34  1  0
 31 35  1  0
 35 36  1  0
 35 37  2  0
 27 38  1  0
 38 39  2  0
 39 40  1  0
 40 41  1  0
 41 42  2  0
 42 43  1  0
 43 44  2  0
 44 45  1  0
 45 46  1  0
 46 47  1  0
 44 48  1  0
 48 49  2  0
 48 50  1  0
 40 51  2  0
 51 52  1  0
 39 53  1  0
 53 54  2  0
 54 55  1  0
 54 56  1  0
 56 57  2  0
 57 58  1  0
 58 59  1  0
 59 60  2  0
 60 61  1  0
 61 62  2  0
 62 63  1  0
 63 64  1  0
 62 65  1  0
 65 66  2  0
 58 67  1  0
 67 68  2  0
 68 69  1  0
 69 70  2  0
 70 71  1  0
 71 72  1  0
 70 73  1  0
 73 74  2  0
 57 75  1  0
 75 76  1  0
 76 77  1  0
 77 78  2  0
 78 79  1  0
 79 80  1  0
 80 81  2  0
 81 82  1  0
 82 83  2  0
 83 84  1  0
 84 85  1  0
 83 86  1  0
 86 87  2  0
 79 88  1  0
 88 89  2  0
 89 90  1  0
 90 91  2  0
 91 92  1  0
 92 93  1  0
 91 94  1  0
 94 95  2  0
 78 96  1  0
 96 97  1  0
 77 98  1  0
 98 99  1  0
 99100  1  0
100101  1  0
101102  2  0
102103  1  0
103104  1  0
104105  1  0
103106  1  0
106107  1  0
103108  1  0
108109  1  0
102110  1  0
110111  2  0
111112  1  0
111113  1  0
113114  2  3
114115  1  0
115116  2  0
115117  1  0
117118  2  0
118119  1  0
119120  1  0
120121  2  0
121122  1  0
122123  1  0
123124  1  0
124125  2  0
125126  1  0
126127  2  3
127128  1  0
128129  3  0
127130  1  0
130131  3  0
 11  2  1  0
 23 17  1  0
 52 24  1  0
 97 56  1  0
109 98  2  0
126114  1  0
 10  5  1  0
 22 18  1  0
 51 26  1  0
 66 59  1  0
 74 67  1  0
 96 75  2  0
108100  2  0
125117  1  0
 23  7  1  0
 37 28  1  0
 55 38  1  0
 87 80  1  0
 95 88  1  0
112101  1  0
123119  2  0
 49 41  1  0
  1132  1  0
  6133  1  0
  9134  1  0
 17135  1  0
 18136  1  0
 19137  1  0
 20138  1  0
 21139  1  0
 22140  1  0
 22141  1  0
 23142  1  0
 25143  1  0
 29144  1  0
 30145  1  0
 33146  1  0
 33147  1  0
 34148  1  0
 34149  1  0
 34150  1  0
 37151  1  0
 42152  1  0
 43153  1  0
 46154  1  0
 46155  1  0
 47156  1  0
 47157  1  0
 47158  1  0
 49159  1  0
 53160  1  0
 60161  1  0
 61162  1  0
 64163  1  0
 64164  1  0
 64165  1  0
 65166  1  0
 66167  1  0
 68168  1  0
 69169  1  0
 72170  1  0
 72171  1  0
 72172  1  0
 73173  1  0
 74174  1  0
 81175  1  0
 82176  1  0
 85177  1  0
 85178  1  0
 85179  1  0
 86180  1  0
 87181  1  0
 89182  1  0
 90183  1  0
 93184  1  0
 93185  1  0
 93186  1  0
 94187  1  0
 95188  1  0
104189  1  0
104190  1  0
105191  1  0
105192  1  0
105193  1  0
106194  1  0
106195  1  0
107196  1  0
107197  1  0
107198  1  0
109199  1  0
110200  1  0
113201  1  0
118202  1  0
120203  1  0
121204  1  0
124205  1  0
M  END

