
     RDKit          3D

206228  0  0  0  0  0  0  0  0999 V2000
    2.4574    9.0766   -2.5839 C   0  0  0  0  0  0  0  0  0  0  0  0
    3.3784    9.0749   -1.6291 C   0  0  0  0  0  0  0  0  0  0  0  0
    3.9481    8.0093   -0.8756 C   0  0  0  0  0  0  0  0  0  0  0  0
    3.6219    6.8042   -0.8230 O   0  0  0  0  0  0  0  0  0  0  0  0
    5.0732    8.5314   -0.0444 C   0  0  0  0  0  0  0  0  0  0  0  0
    5.9533    7.8286    0.7991 C   0  0  0  0  0  0  0  0  0  0  0  0
    6.9290    8.6127    1.3744 C   0  0  0  0  0  0  0  0  0  0  0  0
    7.0638    9.8928    1.2024 C   0  0  0  0  0  0  0  0  0  0  0  0
    6.1869   10.6012    0.3652 C   0  0  0  0  0  0  0  0  0  0  0  0
    5.1717    9.8700   -0.2690 C   0  0  0  0  0  0  0  0  0  0  0  0
    4.1330   10.3199   -1.2616 C   0  0  0  0  0  0  0  0  0  0  0  0
    3.9831   11.4539   -1.6822 C   0  0  0  0  0  0  0  0  0  0  0  0
    3.9637   12.7881   -2.0250 C   0  0  0  0  0  0  0  0  0  0  0  0
    3.9433   13.8624   -2.3184 N   0  0  0  0  0  0  0  0  0  0  0  0
    3.0345   11.7709   -0.1606 C   0  0  0  0  0  0  0  0  0  0  0  0
    2.4423   11.9696    0.8237 N   0  0  0  0  0  0  0  0  0  0  0  0
    8.2406    9.9204    2.1162 C   0  0  0  0  0  0  0  0  0  0  0  0
    7.9635   10.3741    3.5217 C   0  0  0  0  0  0  0  0  0  0  0  0
    6.5372   10.0136    3.8633 C   0  0  0  0  0  0  0  0  0  0  0  0
    6.4466    8.6866    3.9338 C   0  0  0  0  0  0  0  0  0  0  0  0
    7.8078    8.1556    3.6852 C   0  0  0  0  0  0  0  0  0  0  0  0
    8.6490    9.2737    4.3276 C   0  0  0  0  0  0  0  0  0  0  0  0
    8.1440    8.4130    2.2457 C   0  0  0  0  0  0  0  0  0  0  0  0
    1.8866    7.7518   -2.9834 C   0  0  0  0  0  0  0  0  0  0  0  0
    2.6348    6.6375   -3.2790 C   0  0  0  0  0  0  0  0  0  0  0  0
    2.0026    5.4806   -3.4895 C   0  0  0  0  0  0  0  0  0  0  0  0
    2.5786    4.2033   -3.7068 C   0  0  0  0  0  0  0  0  0  0  0  0
    3.9995    3.9609   -3.5485 C   0  0  0  0  0  0  0  0  0  0  0  0
    5.0910    4.4912   -3.1365 C   0  0  0  0  0  0  0  0  0  0  0  0
    6.3229    4.0486   -3.0846 C   0  0  0  0  0  0  0  0  0  0  0  0
    6.5666    2.7638   -3.5585 C   0  0  0  0  0  0  0  0  0  0  0  0
    7.8062    2.0128   -3.6390 C   0  0  0  0  0  0  0  0  0  0  0  0
    8.1347    1.3788   -2.2637 C   0  0  0  0  0  0  0  0  0  0  0  0
    4.7831    2.2341   -4.1025 Se  0  0  0  0  0  2  0  0  0  0  0  0
    1.7591    3.0973   -3.8425 C   0  0  0  0  0  0  0  0  0  0  0  0
    0.3741    3.1523   -3.7800 C   0  0  0  0  0  0  0  0  0  0  0  0
   -0.1940    4.4182   -3.5643 C   0  0  0  0  0  0  0  0  0  0  0  0
   -1.6205    4.6478   -3.5903 C   0  0  0  0  0  0  0  0  0  0  0  0
   -2.6958    3.9430   -4.0226 C   0  0  0  0  0  0  0  0  0  0  0  0
   -3.9561    4.3712   -3.7899 C   0  0  0  0  0  0  0  0  0  0  0  0
   -4.3095    5.4571   -3.1566 C   0  0  0  0  0  0  0  0  0  0  0  0
   -5.5321    6.1290   -2.7404 C   0  0  0  0  0  0  0  0  0  0  0  0
   -6.0912    6.9650   -3.8967 C   0  0  0  0  0  0  0  0  0  0  0  0
   -2.4838    6.1687   -2.7166 Se  0  0  0  0  0  2  0  0  0  0  0  0
    0.6283    5.5167   -3.4206 C   0  0  0  0  0  0  0  0  0  0  0  0
    0.3054    7.1732   -3.0390 S   0  0  0  0  0  0  0  0  0  0  0  0
   -0.2492    1.9850   -3.8351 C   0  0  0  0  0  0  0  0  0  0  0  0
    0.4420    0.8153   -3.9401 C   0  0  0  0  0  0  0  0  0  0  0  0
    2.0347    1.3933   -3.9741 S   0  0  0  0  0  0  0  0  0  0  0  0
   -0.1696   -0.5534   -3.8136 C   0  0  0  0  0  0  0  0  0  0  0  0
   -1.5174   -0.7128   -3.7591 C   0  0  0  0  0  0  0  0  0  0  0  0
   -2.3611    0.2135   -4.2096 F   0  0  0  0  0  0  0  0  0  0  0  0
   -2.0515   -1.8980   -3.2452 C   0  0  0  0  0  0  0  0  0  0  0  0
   -3.4278   -2.0349   -3.1848 F   0  0  0  0  0  0  0  0  0  0  0  0
   -1.2512   -2.8967   -2.8026 C   0  0  0  0  0  0  0  0  0  0  0  0
    0.1489   -2.7574   -2.8721 C   0  0  0  0  0  0  0  0  0  0  0  0
    0.9844   -3.7077   -2.4694 N   0  0  0  0  0  0  0  0  0  0  0  0
    2.3358   -3.5017   -2.5808 C   0  0  0  0  0  0  0  0  0  0  0  0
    3.2555   -4.5861   -2.1592 C   0  0  0  0  0  0  0  0  0  0  0  0
    3.7674   -4.3925   -0.7834 C   0  0  0  0  0  0  0  0  0  0  0  0
    2.8394   -2.3466   -3.0947 C   0  0  0  0  0  0  0  0  0  0  0  0
    1.9813   -1.3725   -3.4961 N   0  0  0  0  0  0  0  0  0  0  0  0
    0.6704   -1.5520   -3.3924 C   0  0  0  0  0  0  0  0  0  0  0  0
    4.2761   -2.0191   -3.2511 C   0  0  0  0  0  0  0  0  0  0  0  0
    4.7888   -1.4891   -1.9543 C   0  0  0  0  0  0  0  0  0  0  0  0
   -1.7710   -3.8153   -1.7855 C   0  0  0  0  0  0  0  0  0  0  0  0
   -1.4949   -5.1533   -1.3716 C   0  0  0  0  0  0  0  0  0  0  0  0
   -0.8872   -6.0665   -2.2534 N   0  0  0  0  0  0  0  0  0  0  0  0
   -0.2105   -7.2493   -1.9883 C   0  0  0  0  0  0  0  0  0  0  0  0
   -0.8570   -8.1274   -1.0886 C   0  0  0  0  0  0  0  0  0  0  0  0
   -0.3684   -9.3511   -0.7460 C   0  0  0  0  0  0  0  0  0  0  0  0
    0.8067   -9.7881   -1.2812 C   0  0  0  0  0  0  0  0  0  0  0  0
    1.4644  -11.4379   -0.9181 S   0  0  0  0  0  0  0  0  0  0  0  0
    0.8819  -12.5982   -2.1901 C   0  0  0  0  0  0  0  0  0  0  0  0
    1.4744   -8.9871   -2.1434 C   0  0  0  0  0  0  0  0  0  0  0  0
    0.9563   -7.7184   -2.4915 C   0  0  0  0  0  0  0  0  0  0  0  0
   -1.1864   -5.8046   -3.6752 C   0  0  0  0  0  0  0  0  0  0  0  0
   -2.5700   -5.6172   -3.8642 C   0  0  0  0  0  0  0  0  0  0  0  0
   -3.0641   -5.1428   -5.0502 C   0  0  0  0  0  0  0  0  0  0  0  0
   -2.1750   -4.8492   -6.0503 C   0  0  0  0  0  0  0  0  0  0  0  0
   -2.8541   -4.0312   -7.5338 S   0  0  0  0  0  0  0  0  0  0  0  0
   -2.9986   -2.2574   -7.0926 C   0  0  0  0  0  0  0  0  0  0  0  0
   -0.8251   -5.0364   -5.8848 C   0  0  0  0  0  0  0  0  0  0  0  0
   -0.3413   -5.5313   -4.6549 C   0  0  0  0  0  0  0  0  0  0  0  0
   -2.1703   -5.0849   -0.2379 C   0  0  0  0  0  0  0  0  0  0  0  0
   -1.1480   -5.9582    1.4234 S   0  0  0  0  0  0  0  0  0  0  0  0
   -2.5510   -5.5314    2.5066 C   0  0  0  0  0  0  0  0  0  0  0  0
   -3.5010   -4.9196    1.6190 C   0  0  0  0  0  0  0  0  0  0  0  0
   -4.8185   -4.6578    1.9658 N   0  0  0  0  0  0  0  0  0  0  0  0
   -5.7342   -3.8122    1.3529 C   0  0  0  0  0  0  0  0  0  0  0  0
   -5.8310   -4.0068   -0.0473 C   0  0  0  0  0  0  0  0  0  0  0  0
   -6.7231   -3.3301   -0.8342 C   0  0  0  0  0  0  0  0  0  0  0  0
   -7.5837   -2.4193   -0.2604 C   0  0  0  0  0  0  0  0  0  0  0  0
   -8.8658   -1.6066   -1.1577 S   0  0  0  0  0  0  0  0  0  0  0  0
   -8.4595   -0.0128   -1.8233 C   0  0  0  0  0  0  0  0  0  0  0  0
   -7.4858   -2.2234    1.1135 C   0  0  0  0  0  0  0  0  0  0  0  0
   -6.5762   -2.9086    1.9042 C   0  0  0  0  0  0  0  0  0  0  0  0
   -5.3765   -5.5595    2.9931 C   0  0  0  0  0  0  0  0  0  0  0  0
   -6.0862   -5.2576    4.0658 C   0  0  0  0  0  0  0  0  0  0  0  0
   -6.4982   -6.3284    4.8927 C   0  0  0  0  0  0  0  0  0  0  0  0
   -6.1950   -7.6237    4.6290 C   0  0  0  0  0  0  0  0  0  0  0  0
   -6.6930   -8.9390    5.7265 S   0  0  0  0  0  0  0  0  0  0  0  0
   -5.9364  -10.5101    5.2259 C   0  0  0  0  0  0  0  0  0  0  0  0
   -5.4554   -7.9224    3.5005 C   0  0  0  0  0  0  0  0  0  0  0  0
   -5.0567   -6.9020    2.7021 C   0  0  0  0  0  0  0  0  0  0  0  0
   -2.6444   -5.0654    0.5794 C   0  0  0  0  0  0  0  0  0  0  0  0
   -2.8140   -3.1803   -0.4871 S   0  0  0  0  0  0  0  0  0  0  0  0
   -2.3757   -5.6113    3.9598 C   0  0  0  0  0  0  0  0  0  0  0  0
   -2.4194   -4.4367    4.6303 C   0  0  0  0  0  0  0  0  0  0  0  0
   -2.6540   -3.1288    4.0133 C   0  0  0  0  0  0  0  0  0  0  0  0
   -3.0143   -2.8438    2.8497 O   0  0  0  0  0  0  0  0  0  0  0  0
   -2.3933   -2.0360    4.9769 C   0  0  0  0  0  0  0  0  0  0  0  0
   -2.5368   -0.6864    4.7986 C   0  0  0  0  0  0  0  0  0  0  0  0
   -2.2585    0.1640    5.8304 C   0  0  0  0  0  0  0  0  0  0  0  0
   -1.8294   -0.3647    7.0205 C   0  0  0  0  0  0  0  0  0  0  0  0
   -1.7099   -1.7403    7.1700 C   0  0  0  0  0  0  0  0  0  0  0  0
   -1.9982   -2.6242    6.1449 C   0  0  0  0  0  0  0  0  0  0  0  0
   -2.0073   -4.1090    5.9737 C   0  0  0  0  0  0  0  0  0  0  0  0
   -1.7180   -4.9357    6.9845 C   0  0  0  0  0  0  0  0  0  0  0  0
   -1.3529   -4.5373    8.1294 C   0  0  0  0  0  0  0  0  0  0  0  0
   -0.9362   -4.0543    9.4401 N   0  0  0  0  0  0  0  0  0  0  0  0
   -1.9122   -6.4058    6.8032 C   0  0  0  0  0  0  0  0  0  0  0  0
   -2.0542   -7.5067    6.6822 N   0  0  0  0  0  0  0  0  0  0  0  0
   -1.6492    1.0230    7.5061 C   0  0  0  0  0  0  0  0  0  0  0  0
   -0.2293    1.5459    7.2102 C   0  0  0  0  0  0  0  0  0  0  0  0
    0.1501    0.9833    5.8802 C   0  0  0  0  0  0  0  0  0  0  0  0
   -0.4275    1.6826    4.8983 C   0  0  0  0  0  0  0  0  0  0  0  0
   -1.4397    2.5149    5.6039 C   0  0  0  0  0  0  0  0  0  0  0  0
   -0.5795    2.9563    6.8033 C   0  0  0  0  0  0  0  0  0  0  0  0
   -2.3539    1.5735    6.2904 C   0  0  0  0  0  0  0  0  0  0  0  0
    2.1016    9.9263   -3.0811 H   0  0  0  0  0  0  0  0  0  0  0  0
    5.8158    6.7893    0.9332 H   0  0  0  0  0  0  0  0  0  0  0  0
    6.2834   11.6352    0.2104 H   0  0  0  0  0  0  0  0  0  0  0  0
    9.1727   10.3085    1.6967 H   0  0  0  0  0  0  0  0  0  0  0  0
    8.2389   11.3647    3.7839 H   0  0  0  0  0  0  0  0  0  0  0  0
    5.6996   10.6704    4.0390 H   0  0  0  0  0  0  0  0  0  0  0  0
    5.5695    8.0529    4.1167 H   0  0  0  0  0  0  0  0  0  0  0  0
    8.0011    7.1793    4.0669 H   0  0  0  0  0  0  0  0  0  0  0  0
    9.6930    9.1562    4.0693 H   0  0  0  0  0  0  0  0  0  0  0  0
    8.4490    9.3532    5.4004 H   0  0  0  0  0  0  0  0  0  0  0  0
    8.9572    7.8421    1.8175 H   0  0  0  0  0  0  0  0  0  0  0  0
    3.7313    6.7967   -3.4191 H   0  0  0  0  0  0  0  0  0  0  0  0
    4.9940    5.5706   -2.6538 H   0  0  0  0  0  0  0  0  0  0  0  0
    7.2267    4.5898   -2.6850 H   0  0  0  0  0  0  0  0  0  0  0  0
    8.6832    2.6089   -3.9235 H   0  0  0  0  0  0  0  0  0  0  0  0
    7.7706    1.1558   -4.3350 H   0  0  0  0  0  0  0  0  0  0  0  0
    9.0831    0.8896   -2.2917 H   0  0  0  0  0  0  0  0  0  0  0  0
    7.2842    0.7871   -1.8867 H   0  0  0  0  0  0  0  0  0  0  0  0
    8.1543    2.2907   -1.5851 H   0  0  0  0  0  0  0  0  0  0  0  0
   -2.5365    3.0263   -4.6435 H   0  0  0  0  0  0  0  0  0  0  0  0
   -4.8263    3.7143   -4.1745 H   0  0  0  0  0  0  0  0  0  0  0  0
   -6.2978    5.3595   -2.4583 H   0  0  0  0  0  0  0  0  0  0  0  0
   -5.4076    6.7732   -1.8479 H   0  0  0  0  0  0  0  0  0  0  0  0
   -5.4205    7.7427   -4.2281 H   0  0  0  0  0  0  0  0  0  0  0  0
   -6.3481    6.2482   -4.7437 H   0  0  0  0  0  0  0  0  0  0  0  0
   -7.0438    7.3859   -3.5681 H   0  0  0  0  0  0  0  0  0  0  0  0
   -1.3653    1.8891   -3.7351 H   0  0  0  0  0  0  0  0  0  0  0  0
    2.7679   -5.5825   -2.2871 H   0  0  0  0  0  0  0  0  0  0  0  0
    4.1367   -4.6292   -2.8846 H   0  0  0  0  0  0  0  0  0  0  0  0
    3.4991   -3.4238   -0.3642 H   0  0  0  0  0  0  0  0  0  0  0  0
    3.2320   -5.1713   -0.1436 H   0  0  0  0  0  0  0  0  0  0  0  0
    4.8689   -4.6222   -0.7393 H   0  0  0  0  0  0  0  0  0  0  0  0
    4.3651   -1.2139   -4.0070 H   0  0  0  0  0  0  0  0  0  0  0  0
    4.8494   -2.9015   -3.6216 H   0  0  0  0  0  0  0  0  0  0  0  0
    3.9389   -1.1950   -1.2807 H   0  0  0  0  0  0  0  0  0  0  0  0
    5.4321   -2.1755   -1.4100 H   0  0  0  0  0  0  0  0  0  0  0  0
    5.3430   -0.5109   -2.1017 H   0  0  0  0  0  0  0  0  0  0  0  0
   -1.8099   -7.8446   -0.6542 H   0  0  0  0  0  0  0  0  0  0  0  0
   -0.8733  -10.0299   -0.0621 H   0  0  0  0  0  0  0  0  0  0  0  0
   -0.1980  -12.4736   -2.3459 H   0  0  0  0  0  0  0  0  0  0  0  0
    1.1752  -13.6258   -1.8921 H   0  0  0  0  0  0  0  0  0  0  0  0
    1.3808  -12.2968   -3.1451 H   0  0  0  0  0  0  0  0  0  0  0  0
    2.4112   -9.2687   -2.5972 H   0  0  0  0  0  0  0  0  0  0  0  0
    1.4962   -7.1351   -3.1822 H   0  0  0  0  0  0  0  0  0  0  0  0
   -3.2457   -5.8576   -3.0494 H   0  0  0  0  0  0  0  0  0  0  0  0
   -4.1174   -4.9915   -5.2169 H   0  0  0  0  0  0  0  0  0  0  0  0
   -2.1814   -1.9876   -6.4023 H   0  0  0  0  0  0  0  0  0  0  0  0
   -3.9727   -2.1251   -6.5575 H   0  0  0  0  0  0  0  0  0  0  0  0
   -2.9491   -1.6463   -7.9914 H   0  0  0  0  0  0  0  0  0  0  0  0
   -0.1673   -4.8075   -6.6927 H   0  0  0  0  0  0  0  0  0  0  0  0
    0.6954   -5.6346   -4.5748 H   0  0  0  0  0  0  0  0  0  0  0  0
   -5.2005   -4.7497   -0.5488 H   0  0  0  0  0  0  0  0  0  0  0  0
   -6.7570   -3.4880   -1.9057 H   0  0  0  0  0  0  0  0  0  0  0  0
   -8.0153   -0.0534   -2.8526 H   0  0  0  0  0  0  0  0  0  0  0  0
   -9.4409    0.5327   -1.9735 H   0  0  0  0  0  0  0  0  0  0  0  0
   -7.8622    0.5694   -1.1078 H   0  0  0  0  0  0  0  0  0  0  0  0
   -8.1366   -1.5112    1.5807 H   0  0  0  0  0  0  0  0  0  0  0  0
   -6.5067   -2.6858    2.9576 H   0  0  0  0  0  0  0  0  0  0  0  0
   -6.3238   -4.2716    4.3372 H   0  0  0  0  0  0  0  0  0  0  0  0
   -7.0759   -6.0537    5.7522 H   0  0  0  0  0  0  0  0  0  0  0  0
   -5.9565  -11.1700    6.1382 H   0  0  0  0  0  0  0  0  0  0  0  0
   -6.4616  -11.0276    4.4262 H   0  0  0  0  0  0  0  0  0  0  0  0
   -4.8584  -10.3855    4.9713 H   0  0  0  0  0  0  0  0  0  0  0  0
   -5.2150   -8.9488    3.2908 H   0  0  0  0  0  0  0  0  0  0  0  0
   -4.4766   -7.1417    1.8171 H   0  0  0  0  0  0  0  0  0  0  0  0
   -2.2035   -6.5081    4.4335 H   0  0  0  0  0  0  0  0  0  0  0  0
   -2.8770   -0.2606    3.8308 H   0  0  0  0  0  0  0  0  0  0  0  0
   -1.3762   -2.1159    8.1219 H   0  0  0  0  0  0  0  0  0  0  0  0
   -2.0496    1.2538    8.4829 H   0  0  0  0  0  0  0  0  0  0  0  0
    0.4763    1.4224    7.9928 H   0  0  0  0  0  0  0  0  0  0  0  0
    0.7953    0.1225    5.6658 H   0  0  0  0  0  0  0  0  0  0  0  0
   -0.2526    1.6854    3.8440 H   0  0  0  0  0  0  0  0  0  0  0  0
   -1.8703    3.3249    5.0562 H   0  0  0  0  0  0  0  0  0  0  0  0
    0.2933    3.5274    6.4560 H   0  0  0  0  0  0  0  0  0  0  0  0
   -1.1893    3.4829    7.5509 H   0  0  0  0  0  0  0  0  0  0  0  0
   -3.3974    1.9343    6.4720 H   0  0  0  0  0  0  0  0  0  0  0  0
  1  2  2  3
  2  3  1  0
  3  4  2  0
  3  5  1  0
  5  6  2  0
  6  7  1  0
  7  8  2  0
  8  9  1  0
  9 10  2  0
 10 11  1  0
 11 12  2  3
 12 13  1  0
 13 14  3  0
 12 15  1  0
 15 16  3  0
  8 17  1  0
 17 18  1  0
 18 19  1  0
 19 20  2  0
 20 21  1  0
 21 22  1  0
 21 23  1  0
  1 24  1  0
 24 25  2  0
 25 26  1  0
 26 27  2  0
 27 28  1  0
 28 29  2  0
 29 30  1  0
 30 31  2  0
 31 32  1  0
 32 33  1  0
 31 34  1  0
 27 35  1  0
 35 36  2  0
 36 37  1  0
 37 38  1  0
 38 39  2  0
 39 40  1  0
 40 41  2  0
 41 42  1  0
 42 43  1  0
 41 44  1  0
 37 45  2  0
 45 46  1  0
 36 47  1  0
 47 48  2  0
 48 49  1  0
 48 50  1  0
 50 51  2  0
 51 52  1  0
 51 53  1  0
 53 54  1  0
 53 55  2  0
 55 56  1  0
 56 57  2  0
 57 58  1  0
 58 59  1  0
 59 60  1  0
 58 61  2  0
 61 62  1  0
 62 63  2  0
 61 64  1  0
 64 65  1  0
 55 66  1  0
 66 67  2  0
 67 68  1  0
 68 69  1  0
 69 70  2  0
 70 71  1  0
 71 72  2  0
 72 73  1  0
 73 74  1  0
 72 75  1  0
 75 76  2  0
 68 77  1  0
 77 78  2  0
 78 79  1  0
 79 80  2  0
 80 81  1  0
 81 82  1  0
 80 83  1  0
 83 84  2  0
 67 85  1  0
 85 86  1  0
 86 87  1  0
 87 88  2  0
 88 89  1  0
 89 90  1  0
 90 91  2  0
 91 92  1  0
 92 93  2  0
 93 94  1  0
 94 95  1  0
 93 96  1  0
 96 97  2  0
 89 98  1  0
 98 99  2  0
 99100  1  0
100101  2  0
101102  1  0
102103  1  0
101104  1  0
104105  2  0
 88106  1  0
106107  1  0
 87108  1  0
108109  2  3
109110  1  0
110111  2  0
110112  1  0
112113  2  0
113114  1  0
114115  2  0
115116  1  0
116117  2  0
117118  1  0
118119  2  3
119120  1  0
120121  3  0
119122  1  0
122123  3  0
115124  1  0
124125  1  0
125126  1  0
126127  2  0
127128  1  0
128129  1  0
128130  1  0
 11  2  1  0
 23 17  1  0
 46 24  1  0
 63 50  1  0
107 66  1  0
118109  1  0
130124  1  0
 10  5  1  0
 22 18  1  0
 45 26  1  0
 63 56  1  0
 76 69  1  0
 84 77  1  0
106 85  2  0
117112  1  0
129125  1  0
 23  7  1  0
 34 28  1  0
 49 35  1  0
 97 90  1  0
105 98  1  0
130114  1  0
 44 38  1  0
  1131  1  0
  6132  1  0
  9133  1  0
 17134  1  0
 18135  1  0
 19136  1  0
 20137  1  0
 21138  1  0
 22139  1  0
 22140  1  0
 23141  1  0
 25142  1  0
 29143  1  0
 30144  1  0
 32145  1  0
 32146  1  0
 33147  1  0
 33148  1  0
 33149  1  0
 39150  1  0
 40151  1  0
 42152  1  0
 42153  1  0
 43154  1  0
 43155  1  0
 43156  1  0
 47157  1  0
 59158  1  0
 59159  1  0
 60160  1  0
 60161  1  0
 60162  1  0
 64163  1  0
 64164  1  0
 65165  1  0
 65166  1  0
 65167  1  0
 70168  1  0
 71169  1  0
 74170  1  0
 74171  1  0
 74172  1  0
 75173  1  0
 76174  1  0
 78175  1  0
 79176  1  0
 82177  1  0
 82178  1  0
 82179  1  0
 83180  1  0
 84181  1  0
 91182  1  0
 92183  1  0
 95184  1  0
 95185  1  0
 95186  1  0
 96187  1  0
 97188  1  0
 99189  1  0
100190  1  0
103191  1  0
103192  1  0
103193  1  0
104194  1  0
105195  1  0
108196  1  0
113197  1  0
116198  1  0
124199  1  0
125200  1  0
126201  1  0
127202  1  0
128203  1  0
129204  1  0
129205  1  0
130206  1  0
M  END

