
     RDKit          3D

202219  0  0  0  0  0  0  0  0999 V2000
    6.3617   -6.4481   -2.1865 C   0  0  0  0  0  0  0  0  0  0  0  0
    7.4403   -5.6469   -2.0060 C   0  0  0  0  0  0  0  0  0  0  0  0
    7.4099   -4.1908   -1.7040 C   0  0  0  0  0  0  0  0  0  0  0  0
    6.4301   -3.5201   -1.2878 O   0  0  0  0  0  0  0  0  0  0  0  0
    8.7486   -3.6912   -1.8867 C   0  0  0  0  0  0  0  0  0  0  0  0
    9.5094   -2.2083   -1.8085 S   0  0  0  0  0  0  0  0  0  0  0  0
   11.0257   -2.8733   -2.1930 C   0  0  0  0  0  0  0  0  0  0  0  0
   10.9164   -4.2564   -2.3759 C   0  0  0  0  0  0  0  0  0  0  0  0
    9.6000   -4.6922   -2.1968 C   0  0  0  0  0  0  0  0  0  0  0  0
    8.8902   -5.9943   -2.2098 C   0  0  0  0  0  0  0  0  0  0  0  0
    9.4784   -7.2156   -2.1838 C   0  0  0  0  0  0  0  0  0  0  0  0
   10.9060   -7.3712   -2.2827 C   0  0  0  0  0  0  0  0  0  0  0  0
   12.0513   -7.5213   -2.3434 N   0  0  0  0  0  0  0  0  0  0  0  0
    8.7444   -8.4233   -1.9333 C   0  0  0  0  0  0  0  0  0  0  0  0
    8.1662   -9.4066   -1.7093 N   0  0  0  0  0  0  0  0  0  0  0  0
    4.9728   -5.9558   -2.0795 C   0  0  0  0  0  0  0  0  0  0  0  0
    4.1268   -6.4657   -1.0834 C   0  0  0  0  0  0  0  0  0  0  0  0
    4.5290   -7.5114   -0.3104 F   0  0  0  0  0  0  0  0  0  0  0  0
    2.8934   -5.8575   -0.8154 C   0  0  0  0  0  0  0  0  0  0  0  0
    2.1046   -6.3535    0.1776 F   0  0  0  0  0  0  0  0  0  0  0  0
    2.5089   -4.6996   -1.5151 C   0  0  0  0  0  0  0  0  0  0  0  0
    3.3036   -4.2571   -2.6007 C   0  0  0  0  0  0  0  0  0  0  0  0
    2.9708   -3.1458   -3.3130 N   0  0  0  0  0  0  0  0  0  0  0  0
    3.7302   -2.6638   -4.3328 C   0  0  0  0  0  0  0  0  0  0  0  0
    3.2549   -1.4044   -5.0265 C   0  0  0  0  0  0  0  0  0  0  0  0
    1.8075   -1.5531   -5.4963 C   0  0  0  0  0  0  0  0  0  0  0  0
    4.9341   -3.3417   -4.6529 C   0  0  0  0  0  0  0  0  0  0  0  0
    5.2809   -4.4302   -3.9184 N   0  0  0  0  0  0  0  0  0  0  0  0
    4.5111   -4.9112   -2.9018 C   0  0  0  0  0  0  0  0  0  0  0  0
    5.9197   -2.8485   -5.6786 C   0  0  0  0  0  0  0  0  0  0  0  0
    6.7332   -1.6847   -5.1231 C   0  0  0  0  0  0  0  0  0  0  0  0
    1.4688   -3.7993   -0.9741 C   0  0  0  0  0  0  0  0  0  0  0  0
    1.6089   -3.1348    0.2594 C   0  0  0  0  0  0  0  0  0  0  0  0
    1.9342   -3.7989    1.4947 N   0  0  0  0  0  0  0  0  0  0  0  0
    3.2834   -4.1146    1.8852 C   0  0  0  0  0  0  0  0  0  0  0  0
    3.5439   -5.2220    2.7158 C   0  0  0  0  0  0  0  0  0  0  0  0
    4.8544   -5.5663    3.0629 C   0  0  0  0  0  0  0  0  0  0  0  0
    5.9232   -4.8011    2.5819 C   0  0  0  0  0  0  0  0  0  0  0  0
    7.6097   -5.2858    2.9627 S   0  0  0  0  0  0  0  0  0  0  0  0
    7.7047   -6.4670    1.5799 C   0  0  0  0  0  0  0  0  0  0  0  0
    5.6774   -3.6792    1.7808 C   0  0  0  0  0  0  0  0  0  0  0  0
    4.3674   -3.3444    1.4261 C   0  0  0  0  0  0  0  0  0  0  0  0
    0.8216   -4.0807    2.3662 C   0  0  0  0  0  0  0  0  0  0  0  0
    0.7614   -3.5071    3.6471 C   0  0  0  0  0  0  0  0  0  0  0  0
   -0.4307   -3.5540    4.3796 C   0  0  0  0  0  0  0  0  0  0  0  0
   -1.5560   -4.2046    3.8499 C   0  0  0  0  0  0  0  0  0  0  0  0
   -3.1231   -4.1298    4.7113 S   0  0  0  0  0  0  0  0  0  0  0  0
   -3.6681   -2.6462    3.8096 C   0  0  0  0  0  0  0  0  0  0  0  0
   -1.4753   -4.8450    2.6096 C   0  0  0  0  0  0  0  0  0  0  0  0
   -0.2962   -4.7836    1.8715 C   0  0  0  0  0  0  0  0  0  0  0  0
    0.8696   -1.9561    0.2631 C   0  0  0  0  0  0  0  0  0  0  0  0
    0.6458   -0.7330    1.3913 S   0  0  0  0  0  0  0  0  0  0  0  0
   -0.4050    0.1489    0.3880 C   0  0  0  0  0  0  0  0  0  0  0  0
   -0.6448   -0.5626   -0.8012 C   0  0  0  0  0  0  0  0  0  0  0  0
   -1.7857   -0.3524   -1.6502 N   0  0  0  0  0  0  0  0  0  0  0  0
   -1.8246    0.8056   -2.5119 C   0  0  0  0  0  0  0  0  0  0  0  0
   -2.9822    1.5953   -2.5663 C   0  0  0  0  0  0  0  0  0  0  0  0
   -3.0799    2.6474   -3.4842 C   0  0  0  0  0  0  0  0  0  0  0  0
   -2.0182    2.9141   -4.3546 C   0  0  0  0  0  0  0  0  0  0  0  0
   -2.1301    4.2817   -5.5098 S   0  0  0  0  0  0  0  0  0  0  0  0
   -3.1449    3.3706   -6.7171 C   0  0  0  0  0  0  0  0  0  0  0  0
   -0.8470    2.1408   -4.2861 C   0  0  0  0  0  0  0  0  0  0  0  0
   -0.7412    1.1052   -3.3514 C   0  0  0  0  0  0  0  0  0  0  0  0
   -2.8942   -1.2782   -1.5969 C   0  0  0  0  0  0  0  0  0  0  0  0
   -3.2381   -1.9250   -0.3879 C   0  0  0  0  0  0  0  0  0  0  0  0
   -4.3289   -2.7938   -0.3346 C   0  0  0  0  0  0  0  0  0  0  0  0
   -5.0879   -3.0336   -1.4826 C   0  0  0  0  0  0  0  0  0  0  0  0
   -6.5169   -4.1147   -1.4113 S   0  0  0  0  0  0  0  0  0  0  0  0
   -5.5967   -5.5662   -2.0044 C   0  0  0  0  0  0  0  0  0  0  0  0
   -4.7548   -2.4051   -2.6867 C   0  0  0  0  0  0  0  0  0  0  0  0
   -3.6658   -1.5386   -2.7450 C   0  0  0  0  0  0  0  0  0  0  0  0
    0.1230   -1.7209   -0.8413 C   0  0  0  0  0  0  0  0  0  0  0  0
    0.3445   -2.9520   -1.9466 S   0  0  0  0  0  0  0  0  0  0  0  0
   -1.0770    1.3815    0.7851 C   0  0  0  0  0  0  0  0  0  0  0  0
   -0.5679    2.6773    0.6328 C   0  0  0  0  0  0  0  0  0  0  0  0
    0.7678    2.9967    0.2007 N   0  0  0  0  0  0  0  0  0  0  0  0
    1.7950    2.8557    1.1898 C   0  0  0  0  0  0  0  0  0  0  0  0
    2.7252    1.8087    1.0975 C   0  0  0  0  0  0  0  0  0  0  0  0
    3.6532    1.6058    2.1229 C   0  0  0  0  0  0  0  0  0  0  0  0
    3.6690    2.4596    3.2358 C   0  0  0  0  0  0  0  0  0  0  0  0
    4.8049    2.1610    4.5885 S   0  0  0  0  0  0  0  0  0  0  0  0
    3.6106    1.1250    5.4983 C   0  0  0  0  0  0  0  0  0  0  0  0
    2.7713    3.5335    3.3044 C   0  0  0  0  0  0  0  0  0  0  0  0
    1.8339    3.7299    2.2861 C   0  0  0  0  0  0  0  0  0  0  0  0
    1.0362    3.6713   -1.0590 C   0  0  0  0  0  0  0  0  0  0  0  0
    0.0105    4.3308   -1.7691 C   0  0  0  0  0  0  0  0  0  0  0  0
    0.2992    5.0391   -2.9421 C   0  0  0  0  0  0  0  0  0  0  0  0
    1.5941    5.0408   -3.4609 C   0  0  0  0  0  0  0  0  0  0  0  0
    1.9724    5.9486   -4.9625 S   0  0  0  0  0  0  0  0  0  0  0  0
    1.7735    4.5023   -6.0570 C   0  0  0  0  0  0  0  0  0  0  0  0
    2.6144    4.3737   -2.7812 C   0  0  0  0  0  0  0  0  0  0  0  0
    2.3425    3.6972   -1.5948 C   0  0  0  0  0  0  0  0  0  0  0  0
   -1.4506    3.6056    1.1731 C   0  0  0  0  0  0  0  0  0  0  0  0
   -1.4920    5.2670    1.2715 S   0  0  0  0  0  0  0  0  0  0  0  0
   -3.0178    5.3442    2.0242 C   0  0  0  0  0  0  0  0  0  0  0  0
   -3.4922    4.0210    2.2064 C   0  0  0  0  0  0  0  0  0  0  0  0
   -4.7513    3.6206    2.7842 N   0  0  0  0  0  0  0  0  0  0  0  0
   -5.8322    3.4403    1.8446 C   0  0  0  0  0  0  0  0  0  0  0  0
   -6.1513    2.1518    1.3659 C   0  0  0  0  0  0  0  0  0  0  0  0
   -7.2208    1.9687    0.4877 C   0  0  0  0  0  0  0  0  0  0  0  0
   -7.9682    3.0726    0.0611 C   0  0  0  0  0  0  0  0  0  0  0  0
   -9.3774    2.8252   -1.0217 S   0  0  0  0  0  0  0  0  0  0  0  0
   -8.3880    2.9901   -2.5326 C   0  0  0  0  0  0  0  0  0  0  0  0
   -7.6370    4.3575    0.5074 C   0  0  0  0  0  0  0  0  0  0  0  0
   -6.5746    4.5400    1.3978 C   0  0  0  0  0  0  0  0  0  0  0  0
   -4.7554    2.8421    4.0274 C   0  0  0  0  0  0  0  0  0  0  0  0
   -3.5687    2.6554    4.7783 C   0  0  0  0  0  0  0  0  0  0  0  0
   -3.5764    1.9286    5.9720 C   0  0  0  0  0  0  0  0  0  0  0  0
   -4.7519    1.3079    6.4083 C   0  0  0  0  0  0  0  0  0  0  0  0
   -4.7737    0.3714    7.9482 S   0  0  0  0  0  0  0  0  0  0  0  0
   -3.8035   -1.0428    7.3134 C   0  0  0  0  0  0  0  0  0  0  0  0
   -5.9345    1.4805    5.6849 C   0  0  0  0  0  0  0  0  0  0  0  0
   -5.9428    2.2550    4.5216 C   0  0  0  0  0  0  0  0  0  0  0  0
   -2.5814    3.0931    1.7051 C   0  0  0  0  0  0  0  0  0  0  0  0
   -2.5918    1.4206    1.5578 S   0  0  0  0  0  0  0  0  0  0  0  0
   -3.7836    6.5958    1.9810 C   0  0  0  0  0  0  0  0  0  0  0  0
   -4.3628    7.2612    2.9933 C   0  0  0  0  0  0  0  0  0  0  0  0
   -5.1048    8.5132    2.7810 C   0  0  0  0  0  0  0  0  0  0  0  0
   -5.0434    9.2503    1.7597 O   0  0  0  0  0  0  0  0  0  0  0  0
   -5.8250    8.8040    3.9917 C   0  0  0  0  0  0  0  0  0  0  0  0
   -6.2615   10.2729    4.6850 S   0  0  0  0  0  0  0  0  0  0  0  0
   -6.1413    9.7035    6.2693 C   0  0  0  0  0  0  0  0  0  0  0  0
   -5.6998    8.3649    6.2508 C   0  0  0  0  0  0  0  0  0  0  0  0
   -5.5332    7.8754    4.9458 C   0  0  0  0  0  0  0  0  0  0  0  0
   -4.5938    6.8549    4.4099 C   0  0  0  0  0  0  0  0  0  0  0  0
   -3.9405    5.9574    5.1613 C   0  0  0  0  0  0  0  0  0  0  0  0
   -2.5239    5.7312    5.0030 C   0  0  0  0  0  0  0  0  0  0  0  0
   -1.3775    5.5451    4.9424 N   0  0  0  0  0  0  0  0  0  0  0  0
   -4.5761    5.4144    6.3381 C   0  0  0  0  0  0  0  0  0  0  0  0
   -5.1301    4.9872    7.2654 N   0  0  0  0  0  0  0  0  0  0  0  0
    6.4696   -7.4894   -2.4212 H   0  0  0  0  0  0  0  0  0  0  0  0
   11.9462   -2.3091   -2.2911 H   0  0  0  0  0  0  0  0  0  0  0  0
   11.7567   -4.8819   -2.6396 H   0  0  0  0  0  0  0  0  0  0  0  0
    3.3272   -0.5517   -4.3127 H   0  0  0  0  0  0  0  0  0  0  0  0
    3.8780   -1.1466   -5.8964 H   0  0  0  0  0  0  0  0  0  0  0  0
    1.5047   -0.6419   -6.0659 H   0  0  0  0  0  0  0  0  0  0  0  0
    1.7041   -2.4405   -6.1572 H   0  0  0  0  0  0  0  0  0  0  0  0
    1.1265   -1.6602   -4.6240 H   0  0  0  0  0  0  0  0  0  0  0  0
    6.6242   -3.6714   -5.9483 H   0  0  0  0  0  0  0  0  0  0  0  0
    5.3992   -2.5541   -6.6130 H   0  0  0  0  0  0  0  0  0  0  0  0
    7.4359   -1.3231   -5.9027 H   0  0  0  0  0  0  0  0  0  0  0  0
    6.0733   -0.8411   -4.8206 H   0  0  0  0  0  0  0  0  0  0  0  0
    7.3199   -2.0169   -4.2322 H   0  0  0  0  0  0  0  0  0  0  0  0
    2.7337   -5.8434    3.0744 H   0  0  0  0  0  0  0  0  0  0  0  0
    5.0362   -6.4347    3.6856 H   0  0  0  0  0  0  0  0  0  0  0  0
    6.8667   -7.2025    1.6489 H   0  0  0  0  0  0  0  0  0  0  0  0
    8.6674   -7.0243    1.6290 H   0  0  0  0  0  0  0  0  0  0  0  0
    7.6518   -5.9208    0.6239 H   0  0  0  0  0  0  0  0  0  0  0  0
    6.5052   -3.0767    1.4343 H   0  0  0  0  0  0  0  0  0  0  0  0
    4.1987   -2.4780    0.8014 H   0  0  0  0  0  0  0  0  0  0  0  0
    1.6052   -2.9435    4.0299 H   0  0  0  0  0  0  0  0  0  0  0  0
   -0.4893   -3.0455    5.3329 H   0  0  0  0  0  0  0  0  0  0  0  0
   -4.6681   -2.3416    4.1897 H   0  0  0  0  0  0  0  0  0  0  0  0
   -3.7573   -2.8567    2.7247 H   0  0  0  0  0  0  0  0  0  0  0  0
   -2.9533   -1.8095    3.9651 H   0  0  0  0  0  0  0  0  0  0  0  0
   -2.3419   -5.3439    2.1949 H   0  0  0  0  0  0  0  0  0  0  0  0
   -0.2666   -5.2204    0.8830 H   0  0  0  0  0  0  0  0  0  0  0  0
   -3.8268    1.3802   -1.9234 H   0  0  0  0  0  0  0  0  0  0  0  0
   -3.9855    3.2407   -3.5288 H   0  0  0  0  0  0  0  0  0  0  0  0
   -2.6144    2.4633   -7.0666 H   0  0  0  0  0  0  0  0  0  0  0  0
   -3.3592    4.0359   -7.5818 H   0  0  0  0  0  0  0  0  0  0  0  0
   -4.1057    3.0761   -6.2537 H   0  0  0  0  0  0  0  0  0  0  0  0
   -0.0136    2.3468   -4.9468 H   0  0  0  0  0  0  0  0  0  0  0  0
    0.1621    0.5108   -3.3099 H   0  0  0  0  0  0  0  0  0  0  0  0
   -2.6677   -1.7481    0.5144 H   0  0  0  0  0  0  0  0  0  0  0  0
   -4.5891   -3.2779    0.5899 H   0  0  0  0  0  0  0  0  0  0  0  0
   -4.7372   -5.7760   -1.3374 H   0  0  0  0  0  0  0  0  0  0  0  0
   -5.2316   -5.3931   -3.0359 H   0  0  0  0  0  0  0  0  0  0  0  0
   -6.2645   -6.4504   -2.0109 H   0  0  0  0  0  0  0  0  0  0  0  0
   -5.3393   -2.5834   -3.5755 H   0  0  0  0  0  0  0  0  0  0  0  0
   -3.4135   -1.0706   -3.6871 H   0  0  0  0  0  0  0  0  0  0  0  0
    2.7054    1.1316    0.2526 H   0  0  0  0  0  0  0  0  0  0  0  0
    4.3509    0.7765    2.0611 H   0  0  0  0  0  0  0  0  0  0  0  0
    3.3192    0.2490    4.8819 H   0  0  0  0  0  0  0  0  0  0  0  0
    2.7056    1.7217    5.7465 H   0  0  0  0  0  0  0  0  0  0  0  0
    4.0710    0.7689    6.4450 H   0  0  0  0  0  0  0  0  0  0  0  0
    2.7807    4.2048    4.1536 H   0  0  0  0  0  0  0  0  0  0  0  0
    1.1276    4.5440    2.3604 H   0  0  0  0  0  0  0  0  0  0  0  0
   -1.0116    4.3193   -1.4173 H   0  0  0  0  0  0  0  0  0  0  0  0
   -0.4929    5.5708   -3.4494 H   0  0  0  0  0  0  0  0  0  0  0  0
    0.7040    4.3634   -6.3074 H   0  0  0  0  0  0  0  0  0  0  0  0
    2.1623    3.5790   -5.5852 H   0  0  0  0  0  0  0  0  0  0  0  0
    2.3358    4.6724   -6.9961 H   0  0  0  0  0  0  0  0  0  0  0  0
    3.6229    4.3771   -3.1819 H   0  0  0  0  0  0  0  0  0  0  0  0
    3.1640    3.2121   -1.0960 H   0  0  0  0  0  0  0  0  0  0  0  0
   -5.5922    1.2857    1.7043 H   0  0  0  0  0  0  0  0  0  0  0  0
   -7.4761    0.9705    0.1528 H   0  0  0  0  0  0  0  0  0  0  0  0
   -7.5329    2.2862   -2.5109 H   0  0  0  0  0  0  0  0  0  0  0  0
   -8.0114    4.0285   -2.6207 H   0  0  0  0  0  0  0  0  0  0  0  0
   -9.0182    2.7545   -3.4154 H   0  0  0  0  0  0  0  0  0  0  0  0
   -8.2140    5.2071    0.1778 H   0  0  0  0  0  0  0  0  0  0  0  0
   -6.3545    5.5314    1.7626 H   0  0  0  0  0  0  0  0  0  0  0  0
   -2.6277    3.0901    4.4623 H   0  0  0  0  0  0  0  0  0  0  0  0
   -2.6675    1.8324    6.5499 H   0  0  0  0  0  0  0  0  0  0  0  0
   -2.8036   -0.6904    6.9767 H   0  0  0  0  0  0  0  0  0  0  0  0
   -3.6641   -1.7821    8.1207 H   0  0  0  0  0  0  0  0  0  0  0  0
   -4.3428   -1.5239    6.4733 H   0  0  0  0  0  0  0  0  0  0  0  0
   -6.8580    1.0391    6.0356 H   0  0  0  0  0  0  0  0  0  0  0  0
   -6.8834    2.4158    4.0127 H   0  0  0  0  0  0  0  0  0  0  0  0
   -3.7458    7.0976    1.0218 H   0  0  0  0  0  0  0  0  0  0  0  0
   -6.2781   10.2921    7.1577 H   0  0  0  0  0  0  0  0  0  0  0  0
   -5.4146    7.8283    7.1530 H   0  0  0  0  0  0  0  0  0  0  0  0
  1  2  2  3
  2  3  1  0
  3  4  2  0
  3  5  1  0
  5  6  1  0
  6  7  1  0
  7  8  2  0
  8  9  1  0
  9 10  1  0
 10 11  2  3
 11 12  1  0
 12 13  3  0
 11 14  1  0
 14 15  3  0
  1 16  1  0
 16 17  2  0
 17 18  1  0
 17 19  1  0
 19 20  1  0
 19 21  2  0
 21 22  1  0
 22 23  2  0
 23 24  1  0
 24 25  1  0
 25 26  1  0
 24 27  2  0
 27 28  1  0
 28 29  2  0
 27 30  1  0
 30 31  1  0
 21 32  1  0
 32 33  2  0
 33 34  1  0
 34 35  1  0
 35 36  2  0
 36 37  1  0
 37 38  2  0
 38 39  1  0
 39 40  1  0
 38 41  1  0
 41 42  2  0
 34 43  1  0
 43 44  2  0
 44 45  1  0
 45 46  2  0
 46 47  1  0
 47 48  1  0
 46 49  1  0
 49 50  2  0
 33 51  1  0
 51 52  1  0
 52 53  1  0
 53 54  2  0
 54 55  1  0
 55 56  1  0
 56 57  2  0
 57 58  1  0
 58 59  2  0
 59 60  1  0
 60 61  1  0
 59 62  1  0
 62 63  2  0
 55 64  1  0
 64 65  2  0
 65 66  1  0
 66 67  2  0
 67 68  1  0
 68 69  1  0
 67 70  1  0
 70 71  2  0
 54 72  1  0
 72 73  1  0
 53 74  1  0
 74 75  2  0
 75 76  1  0
 76 77  1  0
 77 78  2  0
 78 79  1  0
 79 80  2  0
 80 81  1  0
 81 82  1  0
 80 83  1  0
 83 84  2  0
 76 85  1  0
 85 86  2  0
 86 87  1  0
 87 88  2  0
 88 89  1  0
 89 90  1  0
 88 91  1  0
 91 92  2  0
 75 93  1  0
 93 94  1  0
 94 95  1  0
 95 96  2  0
 96 97  1  0
 97 98  1  0
 98 99  2  0
 99100  1  0
100101  2  0
101102  1  0
102103  1  0
101104  1  0
104105  2  0
 97106  1  0
106107  2  0
107108  1  0
108109  2  0
109110  1  0
110111  1  0
109112  1  0
112113  2  0
 96114  1  0
114115  1  0
 95116  1  0
116117  2  3
117118  1  0
118119  2  0
118120  1  0
120121  1  0
121122  1  0
122123  2  0
123124  1  0
124125  1  0
125126  2  3
126127  1  0
127128  3  0
126129  1  0
129130  3  0
 10  2  1  0
 29 16  1  0
 73 32  1  0
115 74  1  0
125117  1  0
  9  5  2  0
 29 22  1  0
 42 35  1  0
 50 43  1  0
 72 51  2  0
 84 77  1  0
 92 85  1  0
114 93  2  0
124120  2  0
 63 56  1  0
 71 64  1  0
105 98  1  0
113106  1  0
  1131  1  0
  7132  1  0
  8133  1  0
 25134  1  0
 25135  1  0
 26136  1  0
 26137  1  0
 26138  1  0
 30139  1  0
 30140  1  0
 31141  1  0
 31142  1  0
 31143  1  0
 36144  1  0
 37145  1  0
 40146  1  0
 40147  1  0
 40148  1  0
 41149  1  0
 42150  1  0
 44151  1  0
 45152  1  0
 48153  1  0
 48154  1  0
 48155  1  0
 49156  1  0
 50157  1  0
 57158  1  0
 58159  1  0
 61160  1  0
 61161  1  0
 61162  1  0
 62163  1  0
 63164  1  0
 65165  1  0
 66166  1  0
 69167  1  0
 69168  1  0
 69169  1  0
 70170  1  0
 71171  1  0
 78172  1  0
 79173  1  0
 82174  1  0
 82175  1  0
 82176  1  0
 83177  1  0
 84178  1  0
 86179  1  0
 87180  1  0
 90181  1  0
 90182  1  0
 90183  1  0
 91184  1  0
 92185  1  0
 99186  1  0
100187  1  0
103188  1  0
103189  1  0
103190  1  0
104191  1  0
105192  1  0
107193  1  0
108194  1  0
111195  1  0
111196  1  0
111197  1  0
112198  1  0
113199  1  0
116200  1  0
122201  1  0
123202  1  0
M  END

