
     RDKit          3D

236258  0  0  0  0  0  0  0  0999 V2000
   10.2305    0.2829   -1.5308 C   0  0  0  0  0  0  0  0  0  0  0  0
   10.4887   -0.9400   -1.0269 C   0  0  0  0  0  0  0  0  0  0  0  0
   11.3506   -1.8571   -1.8026 C   0  0  0  0  0  0  0  0  0  0  0  0
   12.3147   -1.4106   -2.4826 O   0  0  0  0  0  0  0  0  0  0  0  0
   11.0260   -3.2575   -1.8262 N   0  0  0  0  0  0  0  0  0  0  0  0
   11.4660   -4.0871   -2.9558 C   0  0  0  0  0  0  0  0  0  0  0  0
   10.5143   -3.8967   -4.1335 C   0  0  0  0  0  0  0  0  0  0  0  0
   10.0733   -3.7578   -0.8627 C   0  0  0  0  0  0  0  0  0  0  0  0
    9.6889   -4.9650   -0.9077 O   0  0  0  0  0  0  0  0  0  0  0  0
    9.5440   -2.8651    0.2008 C   0  0  0  0  0  0  0  0  0  0  0  0
    9.7698   -1.5300    0.1493 C   0  0  0  0  0  0  0  0  0  0  0  0
    9.4180   -0.6497    1.3323 C   0  0  0  0  0  0  0  0  0  0  0  0
    8.7962   -3.4671    1.2879 C   0  0  0  0  0  0  0  0  0  0  0  0
    8.2087   -3.9573    2.1572 N   0  0  0  0  0  0  0  0  0  0  0  0
    8.9290    0.9412   -1.3720 C   0  0  0  0  0  0  0  0  0  0  0  0
    8.5735    1.8748   -0.4012 C   0  0  0  0  0  0  0  0  0  0  0  0
    7.2361    2.2745   -0.5132 C   0  0  0  0  0  0  0  0  0  0  0  0
    6.5399    3.0916    0.3872 C   0  0  0  0  0  0  0  0  0  0  0  0
    7.1343    3.5577    1.6499 C   0  0  0  0  0  0  0  0  0  0  0  0
    7.3366    2.6531    2.7024 C   0  0  0  0  0  0  0  0  0  0  0  0
    7.7428    3.1152    3.9565 C   0  0  0  0  0  0  0  0  0  0  0  0
    7.9659    4.4870    4.1661 C   0  0  0  0  0  0  0  0  0  0  0  0
    8.3251    4.9647    5.4338 C   0  0  0  0  0  0  0  0  0  0  0  0
    8.5327    6.3418    5.6413 C   0  0  0  0  0  0  0  0  0  0  0  0
    8.8568    6.8716    6.8982 O   0  0  0  0  0  0  0  0  0  0  0  0
    8.6724    6.2087    8.1479 C   0  0  0  0  0  0  0  0  0  0  0  0
    7.1900    6.0702    8.4686 C   0  0  0  0  0  0  0  0  0  0  0  0
    8.4141    7.2251    4.5615 C   0  0  0  0  0  0  0  0  0  0  0  0
    8.0458    6.7591    3.2956 C   0  0  0  0  0  0  0  0  0  0  0  0
    7.8031    5.3946    3.0933 C   0  0  0  0  0  0  0  0  0  0  0  0
    7.3790    4.9223    1.8423 C   0  0  0  0  0  0  0  0  0  0  0  0
    5.1795    3.3202    0.1302 C   0  0  0  0  0  0  0  0  0  0  0  0
    4.5158    2.7767   -0.9715 C   0  0  0  0  0  0  0  0  0  0  0  0
    5.2116    1.9517   -1.8900 C   0  0  0  0  0  0  0  0  0  0  0  0
    4.5545    1.3007   -3.0517 C   0  0  0  0  0  0  0  0  0  0  0  0
    5.0620    1.5032   -4.3475 C   0  0  0  0  0  0  0  0  0  0  0  0
    4.5328    0.7955   -5.4428 C   0  0  0  0  0  0  0  0  0  0  0  0
    5.0771    0.9463   -6.7271 C   0  0  0  0  0  0  0  0  0  0  0  0
    4.5851    0.1983   -7.7981 C   0  0  0  0  0  0  0  0  0  0  0  0
    3.5240   -0.7092   -7.6075 C   0  0  0  0  0  0  0  0  0  0  0  0
    3.0167   -1.5181   -8.6408 O   0  0  0  0  0  0  0  0  0  0  0  0
    3.5344   -1.5927   -9.9679 C   0  0  0  0  0  0  0  0  0  0  0  0
    2.9549   -0.4858  -10.8406 C   0  0  0  0  0  0  0  0  0  0  0  0
    2.9517   -0.8310   -6.3319 C   0  0  0  0  0  0  0  0  0  0  0  0
    3.4542   -0.0935   -5.2448 C   0  0  0  0  0  0  0  0  0  0  0  0
    2.9137   -0.2581   -3.9591 C   0  0  0  0  0  0  0  0  0  0  0  0
    3.4692    0.4247   -2.8716 C   0  0  0  0  0  0  0  0  0  0  0  0
    6.5791    1.7155   -1.6160 C   0  0  0  0  0  0  0  0  0  0  0  0
    7.6308    0.6739   -2.4139 S   0  0  0  0  0  0  0  0  0  0  0  0
    3.1415    3.0632   -0.9624 C   0  0  0  0  0  0  0  0  0  0  0  0
    2.7341    3.7734    0.1737 C   0  0  0  0  0  0  0  0  0  0  0  0
    4.0730    4.0917    1.1387 S   0  0  0  0  0  0  0  0  0  0  0  0
    1.3362    3.9056    0.6173 C   0  0  0  0  0  0  0  0  0  0  0  0
    0.9157    4.1058    1.9382 C   0  0  0  0  0  0  0  0  0  0  0  0
   -0.4388    3.7720    2.1502 C   0  0  0  0  0  0  0  0  0  0  0  0
   -1.1258    3.6629    3.3934 C   0  0  0  0  0  0  0  0  0  0  0  0
   -0.6004    4.1635    4.6944 C   0  0  0  0  0  0  0  0  0  0  0  0
   -1.3947    4.7812    5.6632 C   0  0  0  0  0  0  0  0  0  0  0  0
   -0.6892    5.2250    6.7841 C   0  0  0  0  0  0  0  0  0  0  0  0
    0.6703    4.9386    6.7469 C   0  0  0  0  0  0  0  0  0  0  0  0
    1.6379    5.6427    7.6039 C   0  0  0  0  0  0  0  0  0  0  0  0
    2.7661    5.1796    8.1597 C   0  0  0  0  0  0  0  0  0  0  0  0
    3.2614    3.7966    8.2393 C   0  0  0  0  0  0  0  0  0  0  0  0
    2.6585    2.5986    7.8481 C   0  0  0  0  0  0  0  0  0  0  0  0
    3.4425    1.4652    8.1331 C   0  0  0  0  0  0  0  0  0  0  0  0
    4.6316    1.7710    8.7815 C   0  0  0  0  0  0  0  0  0  0  0  0
    5.8251    0.5890    9.4155 S   0  0  0  0  0  0  0  0  0  0  0  0
    7.1221    0.9566    8.1795 C   0  0  0  0  0  0  0  0  0  0  0  0
    8.0486    2.0482    8.6958 C   0  0  0  0  0  0  0  0  0  0  0  0
    4.7144    3.4248    9.0015 S   0  0  0  0  0  0  0  0  0  0  0  0
    0.9972    4.1804    5.2705 S   0  0  0  0  0  0  0  0  0  0  0  0
   -2.4086    3.0696    3.3492 C   0  0  0  0  0  0  0  0  0  0  0  0
   -3.0313    2.7007    2.1563 C   0  0  0  0  0  0  0  0  0  0  0  0
   -2.3536    2.7987    0.9298 C   0  0  0  0  0  0  0  0  0  0  0  0
   -2.7640    1.9727   -0.2282 C   0  0  0  0  0  0  0  0  0  0  0  0
   -2.9013    0.5866   -0.1583 C   0  0  0  0  0  0  0  0  0  0  0  0
   -3.0325   -0.0257   -1.4040 C   0  0  0  0  0  0  0  0  0  0  0  0
   -3.0124    0.8762   -2.4658 C   0  0  0  0  0  0  0  0  0  0  0  0
   -3.0810    0.5645   -3.9057 C   0  0  0  0  0  0  0  0  0  0  0  0
   -3.1089   -0.6885   -4.3741 C   0  0  0  0  0  0  0  0  0  0  0  0
   -3.1171   -1.0065   -5.8098 C   0  0  0  0  0  0  0  0  0  0  0  0
   -3.2450   -0.1243   -6.8838 C   0  0  0  0  0  0  0  0  0  0  0  0
   -3.1334   -0.7540   -8.1310 C   0  0  0  0  0  0  0  0  0  0  0  0
   -2.9339   -2.1218   -8.0293 C   0  0  0  0  0  0  0  0  0  0  0  0
   -2.6119   -3.2258   -9.4092 S   0  0  0  0  0  0  0  0  0  0  0  0
   -4.3557   -3.7308   -9.6332 C   0  0  0  0  0  0  0  0  0  0  0  0
   -4.6826   -4.9233   -8.7416 C   0  0  0  0  0  0  0  0  0  0  0  0
   -2.8780   -2.5633   -6.4070 S   0  0  0  0  0  0  0  0  0  0  0  0
   -2.7953    2.4334   -1.8499 S   0  0  0  0  0  0  0  0  0  0  0  0
   -1.0669    3.3573    0.9644 C   0  0  0  0  0  0  0  0  0  0  0  0
    0.0358    3.3628   -0.2946 S   0  0  0  0  0  0  0  0  0  0  0  0
   -4.2417    2.0175    2.3441 C   0  0  0  0  0  0  0  0  0  0  0  0
   -4.5006    1.6775    3.6692 C   0  0  0  0  0  0  0  0  0  0  0  0
   -3.2767    2.3586    4.6170 S   0  0  0  0  0  0  0  0  0  0  0  0
   -5.0811    0.3529    3.9271 C   0  0  0  0  0  0  0  0  0  0  0  0
   -6.3192   -0.0101    3.3776 C   0  0  0  0  0  0  0  0  0  0  0  0
   -6.3050   -1.2667    2.7484 C   0  0  0  0  0  0  0  0  0  0  0  0
   -7.3060   -1.7818    1.9100 C   0  0  0  0  0  0  0  0  0  0  0  0
   -8.7143   -1.3466    1.9599 C   0  0  0  0  0  0  0  0  0  0  0  0
   -9.1452   -0.1909    1.2884 C   0  0  0  0  0  0  0  0  0  0  0  0
  -10.5141    0.0476    1.1143 C   0  0  0  0  0  0  0  0  0  0  0  0
  -11.4617   -0.8775    1.5929 C   0  0  0  0  0  0  0  0  0  0  0  0
  -12.8299   -0.7126    1.3224 C   0  0  0  0  0  0  0  0  0  0  0  0
  -13.7584   -1.6870    1.7236 C   0  0  0  0  0  0  0  0  0  0  0  0
  -15.0981   -1.5196    1.3369 O   0  0  0  0  0  0  0  0  0  0  0  0
  -16.0935   -2.5438    1.3503 C   0  0  0  0  0  0  0  0  0  0  0  0
  -15.7868   -3.6179    0.3108 C   0  0  0  0  0  0  0  0  0  0  0  0
  -13.3188   -2.7923    2.4765 C   0  0  0  0  0  0  0  0  0  0  0  0
  -11.9614   -2.9548    2.7623 C   0  0  0  0  0  0  0  0  0  0  0  0
  -11.0254   -2.0201    2.3056 C   0  0  0  0  0  0  0  0  0  0  0  0
   -9.6560   -2.2392    2.4928 C   0  0  0  0  0  0  0  0  0  0  0  0
   -6.9299   -2.8100    1.0362 C   0  0  0  0  0  0  0  0  0  0  0  0
   -5.6612   -3.3917    1.0509 C   0  0  0  0  0  0  0  0  0  0  0  0
   -4.7291   -3.0172    2.0337 C   0  0  0  0  0  0  0  0  0  0  0  0
   -3.4324   -3.6934    2.1910 C   0  0  0  0  0  0  0  0  0  0  0  0
   -2.2440   -3.0601    1.7940 C   0  0  0  0  0  0  0  0  0  0  0  0
   -1.0002   -3.5828    2.1852 C   0  0  0  0  0  0  0  0  0  0  0  0
    0.1914   -2.9112    1.8750 C   0  0  0  0  0  0  0  0  0  0  0  0
    1.4102   -3.3660    2.3851 C   0  0  0  0  0  0  0  0  0  0  0  0
    1.4589   -4.4928    3.2162 C   0  0  0  0  0  0  0  0  0  0  0  0
    2.6853   -4.8330    3.8042 O   0  0  0  0  0  0  0  0  0  0  0  0
    2.8161   -5.7198    4.9121 C   0  0  0  0  0  0  0  0  0  0  0  0
    4.2510   -5.6750    5.4290 C   0  0  0  0  0  0  0  0  0  0  0  0
    0.2790   -5.2202    3.4660 C   0  0  0  0  0  0  0  0  0  0  0  0
   -0.9511   -4.7636    2.9630 C   0  0  0  0  0  0  0  0  0  0  0  0
   -2.1393   -5.4456    3.2712 C   0  0  0  0  0  0  0  0  0  0  0  0
   -3.3747   -4.9098    2.8840 C   0  0  0  0  0  0  0  0  0  0  0  0
   -5.0776   -1.9233    2.8476 C   0  0  0  0  0  0  0  0  0  0  0  0
   -4.0385   -0.9719    3.7522 S   0  0  0  0  0  0  0  0  0  0  0  0
   -5.4103   -4.1954   -0.0764 C   0  0  0  0  0  0  0  0  0  0  0  0
   -6.4783   -4.2050   -0.9709 C   0  0  0  0  0  0  0  0  0  0  0  0
   -7.7494   -3.2918   -0.3451 S   0  0  0  0  0  0  0  0  0  0  0  0
   -6.3828   -4.5632   -2.3958 C   0  0  0  0  0  0  0  0  0  0  0  0
   -6.3429   -3.6339   -3.3856 C   0  0  0  0  0  0  0  0  0  0  0  0
   -6.1307   -2.1915   -3.0957 C   0  0  0  0  0  0  0  0  0  0  0  0
   -5.5432   -1.8322   -2.0409 O   0  0  0  0  0  0  0  0  0  0  0  0
   -6.5742   -1.1984   -4.0391 N   0  0  0  0  0  0  0  0  0  0  0  0
   -6.6485    0.2162   -3.6459 C   0  0  0  0  0  0  0  0  0  0  0  0
   -7.9732    0.5049   -2.9505 C   0  0  0  0  0  0  0  0  0  0  0  0
   -7.0396   -1.6276   -5.3246 C   0  0  0  0  0  0  0  0  0  0  0  0
   -7.4638   -0.7768   -6.1566 O   0  0  0  0  0  0  0  0  0  0  0  0
   -7.0079   -3.0652   -5.6933 C   0  0  0  0  0  0  0  0  0  0  0  0
   -6.6021   -4.0141   -4.8107 C   0  0  0  0  0  0  0  0  0  0  0  0
   -6.5104   -5.4714   -5.2132 C   0  0  0  0  0  0  0  0  0  0  0  0
   -7.4778   -3.4131   -7.0218 C   0  0  0  0  0  0  0  0  0  0  0  0
   -7.8631   -3.6738   -8.0847 N   0  0  0  0  0  0  0  0  0  0  0  0
   10.8198    0.6329   -2.3745 H   0  0  0  0  0  0  0  0  0  0  0  0
   12.4990   -3.8091   -3.2738 H   0  0  0  0  0  0  0  0  0  0  0  0
   11.4966   -5.1596   -2.6724 H   0  0  0  0  0  0  0  0  0  0  0  0
   10.8968   -4.4313   -5.0283 H   0  0  0  0  0  0  0  0  0  0  0  0
    9.5118   -4.3084   -3.8722 H   0  0  0  0  0  0  0  0  0  0  0  0
   10.4094   -2.8175   -4.3785 H   0  0  0  0  0  0  0  0  0  0  0  0
    8.3354   -0.4086    1.3107 H   0  0  0  0  0  0  0  0  0  0  0  0
    9.6489   -1.1558    2.2980 H   0  0  0  0  0  0  0  0  0  0  0  0
   10.0144    0.2841    1.3108 H   0  0  0  0  0  0  0  0  0  0  0  0
    9.2552    2.2404    0.3581 H   0  0  0  0  0  0  0  0  0  0  0  0
    7.1342    1.5980    2.5627 H   0  0  0  0  0  0  0  0  0  0  0  0
    7.8633    2.4064    4.7701 H   0  0  0  0  0  0  0  0  0  0  0  0
    8.4353    4.2621    6.2491 H   0  0  0  0  0  0  0  0  0  0  0  0
    9.1413    6.8267    8.9382 H   0  0  0  0  0  0  0  0  0  0  0  0
    9.1741    5.2238    8.1536 H   0  0  0  0  0  0  0  0  0  0  0  0
    6.6991    7.0663    8.4307 H   0  0  0  0  0  0  0  0  0  0  0  0
    6.6898    5.4004    7.7357 H   0  0  0  0  0  0  0  0  0  0  0  0
    7.0645    5.6446    9.4852 H   0  0  0  0  0  0  0  0  0  0  0  0
    8.5994    8.2779    4.7088 H   0  0  0  0  0  0  0  0  0  0  0  0
    7.9443    7.4626    2.4818 H   0  0  0  0  0  0  0  0  0  0  0  0
    7.2178    5.6138    1.0230 H   0  0  0  0  0  0  0  0  0  0  0  0
    5.8867    2.1924   -4.5003 H   0  0  0  0  0  0  0  0  0  0  0  0
    5.8901    1.6351   -6.8998 H   0  0  0  0  0  0  0  0  0  0  0  0
    5.0427    0.3335   -8.7687 H   0  0  0  0  0  0  0  0  0  0  0  0
    4.6457   -1.5685   -9.9602 H   0  0  0  0  0  0  0  0  0  0  0  0
    3.2370   -2.5688  -10.4006 H   0  0  0  0  0  0  0  0  0  0  0  0
    3.0806    0.5030  -10.3544 H   0  0  0  0  0  0  0  0  0  0  0  0
    1.8767   -0.6799  -11.0191 H   0  0  0  0  0  0  0  0  0  0  0  0
    3.4769   -0.4748  -11.8192 H   0  0  0  0  0  0  0  0  0  0  0  0
    2.1321   -1.5249   -6.1868 H   0  0  0  0  0  0  0  0  0  0  0  0
    2.0761   -0.9316   -3.7937 H   0  0  0  0  0  0  0  0  0  0  0  0
    3.0654    0.2511   -1.8851 H   0  0  0  0  0  0  0  0  0  0  0  0
    2.4492    2.6951   -1.7105 H   0  0  0  0  0  0  0  0  0  0  0  0
    1.6092    4.3755    2.7183 H   0  0  0  0  0  0  0  0  0  0  0  0
   -2.4573    4.9624    5.5439 H   0  0  0  0  0  0  0  0  0  0  0  0
   -1.1491    5.8046    7.5834 H   0  0  0  0  0  0  0  0  0  0  0  0
    1.3892    6.6770    7.8040 H   0  0  0  0  0  0  0  0  0  0  0  0
    3.3597    5.9031    8.6966 H   0  0  0  0  0  0  0  0  0  0  0  0
    1.6813    2.5149    7.3973 H   0  0  0  0  0  0  0  0  0  0  0  0
    3.1504    0.4509    7.8903 H   0  0  0  0  0  0  0  0  0  0  0  0
    7.7137    0.0338    8.0229 H   0  0  0  0  0  0  0  0  0  0  0  0
    6.6699    1.2439    7.2000 H   0  0  0  0  0  0  0  0  0  0  0  0
    8.4317    1.7933    9.7088 H   0  0  0  0  0  0  0  0  0  0  0  0
    8.9152    2.1590    8.0087 H   0  0  0  0  0  0  0  0  0  0  0  0
    7.5194    3.0239    8.7401 H   0  0  0  0  0  0  0  0  0  0  0  0
   -2.8513    0.0325    0.7693 H   0  0  0  0  0  0  0  0  0  0  0  0
   -3.1157   -1.0973   -1.5066 H   0  0  0  0  0  0  0  0  0  0  0  0
   -3.0782    1.4014   -4.5876 H   0  0  0  0  0  0  0  0  0  0  0  0
   -3.0804   -1.5268   -3.6911 H   0  0  0  0  0  0  0  0  0  0  0  0
   -3.3879    0.9377   -6.7816 H   0  0  0  0  0  0  0  0  0  0  0  0
   -3.1802   -0.2210   -9.0699 H   0  0  0  0  0  0  0  0  0  0  0  0
   -4.4843   -4.0310  -10.6919 H   0  0  0  0  0  0  0  0  0  0  0  0
   -5.0501   -2.8827   -9.4275 H   0  0  0  0  0  0  0  0  0  0  0  0
   -3.9808   -5.7566   -8.9655 H   0  0  0  0  0  0  0  0  0  0  0  0
   -5.7122   -5.2743   -8.9447 H   0  0  0  0  0  0  0  0  0  0  0  0
   -4.5901   -4.6492   -7.6742 H   0  0  0  0  0  0  0  0  0  0  0  0
   -4.8091    1.5953    1.5242 H   0  0  0  0  0  0  0  0  0  0  0  0
   -7.1115    0.7149    3.2208 H   0  0  0  0  0  0  0  0  0  0  0  0
   -8.4227    0.4896    0.8426 H   0  0  0  0  0  0  0  0  0  0  0  0
  -10.8337    0.9292    0.5740 H   0  0  0  0  0  0  0  0  0  0  0  0
  -13.1743    0.1459    0.7559 H   0  0  0  0  0  0  0  0  0  0  0  0
  -16.1897   -2.9861    2.3665 H   0  0  0  0  0  0  0  0  0  0  0  0
  -17.0647   -2.0734    1.0894 H   0  0  0  0  0  0  0  0  0  0  0  0
  -16.6757   -4.2672    0.1736 H   0  0  0  0  0  0  0  0  0  0  0  0
  -14.9367   -4.2497    0.6388 H   0  0  0  0  0  0  0  0  0  0  0  0
  -15.5395   -3.1514   -0.6642 H   0  0  0  0  0  0  0  0  0  0  0  0
  -14.0127   -3.5411    2.8327 H   0  0  0  0  0  0  0  0  0  0  0  0
  -11.6448   -3.8313    3.3124 H   0  0  0  0  0  0  0  0  0  0  0  0
   -9.3139   -3.1489    2.9807 H   0  0  0  0  0  0  0  0  0  0  0  0
   -2.2936   -2.1287    1.2418 H   0  0  0  0  0  0  0  0  0  0  0  0
    0.1709   -2.0109    1.2724 H   0  0  0  0  0  0  0  0  0  0  0  0
    2.3180   -2.8123    2.1757 H   0  0  0  0  0  0  0  0  0  0  0  0
    2.1322   -5.4042    5.7303 H   0  0  0  0  0  0  0  0  0  0  0  0
    2.5701   -6.7600    4.6026 H   0  0  0  0  0  0  0  0  0  0  0  0
    4.3373   -6.3066    6.3375 H   0  0  0  0  0  0  0  0  0  0  0  0
    4.9432   -6.0615    4.6539 H   0  0  0  0  0  0  0  0  0  0  0  0
    4.5261   -4.6316    5.6869 H   0  0  0  0  0  0  0  0  0  0  0  0
    0.3056   -6.1092    4.0828 H   0  0  0  0  0  0  0  0  0  0  0  0
   -2.1150   -6.3611    3.8539 H   0  0  0  0  0  0  0  0  0  0  0  0
   -4.2835   -5.4080    3.1984 H   0  0  0  0  0  0  0  0  0  0  0  0
   -4.4394   -4.6270   -0.3008 H   0  0  0  0  0  0  0  0  0  0  0  0
   -6.5071   -5.6108   -2.6200 H   0  0  0  0  0  0  0  0  0  0  0  0
   -5.8171    0.4782   -2.9615 H   0  0  0  0  0  0  0  0  0  0  0  0
   -6.5444    0.8796   -4.5360 H   0  0  0  0  0  0  0  0  0  0  0  0
   -8.1058   -0.1638   -2.0723 H   0  0  0  0  0  0  0  0  0  0  0  0
   -8.8169    0.3574   -3.6551 H   0  0  0  0  0  0  0  0  0  0  0  0
   -7.9845    1.5569   -2.5952 H   0  0  0  0  0  0  0  0  0  0  0  0
   -7.4154   -6.0099   -4.8606 H   0  0  0  0  0  0  0  0  0  0  0  0
   -5.6072   -5.9276   -4.7574 H   0  0  0  0  0  0  0  0  0  0  0  0
   -6.4252   -5.6070   -6.3124 H   0  0  0  0  0  0  0  0  0  0  0  0
  1  2  2  3
  2  3  1  0
  3  4  2  0
  3  5  1  0
  5  6  1  0
  6  7  1  0
  5  8  1  0
  8  9  2  0
  8 10  1  0
 10 11  2  0
 11 12  1  0
 10 13  1  0
 13 14  3  0
  1 15  1  0
 15 16  2  0
 16 17  1  0
 17 18  2  0
 18 19  1  0
 19 20  2  0
 20 21  1  0
 21 22  2  0
 22 23  1  0
 23 24  2  0
 24 25  1  0
 25 26  1  0
 26 27  1  0
 24 28  1  0
 28 29  2  0
 29 30  1  0
 30 31  2  0
 18 32  1  0
 32 33  2  0
 33 34  1  0
 34 35  1  0
 35 36  2  0
 36 37  1  0
 37 38  2  0
 38 39  1  0
 39 40  2  0
 40 41  1  0
 41 42  1  0
 42 43  1  0
 40 44  1  0
 44 45  2  0
 45 46  1  0
 46 47  2  0
 34 48  2  0
 48 49  1  0
 33 50  1  0
 50 51  2  0
 51 52  1  0
 51 53  1  0
 53 54  2  0
 54 55  1  0
 55 56  2  0
 56 57  1  0
 57 58  2  0
 58 59  1  0
 59 60  2  0
 60 61  1  0
 61 62  2  3
 62 63  1  0
 63 64  2  0
 64 65  1  0
 65 66  2  0
 66 67  1  0
 67 68  1  0
 68 69  1  0
 66 70  1  0
 60 71  1  0
 56 72  1  0
 72 73  2  0
 73 74  1  0
 74 75  1  0
 75 76  2  0
 76 77  1  0
 77 78  2  0
 78 79  1  0
 79 80  2  3
 80 81  1  0
 81 82  2  0
 82 83  1  0
 83 84  2  0
 84 85  1  0
 85 86  1  0
 86 87  1  0
 84 88  1  0
 78 89  1  0
 74 90  2  0
 90 91  1  0
 73 92  1  0
 92 93  2  0
 93 94  1  0
 93 95  1  0
 95 96  2  0
 96 97  1  0
 97 98  2  0
 98 99  1  0
 99100  2  0
100101  1  0
101102  2  0
102103  1  0
103104  2  0
104105  1  0
105106  1  0
106107  1  0
104108  1  0
108109  2  0
109110  1  0
110111  2  0
 98112  1  0
112113  2  0
113114  1  0
114115  1  0
115116  2  0
116117  1  0
117118  2  0
118119  1  0
119120  2  0
120121  1  0
121122  1  0
122123  1  0
120124  1  0
124125  2  0
125126  1  0
126127  2  0
114128  2  0
128129  1  0
113130  1  0
130131  2  0
131132  1  0
131133  1  0
133134  2  3
134135  1  0
135136  2  0
135137  1  0
137138  1  0
138139  1  0
137140  1  0
140141  2  0
140142  1  0
142143  2  0
143144  1  0
142145  1  0
145146  3  0
 11  2  1  0
 49 15  1  0
 91 53  1  0
129 95  1  0
143134  1  0
 48 17  1  0
 90 55  1  0
128 97  1  0
 31 19  1  0
 52 32  1  0
 71 57  1  0
 94 72  1  0
111 99  1  0
132112  1  0
 30 22  1  0
 47 35  1  0
 70 63  1  0
 89 75  1  0
110102  1  0
127115  1  0
 45 37  1  0
 88 81  1  0
125117  1  0
  1147  1  0
  6148  1  0
  6149  1  0
  7150  1  0
  7151  1  0
  7152  1  0
 12153  1  0
 12154  1  0
 12155  1  0
 16156  1  0
 20157  1  0
 21158  1  0
 23159  1  0
 26160  1  0
 26161  1  0
 27162  1  0
 27163  1  0
 27164  1  0
 28165  1  0
 29166  1  0
 31167  1  0
 36168  1  0
 38169  1  0
 39170  1  0
 42171  1  0
 42172  1  0
 43173  1  0
 43174  1  0
 43175  1  0
 44176  1  0
 46177  1  0
 47178  1  0
 50179  1  0
 54180  1  0
 58181  1  0
 59182  1  0
 61183  1  0
 62184  1  0
 64185  1  0
 65186  1  0
 68187  1  0
 68188  1  0
 69189  1  0
 69190  1  0
 69191  1  0
 76192  1  0
 77193  1  0
 79194  1  0
 80195  1  0
 82196  1  0
 83197  1  0
 86198  1  0
 86199  1  0
 87200  1  0
 87201  1  0
 87202  1  0
 92203  1  0
 96204  1  0
100205  1  0
101206  1  0
103207  1  0
106208  1  0
106209  1  0
107210  1  0
107211  1  0
107212  1  0
108213  1  0
109214  1  0
111215  1  0
116216  1  0
118217  1  0
119218  1  0
122219  1  0
122220  1  0
123221  1  0
123222  1  0
123223  1  0
124224  1  0
126225  1  0
127226  1  0
130227  1  0
133228  1  0
138229  1  0
138230  1  0
139231  1  0
139232  1  0
139233  1  0
144234  1  0
144235  1  0
144236  1  0
M  END

