
     RDKit          3D

152162  0  0  0  0  0  0  0  0999 V2000
    0.4002    0.7557    6.2723 C   0  0  0  0  0  0  0  0  0  0  0  0
    1.6267    0.8521    6.8243 C   0  0  0  0  0  0  0  0  0  0  0  0
    2.7366   -0.0820    6.5117 C   0  0  0  0  0  0  0  0  0  0  0  0
    2.4864   -1.2438    6.0818 O   0  0  0  0  0  0  0  0  0  0  0  0
    4.1014    0.3236    6.7368 N   0  0  0  0  0  0  0  0  0  0  0  0
    5.2146   -0.5411    6.3163 C   0  0  0  0  0  0  0  0  0  0  0  0
    5.6584   -0.1802    4.9027 C   0  0  0  0  0  0  0  0  0  0  0  0
    4.3742    1.6522    7.2367 C   0  0  0  0  0  0  0  0  0  0  0  0
    5.5576    1.9917    7.5126 O   0  0  0  0  0  0  0  0  0  0  0  0
    3.2469    2.6521    7.3798 C   0  0  0  0  0  0  0  0  0  0  0  0
    3.5989    3.7501    8.3022 C   0  0  0  0  0  0  0  0  0  0  0  0
    3.8736    4.6141    9.0205 N   0  0  0  0  0  0  0  0  0  0  0  0
    1.9278    1.9624    7.8020 C   0  0  0  0  0  0  0  0  0  0  0  0
    1.9695    1.4061    9.2358 C   0  0  0  0  0  0  0  0  0  0  0  0
    0.0886   -0.0456    5.0642 C   0  0  0  0  0  0  0  0  0  0  0  0
    0.9076    0.0569    3.9228 C   0  0  0  0  0  0  0  0  0  0  0  0
    1.9878    0.8810    3.9106 F   0  0  0  0  0  0  0  0  0  0  0  0
    0.5879   -0.6373    2.7600 C   0  0  0  0  0  0  0  0  0  0  0  0
   -0.5811   -1.4061    2.6834 C   0  0  0  0  0  0  0  0  0  0  0  0
   -1.4221   -1.5009    3.8009 C   0  0  0  0  0  0  0  0  0  0  0  0
   -2.5751   -2.2204    3.7477 N   0  0  0  0  0  0  0  0  0  0  0  0
   -3.4125   -2.2952    4.8111 C   0  0  0  0  0  0  0  0  0  0  0  0
   -3.0942   -1.6180    5.9888 C   0  0  0  0  0  0  0  0  0  0  0  0
   -3.9699   -1.6822    7.0784 O   0  0  0  0  0  0  0  0  0  0  0  0
   -3.7981   -0.9257    8.2766 C   0  0  0  0  0  0  0  0  0  0  0  0
   -4.1621    0.5360    8.0422 C   0  0  0  0  0  0  0  0  0  0  0  0
   -1.9414   -0.8960    6.0529 N   0  0  0  0  0  0  0  0  0  0  0  0
   -1.0913   -0.8141    4.9921 C   0  0  0  0  0  0  0  0  0  0  0  0
   -0.9493   -1.9600    1.3755 C   0  0  0  0  0  0  0  0  0  0  0  0
   -1.9110   -1.4056    0.5094 C   0  0  0  0  0  0  0  0  0  0  0  0
   -2.9725   -0.5188    0.9100 N   0  0  0  0  0  0  0  0  0  0  0  0
   -2.6729    0.6628    1.6824 C   0  0  0  0  0  0  0  0  0  0  0  0
   -3.3995    0.9576    2.8526 C   0  0  0  0  0  0  0  0  0  0  0  0
   -3.0610    2.0596    3.6381 C   0  0  0  0  0  0  0  0  0  0  0  0
   -2.0049    2.8906    3.2545 C   0  0  0  0  0  0  0  0  0  0  0  0
   -1.5823    4.3115    4.2600 S   0  0  0  0  0  0  0  0  0  0  0  0
   -2.6985    5.4267    3.3514 C   0  0  0  0  0  0  0  0  0  0  0  0
   -1.2829    2.6137    2.0891 C   0  0  0  0  0  0  0  0  0  0  0  0
   -1.6145    1.5063    1.3054 C   0  0  0  0  0  0  0  0  0  0  0  0
   -4.3415   -0.9394    0.7177 C   0  0  0  0  0  0  0  0  0  0  0  0
   -4.6939   -2.3000    0.8393 C   0  0  0  0  0  0  0  0  0  0  0  0
   -6.0270   -2.6988    0.7152 C   0  0  0  0  0  0  0  0  0  0  0  0
   -7.0275   -1.7445    0.4907 C   0  0  0  0  0  0  0  0  0  0  0  0
   -8.7430   -2.2540    0.3916 S   0  0  0  0  0  0  0  0  0  0  0  0
   -9.0092   -2.1066    2.1917 C   0  0  0  0  0  0  0  0  0  0  0  0
   -6.6856   -0.3951    0.3440 C   0  0  0  0  0  0  0  0  0  0  0  0
   -5.3513    0.0084    0.4565 C   0  0  0  0  0  0  0  0  0  0  0  0
   -1.7241   -1.8501   -0.7952 C   0  0  0  0  0  0  0  0  0  0  0  0
   -2.2057   -1.2578   -2.2892 S   0  0  0  0  0  0  0  0  0  0  0  0
   -1.0838   -2.1844   -3.1866 C   0  0  0  0  0  0  0  0  0  0  0  0
   -0.3205   -2.9522   -2.2874 C   0  0  0  0  0  0  0  0  0  0  0  0
    0.7853   -3.7912   -2.6539 N   0  0  0  0  0  0  0  0  0  0  0  0
    0.5499   -5.0995   -3.2338 C   0  0  0  0  0  0  0  0  0  0  0  0
   -0.7364   -5.6832   -3.2058 C   0  0  0  0  0  0  0  0  0  0  0  0
   -0.9671   -6.9239   -3.8046 C   0  0  0  0  0  0  0  0  0  0  0  0
    0.0827   -7.6125   -4.4257 C   0  0  0  0  0  0  0  0  0  0  0  0
   -0.2319   -9.1784   -5.2349 S   0  0  0  0  0  0  0  0  0  0  0  0
   -0.5693   -8.3982   -6.8485 C   0  0  0  0  0  0  0  0  0  0  0  0
    1.3632   -7.0568   -4.4448 C   0  0  0  0  0  0  0  0  0  0  0  0
    1.5969   -5.8096   -3.8613 C   0  0  0  0  0  0  0  0  0  0  0  0
    2.0993   -3.4053   -2.2159 C   0  0  0  0  0  0  0  0  0  0  0  0
    2.6531   -2.1855   -2.6356 C   0  0  0  0  0  0  0  0  0  0  0  0
    3.9387   -1.8137   -2.2245 C   0  0  0  0  0  0  0  0  0  0  0  0
    4.6632   -2.6428   -1.3589 C   0  0  0  0  0  0  0  0  0  0  0  0
    6.3140   -2.1767   -0.8279 S   0  0  0  0  0  0  0  0  0  0  0  0
    5.7195   -1.1577    0.5635 C   0  0  0  0  0  0  0  0  0  0  0  0
    4.1049   -3.8500   -0.9142 C   0  0  0  0  0  0  0  0  0  0  0  0
    2.8313   -4.2299   -1.3441 C   0  0  0  0  0  0  0  0  0  0  0  0
   -0.6944   -2.7176   -0.9677 C   0  0  0  0  0  0  0  0  0  0  0  0
    0.0916   -2.9721    0.4895 S   0  0  0  0  0  0  0  0  0  0  0  0
   -0.6316   -1.8023   -4.5329 C   0  0  0  0  0  0  0  0  0  0  0  0
   -0.0324   -2.6293   -5.4774 C   0  0  0  0  0  0  0  0  0  0  0  0
    0.6380   -1.9236   -6.4971 C   0  0  0  0  0  0  0  0  0  0  0  0
    1.3731   -2.5326   -7.5243 O   0  0  0  0  0  0  0  0  0  0  0  0
    1.5072   -3.9415   -7.6557 C   0  0  0  0  0  0  0  0  0  0  0  0
    0.5311   -0.5379   -6.3847 C   0  0  0  0  0  0  0  0  0  0  0  0
   -0.3371   -0.2112   -4.9789 S   0  0  0  0  0  0  0  0  0  0  0  0
    1.3542    0.4362   -7.1321 C   0  0  0  0  0  0  0  0  0  0  0  0
    1.0058    1.7091   -7.4215 C   0  0  0  0  0  0  0  0  0  0  0  0
    1.9992    2.6382   -8.0241 C   0  0  0  0  0  0  0  0  0  0  0  0
    3.2211    2.3190   -8.0740 O   0  0  0  0  0  0  0  0  0  0  0  0
    1.5700    3.9200   -8.5320 N   0  0  0  0  0  0  0  0  0  0  0  0
    2.5235    5.0306   -8.6500 C   0  0  0  0  0  0  0  0  0  0  0  0
    2.4062    5.9590   -7.4426 C   0  0  0  0  0  0  0  0  0  0  0  0
    0.1660    4.1426   -8.7734 C   0  0  0  0  0  0  0  0  0  0  0  0
   -0.2232    5.2251   -9.3002 O   0  0  0  0  0  0  0  0  0  0  0  0
   -0.8337    3.0621   -8.4346 C   0  0  0  0  0  0  0  0  0  0  0  0
   -2.1957    3.6079   -8.2494 C   0  0  0  0  0  0  0  0  0  0  0  0
   -3.2571    4.0364   -8.0856 N   0  0  0  0  0  0  0  0  0  0  0  0
   -0.3824    2.2707   -7.1807 C   0  0  0  0  0  0  0  0  0  0  0  0
   -0.3801    3.1430   -5.9075 C   0  0  0  0  0  0  0  0  0  0  0  0
   -0.4017    1.3825    6.6477 H   0  0  0  0  0  0  0  0  0  0  0  0
    6.0707   -0.4367    7.0141 H   0  0  0  0  0  0  0  0  0  0  0  0
    4.9173   -1.6106    6.3420 H   0  0  0  0  0  0  0  0  0  0  0  0
    6.0101    0.8763    4.8625 H   0  0  0  0  0  0  0  0  0  0  0  0
    4.8175   -0.3070    4.1904 H   0  0  0  0  0  0  0  0  0  0  0  0
    6.4936   -0.8436    4.5879 H   0  0  0  0  0  0  0  0  0  0  0  0
    3.0930    3.1099    6.3808 H   0  0  0  0  0  0  0  0  0  0  0  0
    1.1253    2.7346    7.7615 H   0  0  0  0  0  0  0  0  0  0  0  0
    2.0476    2.2387    9.9693 H   0  0  0  0  0  0  0  0  0  0  0  0
    2.8237    0.7143    9.3822 H   0  0  0  0  0  0  0  0  0  0  0  0
    1.0278    0.8556    9.4565 H   0  0  0  0  0  0  0  0  0  0  0  0
    1.2297   -0.5238    1.8923 H   0  0  0  0  0  0  0  0  0  0  0  0
   -4.3322   -2.8659    4.7389 H   0  0  0  0  0  0  0  0  0  0  0  0
   -4.4733   -1.3393    9.0561 H   0  0  0  0  0  0  0  0  0  0  0  0
   -2.7528   -1.0129    8.6481 H   0  0  0  0  0  0  0  0  0  0  0  0
   -4.1486    1.0861    9.0092 H   0  0  0  0  0  0  0  0  0  0  0  0
   -3.4388    1.0107    7.3463 H   0  0  0  0  0  0  0  0  0  0  0  0
   -5.1829    0.6065    7.6067 H   0  0  0  0  0  0  0  0  0  0  0  0
   -4.2016    0.3074    3.1769 H   0  0  0  0  0  0  0  0  0  0  0  0
   -3.6178    2.2636    4.5437 H   0  0  0  0  0  0  0  0  0  0  0  0
   -3.7426    5.0562    3.4117 H   0  0  0  0  0  0  0  0  0  0  0  0
   -2.6533    6.4376    3.8068 H   0  0  0  0  0  0  0  0  0  0  0  0
   -2.3918    5.4973    2.2843 H   0  0  0  0  0  0  0  0  0  0  0  0
   -0.4650    3.2593    1.7887 H   0  0  0  0  0  0  0  0  0  0  0  0
   -1.0466    1.2990    0.4032 H   0  0  0  0  0  0  0  0  0  0  0  0
   -3.9411   -3.0479    1.0571 H   0  0  0  0  0  0  0  0  0  0  0  0
   -6.2830   -3.7466    0.8258 H   0  0  0  0  0  0  0  0  0  0  0  0
   -8.9094   -1.0400    2.5085 H   0  0  0  0  0  0  0  0  0  0  0  0
   -8.2680   -2.7360    2.7399 H   0  0  0  0  0  0  0  0  0  0  0  0
  -10.0360   -2.4628    2.4401 H   0  0  0  0  0  0  0  0  0  0  0  0
   -7.4575    0.3461    0.1638 H   0  0  0  0  0  0  0  0  0  0  0  0
   -5.1012    1.0577    0.3416 H   0  0  0  0  0  0  0  0  0  0  0  0
   -1.5693   -5.1778   -2.7369 H   0  0  0  0  0  0  0  0  0  0  0  0
   -1.9656   -7.3464   -3.7947 H   0  0  0  0  0  0  0  0  0  0  0  0
   -1.4200   -7.6875   -6.7639 H   0  0  0  0  0  0  0  0  0  0  0  0
   -0.8303   -9.1842   -7.5867 H   0  0  0  0  0  0  0  0  0  0  0  0
    0.3343   -7.8552   -7.2018 H   0  0  0  0  0  0  0  0  0  0  0  0
    2.1745   -7.5823   -4.9269 H   0  0  0  0  0  0  0  0  0  0  0  0
    2.5959   -5.3908   -3.9188 H   0  0  0  0  0  0  0  0  0  0  0  0
    2.1014   -1.5331   -3.2987 H   0  0  0  0  0  0  0  0  0  0  0  0
    4.3715   -0.8835   -2.5708 H   0  0  0  0  0  0  0  0  0  0  0  0
    5.0340   -1.7450    1.2107 H   0  0  0  0  0  0  0  0  0  0  0  0
    6.5921   -0.8302    1.1740 H   0  0  0  0  0  0  0  0  0  0  0  0
    5.1948   -0.2590    0.1748 H   0  0  0  0  0  0  0  0  0  0  0  0
    4.6588   -4.4973   -0.2424 H   0  0  0  0  0  0  0  0  0  0  0  0
    2.4069   -5.1638   -0.9954 H   0  0  0  0  0  0  0  0  0  0  0  0
   -0.0422   -3.7045   -5.4097 H   0  0  0  0  0  0  0  0  0  0  0  0
    0.5110   -4.4120   -7.7432 H   0  0  0  0  0  0  0  0  0  0  0  0
    2.0913   -4.1685   -8.5694 H   0  0  0  0  0  0  0  0  0  0  0  0
    2.0435   -4.3557   -6.7761 H   0  0  0  0  0  0  0  0  0  0  0  0
    2.3359    0.0777   -7.4333 H   0  0  0  0  0  0  0  0  0  0  0  0
    3.5687    4.6571   -8.7223 H   0  0  0  0  0  0  0  0  0  0  0  0
    2.3234    5.6042   -9.5803 H   0  0  0  0  0  0  0  0  0  0  0  0
    2.5336    5.3809   -6.5049 H   0  0  0  0  0  0  0  0  0  0  0  0
    1.4153    6.4546   -7.4363 H   0  0  0  0  0  0  0  0  0  0  0  0
    3.1931    6.7418   -7.4908 H   0  0  0  0  0  0  0  0  0  0  0  0
   -0.8743    2.3619   -9.2979 H   0  0  0  0  0  0  0  0  0  0  0  0
   -1.1140    1.4471   -7.0453 H   0  0  0  0  0  0  0  0  0  0  0  0
   -1.4152    3.4235   -5.6233 H   0  0  0  0  0  0  0  0  0  0  0  0
    0.2099    4.0746   -6.0498 H   0  0  0  0  0  0  0  0  0  0  0  0
    0.0670    2.5898   -5.0529 H   0  0  0  0  0  0  0  0  0  0  0  0
  1  2  2  3
  2  3  1  0
  3  4  2  0
  3  5  1  0
  5  6  1  0
  6  7  1  0
  5  8  1  0
  8  9  2  0
  8 10  1  0
 10 11  1  0
 11 12  3  0
 10 13  1  0
 13 14  1  0
  1 15  1  0
 15 16  2  0
 16 17  1  0
 16 18  1  0
 18 19  2  0
 19 20  1  0
 20 21  2  0
 21 22  1  0
 22 23  2  0
 23 24  1  0
 24 25  1  0
 25 26  1  0
 23 27  1  0
 27 28  2  0
 19 29  1  0
 29 30  2  0
 30 31  1  0
 31 32  1  0
 32 33  2  0
 33 34  1  0
 34 35  2  0
 35 36  1  0
 36 37  1  0
 35 38  1  0
 38 39  2  0
 31 40  1  0
 40 41  2  0
 41 42  1  0
 42 43  2  0
 43 44  1  0
 44 45  1  0
 43 46  1  0
 46 47  2  0
 30 48  1  0
 48 49  1  0
 49 50  1  0
 50 51  2  0
 51 52  1  0
 52 53  1  0
 53 54  2  0
 54 55  1  0
 55 56  2  0
 56 57  1  0
 57 58  1  0
 56 59  1  0
 59 60  2  0
 52 61  1  0
 61 62  2  0
 62 63  1  0
 63 64  2  0
 64 65  1  0
 65 66  1  0
 64 67  1  0
 67 68  2  0
 51 69  1  0
 69 70  1  0
 50 71  1  0
 71 72  2  0
 72 73  1  0
 73 74  1  0
 74 75  1  0
 73 76  2  0
 76 77  1  0
 76 78  1  0
 78 79  2  3
 79 80  1  0
 80 81  2  0
 80 82  1  0
 82 83  1  0
 83 84  1  0
 82 85  1  0
 85 86  2  0
 85 87  1  0
 87 88  1  0
 88 89  3  0
 87 90  1  0
 90 91  1  0
 13  2  1  0
 28 15  1  0
 70 29  1  0
 77 71  1  0
 90 79  1  0
 28 20  1  0
 39 32  1  0
 47 40  1  0
 69 48  2  0
 60 53  1  0
 68 61  1  0
  1 92  1  0
  6 93  1  0
  6 94  1  0
  7 95  1  0
  7 96  1  0
  7 97  1  0
 10 98  1  0
 13 99  1  0
 14100  1  0
 14101  1  0
 14102  1  0
 18103  1  0
 22104  1  0
 25105  1  0
 25106  1  0
 26107  1  0
 26108  1  0
 26109  1  0
 33110  1  0
 34111  1  0
 37112  1  0
 37113  1  0
 37114  1  0
 38115  1  0
 39116  1  0
 41117  1  0
 42118  1  0
 45119  1  0
 45120  1  0
 45121  1  0
 46122  1  0
 47123  1  0
 54124  1  0
 55125  1  0
 58126  1  0
 58127  1  0
 58128  1  0
 59129  1  0
 60130  1  0
 62131  1  0
 63132  1  0
 66133  1  0
 66134  1  0
 66135  1  0
 67136  1  0
 68137  1  0
 72138  1  0
 75139  1  0
 75140  1  0
 75141  1  0
 78142  1  0
 83143  1  0
 83144  1  0
 84145  1  0
 84146  1  0
 84147  1  0
 87148  1  0
 90149  1  0
 91150  1  0
 91151  1  0
 91152  1  0
M  END

