
     RDKit          3D

216231  0  0  0  0  0  0  0  0999 V2000
    3.0387    1.7514   -8.5634 C   0  0  0  0  0  0  0  0  0  0  0  0
    2.2605    1.0650   -9.4177 C   0  0  0  0  0  0  0  0  0  0  0  0
    1.4660    1.7944  -10.4279 C   0  0  0  0  0  0  0  0  0  0  0  0
    1.9619    2.7886  -11.0276 O   0  0  0  0  0  0  0  0  0  0  0  0
    0.0817    1.4333  -10.6345 N   0  0  0  0  0  0  0  0  0  0  0  0
   -0.8045    2.3093  -11.4276 C   0  0  0  0  0  0  0  0  0  0  0  0
   -0.7709    1.9279  -12.9003 C   0  0  0  0  0  0  0  0  0  0  0  0
   -0.4634    0.2676   -9.9696 C   0  0  0  0  0  0  0  0  0  0  0  0
   -1.6268   -0.1377  -10.2511 O   0  0  0  0  0  0  0  0  0  0  0  0
    0.3267   -0.4200   -8.8729 C   0  0  0  0  0  0  0  0  0  0  0  0
   -0.1173   -1.8092   -8.6604 C   0  0  0  0  0  0  0  0  0  0  0  0
   -0.4417   -2.9094   -8.4951 N   0  0  0  0  0  0  0  0  0  0  0  0
    1.8464   -0.3721   -9.1688 C   0  0  0  0  0  0  0  0  0  0  0  0
    2.2547   -1.2333  -10.3788 C   0  0  0  0  0  0  0  0  0  0  0  0
    3.0473    1.4039   -7.1280 C   0  0  0  0  0  0  0  0  0  0  0  0
    4.0220    0.5692   -6.5620 C   0  0  0  0  0  0  0  0  0  0  0  0
    5.0552    0.1276   -7.3210 F   0  0  0  0  0  0  0  0  0  0  0  0
    3.8994    0.1237   -5.2332 C   0  0  0  0  0  0  0  0  0  0  0  0
    4.8181   -0.7539   -4.7641 F   0  0  0  0  0  0  0  0  0  0  0  0
    2.7905    0.5113   -4.4499 C   0  0  0  0  0  0  0  0  0  0  0  0
    1.8464    1.4113   -5.0082 C   0  0  0  0  0  0  0  0  0  0  0  0
    0.7710    1.8434   -4.2938 N   0  0  0  0  0  0  0  0  0  0  0  0
   -0.1911    2.6518   -4.8139 C   0  0  0  0  0  0  0  0  0  0  0  0
   -1.3509    3.0286   -3.9244 C   0  0  0  0  0  0  0  0  0  0  0  0
   -1.2002    4.4475   -3.3810 C   0  0  0  0  0  0  0  0  0  0  0  0
   -0.0586    3.0780   -6.1559 C   0  0  0  0  0  0  0  0  0  0  0  0
    1.0230    2.6544   -6.8632 N   0  0  0  0  0  0  0  0  0  0  0  0
    1.9743    1.8417   -6.3372 C   0  0  0  0  0  0  0  0  0  0  0  0
   -1.0350    3.9874   -6.8595 C   0  0  0  0  0  0  0  0  0  0  0  0
   -0.3813    5.3251   -7.1932 C   0  0  0  0  0  0  0  0  0  0  0  0
    2.5047   -0.1080   -3.1198 C   0  0  0  0  0  0  0  0  0  0  0  0
    3.3361   -0.1512   -1.9696 C   0  0  0  0  0  0  0  0  0  0  0  0
    4.7221   -0.5386   -2.0282 N   0  0  0  0  0  0  0  0  0  0  0  0
    5.0224   -1.9576   -1.9596 C   0  0  0  0  0  0  0  0  0  0  0  0
    4.2832   -2.8922   -2.7198 C   0  0  0  0  0  0  0  0  0  0  0  0
    4.5274   -4.2596   -2.6027 C   0  0  0  0  0  0  0  0  0  0  0  0
    5.5107   -4.7268   -1.7203 C   0  0  0  0  0  0  0  0  0  0  0  0
    5.7739   -6.4909   -1.5364 S   0  0  0  0  0  0  0  0  0  0  0  0
    7.0689   -6.5661   -2.8132 C   0  0  0  0  0  0  0  0  0  0  0  0
    6.2421   -3.8148   -0.9526 C   0  0  0  0  0  0  0  0  0  0  0  0
    6.0043   -2.4409   -1.0721 C   0  0  0  0  0  0  0  0  0  0  0  0
    5.7791    0.4311   -1.8800 C   0  0  0  0  0  0  0  0  0  0  0  0
    5.6755    1.4756   -0.9417 C   0  0  0  0  0  0  0  0  0  0  0  0
    6.7661    2.3235   -0.7093 C   0  0  0  0  0  0  0  0  0  0  0  0
    7.9656    2.1398   -1.4074 C   0  0  0  0  0  0  0  0  0  0  0  0
    9.3737    3.2047   -1.0838 S   0  0  0  0  0  0  0  0  0  0  0  0
   10.0750    2.1092    0.1919 C   0  0  0  0  0  0  0  0  0  0  0  0
    8.0621    1.1241   -2.3635 C   0  0  0  0  0  0  0  0  0  0  0  0
    6.9807    0.2711   -2.5964 C   0  0  0  0  0  0  0  0  0  0  0  0
    2.5643   -0.4431   -0.8374 C   0  0  0  0  0  0  0  0  0  0  0  0
    2.8332   -0.3916    0.8321 S   0  0  0  0  0  0  0  0  0  0  0  0
    1.2172   -0.7784    1.2419 C   0  0  0  0  0  0  0  0  0  0  0  0
    0.4958   -0.9905    0.0553 C   0  0  0  0  0  0  0  0  0  0  0  0
   -0.8118   -1.5915   -0.0058 N   0  0  0  0  0  0  0  0  0  0  0  0
   -1.8232   -0.9815   -0.8286 C   0  0  0  0  0  0  0  0  0  0  0  0
   -2.3070   -1.6409   -1.9737 C   0  0  0  0  0  0  0  0  0  0  0  0
   -3.2201   -1.0058   -2.8189 C   0  0  0  0  0  0  0  0  0  0  0  0
   -3.6752    0.2816   -2.5204 C   0  0  0  0  0  0  0  0  0  0  0  0
   -4.8245    1.1073   -3.6197 S   0  0  0  0  0  0  0  0  0  0  0  0
   -6.2922    0.4333   -2.7814 C   0  0  0  0  0  0  0  0  0  0  0  0
   -3.2265    0.9268   -1.3638 C   0  0  0  0  0  0  0  0  0  0  0  0
   -2.3019    0.2998   -0.5280 C   0  0  0  0  0  0  0  0  0  0  0  0
   -0.9495   -2.9804    0.3526 C   0  0  0  0  0  0  0  0  0  0  0  0
    0.0556   -3.9078    0.0142 C   0  0  0  0  0  0  0  0  0  0  0  0
   -0.1106   -5.2654    0.2809 C   0  0  0  0  0  0  0  0  0  0  0  0
   -1.2798   -5.7161    0.9114 C   0  0  0  0  0  0  0  0  0  0  0  0
   -1.5223   -7.4750    1.1902 S   0  0  0  0  0  0  0  0  0  0  0  0
   -0.4544   -7.5216    2.6604 C   0  0  0  0  0  0  0  0  0  0  0  0
   -2.2723   -4.8044    1.2721 C   0  0  0  0  0  0  0  0  0  0  0  0
   -2.1158   -3.4401    0.9819 C   0  0  0  0  0  0  0  0  0  0  0  0
    1.2720   -0.7467   -1.0671 C   0  0  0  0  0  0  0  0  0  0  0  0
    0.9291   -0.6051   -2.6819 S   0  0  0  0  0  0  0  0  0  0  0  0
    0.5368   -0.3537    2.4757 C   0  0  0  0  0  0  0  0  0  0  0  0
   -0.1731    0.8690    2.4828 C   0  0  0  0  0  0  0  0  0  0  0  0
    0.4768    2.1595    2.4538 N   0  0  0  0  0  0  0  0  0  0  0  0
    0.2408    3.0867    3.5386 C   0  0  0  0  0  0  0  0  0  0  0  0
    0.1416    2.6251    4.8690 C   0  0  0  0  0  0  0  0  0  0  0  0
   -0.2651    3.4846    5.8905 C   0  0  0  0  0  0  0  0  0  0  0  0
   -0.5308    4.8287    5.6071 C   0  0  0  0  0  0  0  0  0  0  0  0
   -1.1663    5.9027    6.8953 S   0  0  0  0  0  0  0  0  0  0  0  0
   -2.9022    5.4939    6.5217 C   0  0  0  0  0  0  0  0  0  0  0  0
   -0.3637    5.3153    4.3105 C   0  0  0  0  0  0  0  0  0  0  0  0
    0.0191    4.4492    3.2753 C   0  0  0  0  0  0  0  0  0  0  0  0
    1.3228    2.5620    1.3608 C   0  0  0  0  0  0  0  0  0  0  0  0
    2.5418    3.2153    1.6186 C   0  0  0  0  0  0  0  0  0  0  0  0
    3.2959    3.7554    0.5697 C   0  0  0  0  0  0  0  0  0  0  0  0
    2.8428    3.6331   -0.7478 C   0  0  0  0  0  0  0  0  0  0  0  0
    3.7788    4.3554   -2.0947 S   0  0  0  0  0  0  0  0  0  0  0  0
    2.8387    5.9168   -2.0661 C   0  0  0  0  0  0  0  0  0  0  0  0
    1.6527    2.9495   -1.0108 C   0  0  0  0  0  0  0  0  0  0  0  0
    0.8855    2.4371    0.0331 C   0  0  0  0  0  0  0  0  0  0  0  0
   -1.4448    0.7150    3.0312 C   0  0  0  0  0  0  0  0  0  0  0  0
   -2.7552    1.7439    3.1718 S   0  0  0  0  0  0  0  0  0  0  0  0
   -3.6829    0.6129    4.0314 C   0  0  0  0  0  0  0  0  0  0  0  0
   -2.9154   -0.5348    4.3220 C   0  0  0  0  0  0  0  0  0  0  0  0
   -3.1001   -1.3011    5.5294 N   0  0  0  0  0  0  0  0  0  0  0  0
   -3.4920   -0.6054    6.7330 C   0  0  0  0  0  0  0  0  0  0  0  0
   -2.8925    0.6232    7.0738 C   0  0  0  0  0  0  0  0  0  0  0  0
   -3.2735    1.3061    8.2291 C   0  0  0  0  0  0  0  0  0  0  0  0
   -4.2394    0.7540    9.0787 C   0  0  0  0  0  0  0  0  0  0  0  0
   -4.7142    1.6237   10.5740 S   0  0  0  0  0  0  0  0  0  0  0  0
   -3.4107    0.8438   11.5809 C   0  0  0  0  0  0  0  0  0  0  0  0
   -4.8274   -0.4838    8.7622 C   0  0  0  0  0  0  0  0  0  0  0  0
   -4.4495   -1.1591    7.5955 C   0  0  0  0  0  0  0  0  0  0  0  0
   -2.5044   -2.6026    5.6735 C   0  0  0  0  0  0  0  0  0  0  0  0
   -2.9090   -3.6711    4.8575 C   0  0  0  0  0  0  0  0  0  0  0  0
   -2.3777   -4.9503    5.0612 C   0  0  0  0  0  0  0  0  0  0  0  0
   -1.4117   -5.1592    6.0609 C   0  0  0  0  0  0  0  0  0  0  0  0
   -0.7092   -6.7920    6.3317 S   0  0  0  0  0  0  0  0  0  0  0  0
   -1.8220   -7.1990    7.7178 C   0  0  0  0  0  0  0  0  0  0  0  0
   -0.9780   -4.0855    6.8429 C   0  0  0  0  0  0  0  0  0  0  0  0
   -1.5253   -2.8190    6.6590 C   0  0  0  0  0  0  0  0  0  0  0  0
   -1.6963   -0.4696    3.6385 C   0  0  0  0  0  0  0  0  0  0  0  0
   -0.3811   -1.4833    3.3857 S   0  0  0  0  0  0  0  0  0  0  0  0
   -5.0432    0.8954    4.4928 C   0  0  0  0  0  0  0  0  0  0  0  0
   -6.1770    0.4803    3.8745 C   0  0  0  0  0  0  0  0  0  0  0  0
   -7.4673    0.8191    4.5302 C   0  0  0  0  0  0  0  0  0  0  0  0
   -7.5262    1.7642    5.3626 O   0  0  0  0  0  0  0  0  0  0  0  0
   -8.6514    0.0543    4.2475 N   0  0  0  0  0  0  0  0  0  0  0  0
   -9.8435    0.1902    5.0969 C   0  0  0  0  0  0  0  0  0  0  0  0
  -10.6986    1.3666    4.6413 C   0  0  0  0  0  0  0  0  0  0  0  0
   -8.7015   -0.7509    3.0600 C   0  0  0  0  0  0  0  0  0  0  0  0
   -9.7223   -1.4511    2.8198 O   0  0  0  0  0  0  0  0  0  0  0  0
   -7.6152   -0.6239    2.0247 C   0  0  0  0  0  0  0  0  0  0  0  0
   -7.6458   -1.7880    1.1172 C   0  0  0  0  0  0  0  0  0  0  0  0
   -7.6704   -2.6933    0.3991 N   0  0  0  0  0  0  0  0  0  0  0  0
   -6.1929   -0.4619    2.6493 C   0  0  0  0  0  0  0  0  0  0  0  0
   -5.2207   -0.0026    1.5367 C   0  0  0  0  0  0  0  0  0  0  0  0
    3.2242    2.8018   -8.7609 H   0  0  0  0  0  0  0  0  0  0  0  0
   -0.5081    3.3730  -11.3052 H   0  0  0  0  0  0  0  0  0  0  0  0
   -1.8483    2.2340  -11.0516 H   0  0  0  0  0  0  0  0  0  0  0  0
   -1.5241    2.5318  -13.4487 H   0  0  0  0  0  0  0  0  0  0  0  0
   -1.0030    0.8537  -13.0313 H   0  0  0  0  0  0  0  0  0  0  0  0
    0.2320    2.1387  -13.3269 H   0  0  0  0  0  0  0  0  0  0  0  0
    0.1304    0.1290   -7.9305 H   0  0  0  0  0  0  0  0  0  0  0  0
    2.3840   -0.7975   -8.2912 H   0  0  0  0  0  0  0  0  0  0  0  0
    1.6691   -0.9645  -11.2813 H   0  0  0  0  0  0  0  0  0  0  0  0
    2.1030   -2.3089  -10.1498 H   0  0  0  0  0  0  0  0  0  0  0  0
    3.3376   -1.0821  -10.6005 H   0  0  0  0  0  0  0  0  0  0  0  0
   -2.3108    2.9220   -4.4628 H   0  0  0  0  0  0  0  0  0  0  0  0
   -1.3913    2.3293   -3.0656 H   0  0  0  0  0  0  0  0  0  0  0  0
   -2.0632    4.6766   -2.7175 H   0  0  0  0  0  0  0  0  0  0  0  0
   -1.1749    5.1913   -4.2018 H   0  0  0  0  0  0  0  0  0  0  0  0
   -0.2716    4.5391   -2.7854 H   0  0  0  0  0  0  0  0  0  0  0  0
   -1.9506    4.1849   -6.2697 H   0  0  0  0  0  0  0  0  0  0  0  0
   -1.3625    3.5023   -7.8014 H   0  0  0  0  0  0  0  0  0  0  0  0
    0.0482    5.7905   -6.2792 H   0  0  0  0  0  0  0  0  0  0  0  0
    0.4334    5.1795   -7.9380 H   0  0  0  0  0  0  0  0  0  0  0  0
   -1.1287    6.0137   -7.6379 H   0  0  0  0  0  0  0  0  0  0  0  0
    3.5144   -2.5678   -3.4046 H   0  0  0  0  0  0  0  0  0  0  0  0
    3.9492   -4.9632   -3.1916 H   0  0  0  0  0  0  0  0  0  0  0  0
    7.9769   -6.0366   -2.4569 H   0  0  0  0  0  0  0  0  0  0  0  0
    6.7084   -6.1107   -3.7603 H   0  0  0  0  0  0  0  0  0  0  0  0
    7.3252   -7.6287   -3.0056 H   0  0  0  0  0  0  0  0  0  0  0  0
    6.9853   -4.1681   -0.2532 H   0  0  0  0  0  0  0  0  0  0  0  0
    6.5623   -1.7550   -0.4454 H   0  0  0  0  0  0  0  0  0  0  0  0
    4.7841    1.5920   -0.3559 H   0  0  0  0  0  0  0  0  0  0  0  0
    6.6823    3.1083    0.0315 H   0  0  0  0  0  0  0  0  0  0  0  0
   10.2958    1.1085   -0.2370 H   0  0  0  0  0  0  0  0  0  0  0  0
    9.3640    2.0067    1.0400 H   0  0  0  0  0  0  0  0  0  0  0  0
   11.0223    2.5509    0.5702 H   0  0  0  0  0  0  0  0  0  0  0  0
    8.9882    0.9794   -2.9112 H   0  0  0  0  0  0  0  0  0  0  0  0
    7.0880   -0.5309   -3.3146 H   0  0  0  0  0  0  0  0  0  0  0  0
   -1.9512   -2.6309   -2.2268 H   0  0  0  0  0  0  0  0  0  0  0  0
   -3.5516   -1.5119   -3.7191 H   0  0  0  0  0  0  0  0  0  0  0  0
   -7.2018    0.7758   -3.3172 H   0  0  0  0  0  0  0  0  0  0  0  0
   -6.3336    0.7934   -1.7330 H   0  0  0  0  0  0  0  0  0  0  0  0
   -6.2672   -0.6779   -2.7933 H   0  0  0  0  0  0  0  0  0  0  0  0
   -3.5909    1.9151   -1.1144 H   0  0  0  0  0  0  0  0  0  0  0  0
   -1.9548    0.8210    0.3509 H   0  0  0  0  0  0  0  0  0  0  0  0
    0.9586   -3.5845   -0.4942 H   0  0  0  0  0  0  0  0  0  0  0  0
    0.6650   -5.9654   -0.0018 H   0  0  0  0  0  0  0  0  0  0  0  0
   -0.7832   -6.7652    3.3961 H   0  0  0  0  0  0  0  0  0  0  0  0
    0.5993   -7.3191    2.3734 H   0  0  0  0  0  0  0  0  0  0  0  0
   -0.5116   -8.5276    3.1245 H   0  0  0  0  0  0  0  0  0  0  0  0
   -3.1815   -5.1454    1.7539 H   0  0  0  0  0  0  0  0  0  0  0  0
   -2.9017   -2.7447    1.2469 H   0  0  0  0  0  0  0  0  0  0  0  0
    0.3104    1.5828    5.1022 H   0  0  0  0  0  0  0  0  0  0  0  0
   -0.4016    3.1028    6.8921 H   0  0  0  0  0  0  0  0  0  0  0  0
   -3.1363    5.7602    5.4695 H   0  0  0  0  0  0  0  0  0  0  0  0
   -3.5644    6.0708    7.1972 H   0  0  0  0  0  0  0  0  0  0  0  0
   -3.0825    4.4079    6.6832 H   0  0  0  0  0  0  0  0  0  0  0  0
   -0.5762    6.3531    4.0801 H   0  0  0  0  0  0  0  0  0  0  0  0
    0.0931    4.8355    2.2681 H   0  0  0  0  0  0  0  0  0  0  0  0
    2.8945    3.3291    2.6366 H   0  0  0  0  0  0  0  0  0  0  0  0
    4.2220    4.2711    0.7900 H   0  0  0  0  0  0  0  0  0  0  0  0
    2.8290    6.3512   -1.0447 H   0  0  0  0  0  0  0  0  0  0  0  0
    3.3159    6.6464   -2.7534 H   0  0  0  0  0  0  0  0  0  0  0  0
    1.7987    5.7343   -2.4022 H   0  0  0  0  0  0  0  0  0  0  0  0
    1.3077    2.8477   -2.0273 H   0  0  0  0  0  0  0  0  0  0  0  0
   -0.0572    1.9600   -0.1938 H   0  0  0  0  0  0  0  0  0  0  0  0
   -2.1297    1.0553    6.4350 H   0  0  0  0  0  0  0  0  0  0  0  0
   -2.8132    2.2546    8.4650 H   0  0  0  0  0  0  0  0  0  0  0  0
   -3.4551    1.2571   12.6096 H   0  0  0  0  0  0  0  0  0  0  0  0
   -3.5727   -0.2548   11.6272 H   0  0  0  0  0  0  0  0  0  0  0  0
   -2.4090    1.0588   11.1532 H   0  0  0  0  0  0  0  0  0  0  0  0
   -5.5696   -0.9188    9.4235 H   0  0  0  0  0  0  0  0  0  0  0  0
   -4.9076   -2.1132    7.3583 H   0  0  0  0  0  0  0  0  0  0  0  0
   -3.6521   -3.5124    4.0849 H   0  0  0  0  0  0  0  0  0  0  0  0
   -2.7128   -5.7706    4.4454 H   0  0  0  0  0  0  0  0  0  0  0  0
   -1.5158   -8.1630    8.1666 H   0  0  0  0  0  0  0  0  0  0  0  0
   -1.7680   -6.4111    8.4994 H   0  0  0  0  0  0  0  0  0  0  0  0
   -2.8677   -7.2799    7.3555 H   0  0  0  0  0  0  0  0  0  0  0  0
   -0.2159   -4.2340    7.6031 H   0  0  0  0  0  0  0  0  0  0  0  0
   -1.1838   -2.0022    7.2821 H   0  0  0  0  0  0  0  0  0  0  0  0
   -5.1038    1.5083    5.3864 H   0  0  0  0  0  0  0  0  0  0  0  0
  -10.4508   -0.7487    5.0704 H   0  0  0  0  0  0  0  0  0  0  0  0
   -9.5441    0.3358    6.1577 H   0  0  0  0  0  0  0  0  0  0  0  0
  -11.6182    1.4158    5.2638 H   0  0  0  0  0  0  0  0  0  0  0  0
  -10.1410    2.3159    4.7613 H   0  0  0  0  0  0  0  0  0  0  0  0
  -10.9888    1.2412    3.5835 H   0  0  0  0  0  0  0  0  0  0  0  0
   -7.8556    0.2835    1.4280 H   0  0  0  0  0  0  0  0  0  0  0  0
   -5.8582   -1.4625    3.0121 H   0  0  0  0  0  0  0  0  0  0  0  0
   -5.2353    1.1039    1.4311 H   0  0  0  0  0  0  0  0  0  0  0  0
   -4.1910   -0.3593    1.7307 H   0  0  0  0  0  0  0  0  0  0  0  0
   -5.4738   -0.4350    0.5427 H   0  0  0  0  0  0  0  0  0  0  0  0
  1  2  2  3
  2  3  1  0
  3  4  2  0
  3  5  1  0
  5  6  1  0
  6  7  1  0
  5  8  1  0
  8  9  2  0
  8 10  1  0
 10 11  1  0
 11 12  3  0
 10 13  1  0
 13 14  1  0
  1 15  1  0
 15 16  2  0
 16 17  1  0
 16 18  1  0
 18 19  1  0
 18 20  2  0
 20 21  1  0
 21 22  2  0
 22 23  1  0
 23 24  1  0
 24 25  1  0
 23 26  2  0
 26 27  1  0
 27 28  2  0
 26 29  1  0
 29 30  1  0
 20 31  1  0
 31 32  2  0
 32 33  1  0
 33 34  1  0
 34 35  2  0
 35 36  1  0
 36 37  2  0
 37 38  1  0
 38 39  1  0
 37 40  1  0
 40 41  2  0
 33 42  1  0
 42 43  2  0
 43 44  1  0
 44 45  2  0
 45 46  1  0
 46 47  1  0
 45 48  1  0
 48 49  2  0
 32 50  1  0
 50 51  1  0
 51 52  1  0
 52 53  2  0
 53 54  1  0
 54 55  1  0
 55 56  2  0
 56 57  1  0
 57 58  2  0
 58 59  1  0
 59 60  1  0
 58 61  1  0
 61 62  2  0
 54 63  1  0
 63 64  2  0
 64 65  1  0
 65 66  2  0
 66 67  1  0
 67 68  1  0
 66 69  1  0
 69 70  2  0
 53 71  1  0
 71 72  1  0
 52 73  1  0
 73 74  2  0
 74 75  1  0
 75 76  1  0
 76 77  2  0
 77 78  1  0
 78 79  2  0
 79 80  1  0
 80 81  1  0
 79 82  1  0
 82 83  2  0
 75 84  1  0
 84 85  2  0
 85 86  1  0
 86 87  2  0
 87 88  1  0
 88 89  1  0
 87 90  1  0
 90 91  2  0
 74 92  1  0
 92 93  1  0
 93 94  1  0
 94 95  2  0
 95 96  1  0
 96 97  1  0
 97 98  2  0
 98 99  1  0
 99100  2  0
100101  1  0
101102  1  0
100103  1  0
103104  2  0
 96105  1  0
105106  2  0
106107  1  0
107108  2  0
108109  1  0
109110  1  0
108111  1  0
111112  2  0
 95113  1  0
113114  1  0
 94115  1  0
115116  2  3
116117  1  0
117118  2  0
117119  1  0
119120  1  0
120121  1  0
119122  1  0
122123  2  0
122124  1  0
124125  1  0
125126  3  0
124127  1  0
127128  1  0
 13  2  1  0
 28 15  1  0
 72 31  1  0
114 73  1  0
127116  1  0
 28 21  1  0
 41 34  1  0
 49 42  1  0
 71 50  2  0
 83 76  1  0
 91 84  1  0
113 92  2  0
 62 55  1  0
 70 63  1  0
104 97  1  0
112105  1  0
  1129  1  0
  6130  1  0
  6131  1  0
  7132  1  0
  7133  1  0
  7134  1  0
 10135  1  0
 13136  1  0
 14137  1  0
 14138  1  0
 14139  1  0
 24140  1  0
 24141  1  0
 25142  1  0
 25143  1  0
 25144  1  0
 29145  1  0
 29146  1  0
 30147  1  0
 30148  1  0
 30149  1  0
 35150  1  0
 36151  1  0
 39152  1  0
 39153  1  0
 39154  1  0
 40155  1  0
 41156  1  0
 43157  1  0
 44158  1  0
 47159  1  0
 47160  1  0
 47161  1  0
 48162  1  0
 49163  1  0
 56164  1  0
 57165  1  0
 60166  1  0
 60167  1  0
 60168  1  0
 61169  1  0
 62170  1  0
 64171  1  0
 65172  1  0
 68173  1  0
 68174  1  0
 68175  1  0
 69176  1  0
 70177  1  0
 77178  1  0
 78179  1  0
 81180  1  0
 81181  1  0
 81182  1  0
 82183  1  0
 83184  1  0
 85185  1  0
 86186  1  0
 89187  1  0
 89188  1  0
 89189  1  0
 90190  1  0
 91191  1  0
 98192  1  0
 99193  1  0
102194  1  0
102195  1  0
102196  1  0
103197  1  0
104198  1  0
106199  1  0
107200  1  0
110201  1  0
110202  1  0
110203  1  0
111204  1  0
112205  1  0
115206  1  0
120207  1  0
120208  1  0
121209  1  0
121210  1  0
121211  1  0
124212  1  0
127213  1  0
128214  1  0
128215  1  0
128216  1  0
M  END

