
     RDKit          3D

118129  0  0  0  0  0  0  0  0999 V2000
    6.2826   -2.8544   -4.7456 C   0  0  0  0  0  0  0  0  0  0  0  0
    6.8853   -2.8574   -3.5352 C   0  0  0  0  0  0  0  0  0  0  0  0
    8.3444   -3.1142   -3.4239 C   0  0  0  0  0  0  0  0  0  0  0  0
    9.0579   -3.1561   -4.4655 O   0  0  0  0  0  0  0  0  0  0  0  0
    8.9503   -3.2984   -2.1251 N   0  0  0  0  0  0  0  0  0  0  0  0
   10.4153   -3.3361   -1.9854 C   0  0  0  0  0  0  0  0  0  0  0  0
   10.9508   -1.9452   -1.6559 C   0  0  0  0  0  0  0  0  0  0  0  0
    8.1129   -3.3904   -0.9530 C   0  0  0  0  0  0  0  0  0  0  0  0
    8.6361   -3.5416    0.1885 O   0  0  0  0  0  0  0  0  0  0  0  0
    6.6107   -3.4070   -1.1012 C   0  0  0  0  0  0  0  0  0  0  0  0
    5.9267   -3.0592    0.1615 C   0  0  0  0  0  0  0  0  0  0  0  0
    5.3872   -2.7870    1.1491 N   0  0  0  0  0  0  0  0  0  0  0  0
    6.1504   -2.4863   -2.2565 C   0  0  0  0  0  0  0  0  0  0  0  0
    6.3643   -0.9919   -1.9581 C   0  0  0  0  0  0  0  0  0  0  0  0
    4.8508   -2.5511   -4.9315 C   0  0  0  0  0  0  0  0  0  0  0  0
    3.8910   -3.5067   -4.5805 C   0  0  0  0  0  0  0  0  0  0  0  0
    2.5364   -3.1740   -4.5576 C   0  0  0  0  0  0  0  0  0  0  0  0
    2.1024   -1.8761   -4.8948 C   0  0  0  0  0  0  0  0  0  0  0  0
    3.0600   -0.9525   -5.3795 C   0  0  0  0  0  0  0  0  0  0  0  0
    2.6929    0.2817   -5.8241 N   0  0  0  0  0  0  0  0  0  0  0  0
    3.6093    1.1957   -6.2394 C   0  0  0  0  0  0  0  0  0  0  0  0
    4.9640    0.8691   -6.2120 C   0  0  0  0  0  0  0  0  0  0  0  0
    5.3450   -0.3620   -5.7887 N   0  0  0  0  0  0  0  0  0  0  0  0
    4.4347   -1.2896   -5.3832 C   0  0  0  0  0  0  0  0  0  0  0  0
    0.7072   -1.4720   -4.5560 C   0  0  0  0  0  0  0  0  0  0  0  0
    0.3359   -0.2038   -4.1003 C   0  0  0  0  0  0  0  0  0  0  0  0
   -0.9021   -0.1771   -3.4360 C   0  0  0  0  0  0  0  0  0  0  0  0
   -1.4025    0.9140   -2.6989 C   0  0  0  0  0  0  0  0  0  0  0  0
   -0.8007    2.2614   -2.8108 C   0  0  0  0  0  0  0  0  0  0  0  0
   -0.5255    2.9205   -4.0103 C   0  0  0  0  0  0  0  0  0  0  0  0
    0.0985    4.1589   -3.8305 C   0  0  0  0  0  0  0  0  0  0  0  0
    0.5814    5.1806   -5.1720 Cl  0  0  0  0  0  0  0  0  0  0  0  0
    0.3073    4.4792   -2.4938 C   0  0  0  0  0  0  0  0  0  0  0  0
    1.1005    5.9645   -1.8717 S   0  0  0  0  0  0  0  0  0  0  0  0
   -0.4514    6.9201   -1.7101 C   0  0  0  0  0  0  0  0  0  0  0  0
   -1.1542    6.5891   -0.3972 C   0  0  0  0  0  0  0  0  0  0  0  0
   -0.2493    3.2160   -1.5355 S   0  0  0  0  0  0  0  0  0  0  0  0
   -2.4496    0.6369   -1.8028 C   0  0  0  0  0  0  0  0  0  0  0  0
   -3.0395   -0.6267   -1.6881 C   0  0  0  0  0  0  0  0  0  0  0  0
   -2.6105   -1.6893   -2.5150 C   0  0  0  0  0  0  0  0  0  0  0  0
   -3.1628   -3.0546   -2.4049 C   0  0  0  0  0  0  0  0  0  0  0  0
   -3.7259   -3.9768   -3.6991 S   0  0  0  0  0  0  0  0  0  0  0  0
   -4.0665   -5.3521   -2.7982 C   0  0  0  0  0  0  0  0  0  0  0  0
   -4.6866   -6.8872   -3.4864 S   0  0  0  0  0  0  0  0  0  0  0  0
   -6.4504   -6.4184   -3.3909 C   0  0  0  0  0  0  0  0  0  0  0  0
   -7.0242   -6.7312   -2.0166 C   0  0  0  0  0  0  0  0  0  0  0  0
   -3.7174   -5.1164   -1.4719 C   0  0  0  0  0  0  0  0  0  0  0  0
   -3.2113   -3.8298   -1.2496 C   0  0  0  0  0  0  0  0  0  0  0  0
   -3.8299   -6.3180   -0.1970 Cl  0  0  0  0  0  0  0  0  0  0  0  0
   -1.5196   -1.4282   -3.3655 C   0  0  0  0  0  0  0  0  0  0  0  0
   -0.5340   -2.5483   -4.1393 S   0  0  0  0  0  0  0  0  0  0  0  0
   -3.9655   -0.7104   -0.6283 C   0  0  0  0  0  0  0  0  0  0  0  0
   -4.0572    0.4657    0.1288 C   0  0  0  0  0  0  0  0  0  0  0  0
   -3.0505    1.6206   -0.5870 S   0  0  0  0  0  0  0  0  0  0  0  0
   -4.5575    0.5700    1.5299 C   0  0  0  0  0  0  0  0  0  0  0  0
   -4.6600   -0.5928    2.3210 C   0  0  0  0  0  0  0  0  0  0  0  0
   -4.7737   -0.5063    3.7111 C   0  0  0  0  0  0  0  0  0  0  0  0
   -4.7456    0.7397    4.3463 C   0  0  0  0  0  0  0  0  0  0  0  0
   -4.8162    1.9081    3.5658 C   0  0  0  0  0  0  0  0  0  0  0  0
   -4.9531    3.1302    4.1512 N   0  0  0  0  0  0  0  0  0  0  0  0
   -5.0064    4.2692    3.4154 C   0  0  0  0  0  0  0  0  0  0  0  0
   -4.9197    4.1905    2.0267 C   0  0  0  0  0  0  0  0  0  0  0  0
   -4.7820    2.9771    1.4319 N   0  0  0  0  0  0  0  0  0  0  0  0
   -4.7261    1.8263    2.1578 C   0  0  0  0  0  0  0  0  0  0  0  0
   -4.6085    0.7929    5.8168 C   0  0  0  0  0  0  0  0  0  0  0  0
   -3.6703    1.5167    6.4585 C   0  0  0  0  0  0  0  0  0  0  0  0
   -3.8240    1.9523    7.8464 C   0  0  0  0  0  0  0  0  0  0  0  0
   -4.6031    1.4514    8.7024 O   0  0  0  0  0  0  0  0  0  0  0  0
   -3.0039    3.1314    8.0417 C   0  0  0  0  0  0  0  0  0  0  0  0
   -2.9486    3.9762    9.1489 C   0  0  0  0  0  0  0  0  0  0  0  0
   -2.1653    5.1388    9.0697 C   0  0  0  0  0  0  0  0  0  0  0  0
   -2.0848    6.2014   10.4699 Cl  0  0  0  0  0  0  0  0  0  0  0  0
   -1.4803    5.4499    7.8714 C   0  0  0  0  0  0  0  0  0  0  0  0
   -0.4423    7.0509    7.7025 Br  0  0  0  0  0  0  0  0  0  0  0  0
   -1.5598    4.5841    6.7663 C   0  0  0  0  0  0  0  0  0  0  0  0
   -2.3045    3.4024    6.8797 C   0  0  0  0  0  0  0  0  0  0  0  0
   -2.5495    2.3231    5.8878 C   0  0  0  0  0  0  0  0  0  0  0  0
   -1.6735    1.9229    4.9306 C   0  0  0  0  0  0  0  0  0  0  0  0
   -0.4967    2.6831    4.6003 C   0  0  0  0  0  0  0  0  0  0  0  0
    0.4585    3.2759    4.3311 N   0  0  0  0  0  0  0  0  0  0  0  0
   -1.7165    0.6030    4.3562 C   0  0  0  0  0  0  0  0  0  0  0  0
   -1.7196   -0.4584    3.8903 N   0  0  0  0  0  0  0  0  0  0  0  0
    6.8577   -3.0487   -5.6414 H   0  0  0  0  0  0  0  0  0  0  0  0
   10.7069   -4.0458   -1.1810 H   0  0  0  0  0  0  0  0  0  0  0  0
   10.8932   -3.7058   -2.9167 H   0  0  0  0  0  0  0  0  0  0  0  0
   10.6913   -1.2338   -2.4669 H   0  0  0  0  0  0  0  0  0  0  0  0
   12.0563   -1.9869   -1.5559 H   0  0  0  0  0  0  0  0  0  0  0  0
   10.5250   -1.5882   -0.6962 H   0  0  0  0  0  0  0  0  0  0  0  0
    6.3167   -4.4500   -1.3508 H   0  0  0  0  0  0  0  0  0  0  0  0
    5.0572   -2.6455   -2.3659 H   0  0  0  0  0  0  0  0  0  0  0  0
    5.7251   -0.6686   -1.1093 H   0  0  0  0  0  0  0  0  0  0  0  0
    6.0793   -0.3803   -2.8436 H   0  0  0  0  0  0  0  0  0  0  0  0
    7.4269   -0.7822   -1.7112 H   0  0  0  0  0  0  0  0  0  0  0  0
    4.1976   -4.4900   -4.2500 H   0  0  0  0  0  0  0  0  0  0  0  0
    1.8405   -3.9168   -4.1930 H   0  0  0  0  0  0  0  0  0  0  0  0
    3.2859    2.1712   -6.5766 H   0  0  0  0  0  0  0  0  0  0  0  0
    5.7078    1.5888   -6.5293 H   0  0  0  0  0  0  0  0  0  0  0  0
    1.0050    0.6424   -4.0876 H   0  0  0  0  0  0  0  0  0  0  0  0
   -0.7593    2.5091   -4.9843 H   0  0  0  0  0  0  0  0  0  0  0  0
   -0.1910    7.9998   -1.7116 H   0  0  0  0  0  0  0  0  0  0  0  0
   -1.1296    6.7312   -2.5697 H   0  0  0  0  0  0  0  0  0  0  0  0
   -1.5377    5.5491   -0.4142 H   0  0  0  0  0  0  0  0  0  0  0  0
   -0.4544    6.7085    0.4558 H   0  0  0  0  0  0  0  0  0  0  0  0
   -2.0183    7.2749   -0.2462 H   0  0  0  0  0  0  0  0  0  0  0  0
   -6.5923   -5.3434   -3.6265 H   0  0  0  0  0  0  0  0  0  0  0  0
   -7.0047   -7.0110   -4.1500 H   0  0  0  0  0  0  0  0  0  0  0  0
   -6.8231   -7.7891   -1.7485 H   0  0  0  0  0  0  0  0  0  0  0  0
   -6.5777   -6.0631   -1.2507 H   0  0  0  0  0  0  0  0  0  0  0  0
   -8.1236   -6.5687   -2.0286 H   0  0  0  0  0  0  0  0  0  0  0  0
   -2.8618   -3.4877   -0.2828 H   0  0  0  0  0  0  0  0  0  0  0  0
   -4.4881   -1.6195   -0.3686 H   0  0  0  0  0  0  0  0  0  0  0  0
   -4.5512   -1.5766    1.8863 H   0  0  0  0  0  0  0  0  0  0  0  0
   -4.7700   -1.4169    4.2971 H   0  0  0  0  0  0  0  0  0  0  0  0
   -5.1168    5.2273    3.9065 H   0  0  0  0  0  0  0  0  0  0  0  0
   -4.9613    5.0881    1.4245 H   0  0  0  0  0  0  0  0  0  0  0  0
   -5.3595    0.2721    6.4000 H   0  0  0  0  0  0  0  0  0  0  0  0
   -3.5081    3.7451   10.0462 H   0  0  0  0  0  0  0  0  0  0  0  0
   -1.0760    4.8633    5.8417 H   0  0  0  0  0  0  0  0  0  0  0  0
  1  2  2  3
  2  3  1  0
  3  4  2  0
  3  5  1  0
  5  6  1  0
  6  7  1  0
  5  8  1  0
  8  9  2  0
  8 10  1  0
 10 11  1  0
 11 12  3  0
 10 13  1  0
 13 14  1  0
  1 15  1  0
 15 16  2  0
 16 17  1  0
 17 18  2  0
 18 19  1  0
 19 20  2  0
 20 21  1  0
 21 22  2  0
 22 23  1  0
 23 24  2  0
 18 25  1  0
 25 26  2  0
 26 27  1  0
 27 28  2  0
 28 29  1  0
 29 30  2  0
 30 31  1  0
 31 32  1  0
 31 33  2  0
 33 34  1  0
 34 35  1  0
 35 36  1  0
 33 37  1  0
 28 38  1  0
 38 39  2  0
 39 40  1  0
 40 41  1  0
 41 42  1  0
 42 43  1  0
 43 44  1  0
 44 45  1  0
 45 46  1  0
 43 47  2  0
 47 48  1  0
 47 49  1  0
 40 50  2  0
 50 51  1  0
 39 52  1  0
 52 53  2  0
 53 54  1  0
 53 55  1  0
 55 56  2  0
 56 57  1  0
 57 58  2  0
 58 59  1  0
 59 60  2  0
 60 61  1  0
 61 62  2  0
 62 63  1  0
 63 64  2  0
 58 65  1  0
 65 66  2  3
 66 67  1  0
 67 68  2  0
 67 69  1  0
 69 70  2  0
 70 71  1  0
 71 72  1  0
 71 73  2  0
 73 74  1  0
 73 75  1  0
 75 76  2  0
 76 77  1  0
 77 78  2  3
 78 79  1  0
 79 80  3  0
 78 81  1  0
 81 82  3  0
 13  2  1  0
 24 15  1  0
 51 25  1  0
 64 55  1  0
 77 66  1  0
 24 19  1  0
 50 27  1  0
 64 59  1  0
 76 69  1  0
 37 29  1  0
 54 38  1  0
 48 41  2  0
  1 83  1  0
  6 84  1  0
  6 85  1  0
  7 86  1  0
  7 87  1  0
  7 88  1  0
 10 89  1  0
 13 90  1  0
 14 91  1  0
 14 92  1  0
 14 93  1  0
 16 94  1  0
 17 95  1  0
 21 96  1  0
 22 97  1  0
 26 98  1  0
 30 99  1  0
 35100  1  0
 35101  1  0
 36102  1  0
 36103  1  0
 36104  1  0
 45105  1  0
 45106  1  0
 46107  1  0
 46108  1  0
 46109  1  0
 48110  1  0
 52111  1  0
 56112  1  0
 57113  1  0
 61114  1  0
 62115  1  0
 65116  1  0
 70117  1  0
 75118  1  0
M  END

