
     RDKit          3D

128137  0  0  0  0  0  0  0  0999 V2000
    7.6824    2.7488    0.8808 C   0  0  0  0  0  0  0  0  0  0  0  0
    7.7531    2.8145    2.2337 C   0  0  0  0  0  0  0  0  0  0  0  0
    6.6147    3.2794    3.0741 C   0  0  0  0  0  0  0  0  0  0  0  0
    5.4280    3.1759    2.6558 O   0  0  0  0  0  0  0  0  0  0  0  0
    6.8626    3.7939    4.3999 N   0  0  0  0  0  0  0  0  0  0  0  0
    5.7397    4.2538    5.2314 C   0  0  0  0  0  0  0  0  0  0  0  0
    5.1492    3.0905    6.0231 C   0  0  0  0  0  0  0  0  0  0  0  0
    8.2062    3.7952    4.9264 C   0  0  0  0  0  0  0  0  0  0  0  0
    8.4179    4.0864    6.1359 O   0  0  0  0  0  0  0  0  0  0  0  0
    9.3755    3.4787    4.0335 C   0  0  0  0  0  0  0  0  0  0  0  0
    9.8048    4.7183    3.3590 C   0  0  0  0  0  0  0  0  0  0  0  0
   10.1278    5.6893    2.8230 N   0  0  0  0  0  0  0  0  0  0  0  0
    8.9870    2.3777    3.0175 C   0  0  0  0  0  0  0  0  0  0  0  0
   10.2047    1.9435    2.1751 C   0  0  0  0  0  0  0  0  0  0  0  0
    6.5331    3.2356    0.0987 C   0  0  0  0  0  0  0  0  0  0  0  0
    5.7744    2.3172   -0.6527 C   0  0  0  0  0  0  0  0  0  0  0  0
    4.6107    2.7760   -1.2781 C   0  0  0  0  0  0  0  0  0  0  0  0
    3.6544    2.0370   -1.8967 N   0  0  0  0  0  0  0  0  0  0  0  0
    3.6387    0.5828   -2.1077 C   0  0  0  0  0  0  0  0  0  0  0  0
    4.1570    0.2441   -3.5002 C   0  0  0  0  0  0  0  0  0  0  0  0
    2.6771    2.9229   -2.2172 C   0  0  0  0  0  0  0  0  0  0  0  0
    3.0066    4.1995   -1.8072 C   0  0  0  0  0  0  0  0  0  0  0  0
    4.2425    4.1068   -1.2070 C   0  0  0  0  0  0  0  0  0  0  0  0
    4.9980    5.0488   -0.5133 C   0  0  0  0  0  0  0  0  0  0  0  0
    6.1576    4.6031    0.1444 C   0  0  0  0  0  0  0  0  0  0  0  0
    2.1123    5.2654   -1.9031 C   0  0  0  0  0  0  0  0  0  0  0  0
    0.8228    4.9987   -2.3974 C   0  0  0  0  0  0  0  0  0  0  0  0
    0.4669    3.6885   -2.7990 C   0  0  0  0  0  0  0  0  0  0  0  0
    1.4150    2.6442   -2.7421 C   0  0  0  0  0  0  0  0  0  0  0  0
   -0.9448    3.3278   -3.0310 C   0  0  0  0  0  0  0  0  0  0  0  0
   -1.3558    2.8803   -4.2944 C   0  0  0  0  0  0  0  0  0  0  0  0
   -0.5340    3.0162   -5.3654 F   0  0  0  0  0  0  0  0  0  0  0  0
   -2.5693    2.2000   -4.4411 C   0  0  0  0  0  0  0  0  0  0  0  0
   -2.9015    1.7052   -5.6603 F   0  0  0  0  0  0  0  0  0  0  0  0
   -3.3804    1.9297   -3.3214 C   0  0  0  0  0  0  0  0  0  0  0  0
   -3.0142    2.4664   -2.0693 C   0  0  0  0  0  0  0  0  0  0  0  0
   -3.7662    2.2343   -0.9607 N   0  0  0  0  0  0  0  0  0  0  0  0
   -3.4043    2.6669    0.2776 C   0  0  0  0  0  0  0  0  0  0  0  0
   -4.3454    2.3844    1.4242 C   0  0  0  0  0  0  0  0  0  0  0  0
   -5.6887    3.0784    1.2039 C   0  0  0  0  0  0  0  0  0  0  0  0
   -2.1738    3.3535    0.4206 C   0  0  0  0  0  0  0  0  0  0  0  0
   -1.4194    3.5750   -0.6888 N   0  0  0  0  0  0  0  0  0  0  0  0
   -1.8014    3.1641   -1.9279 C   0  0  0  0  0  0  0  0  0  0  0  0
   -1.6350    3.8353    1.7416 C   0  0  0  0  0  0  0  0  0  0  0  0
   -2.2846    5.1531    2.1637 C   0  0  0  0  0  0  0  0  0  0  0  0
   -4.3866    0.8406   -3.3878 C   0  0  0  0  0  0  0  0  0  0  0  0
   -3.9485   -0.4339   -3.8062 C   0  0  0  0  0  0  0  0  0  0  0  0
   -4.7479   -1.5436   -3.5337 C   0  0  0  0  0  0  0  0  0  0  0  0
   -4.3828   -2.8474   -3.6185 N   0  0  0  0  0  0  0  0  0  0  0  0
   -3.0759   -3.3673   -4.0386 C   0  0  0  0  0  0  0  0  0  0  0  0
   -2.0831   -3.3031   -2.8817 C   0  0  0  0  0  0  0  0  0  0  0  0
   -5.3604   -3.5264   -2.9688 C   0  0  0  0  0  0  0  0  0  0  0  0
   -6.3514   -2.6729   -2.5231 C   0  0  0  0  0  0  0  0  0  0  0  0
   -5.9605   -1.4004   -2.8880 C   0  0  0  0  0  0  0  0  0  0  0  0
   -6.4640   -0.1502   -2.5304 C   0  0  0  0  0  0  0  0  0  0  0  0
   -5.6699    0.9803   -2.7961 C   0  0  0  0  0  0  0  0  0  0  0  0
   -7.3746   -3.1079   -1.6810 C   0  0  0  0  0  0  0  0  0  0  0  0
   -7.3604   -4.4520   -1.2640 C   0  0  0  0  0  0  0  0  0  0  0  0
   -6.3136   -5.3157   -1.6639 C   0  0  0  0  0  0  0  0  0  0  0  0
   -5.3315   -4.8621   -2.5685 C   0  0  0  0  0  0  0  0  0  0  0  0
   -6.2234   -6.6800   -1.1065 C   0  0  0  0  0  0  0  0  0  0  0  0
   -5.1237   -7.1858   -0.4976 C   0  0  0  0  0  0  0  0  0  0  0  0
   -3.9316   -6.3615   -0.1352 C   0  0  0  0  0  0  0  0  0  0  0  0
   -4.0131   -5.1050   -0.0669 O   0  0  0  0  0  0  0  0  0  0  0  0
   -2.6960   -7.0091    0.2194 N   0  0  0  0  0  0  0  0  0  0  0  0
   -1.4125   -6.3232    0.0157 C   0  0  0  0  0  0  0  0  0  0  0  0
   -0.8900   -6.5878   -1.3918 C   0  0  0  0  0  0  0  0  0  0  0  0
   -2.7408   -8.3761    0.6667 C   0  0  0  0  0  0  0  0  0  0  0  0
   -1.6750   -9.0188    0.8786 O   0  0  0  0  0  0  0  0  0  0  0  0
   -4.0694   -9.0372    0.9052 C   0  0  0  0  0  0  0  0  0  0  0  0
   -4.5945   -8.6115    2.2133 C   0  0  0  0  0  0  0  0  0  0  0  0
   -5.0098   -8.2775    3.2404 N   0  0  0  0  0  0  0  0  0  0  0  0
   -5.0658   -8.6835   -0.2293 C   0  0  0  0  0  0  0  0  0  0  0  0
   -4.6953   -9.4260   -1.5242 C   0  0  0  0  0  0  0  0  0  0  0  0
    8.4809    2.3041    0.3064 H   0  0  0  0  0  0  0  0  0  0  0  0
    4.9478    4.7120    4.5970 H   0  0  0  0  0  0  0  0  0  0  0  0
    6.0778    5.0446    5.9340 H   0  0  0  0  0  0  0  0  0  0  0  0
    4.2787    3.4445    6.6124 H   0  0  0  0  0  0  0  0  0  0  0  0
    5.9107    2.6767    6.7206 H   0  0  0  0  0  0  0  0  0  0  0  0
    4.8110    2.2891    5.3321 H   0  0  0  0  0  0  0  0  0  0  0  0
   10.2163    3.1142    4.6623 H   0  0  0  0  0  0  0  0  0  0  0  0
    8.6915    1.4788    3.6065 H   0  0  0  0  0  0  0  0  0  0  0  0
    9.9565    1.0378    1.5832 H   0  0  0  0  0  0  0  0  0  0  0  0
   11.0551    1.6781    2.8403 H   0  0  0  0  0  0  0  0  0  0  0  0
   10.5318    2.7566    1.4948 H   0  0  0  0  0  0  0  0  0  0  0  0
    6.0567    1.2729   -0.6830 H   0  0  0  0  0  0  0  0  0  0  0  0
    4.2589    0.0677   -1.3459 H   0  0  0  0  0  0  0  0  0  0  0  0
    2.6080    0.1870   -1.9892 H   0  0  0  0  0  0  0  0  0  0  0  0
    5.1988    0.6116   -3.6125 H   0  0  0  0  0  0  0  0  0  0  0  0
    4.1421   -0.8540   -3.6509 H   0  0  0  0  0  0  0  0  0  0  0  0
    3.5191    0.7228   -4.2715 H   0  0  0  0  0  0  0  0  0  0  0  0
    4.6814    6.0812   -0.4415 H   0  0  0  0  0  0  0  0  0  0  0  0
    6.7446    5.3101    0.7180 H   0  0  0  0  0  0  0  0  0  0  0  0
    2.3752    6.2545   -1.5493 H   0  0  0  0  0  0  0  0  0  0  0  0
    0.0854    5.7916   -2.4173 H   0  0  0  0  0  0  0  0  0  0  0  0
    1.1332    1.6334   -3.0072 H   0  0  0  0  0  0  0  0  0  0  0  0
   -4.5145    1.2869    1.4850 H   0  0  0  0  0  0  0  0  0  0  0  0
   -3.9411    2.7021    2.4047 H   0  0  0  0  0  0  0  0  0  0  0  0
   -6.2514    2.5626    0.3986 H   0  0  0  0  0  0  0  0  0  0  0  0
   -6.2900    3.0333    2.1379 H   0  0  0  0  0  0  0  0  0  0  0  0
   -5.5441    4.1446    0.9272 H   0  0  0  0  0  0  0  0  0  0  0  0
   -0.5429    4.0052    1.6526 H   0  0  0  0  0  0  0  0  0  0  0  0
   -1.7657    3.0651    2.5290 H   0  0  0  0  0  0  0  0  0  0  0  0
   -2.0605    5.9495    1.4224 H   0  0  0  0  0  0  0  0  0  0  0  0
   -1.8857    5.4570    3.1533 H   0  0  0  0  0  0  0  0  0  0  0  0
   -3.3864    5.0422    2.2633 H   0  0  0  0  0  0  0  0  0  0  0  0
   -2.9528   -0.5641   -4.2086 H   0  0  0  0  0  0  0  0  0  0  0  0
   -3.1743   -4.4155   -4.3897 H   0  0  0  0  0  0  0  0  0  0  0  0
   -2.6901   -2.7785   -4.8959 H   0  0  0  0  0  0  0  0  0  0  0  0
   -1.1077   -3.7262   -3.2001 H   0  0  0  0  0  0  0  0  0  0  0  0
   -1.9287   -2.2510   -2.5614 H   0  0  0  0  0  0  0  0  0  0  0  0
   -2.4634   -3.8891   -2.0195 H   0  0  0  0  0  0  0  0  0  0  0  0
   -7.3985   -0.0544   -1.9958 H   0  0  0  0  0  0  0  0  0  0  0  0
   -6.0094    1.9517   -2.4578 H   0  0  0  0  0  0  0  0  0  0  0  0
   -8.1225   -2.4207   -1.3092 H   0  0  0  0  0  0  0  0  0  0  0  0
   -8.1169   -4.8003   -0.5728 H   0  0  0  0  0  0  0  0  0  0  0  0
   -4.5240   -5.5167   -2.8735 H   0  0  0  0  0  0  0  0  0  0  0  0
   -7.0932   -7.3161   -1.2405 H   0  0  0  0  0  0  0  0  0  0  0  0
   -0.6650   -6.6718    0.7600 H   0  0  0  0  0  0  0  0  0  0  0  0
   -1.5243   -5.2276    0.1658 H   0  0  0  0  0  0  0  0  0  0  0  0
   -1.6327   -6.2503   -2.1459 H   0  0  0  0  0  0  0  0  0  0  0  0
   -0.7052   -7.6730   -1.5321 H   0  0  0  0  0  0  0  0  0  0  0  0
    0.0578   -6.0321   -1.5484 H   0  0  0  0  0  0  0  0  0  0  0  0
   -3.9296  -10.1405    0.9494 H   0  0  0  0  0  0  0  0  0  0  0  0
   -6.0735   -9.0435    0.0780 H   0  0  0  0  0  0  0  0  0  0  0  0
   -5.4431   -9.2119   -2.3162 H   0  0  0  0  0  0  0  0  0  0  0  0
   -3.6926   -9.1087   -1.8899 H   0  0  0  0  0  0  0  0  0  0  0  0
   -4.6848  -10.5244   -1.3495 H   0  0  0  0  0  0  0  0  0  0  0  0
  1  2  2  3
  2  3  1  0
  3  4  2  0
  3  5  1  0
  5  6  1  0
  6  7  1  0
  5  8  1  0
  8  9  2  0
  8 10  1  0
 10 11  1  0
 11 12  3  0
 10 13  1  0
 13 14  1  0
  1 15  1  0
 15 16  2  0
 16 17  1  0
 17 18  1  0
 18 19  1  0
 19 20  1  0
 18 21  1  0
 21 22  2  0
 22 23  1  0
 23 24  1  0
 24 25  2  0
 22 26  1  0
 26 27  2  0
 27 28  1  0
 28 29  2  0
 28 30  1  0
 30 31  2  0
 31 32  1  0
 31 33  1  0
 33 34  1  0
 33 35  2  0
 35 36  1  0
 36 37  2  0
 37 38  1  0
 38 39  1  0
 39 40  1  0
 38 41  2  0
 41 42  1  0
 42 43  2  0
 41 44  1  0
 44 45  1  0
 35 46  1  0
 46 47  2  0
 47 48  1  0
 48 49  1  0
 49 50  1  0
 50 51  1  0
 49 52  1  0
 52 53  2  0
 53 54  1  0
 54 55  1  0
 55 56  2  0
 53 57  1  0
 57 58  2  0
 58 59  1  0
 59 60  2  0
 59 61  1  0
 61 62  2  3
 62 63  1  0
 63 64  2  0
 63 65  1  0
 65 66  1  0
 66 67  1  0
 65 68  1  0
 68 69  2  0
 68 70  1  0
 70 71  1  0
 71 72  3  0
 70 73  1  0
 73 74  1  0
 13  2  1  0
 25 15  1  0
 43 30  1  0
 56 46  1  0
 73 62  1  0
 23 17  2  0
 43 36  1  0
 54 48  2  0
 29 21  1  0
 60 52  1  0
  1 75  1  0
  6 76  1  0
  6 77  1  0
  7 78  1  0
  7 79  1  0
  7 80  1  0
 10 81  1  0
 13 82  1  0
 14 83  1  0
 14 84  1  0
 14 85  1  0
 16 86  1  0
 19 87  1  0
 19 88  1  0
 20 89  1  0
 20 90  1  0
 20 91  1  0
 24 92  1  0
 25 93  1  0
 26 94  1  0
 27 95  1  0
 29 96  1  0
 39 97  1  0
 39 98  1  0
 40 99  1  0
 40100  1  0
 40101  1  0
 44102  1  0
 44103  1  0
 45104  1  0
 45105  1  0
 45106  1  0
 47107  1  0
 50108  1  0
 50109  1  0
 51110  1  0
 51111  1  0
 51112  1  0
 55113  1  0
 56114  1  0
 57115  1  0
 58116  1  0
 60117  1  0
 61118  1  0
 66119  1  0
 66120  1  0
 67121  1  0
 67122  1  0
 67123  1  0
 70124  1  0
 73125  1  0
 74126  1  0
 74127  1  0
 74128  1  0
M  END

