
     RDKit          3D

204218  0  0  0  0  0  0  0  0999 V2000
    6.0065    3.2211    4.9742 C   0  0  0  0  0  0  0  0  0  0  0  0
    6.9804    2.2843    4.9453 C   0  0  0  0  0  0  0  0  0  0  0  0
    7.8052    2.0258    6.1532 C   0  0  0  0  0  0  0  0  0  0  0  0
    7.4630    2.4986    7.2727 O   0  0  0  0  0  0  0  0  0  0  0  0
    8.9927    1.2118    6.0516 N   0  0  0  0  0  0  0  0  0  0  0  0
    9.6305    0.6716    7.2582 C   0  0  0  0  0  0  0  0  0  0  0  0
   10.6596    1.6514    7.8075 C   0  0  0  0  0  0  0  0  0  0  0  0
    9.5706    0.9798    4.7501 C   0  0  0  0  0  0  0  0  0  0  0  0
   10.7122    0.4450    4.6475 O   0  0  0  0  0  0  0  0  0  0  0  0
    8.8597    1.4718    3.5079 C   0  0  0  0  0  0  0  0  0  0  0  0
    9.2542    0.6919    2.3165 C   0  0  0  0  0  0  0  0  0  0  0  0
    9.5750    0.0807    1.3878 N   0  0  0  0  0  0  0  0  0  0  0  0
    7.3224    1.4790    3.7006 C   0  0  0  0  0  0  0  0  0  0  0  0
    6.7298    0.0635    3.8221 C   0  0  0  0  0  0  0  0  0  0  0  0
    5.0995    3.5192    3.8463 C   0  0  0  0  0  0  0  0  0  0  0  0
    4.8261    4.7865    3.3484 C   0  0  0  0  0  0  0  0  0  0  0  0
    3.9153    4.7796    2.2832 C   0  0  0  0  0  0  0  0  0  0  0  0
    3.4747    6.2709    1.4014 S   0  0  0  0  0  0  0  0  0  0  0  0
    4.7853    6.0739    0.1499 C   0  0  0  0  0  0  0  0  0  0  0  0
    4.7252    7.2241   -0.8343 C   0  0  0  0  0  0  0  0  0  0  0  0
    3.4289    3.5094    1.9765 C   0  0  0  0  0  0  0  0  0  0  0  0
    4.1500    2.4043    3.0138 S   0  0  0  0  0  0  0  0  0  0  0  0
    2.4646    3.1285    0.9426 C   0  0  0  0  0  0  0  0  0  0  0  0
    1.0763    3.0841    1.1426 C   0  0  0  0  0  0  0  0  0  0  0  0
    0.3333    3.9823    1.9836 N   0  0  0  0  0  0  0  0  0  0  0  0
    0.2875    5.3791    1.6262 C   0  0  0  0  0  0  0  0  0  0  0  0
    0.2401    5.7682    0.2730 C   0  0  0  0  0  0  0  0  0  0  0  0
    0.2033    7.1226   -0.0693 C   0  0  0  0  0  0  0  0  0  0  0  0
    0.2302    8.1013    0.9283 C   0  0  0  0  0  0  0  0  0  0  0  0
    0.2121    9.8362    0.4758 S   0  0  0  0  0  0  0  0  0  0  0  0
    1.9967    9.8911    0.1190 C   0  0  0  0  0  0  0  0  0  0  0  0
    0.2562    7.7185    2.2737 C   0  0  0  0  0  0  0  0  0  0  0  0
    0.2713    6.3661    2.6233 C   0  0  0  0  0  0  0  0  0  0  0  0
   -0.6555    3.4448    2.8842 C   0  0  0  0  0  0  0  0  0  0  0  0
   -1.9908    3.8777    2.8085 C   0  0  0  0  0  0  0  0  0  0  0  0
   -2.9597    3.3350    3.6557 C   0  0  0  0  0  0  0  0  0  0  0  0
   -2.5977    2.3741    4.6054 C   0  0  0  0  0  0  0  0  0  0  0  0
   -3.8379    1.7180    5.7235 S   0  0  0  0  0  0  0  0  0  0  0  0
   -3.6643    3.0984    6.8994 C   0  0  0  0  0  0  0  0  0  0  0  0
   -1.2704    1.9332    4.6859 C   0  0  0  0  0  0  0  0  0  0  0  0
   -0.3048    2.4622    3.8207 C   0  0  0  0  0  0  0  0  0  0  0  0
    0.4626    2.2506    0.2210 C   0  0  0  0  0  0  0  0  0  0  0  0
   -1.1106    1.7851   -0.0327 S   0  0  0  0  0  0  0  0  0  0  0  0
   -0.7691    0.8033   -1.3720 C   0  0  0  0  0  0  0  0  0  0  0  0
    0.6200    0.8343   -1.6225 C   0  0  0  0  0  0  0  0  0  0  0  0
    1.2673    0.2921   -2.7907 N   0  0  0  0  0  0  0  0  0  0  0  0
    1.1110    0.9382   -4.0877 C   0  0  0  0  0  0  0  0  0  0  0  0
    1.9462    0.5849   -5.1727 C   0  0  0  0  0  0  0  0  0  0  0  0
    1.9139    1.3080   -6.3650 C   0  0  0  0  0  0  0  0  0  0  0  0
    0.9914    2.3406   -6.5404 C   0  0  0  0  0  0  0  0  0  0  0  0
    1.0153    3.3272   -8.0420 S   0  0  0  0  0  0  0  0  0  0  0  0
    0.5113    1.9585   -9.1389 C   0  0  0  0  0  0  0  0  0  0  0  0
    0.0950    2.6490   -5.5140 C   0  0  0  0  0  0  0  0  0  0  0  0
    0.1641    1.9707   -4.2930 C   0  0  0  0  0  0  0  0  0  0  0  0
    2.3428   -0.6397   -2.5680 C   0  0  0  0  0  0  0  0  0  0  0  0
    2.0733   -2.0053   -2.3960 C   0  0  0  0  0  0  0  0  0  0  0  0
    3.1156   -2.9155   -2.2144 C   0  0  0  0  0  0  0  0  0  0  0  0
    4.4462   -2.4710   -2.2162 C   0  0  0  0  0  0  0  0  0  0  0  0
    5.7810   -3.6425   -1.9878 S   0  0  0  0  0  0  0  0  0  0  0  0
    5.9636   -3.9781   -3.7683 C   0  0  0  0  0  0  0  0  0  0  0  0
    4.7224   -1.1115   -2.3978 C   0  0  0  0  0  0  0  0  0  0  0  0
    3.6784   -0.2007   -2.5823 C   0  0  0  0  0  0  0  0  0  0  0  0
    1.2726    1.6562   -0.6876 C   0  0  0  0  0  0  0  0  0  0  0  0
    2.8601    2.1059   -0.3684 S   0  0  0  0  0  0  0  0  0  0  0  0
   -1.7705   -0.1314   -1.8907 C   0  0  0  0  0  0  0  0  0  0  0  0
   -3.1596    0.1290   -1.8146 C   0  0  0  0  0  0  0  0  0  0  0  0
   -3.7577    1.3889   -2.1854 N   0  0  0  0  0  0  0  0  0  0  0  0
   -4.7686    1.9755   -1.3404 C   0  0  0  0  0  0  0  0  0  0  0  0
   -6.1326    1.7568   -1.6129 C   0  0  0  0  0  0  0  0  0  0  0  0
   -7.1153    2.3098   -0.7895 C   0  0  0  0  0  0  0  0  0  0  0  0
   -6.7494    3.1258    0.2872 C   0  0  0  0  0  0  0  0  0  0  0  0
   -8.0171    3.8239    1.3510 S   0  0  0  0  0  0  0  0  0  0  0  0
   -7.8894    2.4820    2.5777 C   0  0  0  0  0  0  0  0  0  0  0  0
   -5.4023    3.4105    0.5165 C   0  0  0  0  0  0  0  0  0  0  0  0
   -4.4163    2.8411   -0.2954 C   0  0  0  0  0  0  0  0  0  0  0  0
   -3.7287    1.7914   -3.5761 C   0  0  0  0  0  0  0  0  0  0  0  0
   -3.8199    3.1528   -3.9202 C   0  0  0  0  0  0  0  0  0  0  0  0
   -3.9857    3.5399   -5.2524 C   0  0  0  0  0  0  0  0  0  0  0  0
   -4.0991    2.5732   -6.2569 C   0  0  0  0  0  0  0  0  0  0  0  0
   -4.5333    3.0655   -7.9293 S   0  0  0  0  0  0  0  0  0  0  0  0
   -2.8513    2.8566   -8.5752 C   0  0  0  0  0  0  0  0  0  0  0  0
   -3.9563    1.2181   -5.9360 C   0  0  0  0  0  0  0  0  0  0  0  0
   -3.7562    0.8302   -4.6078 C   0  0  0  0  0  0  0  0  0  0  0  0
   -3.8876   -1.0496   -1.6534 C   0  0  0  0  0  0  0  0  0  0  0  0
   -5.4999   -1.4129   -1.3595 S   0  0  0  0  0  0  0  0  0  0  0  0
   -5.2185   -3.0880   -1.2158 C   0  0  0  0  0  0  0  0  0  0  0  0
   -3.8646   -3.3617   -1.4377 C   0  0  0  0  0  0  0  0  0  0  0  0
   -3.3339   -4.6827   -1.6160 N   0  0  0  0  0  0  0  0  0  0  0  0
   -3.7754   -5.3923   -2.7901 C   0  0  0  0  0  0  0  0  0  0  0  0
   -3.6325   -4.8044   -4.0584 C   0  0  0  0  0  0  0  0  0  0  0  0
   -4.1789   -5.4197   -5.1882 C   0  0  0  0  0  0  0  0  0  0  0  0
   -4.8875   -6.6199   -5.0532 C   0  0  0  0  0  0  0  0  0  0  0  0
   -5.6900   -7.3556   -6.4846 S   0  0  0  0  0  0  0  0  0  0  0  0
   -7.2024   -6.3531   -6.2808 C   0  0  0  0  0  0  0  0  0  0  0  0
   -5.0179   -7.2212   -3.7961 C   0  0  0  0  0  0  0  0  0  0  0  0
   -4.4677   -6.6084   -2.6676 C   0  0  0  0  0  0  0  0  0  0  0  0
   -2.5288   -5.3218   -0.5926 C   0  0  0  0  0  0  0  0  0  0  0  0
   -1.7829   -6.4837   -0.8845 C   0  0  0  0  0  0  0  0  0  0  0  0
   -1.0461   -7.1353    0.1140 C   0  0  0  0  0  0  0  0  0  0  0  0
   -1.0381   -6.6280    1.4193 C   0  0  0  0  0  0  0  0  0  0  0  0
   -0.1236   -7.4781    2.7096 S   0  0  0  0  0  0  0  0  0  0  0  0
    1.5032   -6.8842    2.1592 C   0  0  0  0  0  0  0  0  0  0  0  0
   -1.7199   -5.4433    1.7065 C   0  0  0  0  0  0  0  0  0  0  0  0
   -2.4788   -4.8052    0.7217 C   0  0  0  0  0  0  0  0  0  0  0  0
   -3.1502   -2.1904   -1.6419 C   0  0  0  0  0  0  0  0  0  0  0  0
   -1.5298   -1.8202   -1.7943 S   0  0  0  0  0  0  0  0  0  0  0  0
   -6.2031   -4.0577   -0.7094 C   0  0  0  0  0  0  0  0  0  0  0  0
   -6.7382   -4.0039    0.5363 C   0  0  0  0  0  0  0  0  0  0  0  0
   -6.2959   -3.0084    1.5578 C   0  0  0  0  0  0  0  0  0  0  0  0
   -5.1599   -2.4659    1.4742 O   0  0  0  0  0  0  0  0  0  0  0  0
   -7.1403   -2.7028    2.6862 N   0  0  0  0  0  0  0  0  0  0  0  0
   -6.6763   -1.7573    3.7110 C   0  0  0  0  0  0  0  0  0  0  0  0
   -5.8031   -2.4724    4.7339 C   0  0  0  0  0  0  0  0  0  0  0  0
   -8.3904   -3.4036    2.8532 C   0  0  0  0  0  0  0  0  0  0  0  0
   -9.0637   -3.2658    3.9147 O   0  0  0  0  0  0  0  0  0  0  0  0
   -8.9286   -4.2745    1.7539 C   0  0  0  0  0  0  0  0  0  0  0  0
   -9.7095   -3.4422    0.8256 C   0  0  0  0  0  0  0  0  0  0  0  0
  -10.3176   -2.7848    0.0954 N   0  0  0  0  0  0  0  0  0  0  0  0
   -7.7739   -5.0106    1.0330 C   0  0  0  0  0  0  0  0  0  0  0  0
   -8.3237   -5.9931   -0.0208 C   0  0  0  0  0  0  0  0  0  0  0  0
    5.8993    3.8442    5.8511 H   0  0  0  0  0  0  0  0  0  0  0  0
    8.8690    0.4576    8.0401 H   0  0  0  0  0  0  0  0  0  0  0  0
   10.1357   -0.2939    7.0291 H   0  0  0  0  0  0  0  0  0  0  0  0
   11.4451    1.8418    7.0458 H   0  0  0  0  0  0  0  0  0  0  0  0
   10.1710    2.6115    8.0806 H   0  0  0  0  0  0  0  0  0  0  0  0
   11.1407    1.2222    8.7122 H   0  0  0  0  0  0  0  0  0  0  0  0
    9.1847    2.5247    3.3251 H   0  0  0  0  0  0  0  0  0  0  0  0
    6.8992    1.9617    2.7991 H   0  0  0  0  0  0  0  0  0  0  0  0
    6.8698   -0.4976    2.8743 H   0  0  0  0  0  0  0  0  0  0  0  0
    7.2077   -0.5067    4.6451 H   0  0  0  0  0  0  0  0  0  0  0  0
    5.6440    0.1200    4.0346 H   0  0  0  0  0  0  0  0  0  0  0  0
    5.2937    5.6859    3.7238 H   0  0  0  0  0  0  0  0  0  0  0  0
    4.6373    5.1183   -0.3951 H   0  0  0  0  0  0  0  0  0  0  0  0
    5.7774    6.0608    0.6476 H   0  0  0  0  0  0  0  0  0  0  0  0
    3.7414    7.2383   -1.3484 H   0  0  0  0  0  0  0  0  0  0  0  0
    4.8708    8.1947   -0.3029 H   0  0  0  0  0  0  0  0  0  0  0  0
    5.5287    7.1123   -1.5950 H   0  0  0  0  0  0  0  0  0  0  0  0
    0.2236    5.0301   -0.5176 H   0  0  0  0  0  0  0  0  0  0  0  0
    0.1677    7.4085   -1.1138 H   0  0  0  0  0  0  0  0  0  0  0  0
    2.5779    9.5260    0.9912 H   0  0  0  0  0  0  0  0  0  0  0  0
    2.2183    9.2650   -0.7720 H   0  0  0  0  0  0  0  0  0  0  0  0
    2.2952   10.9378   -0.1056 H   0  0  0  0  0  0  0  0  0  0  0  0
    0.2653    8.4728    3.0564 H   0  0  0  0  0  0  0  0  0  0  0  0
    0.2923    6.0800    3.6682 H   0  0  0  0  0  0  0  0  0  0  0  0
   -2.2896    4.6208    2.0802 H   0  0  0  0  0  0  0  0  0  0  0  0
   -3.9834    3.6710    3.5823 H   0  0  0  0  0  0  0  0  0  0  0  0
   -4.3353    2.9340    7.7664 H   0  0  0  0  0  0  0  0  0  0  0  0
   -2.6162    3.1636    7.2631 H   0  0  0  0  0  0  0  0  0  0  0  0
   -3.9474    4.0514    6.4045 H   0  0  0  0  0  0  0  0  0  0  0  0
   -0.9903    1.1850    5.4114 H   0  0  0  0  0  0  0  0  0  0  0  0
    0.7187    2.1148    3.8913 H   0  0  0  0  0  0  0  0  0  0  0  0
    2.6515   -0.2279   -5.0984 H   0  0  0  0  0  0  0  0  0  0  0  0
    2.6082    1.0559   -7.1563 H   0  0  0  0  0  0  0  0  0  0  0  0
    0.2082    2.3719  -10.1209 H   0  0  0  0  0  0  0  0  0  0  0  0
    1.3706    1.2763   -9.2887 H   0  0  0  0  0  0  0  0  0  0  0  0
   -0.3275    1.3842   -8.6976 H   0  0  0  0  0  0  0  0  0  0  0  0
   -0.6235    3.4486   -5.6405 H   0  0  0  0  0  0  0  0  0  0  0  0
   -0.5084    2.2846   -3.5096 H   0  0  0  0  0  0  0  0  0  0  0  0
    1.0624   -2.3658   -2.4227 H   0  0  0  0  0  0  0  0  0  0  0  0
    2.8899   -3.9639   -2.0778 H   0  0  0  0  0  0  0  0  0  0  0  0
    6.1665   -3.0333   -4.3175 H   0  0  0  0  0  0  0  0  0  0  0  0
    6.8164   -4.6713   -3.9170 H   0  0  0  0  0  0  0  0  0  0  0  0
    5.0404   -4.4531   -4.1594 H   0  0  0  0  0  0  0  0  0  0  0  0
    5.7478   -0.7640   -2.4165 H   0  0  0  0  0  0  0  0  0  0  0  0
    3.9102    0.8399   -2.7512 H   0  0  0  0  0  0  0  0  0  0  0  0
   -6.4280    1.1459   -2.4591 H   0  0  0  0  0  0  0  0  0  0  0  0
   -8.1610    2.1148   -0.9953 H   0  0  0  0  0  0  0  0  0  0  0  0
   -8.7021    2.5947    3.3229 H   0  0  0  0  0  0  0  0  0  0  0  0
   -6.9098    2.5479    3.0981 H   0  0  0  0  0  0  0  0  0  0  0  0
   -7.9818    1.4906    2.0861 H   0  0  0  0  0  0  0  0  0  0  0  0
   -5.1163    4.0704    1.3225 H   0  0  0  0  0  0  0  0  0  0  0  0
   -3.3929    3.1158   -0.1256 H   0  0  0  0  0  0  0  0  0  0  0  0
   -3.7886    3.9112   -3.1471 H   0  0  0  0  0  0  0  0  0  0  0  0
   -4.0835    4.5900   -5.4975 H   0  0  0  0  0  0  0  0  0  0  0  0
   -2.8043    3.2456   -9.6133 H   0  0  0  0  0  0  0  0  0  0  0  0
   -2.1230    3.4079   -7.9469 H   0  0  0  0  0  0  0  0  0  0  0  0
   -2.6042    1.7748   -8.5898 H   0  0  0  0  0  0  0  0  0  0  0  0
   -4.0293    0.4657   -6.7076 H   0  0  0  0  0  0  0  0  0  0  0  0
   -3.6802   -0.2285   -4.3885 H   0  0  0  0  0  0  0  0  0  0  0  0
   -3.1196   -3.8585   -4.1703 H   0  0  0  0  0  0  0  0  0  0  0  0
   -4.0734   -4.9541   -6.1582 H   0  0  0  0  0  0  0  0  0  0  0  0
   -7.9453   -6.6671   -7.0423 H   0  0  0  0  0  0  0  0  0  0  0  0
   -6.9627   -5.2811   -6.4335 H   0  0  0  0  0  0  0  0  0  0  0  0
   -7.6334   -6.5011   -5.2653 H   0  0  0  0  0  0  0  0  0  0  0  0
   -5.5726   -8.1461   -3.6911 H   0  0  0  0  0  0  0  0  0  0  0  0
   -4.6144   -7.0591   -1.6961 H   0  0  0  0  0  0  0  0  0  0  0  0
   -1.7642   -6.8975   -1.8916 H   0  0  0  0  0  0  0  0  0  0  0  0
   -0.4919   -8.0338   -0.1294 H   0  0  0  0  0  0  0  0  0  0  0  0
    2.2898   -7.3477    2.7931 H   0  0  0  0  0  0  0  0  0  0  0  0
    1.5655   -5.7832    2.2558 H   0  0  0  0  0  0  0  0  0  0  0  0
    1.6744   -7.1817    1.1047 H   0  0  0  0  0  0  0  0  0  0  0  0
   -1.6940   -5.0290    2.7028 H   0  0  0  0  0  0  0  0  0  0  0  0
   -3.0047   -3.8968    0.9790 H   0  0  0  0  0  0  0  0  0  0  0  0
   -6.4627   -4.8545   -1.3893 H   0  0  0  0  0  0  0  0  0  0  0  0
   -7.5393   -1.2796    4.2287 H   0  0  0  0  0  0  0  0  0  0  0  0
   -6.0960   -0.9315    3.2419 H   0  0  0  0  0  0  0  0  0  0  0  0
   -6.4101   -3.2140    5.3016 H   0  0  0  0  0  0  0  0  0  0  0  0
   -5.3764   -1.7360    5.4455 H   0  0  0  0  0  0  0  0  0  0  0  0
   -4.9678   -3.0032    4.2269 H   0  0  0  0  0  0  0  0  0  0  0  0
   -9.6100   -5.0283    2.2006 H   0  0  0  0  0  0  0  0  0  0  0  0
   -7.2652   -5.6424    1.7998 H   0  0  0  0  0  0  0  0  0  0  0  0
   -8.7766   -5.4486   -0.8782 H   0  0  0  0  0  0  0  0  0  0  0  0
   -7.5095   -6.6553   -0.3811 H   0  0  0  0  0  0  0  0  0  0  0  0
   -9.1023   -6.6445    0.4301 H   0  0  0  0  0  0  0  0  0  0  0  0
  1  2  2  3
  2  3  1  0
  3  4  2  0
  3  5  1  0
  5  6  1  0
  6  7  1  0
  5  8  1  0
  8  9  2  0
  8 10  1  0
 10 11  1  0
 11 12  3  0
 10 13  1  0
 13 14  1  0
  1 15  1  0
 15 16  2  0
 16 17  1  0
 17 18  1  0
 18 19  1  0
 19 20  1  0
 17 21  2  0
 21 22  1  0
 21 23  1  0
 23 24  2  0
 24 25  1  0
 25 26  1  0
 26 27  2  0
 27 28  1  0
 28 29  2  0
 29 30  1  0
 30 31  1  0
 29 32  1  0
 32 33  2  0
 25 34  1  0
 34 35  2  0
 35 36  1  0
 36 37  2  0
 37 38  1  0
 38 39  1  0
 37 40  1  0
 40 41  2  0
 24 42  1  0
 42 43  1  0
 43 44  1  0
 44 45  2  0
 45 46  1  0
 46 47  1  0
 47 48  2  0
 48 49  1  0
 49 50  2  0
 50 51  1  0
 51 52  1  0
 50 53  1  0
 53 54  2  0
 46 55  1  0
 55 56  2  0
 56 57  1  0
 57 58  2  0
 58 59  1  0
 59 60  1  0
 58 61  1  0
 61 62  2  0
 45 63  1  0
 63 64  1  0
 44 65  1  0
 65 66  2  0
 66 67  1  0
 67 68  1  0
 68 69  2  0
 69 70  1  0
 70 71  2  0
 71 72  1  0
 72 73  1  0
 71 74  1  0
 74 75  2  0
 67 76  1  0
 76 77  2  0
 77 78  1  0
 78 79  2  0
 79 80  1  0
 80 81  1  0
 79 82  1  0
 82 83  2  0
 66 84  1  0
 84 85  1  0
 85 86  1  0
 86 87  2  0
 87 88  1  0
 88 89  1  0
 89 90  2  0
 90 91  1  0
 91 92  2  0
 92 93  1  0
 93 94  1  0
 92 95  1  0
 95 96  2  0
 88 97  1  0
 97 98  2  0
 98 99  1  0
 99100  2  0
100101  1  0
101102  1  0
100103  1  0
103104  2  0
 87105  1  0
105106  1  0
 86107  1  0
107108  2  3
108109  1  0
109110  2  0
109111  1  0
111112  1  0
112113  1  0
111114  1  0
114115  2  0
114116  1  0
116117  1  0
117118  3  0
116119  1  0
119120  1  0
 13  2  1  0
 22 15  1  0
 64 23  1  0
106 65  1  0
119108  1  0
 33 26  1  0
 41 34  1  0
 63 42  2  0
 75 68  1  0
 83 76  1  0
105 84  2  0
 54 47  1  0
 62 55  1  0
 96 89  1  0
104 97  1  0
  1121  1  0
  6122  1  0
  6123  1  0
  7124  1  0
  7125  1  0
  7126  1  0
 10127  1  0
 13128  1  0
 14129  1  0
 14130  1  0
 14131  1  0
 16132  1  0
 19133  1  0
 19134  1  0
 20135  1  0
 20136  1  0
 20137  1  0
 27138  1  0
 28139  1  0
 31140  1  0
 31141  1  0
 31142  1  0
 32143  1  0
 33144  1  0
 35145  1  0
 36146  1  0
 39147  1  0
 39148  1  0
 39149  1  0
 40150  1  0
 41151  1  0
 48152  1  0
 49153  1  0
 52154  1  0
 52155  1  0
 52156  1  0
 53157  1  0
 54158  1  0
 56159  1  0
 57160  1  0
 60161  1  0
 60162  1  0
 60163  1  0
 61164  1  0
 62165  1  0
 69166  1  0
 70167  1  0
 73168  1  0
 73169  1  0
 73170  1  0
 74171  1  0
 75172  1  0
 77173  1  0
 78174  1  0
 81175  1  0
 81176  1  0
 81177  1  0
 82178  1  0
 83179  1  0
 90180  1  0
 91181  1  0
 94182  1  0
 94183  1  0
 94184  1  0
 95185  1  0
 96186  1  0
 98187  1  0
 99188  1  0
102189  1  0
102190  1  0
102191  1  0
103192  1  0
104193  1  0
107194  1  0
112195  1  0
112196  1  0
113197  1  0
113198  1  0
113199  1  0
116200  1  0
119201  1  0
120202  1  0
120203  1  0
120204  1  0
M  END

