
     RDKit          3D

200217  0  0  0  0  0  0  0  0999 V2000
    1.5255   -5.6846    7.2270 C   0  0  0  0  0  0  0  0  0  0  0  0
    2.1602   -5.1273    8.2678 C   0  0  0  0  0  0  0  0  0  0  0  0
    2.1615   -5.6335    9.6452 C   0  0  0  0  0  0  0  0  0  0  0  0
    1.5527   -6.6542   10.0594 O   0  0  0  0  0  0  0  0  0  0  0  0
    2.9718   -4.7344   10.4623 C   0  0  0  0  0  0  0  0  0  0  0  0
    3.2566   -4.7912   11.8271 C   0  0  0  0  0  0  0  0  0  0  0  0
    4.0842   -3.7949   12.3800 C   0  0  0  0  0  0  0  0  0  0  0  0
    4.4544   -3.8543   14.0999 Cl  0  0  0  0  0  0  0  0  0  0  0  0
    4.6072   -2.7656   11.5571 C   0  0  0  0  0  0  0  0  0  0  0  0
    5.6486   -1.5148   12.2228 Cl  0  0  0  0  0  0  0  0  0  0  0  0
    4.2997   -2.7336   10.1852 C   0  0  0  0  0  0  0  0  0  0  0  0
    3.4750   -3.7286    9.6625 C   0  0  0  0  0  0  0  0  0  0  0  0
    3.0129   -3.9273    8.2931 C   0  0  0  0  0  0  0  0  0  0  0  0
    3.3443   -3.2180    7.3059 O   0  0  0  0  0  0  0  0  0  0  0  0
    1.4574   -5.0751    5.8817 C   0  0  0  0  0  0  0  0  0  0  0  0
    0.8883   -3.7994    5.7089 C   0  0  0  0  0  0  0  0  0  0  0  0
    0.4190   -3.1059    6.7797 F   0  0  0  0  0  0  0  0  0  0  0  0
    0.7544   -3.2504    4.4315 C   0  0  0  0  0  0  0  0  0  0  0  0
    0.1816   -2.0272    4.2983 F   0  0  0  0  0  0  0  0  0  0  0  0
    1.1901   -3.9608    3.3026 C   0  0  0  0  0  0  0  0  0  0  0  0
    1.7323   -5.2459    3.4591 C   0  0  0  0  0  0  0  0  0  0  0  0
    2.1032   -5.9779    2.3766 N   0  0  0  0  0  0  0  0  0  0  0  0
    2.5741   -7.2498    2.4947 C   0  0  0  0  0  0  0  0  0  0  0  0
    2.9589   -7.9765    1.2309 C   0  0  0  0  0  0  0  0  0  0  0  0
    4.4507   -7.8456    0.9490 C   0  0  0  0  0  0  0  0  0  0  0  0
    2.7116   -7.8107    3.7889 C   0  0  0  0  0  0  0  0  0  0  0  0
    2.3400   -7.0673    4.8661 N   0  0  0  0  0  0  0  0  0  0  0  0
    1.8552   -5.8061    4.7465 C   0  0  0  0  0  0  0  0  0  0  0  0
    3.1357   -9.2368    4.0291 C   0  0  0  0  0  0  0  0  0  0  0  0
    1.9145  -10.1338    4.1631 C   0  0  0  0  0  0  0  0  0  0  0  0
    0.9734   -3.3794    1.9684 C   0  0  0  0  0  0  0  0  0  0  0  0
    1.7856   -2.3999    1.3726 C   0  0  0  0  0  0  0  0  0  0  0  0
    3.1348   -2.1242    1.7643 N   0  0  0  0  0  0  0  0  0  0  0  0
    3.4198   -1.1206    2.7474 C   0  0  0  0  0  0  0  0  0  0  0  0
    3.6319    0.2068    2.3549 C   0  0  0  0  0  0  0  0  0  0  0  0
    3.9563    1.1769    3.3028 C   0  0  0  0  0  0  0  0  0  0  0  0
    4.0783    0.8247    4.6523 C   0  0  0  0  0  0  0  0  0  0  0  0
    4.5151    2.0778    5.8639 S   0  0  0  0  0  0  0  0  0  0  0  0
    2.7861    2.5315    6.2133 C   0  0  0  0  0  0  0  0  0  0  0  0
    3.8745   -0.5017    5.0474 C   0  0  0  0  0  0  0  0  0  0  0  0
    3.5590   -1.4767    4.0943 C   0  0  0  0  0  0  0  0  0  0  0  0
    4.2142   -2.7036    1.0219 C   0  0  0  0  0  0  0  0  0  0  0  0
    4.5046   -2.2651   -0.2786 C   0  0  0  0  0  0  0  0  0  0  0  0
    5.5751   -2.8161   -0.9880 C   0  0  0  0  0  0  0  0  0  0  0  0
    6.3617   -3.8165   -0.4053 C   0  0  0  0  0  0  0  0  0  0  0  0
    7.7340   -4.5228   -1.3192 S   0  0  0  0  0  0  0  0  0  0  0  0
    6.6979   -5.7713   -2.1419 C   0  0  0  0  0  0  0  0  0  0  0  0
    6.0817   -4.2510    0.8966 C   0  0  0  0  0  0  0  0  0  0  0  0
    5.0114   -3.6971    1.6084 C   0  0  0  0  0  0  0  0  0  0  0  0
    1.1091   -1.7485    0.3427 C   0  0  0  0  0  0  0  0  0  0  0  0
    1.3761   -0.3443   -0.5395 S   0  0  0  0  0  0  0  0  0  0  0  0
   -0.1638   -0.3392   -1.2663 C   0  0  0  0  0  0  0  0  0  0  0  0
   -0.8997   -1.4381   -0.7909 C   0  0  0  0  0  0  0  0  0  0  0  0
   -2.2098   -1.8099   -1.2484 N   0  0  0  0  0  0  0  0  0  0  0  0
   -3.3436   -0.9965   -0.9046 C   0  0  0  0  0  0  0  0  0  0  0  0
   -3.5432   -0.5775    0.4236 C   0  0  0  0  0  0  0  0  0  0  0  0
   -4.6750    0.1740    0.7607 C   0  0  0  0  0  0  0  0  0  0  0  0
   -5.6213    0.4961   -0.2172 C   0  0  0  0  0  0  0  0  0  0  0  0
   -7.1194    1.3689    0.2391 S   0  0  0  0  0  0  0  0  0  0  0  0
   -8.0343   -0.1672    0.5884 C   0  0  0  0  0  0  0  0  0  0  0  0
   -5.4261    0.0865   -1.5374 C   0  0  0  0  0  0  0  0  0  0  0  0
   -4.2880   -0.6460   -1.8858 C   0  0  0  0  0  0  0  0  0  0  0  0
   -2.3686   -2.9863   -2.0766 C   0  0  0  0  0  0  0  0  0  0  0  0
   -1.3553   -3.3826   -2.9710 C   0  0  0  0  0  0  0  0  0  0  0  0
   -1.5382   -4.4922   -3.7994 C   0  0  0  0  0  0  0  0  0  0  0  0
   -2.7341   -5.2134   -3.7611 C   0  0  0  0  0  0  0  0  0  0  0  0
   -2.9881   -6.5910   -4.8796 S   0  0  0  0  0  0  0  0  0  0  0  0
   -3.8518   -5.5773   -6.1225 C   0  0  0  0  0  0  0  0  0  0  0  0
   -3.7287   -4.8557   -2.8494 C   0  0  0  0  0  0  0  0  0  0  0  0
   -3.5493   -3.7533   -2.0085 C   0  0  0  0  0  0  0  0  0  0  0  0
   -0.1524   -2.1977    0.1044 C   0  0  0  0  0  0  0  0  0  0  0  0
   -0.5466   -3.4064    1.1916 S   0  0  0  0  0  0  0  0  0  0  0  0
   -0.7085    0.8124   -1.9875 C   0  0  0  0  0  0  0  0  0  0  0  0
   -0.2022    1.3672   -3.1716 C   0  0  0  0  0  0  0  0  0  0  0  0
    0.8110    0.7673   -3.9945 N   0  0  0  0  0  0  0  0  0  0  0  0
    2.0809    1.4433   -4.1393 C   0  0  0  0  0  0  0  0  0  0  0  0
    2.7364    1.4831   -5.3857 C   0  0  0  0  0  0  0  0  0  0  0  0
    3.9708    2.1271   -5.5196 C   0  0  0  0  0  0  0  0  0  0  0  0
    4.5525    2.7597   -4.4170 C   0  0  0  0  0  0  0  0  0  0  0  0
    6.1385    3.5849   -4.5789 S   0  0  0  0  0  0  0  0  0  0  0  0
    7.0863    2.1201   -4.0642 C   0  0  0  0  0  0  0  0  0  0  0  0
    3.8907    2.7637   -3.1856 C   0  0  0  0  0  0  0  0  0  0  0  0
    2.6641    2.1071   -3.0453 C   0  0  0  0  0  0  0  0  0  0  0  0
    0.4835   -0.4137   -4.7614 C   0  0  0  0  0  0  0  0  0  0  0  0
   -0.8116   -0.5929   -5.2844 C   0  0  0  0  0  0  0  0  0  0  0  0
   -1.1066   -1.7005   -6.0862 C   0  0  0  0  0  0  0  0  0  0  0  0
   -0.1140   -2.6411   -6.3737 C   0  0  0  0  0  0  0  0  0  0  0  0
   -0.4881   -4.0427   -7.4280 S   0  0  0  0  0  0  0  0  0  0  0  0
   -0.1207   -3.1471   -8.9689 C   0  0  0  0  0  0  0  0  0  0  0  0
    1.1659   -2.4931   -5.8324 C   0  0  0  0  0  0  0  0  0  0  0  0
    1.4621   -1.3962   -5.0204 C   0  0  0  0  0  0  0  0  0  0  0  0
   -0.8250    2.5777   -3.4640 C   0  0  0  0  0  0  0  0  0  0  0  0
   -0.6529    3.7499   -4.6593 S   0  0  0  0  0  0  0  0  0  0  0  0
   -1.8398    4.7775   -3.9841 C   0  0  0  0  0  0  0  0  0  0  0  0
   -2.3443    4.2062   -2.8080 C   0  0  0  0  0  0  0  0  0  0  0  0
   -3.2126    4.8726   -1.8790 N   0  0  0  0  0  0  0  0  0  0  0  0
   -4.6369    4.8302   -2.0788 C   0  0  0  0  0  0  0  0  0  0  0  0
   -5.4031    5.9959   -1.9283 C   0  0  0  0  0  0  0  0  0  0  0  0
   -6.7817    5.9707   -2.1651 C   0  0  0  0  0  0  0  0  0  0  0  0
   -7.4094    4.7767   -2.5252 C   0  0  0  0  0  0  0  0  0  0  0  0
   -9.1778    4.7473   -2.8230 S   0  0  0  0  0  0  0  0  0  0  0  0
   -9.5870    4.4304   -1.0792 C   0  0  0  0  0  0  0  0  0  0  0  0
   -6.6563    3.6064   -2.6655 C   0  0  0  0  0  0  0  0  0  0  0  0
   -5.2765    3.6316   -2.4508 C   0  0  0  0  0  0  0  0  0  0  0  0
   -2.6533    5.4245   -0.6707 C   0  0  0  0  0  0  0  0  0  0  0  0
   -1.4479    6.1446   -0.7137 C   0  0  0  0  0  0  0  0  0  0  0  0
   -0.8969    6.6724    0.4606 C   0  0  0  0  0  0  0  0  0  0  0  0
   -1.5342    6.4721    1.6873 C   0  0  0  0  0  0  0  0  0  0  0  0
   -0.8272    7.1573    3.1909 S   0  0  0  0  0  0  0  0  0  0  0  0
    0.2365    5.7111    3.4990 C   0  0  0  0  0  0  0  0  0  0  0  0
   -2.7316    5.7528    1.7398 C   0  0  0  0  0  0  0  0  0  0  0  0
   -3.2913    5.2347    0.5695 C   0  0  0  0  0  0  0  0  0  0  0  0
   -1.7525    2.9785   -2.5560 C   0  0  0  0  0  0  0  0  0  0  0  0
   -1.8501    1.8763   -1.3073 S   0  0  0  0  0  0  0  0  0  0  0  0
   -2.1192    6.1405   -4.4461 C   0  0  0  0  0  0  0  0  0  0  0  0
   -3.3162    6.5089   -4.9176 C   0  0  0  0  0  0  0  0  0  0  0  0
   -3.7599    7.8859   -5.1604 C   0  0  0  0  0  0  0  0  0  0  0  0
   -3.0638    8.9247   -5.0215 O   0  0  0  0  0  0  0  0  0  0  0  0
   -5.1678    7.8433   -5.5462 C   0  0  0  0  0  0  0  0  0  0  0  0
   -6.0472    8.8905   -5.8260 C   0  0  0  0  0  0  0  0  0  0  0  0
   -7.3797    8.5825   -6.1497 C   0  0  0  0  0  0  0  0  0  0  0  0
   -8.4955    9.8975   -6.4874 Cl  0  0  0  0  0  0  0  0  0  0  0  0
   -7.8081    7.2323   -6.1860 C   0  0  0  0  0  0  0  0  0  0  0  0
   -9.4709    6.8204   -6.5742 Cl  0  0  0  0  0  0  0  0  0  0  0  0
   -6.9019    6.1937   -5.9082 C   0  0  0  0  0  0  0  0  0  0  0  0
   -5.5864    6.5290   -5.5885 C   0  0  0  0  0  0  0  0  0  0  0  0
   -4.4729    5.6587   -5.2428 C   0  0  0  0  0  0  0  0  0  0  0  0
   -4.4835    4.4000   -5.2852 O   0  0  0  0  0  0  0  0  0  0  0  0
    1.0186   -6.6319    7.3726 H   0  0  0  0  0  0  0  0  0  0  0  0
    2.8525   -5.5805   12.4455 H   0  0  0  0  0  0  0  0  0  0  0  0
    4.6970   -1.9548    9.5462 H   0  0  0  0  0  0  0  0  0  0  0  0
    2.6697   -9.0466    1.2753 H   0  0  0  0  0  0  0  0  0  0  0  0
    2.3987   -7.5345    0.3828 H   0  0  0  0  0  0  0  0  0  0  0  0
    4.7948   -6.7998    1.1109 H   0  0  0  0  0  0  0  0  0  0  0  0
    4.6631   -8.1301   -0.1048 H   0  0  0  0  0  0  0  0  0  0  0  0
    5.0405   -8.5075    1.6199 H   0  0  0  0  0  0  0  0  0  0  0  0
    3.7232   -9.2859    4.9760 H   0  0  0  0  0  0  0  0  0  0  0  0
    3.7928   -9.6148    3.2250 H   0  0  0  0  0  0  0  0  0  0  0  0
    1.3222   -9.8467    5.0580 H   0  0  0  0  0  0  0  0  0  0  0  0
    1.2689  -10.0516    3.2640 H   0  0  0  0  0  0  0  0  0  0  0  0
    2.2375  -11.1898    4.2758 H   0  0  0  0  0  0  0  0  0  0  0  0
    3.5486    0.4872    1.3121 H   0  0  0  0  0  0  0  0  0  0  0  0
    4.1213    2.1998    2.9880 H   0  0  0  0  0  0  0  0  0  0  0  0
    2.3094    1.7332    6.8166 H   0  0  0  0  0  0  0  0  0  0  0  0
    2.2170    2.6786    5.2719 H   0  0  0  0  0  0  0  0  0  0  0  0
    2.7672    3.4770    6.7862 H   0  0  0  0  0  0  0  0  0  0  0  0
    3.9816   -0.7872    6.0854 H   0  0  0  0  0  0  0  0  0  0  0  0
    3.4447   -2.5071    4.3996 H   0  0  0  0  0  0  0  0  0  0  0  0
    3.9164   -1.4871   -0.7425 H   0  0  0  0  0  0  0  0  0  0  0  0
    5.7844   -2.4686   -1.9920 H   0  0  0  0  0  0  0  0  0  0  0  0
    6.2306   -6.4364   -1.3886 H   0  0  0  0  0  0  0  0  0  0  0  0
    7.3341   -6.3775   -2.8177 H   0  0  0  0  0  0  0  0  0  0  0  0
    5.9085   -5.2787   -2.7472 H   0  0  0  0  0  0  0  0  0  0  0  0
    6.6909   -5.0173    1.3585 H   0  0  0  0  0  0  0  0  0  0  0  0
    4.7965   -4.0455    2.6116 H   0  0  0  0  0  0  0  0  0  0  0  0
   -2.8295   -0.8392    1.1933 H   0  0  0  0  0  0  0  0  0  0  0  0
   -4.8222    0.4802    1.7863 H   0  0  0  0  0  0  0  0  0  0  0  0
   -8.0802   -0.8049   -0.3183 H   0  0  0  0  0  0  0  0  0  0  0  0
   -9.0686    0.0854    0.8961 H   0  0  0  0  0  0  0  0  0  0  0  0
   -7.5443   -0.7267    1.4133 H   0  0  0  0  0  0  0  0  0  0  0  0
   -6.1554    0.3332   -2.2996 H   0  0  0  0  0  0  0  0  0  0  0  0
   -4.1443   -0.9475   -2.9129 H   0  0  0  0  0  0  0  0  0  0  0  0
   -0.4340   -2.8155   -3.0454 H   0  0  0  0  0  0  0  0  0  0  0  0
   -0.7529   -4.7833   -4.4851 H   0  0  0  0  0  0  0  0  0  0  0  0
   -4.8191   -5.2101   -5.7160 H   0  0  0  0  0  0  0  0  0  0  0  0
   -3.2300   -4.7101   -6.4221 H   0  0  0  0  0  0  0  0  0  0  0  0
   -4.0555   -6.1981   -7.0216 H   0  0  0  0  0  0  0  0  0  0  0  0
   -4.6495   -5.4218   -2.7933 H   0  0  0  0  0  0  0  0  0  0  0  0
   -4.3300   -3.4957   -1.3069 H   0  0  0  0  0  0  0  0  0  0  0  0
    2.2949    1.0198   -6.2578 H   0  0  0  0  0  0  0  0  0  0  0  0
    4.4689    2.1443   -6.4821 H   0  0  0  0  0  0  0  0  0  0  0  0
    6.9328    1.2929   -4.7865 H   0  0  0  0  0  0  0  0  0  0  0  0
    8.1631    2.3796   -4.0345 H   0  0  0  0  0  0  0  0  0  0  0  0
    6.7713    1.7973   -3.0494 H   0  0  0  0  0  0  0  0  0  0  0  0
    4.3328    3.2662   -2.3333 H   0  0  0  0  0  0  0  0  0  0  0  0
    2.1779    2.1140   -2.0802 H   0  0  0  0  0  0  0  0  0  0  0  0
   -1.5881    0.1384   -5.1010 H   0  0  0  0  0  0  0  0  0  0  0  0
   -2.1049   -1.8152   -6.4903 H   0  0  0  0  0  0  0  0  0  0  0  0
    0.9512   -2.8627   -8.9941 H   0  0  0  0  0  0  0  0  0  0  0  0
   -0.7547   -2.2395   -9.0483 H   0  0  0  0  0  0  0  0  0  0  0  0
   -0.3428   -3.8075   -9.8314 H   0  0  0  0  0  0  0  0  0  0  0  0
    1.9334   -3.2270   -6.0404 H   0  0  0  0  0  0  0  0  0  0  0  0
    2.4578   -1.2966   -4.6041 H   0  0  0  0  0  0  0  0  0  0  0  0
   -4.9266    6.9270   -1.6483 H   0  0  0  0  0  0  0  0  0  0  0  0
   -7.3591    6.8814   -2.0676 H   0  0  0  0  0  0  0  0  0  0  0  0
   -9.1544    5.2220   -0.4347 H   0  0  0  0  0  0  0  0  0  0  0  0
   -9.1888    3.4434   -0.7660 H   0  0  0  0  0  0  0  0  0  0  0  0
  -10.6896    4.4297   -0.9588 H   0  0  0  0  0  0  0  0  0  0  0  0
   -7.1405    2.6753   -2.9457 H   0  0  0  0  0  0  0  0  0  0  0  0
   -4.7075    2.7192   -2.5737 H   0  0  0  0  0  0  0  0  0  0  0  0
   -0.9402    6.3152   -1.6553 H   0  0  0  0  0  0  0  0  0  0  0  0
    0.0296    7.2354    0.4091 H   0  0  0  0  0  0  0  0  0  0  0  0
    0.8038    5.8766    4.4377 H   0  0  0  0  0  0  0  0  0  0  0  0
    0.9556    5.5832    2.6642 H   0  0  0  0  0  0  0  0  0  0  0  0
   -0.3827    4.7977    3.6055 H   0  0  0  0  0  0  0  0  0  0  0  0
   -3.2344    5.5934    2.6859 H   0  0  0  0  0  0  0  0  0  0  0  0
   -4.2151    4.6720    0.6289 H   0  0  0  0  0  0  0  0  0  0  0  0
   -1.3464    6.8872   -4.3127 H   0  0  0  0  0  0  0  0  0  0  0  0
   -5.7051    9.9199   -5.7822 H   0  0  0  0  0  0  0  0  0  0  0  0
   -7.2133    5.1586   -5.9342 H   0  0  0  0  0  0  0  0  0  0  0  0
  1  2  2  3
  2  3  1  0
  3  4  2  0
  3  5  1  0
  5  6  2  0
  6  7  1  0
  7  8  1  0
  7  9  2  0
  9 10  1  0
  9 11  1  0
 11 12  2  0
 12 13  1  0
 13 14  2  0
  1 15  1  0
 15 16  2  0
 16 17  1  0
 16 18  1  0
 18 19  1  0
 18 20  2  0
 20 21  1  0
 21 22  2  0
 22 23  1  0
 23 24  1  0
 24 25  1  0
 23 26  2  0
 26 27  1  0
 27 28  2  0
 26 29  1  0
 29 30  1  0
 20 31  1  0
 31 32  2  0
 32 33  1  0
 33 34  1  0
 34 35  2  0
 35 36  1  0
 36 37  2  0
 37 38  1  0
 38 39  1  0
 37 40  1  0
 40 41  2  0
 33 42  1  0
 42 43  2  0
 43 44  1  0
 44 45  2  0
 45 46  1  0
 46 47  1  0
 45 48  1  0
 48 49  2  0
 32 50  1  0
 50 51  1  0
 51 52  1  0
 52 53  2  0
 53 54  1  0
 54 55  1  0
 55 56  2  0
 56 57  1  0
 57 58  2  0
 58 59  1  0
 59 60  1  0
 58 61  1  0
 61 62  2  0
 54 63  1  0
 63 64  2  0
 64 65  1  0
 65 66  2  0
 66 67  1  0
 67 68  1  0
 66 69  1  0
 69 70  2  0
 53 71  1  0
 71 72  1  0
 52 73  1  0
 73 74  2  0
 74 75  1  0
 75 76  1  0
 76 77  2  0
 77 78  1  0
 78 79  2  0
 79 80  1  0
 80 81  1  0
 79 82  1  0
 82 83  2  0
 75 84  1  0
 84 85  2  0
 85 86  1  0
 86 87  2  0
 87 88  1  0
 88 89  1  0
 87 90  1  0
 90 91  2  0
 74 92  1  0
 92 93  1  0
 93 94  1  0
 94 95  2  0
 95 96  1  0
 96 97  1  0
 97 98  2  0
 98 99  1  0
 99100  2  0
100101  1  0
101102  1  0
100103  1  0
103104  2  0
 96105  1  0
105106  2  0
106107  1  0
107108  2  0
108109  1  0
109110  1  0
108111  1  0
111112  2  0
 95113  1  0
113114  1  0
 94115  1  0
115116  2  3
116117  1  0
117118  2  0
117119  1  0
119120  2  0
120121  1  0
121122  1  0
121123  2  0
123124  1  0
123125  1  0
125126  2  0
126127  1  0
127128  2  0
 13  2  1  0
 28 15  1  0
 72 31  1  0
114 73  1  0
127116  1  0
 12  5  1  0
 28 21  1  0
 41 34  1  0
 49 42  1  0
 71 50  2  0
 83 76  1  0
 91 84  1  0
113 92  2  0
126119  1  0
 62 55  1  0
 70 63  1  0
104 97  1  0
112105  1  0
  1129  1  0
  6130  1  0
 11131  1  0
 24132  1  0
 24133  1  0
 25134  1  0
 25135  1  0
 25136  1  0
 29137  1  0
 29138  1  0
 30139  1  0
 30140  1  0
 30141  1  0
 35142  1  0
 36143  1  0
 39144  1  0
 39145  1  0
 39146  1  0
 40147  1  0
 41148  1  0
 43149  1  0
 44150  1  0
 47151  1  0
 47152  1  0
 47153  1  0
 48154  1  0
 49155  1  0
 56156  1  0
 57157  1  0
 60158  1  0
 60159  1  0
 60160  1  0
 61161  1  0
 62162  1  0
 64163  1  0
 65164  1  0
 68165  1  0
 68166  1  0
 68167  1  0
 69168  1  0
 70169  1  0
 77170  1  0
 78171  1  0
 81172  1  0
 81173  1  0
 81174  1  0
 82175  1  0
 83176  1  0
 85177  1  0
 86178  1  0
 89179  1  0
 89180  1  0
 89181  1  0
 90182  1  0
 91183  1  0
 98184  1  0
 99185  1  0
102186  1  0
102187  1  0
102188  1  0
103189  1  0
104190  1  0
106191  1  0
107192  1  0
110193  1  0
110194  1  0
110195  1  0
111196  1  0
112197  1  0
115198  1  0
120199  1  0
125200  1  0
M  END

