
     RDKit          3D

152163  0  0  0  0  0  0  0  0999 V2000
    1.9739    2.5680    7.0924 C   0  0  0  0  0  0  0  0  0  0  0  0
    3.0576    2.2525    7.8169 C   0  0  0  0  0  0  0  0  0  0  0  0
    4.1338    1.2909    7.5190 C   0  0  0  0  0  0  0  0  0  0  0  0
    4.1920    0.5146    6.5291 O   0  0  0  0  0  0  0  0  0  0  0  0
    5.0898    1.3221    8.6261 C   0  0  0  0  0  0  0  0  0  0  0  0
    6.2665    0.5923    8.8064 C   0  0  0  0  0  0  0  0  0  0  0  0
    7.0127    0.8041    9.9813 C   0  0  0  0  0  0  0  0  0  0  0  0
    8.4986   -0.1064   10.2151 Cl  0  0  0  0  0  0  0  0  0  0  0  0
    6.5684    1.7400   10.9509 C   0  0  0  0  0  0  0  0  0  0  0  0
    7.4855    2.0304   12.4234 Cl  0  0  0  0  0  0  0  0  0  0  0  0
    5.3783    2.4624   10.7443 C   0  0  0  0  0  0  0  0  0  0  0  0
    4.6561    2.2308    9.5735 C   0  0  0  0  0  0  0  0  0  0  0  0
    3.4042    2.8288    9.1240 C   0  0  0  0  0  0  0  0  0  0  0  0
    2.7384    3.6910    9.7561 O   0  0  0  0  0  0  0  0  0  0  0  0
    1.6982    2.0423    5.7389 C   0  0  0  0  0  0  0  0  0  0  0  0
    2.6245    2.2596    4.7004 C   0  0  0  0  0  0  0  0  0  0  0  0
    3.7764    2.9452    4.9290 F   0  0  0  0  0  0  0  0  0  0  0  0
    2.3586    1.7988    3.4111 C   0  0  0  0  0  0  0  0  0  0  0  0
    3.2612    2.0219    2.4198 F   0  0  0  0  0  0  0  0  0  0  0  0
    1.1675    1.1155    3.1369 C   0  0  0  0  0  0  0  0  0  0  0  0
    0.2293    0.8966    4.1577 C   0  0  0  0  0  0  0  0  0  0  0  0
   -0.9405    0.1847    3.8591 O   0  0  0  0  0  0  0  0  0  0  0  0
   -1.3669   -0.9652    4.5900 C   0  0  0  0  0  0  0  0  0  0  0  0
   -2.6373   -1.5192    3.9632 C   0  0  0  0  0  0  0  0  0  0  0  0
    0.4696    1.4117    5.4524 C   0  0  0  0  0  0  0  0  0  0  0  0
   -0.5137    1.3042    6.4449 O   0  0  0  0  0  0  0  0  0  0  0  0
   -1.4632    2.3395    6.6901 C   0  0  0  0  0  0  0  0  0  0  0  0
   -2.4418    2.4881    5.5267 C   0  0  0  0  0  0  0  0  0  0  0  0
    0.9120    0.6404    1.7712 C   0  0  0  0  0  0  0  0  0  0  0  0
    0.2057    1.3374    0.7809 C   0  0  0  0  0  0  0  0  0  0  0  0
   -0.5600    2.5295    1.0152 N   0  0  0  0  0  0  0  0  0  0  0  0
    0.1302    3.7825    0.9157 C   0  0  0  0  0  0  0  0  0  0  0  0
    0.4340    4.3196   -0.3440 C   0  0  0  0  0  0  0  0  0  0  0  0
    1.1213    5.5322   -0.4420 C   0  0  0  0  0  0  0  0  0  0  0  0
    1.5147    6.2133    0.7167 C   0  0  0  0  0  0  0  0  0  0  0  0
    2.4160    7.7609    0.5925 S   0  0  0  0  0  0  0  0  0  0  0  0
    4.0410    6.9398    0.6145 C   0  0  0  0  0  0  0  0  0  0  0  0
    1.2060    5.6822    1.9754 C   0  0  0  0  0  0  0  0  0  0  0  0
    0.5145    4.4688    2.0753 C   0  0  0  0  0  0  0  0  0  0  0  0
   -1.9712    2.4625    1.3584 C   0  0  0  0  0  0  0  0  0  0  0  0
   -2.7017    3.6341    1.6573 C   0  0  0  0  0  0  0  0  0  0  0  0
   -4.0485    3.5609    2.0280 C   0  0  0  0  0  0  0  0  0  0  0  0
   -4.6919    2.3254    2.1051 C   0  0  0  0  0  0  0  0  0  0  0  0
   -6.4080    2.2319    2.6203 S   0  0  0  0  0  0  0  0  0  0  0  0
   -5.9938    2.0691    4.3842 C   0  0  0  0  0  0  0  0  0  0  0  0
   -3.9927    1.1599    1.7837 C   0  0  0  0  0  0  0  0  0  0  0  0
   -2.6493    1.2227    1.4114 C   0  0  0  0  0  0  0  0  0  0  0  0
    0.2263    0.6522   -0.4254 C   0  0  0  0  0  0  0  0  0  0  0  0
   -0.4881    0.8965   -1.9174 S   0  0  0  0  0  0  0  0  0  0  0  0
    0.0535   -0.5812   -2.5764 C   0  0  0  0  0  0  0  0  0  0  0  0
    0.7963   -1.2740   -1.5896 C   0  0  0  0  0  0  0  0  0  0  0  0
    1.2435   -2.6409   -1.6963 N   0  0  0  0  0  0  0  0  0  0  0  0
    0.3212   -3.6445   -2.1726 C   0  0  0  0  0  0  0  0  0  0  0  0
    0.7496   -4.6406   -3.0659 C   0  0  0  0  0  0  0  0  0  0  0  0
   -0.1451   -5.6128   -3.5264 C   0  0  0  0  0  0  0  0  0  0  0  0
   -1.4778   -5.5993   -3.1005 C   0  0  0  0  0  0  0  0  0  0  0  0
   -2.6239   -6.8394   -3.7076 S   0  0  0  0  0  0  0  0  0  0  0  0
   -2.3248   -7.9698   -2.3169 C   0  0  0  0  0  0  0  0  0  0  0  0
   -1.9152   -4.6098   -2.2141 C   0  0  0  0  0  0  0  0  0  0  0  0
   -1.0237   -3.6365   -1.7538 C   0  0  0  0  0  0  0  0  0  0  0  0
    2.5469   -3.0241   -1.1982 C   0  0  0  0  0  0  0  0  0  0  0  0
    3.6612   -2.1852   -1.3877 C   0  0  0  0  0  0  0  0  0  0  0  0
    4.9122   -2.5425   -0.8759 C   0  0  0  0  0  0  0  0  0  0  0  0
    5.0667   -3.7395   -0.1678 C   0  0  0  0  0  0  0  0  0  0  0  0
    6.6708   -4.1844    0.5025 S   0  0  0  0  0  0  0  0  0  0  0  0
    7.1980   -5.0446   -1.0106 C   0  0  0  0  0  0  0  0  0  0  0  0
    3.9648   -4.5739    0.0366 C   0  0  0  0  0  0  0  0  0  0  0  0
    2.7121   -4.2204   -0.4709 C   0  0  0  0  0  0  0  0  0  0  0  0
    0.8808   -0.5345   -0.4114 C   0  0  0  0  0  0  0  0  0  0  0  0
    1.5087   -0.8184    1.1234 S   0  0  0  0  0  0  0  0  0  0  0  0
   -0.2517   -1.0558   -3.9541 C   0  0  0  0  0  0  0  0  0  0  0  0
    0.7565   -1.6534   -4.7302 C   0  0  0  0  0  0  0  0  0  0  0  0
    2.0357   -1.7060   -4.2790 F   0  0  0  0  0  0  0  0  0  0  0  0
    0.4611   -2.2117   -5.9762 C   0  0  0  0  0  0  0  0  0  0  0  0
    1.4503   -2.8379   -6.6729 F   0  0  0  0  0  0  0  0  0  0  0  0
   -0.8456   -2.1721   -6.4810 C   0  0  0  0  0  0  0  0  0  0  0  0
   -1.8431   -1.4717   -5.7686 C   0  0  0  0  0  0  0  0  0  0  0  0
   -3.1620   -1.3960   -6.2439 O   0  0  0  0  0  0  0  0  0  0  0  0
   -3.6035   -0.6660   -7.4107 C   0  0  0  0  0  0  0  0  0  0  0  0
   -2.5160    0.1599   -8.1148 C   0  0  0  0  0  0  0  0  0  0  0  0
   -1.5415   -0.9159   -4.5102 C   0  0  0  0  0  0  0  0  0  0  0  0
   -2.5456   -0.2554   -3.7964 O   0  0  0  0  0  0  0  0  0  0  0  0
   -3.0155    1.0372   -4.1901 C   0  0  0  0  0  0  0  0  0  0  0  0
   -4.1641    1.4614   -3.2877 C   0  0  0  0  0  0  0  0  0  0  0  0
   -1.1312   -2.8750   -7.7470 C   0  0  0  0  0  0  0  0  0  0  0  0
   -2.0566   -3.8303   -7.8881 C   0  0  0  0  0  0  0  0  0  0  0  0
   -2.9155   -4.4540   -6.8660 C   0  0  0  0  0  0  0  0  0  0  0  0
   -2.9403   -4.1841   -5.6359 O   0  0  0  0  0  0  0  0  0  0  0  0
   -3.6975   -5.5061   -7.5148 C   0  0  0  0  0  0  0  0  0  0  0  0
   -4.6423   -6.3749   -6.9678 C   0  0  0  0  0  0  0  0  0  0  0  0
   -5.2356   -7.3339   -7.8117 C   0  0  0  0  0  0  0  0  0  0  0  0
   -6.4198   -8.4375   -7.1275 Cl  0  0  0  0  0  0  0  0  0  0  0  0
   -4.8732   -7.4068   -9.1793 C   0  0  0  0  0  0  0  0  0  0  0  0
   -5.5891   -8.6088  -10.2466 Cl  0  0  0  0  0  0  0  0  0  0  0  0
   -3.9196   -6.5148   -9.7047 C   0  0  0  0  0  0  0  0  0  0  0  0
   -3.3518   -5.5715   -8.8494 C   0  0  0  0  0  0  0  0  0  0  0  0
   -2.3398   -4.5600   -9.1319 C   0  0  0  0  0  0  0  0  0  0  0  0
   -1.7998   -4.3554  -10.2520 O   0  0  0  0  0  0  0  0  0  0  0  0
    1.2508    3.2381    7.5327 H   0  0  0  0  0  0  0  0  0  0  0  0
    6.5943   -0.1241    8.0623 H   0  0  0  0  0  0  0  0  0  0  0  0
    5.0278    3.1800   11.4770 H   0  0  0  0  0  0  0  0  0  0  0  0
   -0.5676   -1.7399    4.5586 H   0  0  0  0  0  0  0  0  0  0  0  0
   -1.5778   -0.7139    5.6484 H   0  0  0  0  0  0  0  0  0  0  0  0
   -2.9265   -2.4653    4.4745 H   0  0  0  0  0  0  0  0  0  0  0  0
   -2.4725   -1.7269    2.8848 H   0  0  0  0  0  0  0  0  0  0  0  0
   -3.4654   -0.7861    4.0724 H   0  0  0  0  0  0  0  0  0  0  0  0
   -0.9451    3.3043    6.8659 H   0  0  0  0  0  0  0  0  0  0  0  0
   -2.0308    2.0790    7.6041 H   0  0  0  0  0  0  0  0  0  0  0  0
   -1.9030    2.8005    4.6064 H   0  0  0  0  0  0  0  0  0  0  0  0
   -3.1982    3.2561    5.7747 H   0  0  0  0  0  0  0  0  0  0  0  0
   -2.9613    1.5233    5.3412 H   0  0  0  0  0  0  0  0  0  0  0  0
    0.1341    3.8049   -1.2458 H   0  0  0  0  0  0  0  0  0  0  0  0
    1.3581    5.9385   -1.4191 H   0  0  0  0  0  0  0  0  0  0  0  0
    4.1620    6.3272   -0.3029 H   0  0  0  0  0  0  0  0  0  0  0  0
    4.1356    6.2947    1.5117 H   0  0  0  0  0  0  0  0  0  0  0  0
    4.8386    7.7129    0.6431 H   0  0  0  0  0  0  0  0  0  0  0  0
    1.5115    6.2014    2.8762 H   0  0  0  0  0  0  0  0  0  0  0  0
    0.2879    4.0657    3.0532 H   0  0  0  0  0  0  0  0  0  0  0  0
   -2.2403    4.6137    1.6190 H   0  0  0  0  0  0  0  0  0  0  0  0
   -4.5898    4.4682    2.2706 H   0  0  0  0  0  0  0  0  0  0  0  0
   -5.3451    1.1756    4.5423 H   0  0  0  0  0  0  0  0  0  0  0  0
   -6.9262    1.9408    4.9696 H   0  0  0  0  0  0  0  0  0  0  0  0
   -5.4677    2.9788    4.7354 H   0  0  0  0  0  0  0  0  0  0  0  0
   -4.4905    0.1998    1.8235 H   0  0  0  0  0  0  0  0  0  0  0  0
   -2.1423    0.2947    1.1693 H   0  0  0  0  0  0  0  0  0  0  0  0
    1.7714   -4.6601   -3.4161 H   0  0  0  0  0  0  0  0  0  0  0  0
    0.1937   -6.3665   -4.2260 H   0  0  0  0  0  0  0  0  0  0  0  0
   -2.6597   -7.4978   -1.3657 H   0  0  0  0  0  0  0  0  0  0  0  0
   -1.2449   -8.2202   -2.2497 H   0  0  0  0  0  0  0  0  0  0  0  0
   -2.8982   -8.9037   -2.4871 H   0  0  0  0  0  0  0  0  0  0  0  0
   -2.9486   -4.5895   -1.8841 H   0  0  0  0  0  0  0  0  0  0  0  0
   -1.3747   -2.8827   -1.0588 H   0  0  0  0  0  0  0  0  0  0  0  0
    3.5616   -1.2561   -1.9371 H   0  0  0  0  0  0  0  0  0  0  0  0
    5.7607   -1.8912   -1.0334 H   0  0  0  0  0  0  0  0  0  0  0  0
    7.1872   -4.3458   -1.8749 H   0  0  0  0  0  0  0  0  0  0  0  0
    8.2339   -5.4270   -0.8716 H   0  0  0  0  0  0  0  0  0  0  0  0
    6.5327   -5.9127   -1.2172 H   0  0  0  0  0  0  0  0  0  0  0  0
    4.0726   -5.4912    0.5969 H   0  0  0  0  0  0  0  0  0  0  0  0
    1.8666   -4.8730   -0.2819 H   0  0  0  0  0  0  0  0  0  0  0  0
   -4.4075    0.0374   -7.0859 H   0  0  0  0  0  0  0  0  0  0  0  0
   -4.0742   -1.3793   -8.1346 H   0  0  0  0  0  0  0  0  0  0  0  0
   -1.9356    0.7541   -7.3727 H   0  0  0  0  0  0  0  0  0  0  0  0
   -1.8460   -0.5088   -8.6938 H   0  0  0  0  0  0  0  0  0  0  0  0
   -2.9960    0.8605   -8.8296 H   0  0  0  0  0  0  0  0  0  0  0  0
   -3.3622    1.0254   -5.2404 H   0  0  0  0  0  0  0  0  0  0  0  0
   -2.1826    1.7757   -4.1126 H   0  0  0  0  0  0  0  0  0  0  0  0
   -3.8313    1.4771   -2.2241 H   0  0  0  0  0  0  0  0  0  0  0  0
   -5.0037    0.7437   -3.3973 H   0  0  0  0  0  0  0  0  0  0  0  0
   -4.5126    2.4804   -3.5761 H   0  0  0  0  0  0  0  0  0  0  0  0
   -0.4983   -2.6435   -8.5959 H   0  0  0  0  0  0  0  0  0  0  0  0
   -4.9132   -6.3092   -5.9204 H   0  0  0  0  0  0  0  0  0  0  0  0
   -3.6263   -6.5567  -10.7483 H   0  0  0  0  0  0  0  0  0  0  0  0
  1  2  2  3
  2  3  1  0
  3  4  2  0
  3  5  1  0
  5  6  2  0
  6  7  1  0
  7  8  1  0
  7  9  2  0
  9 10  1  0
  9 11  1  0
 11 12  2  0
 12 13  1  0
 13 14  2  0
  1 15  1  0
 15 16  2  0
 16 17  1  0
 16 18  1  0
 18 19  1  0
 18 20  2  0
 20 21  1  0
 21 22  1  0
 22 23  1  0
 23 24  1  0
 21 25  2  0
 25 26  1  0
 26 27  1  0
 27 28  1  0
 20 29  1  0
 29 30  2  0
 30 31  1  0
 31 32  1  0
 32 33  2  0
 33 34  1  0
 34 35  2  0
 35 36  1  0
 36 37  1  0
 35 38  1  0
 38 39  2  0
 31 40  1  0
 40 41  2  0
 41 42  1  0
 42 43  2  0
 43 44  1  0
 44 45  1  0
 43 46  1  0
 46 47  2  0
 30 48  1  0
 48 49  1  0
 49 50  1  0
 50 51  2  0
 51 52  1  0
 52 53  1  0
 53 54  2  0
 54 55  1  0
 55 56  2  0
 56 57  1  0
 57 58  1  0
 56 59  1  0
 59 60  2  0
 52 61  1  0
 61 62  2  0
 62 63  1  0
 63 64  2  0
 64 65  1  0
 65 66  1  0
 64 67  1  0
 67 68  2  0
 51 69  1  0
 69 70  1  0
 50 71  1  0
 71 72  2  0
 72 73  1  0
 72 74  1  0
 74 75  1  0
 74 76  2  0
 76 77  1  0
 77 78  1  0
 78 79  1  0
 79 80  1  0
 77 81  2  0
 81 82  1  0
 82 83  1  0
 83 84  1  0
 76 85  1  0
 85 86  2  3
 86 87  1  0
 87 88  2  0
 87 89  1  0
 89 90  2  0
 90 91  1  0
 91 92  1  0
 91 93  2  0
 93 94  1  0
 93 95  1  0
 95 96  2  0
 96 97  1  0
 97 98  2  0
 13  2  1  0
 25 15  1  0
 70 29  1  0
 81 71  1  0
 97 86  1  0
 12  5  1  0
 39 32  1  0
 47 40  1  0
 69 48  2  0
 96 89  1  0
 60 53  1  0
 68 61  1  0
  1 99  1  0
  6100  1  0
 11101  1  0
 23102  1  0
 23103  1  0
 24104  1  0
 24105  1  0
 24106  1  0
 27107  1  0
 27108  1  0
 28109  1  0
 28110  1  0
 28111  1  0
 33112  1  0
 34113  1  0
 37114  1  0
 37115  1  0
 37116  1  0
 38117  1  0
 39118  1  0
 41119  1  0
 42120  1  0
 45121  1  0
 45122  1  0
 45123  1  0
 46124  1  0
 47125  1  0
 54126  1  0
 55127  1  0
 58128  1  0
 58129  1  0
 58130  1  0
 59131  1  0
 60132  1  0
 62133  1  0
 63134  1  0
 66135  1  0
 66136  1  0
 66137  1  0
 67138  1  0
 68139  1  0
 79140  1  0
 79141  1  0
 80142  1  0
 80143  1  0
 80144  1  0
 83145  1  0
 83146  1  0
 84147  1  0
 84148  1  0
 84149  1  0
 85150  1  0
 90151  1  0
 95152  1  0
M  END

