
     RDKit          3D

200217  0  0  0  0  0  0  0  0999 V2000
    3.5457   -4.0430    6.3306 C   0  0  0  0  0  0  0  0  0  0  0  0
    4.3375   -3.7516    7.3634 C   0  0  0  0  0  0  0  0  0  0  0  0
    5.0691   -2.5011    7.6354 C   0  0  0  0  0  0  0  0  0  0  0  0
    5.0258   -1.4400    6.9568 O   0  0  0  0  0  0  0  0  0  0  0  0
    5.8863   -2.7088    8.8266 C   0  0  0  0  0  0  0  0  0  0  0  0
    6.7618   -1.8317    9.4612 C   0  0  0  0  0  0  0  0  0  0  0  0
    7.4629   -2.2870   10.5922 C   0  0  0  0  0  0  0  0  0  0  0  0
    8.5801   -1.1886   11.3894 Cl  0  0  0  0  0  0  0  0  0  0  0  0
    7.2716   -3.6108   11.0662 C   0  0  0  0  0  0  0  0  0  0  0  0
    8.1415   -4.2044   12.4755 Cl  0  0  0  0  0  0  0  0  0  0  0  0
    6.3778   -4.4773   10.4072 C   0  0  0  0  0  0  0  0  0  0  0  0
    5.6986   -3.9962    9.2890 C   0  0  0  0  0  0  0  0  0  0  0  0
    4.7477   -4.6815    8.4190 C   0  0  0  0  0  0  0  0  0  0  0  0
    4.3628   -5.8741    8.5464 O   0  0  0  0  0  0  0  0  0  0  0  0
    3.2795   -3.0831    5.2566 C   0  0  0  0  0  0  0  0  0  0  0  0
    3.8208   -3.1476    3.9681 C   0  0  0  0  0  0  0  0  0  0  0  0
    4.5094   -4.2909    3.4444 N   0  0  0  0  0  0  0  0  0  0  0  0
    5.9099   -4.5011    3.7251 C   0  0  0  0  0  0  0  0  0  0  0  0
    6.7421   -3.4170    4.0758 C   0  0  0  0  0  0  0  0  0  0  0  0
    8.1060   -3.6163    4.3031 C   0  0  0  0  0  0  0  0  0  0  0  0
    8.6592   -4.8947    4.1957 C   0  0  0  0  0  0  0  0  0  0  0  0
   10.4198   -5.1319    4.4411 S   0  0  0  0  0  0  0  0  0  0  0  0
   10.8187   -4.8005    2.6938 C   0  0  0  0  0  0  0  0  0  0  0  0
    7.8385   -5.9833    3.8735 C   0  0  0  0  0  0  0  0  0  0  0  0
    6.4718   -5.7884    3.6475 C   0  0  0  0  0  0  0  0  0  0  0  0
    3.7609   -5.1495    2.5612 C   0  0  0  0  0  0  0  0  0  0  0  0
    4.2201   -5.4075    1.2595 C   0  0  0  0  0  0  0  0  0  0  0  0
    3.4115   -6.1006    0.3506 C   0  0  0  0  0  0  0  0  0  0  0  0
    2.1453   -6.5501    0.7385 C   0  0  0  0  0  0  0  0  0  0  0  0
    1.0826   -7.3874   -0.4405 S   0  0  0  0  0  0  0  0  0  0  0  0
    0.1070   -5.8900   -0.8091 C   0  0  0  0  0  0  0  0  0  0  0  0
    1.6986   -6.3321    2.0443 C   0  0  0  0  0  0  0  0  0  0  0  0
    2.4936   -5.6261    2.9460 C   0  0  0  0  0  0  0  0  0  0  0  0
    3.3434   -2.1159    3.1712 C   0  0  0  0  0  0  0  0  0  0  0  0
    3.5458   -1.6879    1.5676 S   0  0  0  0  0  0  0  0  0  0  0  0
    2.4089   -0.4099    1.6167 C   0  0  0  0  0  0  0  0  0  0  0  0
    1.8483   -0.3586    2.9176 C   0  0  0  0  0  0  0  0  0  0  0  0
    0.6806    0.3916    3.2943 N   0  0  0  0  0  0  0  0  0  0  0  0
    0.7877    1.4904    4.2369 C   0  0  0  0  0  0  0  0  0  0  0  0
    2.0160    1.8025    4.8664 C   0  0  0  0  0  0  0  0  0  0  0  0
    2.0863    2.8149    5.8254 C   0  0  0  0  0  0  0  0  0  0  0  0
    0.9477    3.5545    6.1536 C   0  0  0  0  0  0  0  0  0  0  0  0
    1.0350    4.8118    7.4265 S   0  0  0  0  0  0  0  0  0  0  0  0
    0.6579    3.6413    8.7670 C   0  0  0  0  0  0  0  0  0  0  0  0
   -0.2606    3.3012    5.4949 C   0  0  0  0  0  0  0  0  0  0  0  0
   -0.3404    2.2821    4.5444 C   0  0  0  0  0  0  0  0  0  0  0  0
   -0.5964   -0.2390    3.0747 C   0  0  0  0  0  0  0  0  0  0  0  0
   -1.3094   -0.7888    4.1565 C   0  0  0  0  0  0  0  0  0  0  0  0
   -2.5727   -1.3566    3.9562 C   0  0  0  0  0  0  0  0  0  0  0  0
   -3.1353   -1.3825    2.6727 C   0  0  0  0  0  0  0  0  0  0  0  0
   -4.7611   -2.0900    2.4078 S   0  0  0  0  0  0  0  0  0  0  0  0
   -4.1041   -3.7391    2.0056 C   0  0  0  0  0  0  0  0  0  0  0  0
   -2.4263   -0.8489    1.5918 C   0  0  0  0  0  0  0  0  0  0  0  0
   -1.1653   -0.2844    1.7905 C   0  0  0  0  0  0  0  0  0  0  0  0
    2.4290   -1.3109    3.7578 C   0  0  0  0  0  0  0  0  0  0  0  0
    2.1642   -1.7957    5.3445 S   0  0  0  0  0  0  0  0  0  0  0  0
    1.9495    0.3623    0.4319 C   0  0  0  0  0  0  0  0  0  0  0  0
    1.5465    1.7015    0.5857 C   0  0  0  0  0  0  0  0  0  0  0  0
    1.9032    2.4118    1.6853 F   0  0  0  0  0  0  0  0  0  0  0  0
    0.6914    2.2942   -0.3478 C   0  0  0  0  0  0  0  0  0  0  0  0
    0.1458    3.5075   -0.0681 F   0  0  0  0  0  0  0  0  0  0  0  0
    0.2865    1.5818   -1.4877 C   0  0  0  0  0  0  0  0  0  0  0  0
    0.8475    0.3211   -1.7448 C   0  0  0  0  0  0  0  0  0  0  0  0
    0.5017   -0.3794   -2.8604 N   0  0  0  0  0  0  0  0  0  0  0  0
    1.0232   -1.6056   -3.1385 C   0  0  0  0  0  0  0  0  0  0  0  0
    0.5348   -2.3272   -4.3690 C   0  0  0  0  0  0  0  0  0  0  0  0
   -0.6273   -3.2583   -4.0387 C   0  0  0  0  0  0  0  0  0  0  0  0
    1.9366   -2.1796   -2.2252 C   0  0  0  0  0  0  0  0  0  0  0  0
    2.2186   -1.5068   -1.0772 N   0  0  0  0  0  0  0  0  0  0  0  0
    1.6990   -0.2814   -0.7996 C   0  0  0  0  0  0  0  0  0  0  0  0
    2.6895   -3.4576   -2.5001 C   0  0  0  0  0  0  0  0  0  0  0  0
    3.9687   -3.1723   -3.2810 C   0  0  0  0  0  0  0  0  0  0  0  0
   -0.9672    1.9593   -2.1468 C   0  0  0  0  0  0  0  0  0  0  0  0
   -1.1459    2.4418   -3.4540 C   0  0  0  0  0  0  0  0  0  0  0  0
   -0.1143    3.0348   -4.2561 N   0  0  0  0  0  0  0  0  0  0  0  0
    0.6757    2.2315   -5.1521 C   0  0  0  0  0  0  0  0  0  0  0  0
    2.0101    2.5792   -5.4085 C   0  0  0  0  0  0  0  0  0  0  0  0
    2.7604    1.8713   -6.3522 C   0  0  0  0  0  0  0  0  0  0  0  0
    2.1744    0.8218   -7.0644 C   0  0  0  0  0  0  0  0  0  0  0  0
    3.1012   -0.0366   -8.3346 S   0  0  0  0  0  0  0  0  0  0  0  0
    2.6456    1.1550   -9.6348 C   0  0  0  0  0  0  0  0  0  0  0  0
    0.8506    0.4580   -6.8057 C   0  0  0  0  0  0  0  0  0  0  0  0
    0.1044    1.1511   -5.8481 C   0  0  0  0  0  0  0  0  0  0  0  0
   -0.1332    4.4670   -4.4049 C   0  0  0  0  0  0  0  0  0  0  0  0
   -0.2431    5.0523   -5.6795 C   0  0  0  0  0  0  0  0  0  0  0  0
   -0.3780    6.4370   -5.8129 C   0  0  0  0  0  0  0  0  0  0  0  0
   -0.3845    7.2532   -4.6761 C   0  0  0  0  0  0  0  0  0  0  0  0
   -0.6281    9.0223   -4.8447 S   0  0  0  0  0  0  0  0  0  0  0  0
    1.1233    9.3671   -5.1954 C   0  0  0  0  0  0  0  0  0  0  0  0
   -0.2505    6.6804   -3.4051 C   0  0  0  0  0  0  0  0  0  0  0  0
   -0.1344    5.2942   -3.2719 C   0  0  0  0  0  0  0  0  0  0  0  0
   -2.4984    2.4770   -3.7881 C   0  0  0  0  0  0  0  0  0  0  0  0
   -3.3748    2.8287   -5.1811 S   0  0  0  0  0  0  0  0  0  0  0  0
   -4.8783    2.3996   -4.4837 C   0  0  0  0  0  0  0  0  0  0  0  0
   -4.6853    2.0149   -3.1523 C   0  0  0  0  0  0  0  0  0  0  0  0
   -5.7273    1.5936   -2.2545 N   0  0  0  0  0  0  0  0  0  0  0  0
   -6.6382    0.5596   -2.6576 C   0  0  0  0  0  0  0  0  0  0  0  0
   -6.1546   -0.6364   -3.2175 C   0  0  0  0  0  0  0  0  0  0  0  0
   -7.0456   -1.6112   -3.6734 C   0  0  0  0  0  0  0  0  0  0  0  0
   -8.4253   -1.3910   -3.5952 C   0  0  0  0  0  0  0  0  0  0  0  0
   -9.5585   -2.6281   -4.2195 S   0  0  0  0  0  0  0  0  0  0  0  0
   -9.7821   -3.4166   -2.5942 C   0  0  0  0  0  0  0  0  0  0  0  0
   -8.9148   -0.2014   -3.0396 C   0  0  0  0  0  0  0  0  0  0  0  0
   -8.0225    0.7655   -2.5626 C   0  0  0  0  0  0  0  0  0  0  0  0
   -5.8170    2.1903   -0.9483 C   0  0  0  0  0  0  0  0  0  0  0  0
   -5.7192    3.5832   -0.8005 C   0  0  0  0  0  0  0  0  0  0  0  0
   -5.7410    4.1629    0.4722 C   0  0  0  0  0  0  0  0  0  0  0  0
   -5.8418    3.3555    1.6090 C   0  0  0  0  0  0  0  0  0  0  0  0
   -5.8258    4.1035    3.2385 S   0  0  0  0  0  0  0  0  0  0  0  0
   -4.0107    4.0889    3.3690 C   0  0  0  0  0  0  0  0  0  0  0  0
   -5.9366    1.9640    1.4714 C   0  0  0  0  0  0  0  0  0  0  0  0
   -5.9271    1.3830    0.1991 C   0  0  0  0  0  0  0  0  0  0  0  0
   -3.3407    2.0574   -2.8114 C   0  0  0  0  0  0  0  0  0  0  0  0
   -2.4763    1.5861   -1.4598 S   0  0  0  0  0  0  0  0  0  0  0  0
   -6.1746    2.3956   -5.1726 C   0  0  0  0  0  0  0  0  0  0  0  0
   -6.5352    1.4112   -6.0054 C   0  0  0  0  0  0  0  0  0  0  0  0
   -7.9037    1.1462   -6.4709 C   0  0  0  0  0  0  0  0  0  0  0  0
   -8.9177    1.8437   -6.2150 O   0  0  0  0  0  0  0  0  0  0  0  0
   -7.9047   -0.1233   -7.1951 C   0  0  0  0  0  0  0  0  0  0  0  0
   -8.9691   -0.8185   -7.7683 C   0  0  0  0  0  0  0  0  0  0  0  0
   -8.7069   -2.0522   -8.3871 C   0  0  0  0  0  0  0  0  0  0  0  0
  -10.0484   -2.9346   -9.1079 Cl  0  0  0  0  0  0  0  0  0  0  0  0
   -7.3888   -2.5709   -8.4160 C   0  0  0  0  0  0  0  0  0  0  0  0
   -7.0344   -4.1074   -9.1899 Cl  0  0  0  0  0  0  0  0  0  0  0  0
   -6.3337   -1.8541   -7.8188 C   0  0  0  0  0  0  0  0  0  0  0  0
   -6.6211   -0.6341   -7.2092 C   0  0  0  0  0  0  0  0  0  0  0  0
   -5.7322    0.2746   -6.4911 C   0  0  0  0  0  0  0  0  0  0  0  0
   -4.5003    0.0989   -6.3168 O   0  0  0  0  0  0  0  0  0  0  0  0
    3.1589   -5.0456    6.2231 H   0  0  0  0  0  0  0  0  0  0  0  0
    6.8987   -0.8257    9.0895 H   0  0  0  0  0  0  0  0  0  0  0  0
    6.2280   -5.4892   10.7493 H   0  0  0  0  0  0  0  0  0  0  0  0
    6.3463   -2.4097    4.1436 H   0  0  0  0  0  0  0  0  0  0  0  0
    8.7397   -2.7712    4.5481 H   0  0  0  0  0  0  0  0  0  0  0  0
   10.4374   -3.8022    2.3938 H   0  0  0  0  0  0  0  0  0  0  0  0
   10.3670   -5.5822    2.0467 H   0  0  0  0  0  0  0  0  0  0  0  0
   11.9200   -4.8093    2.5600 H   0  0  0  0  0  0  0  0  0  0  0  0
    8.2621   -6.9812    3.7929 H   0  0  0  0  0  0  0  0  0  0  0  0
    5.8581   -6.6465    3.4001 H   0  0  0  0  0  0  0  0  0  0  0  0
    5.1843   -5.0358    0.9380 H   0  0  0  0  0  0  0  0  0  0  0  0
    3.7622   -6.2737   -0.6602 H   0  0  0  0  0  0  0  0  0  0  0  0
   -0.6185   -6.1202   -1.6175 H   0  0  0  0  0  0  0  0  0  0  0  0
   -0.4462   -5.5672    0.0979 H   0  0  0  0  0  0  0  0  0  0  0  0
    0.7713   -5.0711   -1.1489 H   0  0  0  0  0  0  0  0  0  0  0  0
    0.7211   -6.6829    2.3539 H   0  0  0  0  0  0  0  0  0  0  0  0
    2.1190   -5.4320    3.9420 H   0  0  0  0  0  0  0  0  0  0  0  0
    2.9202    1.2571    4.6345 H   0  0  0  0  0  0  0  0  0  0  0  0
    3.0294    3.0165    6.3220 H   0  0  0  0  0  0  0  0  0  0  0  0
   -0.3120    3.1262    8.5775 H   0  0  0  0  0  0  0  0  0  0  0  0
    0.5871    4.1894    9.7272 H   0  0  0  0  0  0  0  0  0  0  0  0
    1.4639    2.8825    8.8481 H   0  0  0  0  0  0  0  0  0  0  0  0
   -1.1383    3.8955    5.7283 H   0  0  0  0  0  0  0  0  0  0  0  0
   -1.2903    2.1122    4.0559 H   0  0  0  0  0  0  0  0  0  0  0  0
   -0.8887   -0.7697    5.1522 H   0  0  0  0  0  0  0  0  0  0  0  0
   -3.1186   -1.7712    4.7955 H   0  0  0  0  0  0  0  0  0  0  0  0
   -3.5786   -4.1653    2.8899 H   0  0  0  0  0  0  0  0  0  0  0  0
   -4.9486   -4.4093    1.7382 H   0  0  0  0  0  0  0  0  0  0  0  0
   -3.4100   -3.6780    1.1414 H   0  0  0  0  0  0  0  0  0  0  0  0
   -2.8563   -0.8659    0.5961 H   0  0  0  0  0  0  0  0  0  0  0  0
   -0.6515    0.1377    0.9462 H   0  0  0  0  0  0  0  0  0  0  0  0
    0.1734   -1.5835   -5.1046 H   0  0  0  0  0  0  0  0  0  0  0  0
    1.3526   -2.8895   -4.8608 H   0  0  0  0  0  0  0  0  0  0  0  0
   -1.0458   -3.6769   -4.9753 H   0  0  0  0  0  0  0  0  0  0  0  0
   -0.2879   -4.0939   -3.3942 H   0  0  0  0  0  0  0  0  0  0  0  0
   -1.4263   -2.7002   -3.5063 H   0  0  0  0  0  0  0  0  0  0  0  0
    2.0667   -4.1867   -3.0586 H   0  0  0  0  0  0  0  0  0  0  0  0
    2.9678   -3.9348   -1.5404 H   0  0  0  0  0  0  0  0  0  0  0  0
    4.6643   -2.5591   -2.6667 H   0  0  0  0  0  0  0  0  0  0  0  0
    3.7473   -2.6271   -4.2251 H   0  0  0  0  0  0  0  0  0  0  0  0
    4.4682   -4.1299   -3.5403 H   0  0  0  0  0  0  0  0  0  0  0  0
    2.4670    3.4104   -4.8871 H   0  0  0  0  0  0  0  0  0  0  0  0
    3.7856    2.1557   -6.5469 H   0  0  0  0  0  0  0  0  0  0  0  0
    1.5452    1.2732   -9.6847 H   0  0  0  0  0  0  0  0  0  0  0  0
    3.0093    0.7844  -10.6136 H   0  0  0  0  0  0  0  0  0  0  0  0
    3.1104    2.1432   -9.4275 H   0  0  0  0  0  0  0  0  0  0  0  0
    0.3870   -0.3544   -7.3547 H   0  0  0  0  0  0  0  0  0  0  0  0
   -0.9275    0.8689   -5.6806 H   0  0  0  0  0  0  0  0  0  0  0  0
   -0.2635    4.4319   -6.5656 H   0  0  0  0  0  0  0  0  0  0  0  0
   -0.4888    6.8747   -6.8005 H   0  0  0  0  0  0  0  0  0  0  0  0
    1.2349   10.4426   -5.4469 H   0  0  0  0  0  0  0  0  0  0  0  0
    1.4666    8.7604   -6.0601 H   0  0  0  0  0  0  0  0  0  0  0  0
    1.7427    9.1372   -4.3041 H   0  0  0  0  0  0  0  0  0  0  0  0
   -0.2620    7.3035   -2.5218 H   0  0  0  0  0  0  0  0  0  0  0  0
   -0.0567    4.8600   -2.2877 H   0  0  0  0  0  0  0  0  0  0  0  0
   -5.0888   -0.8030   -3.3017 H   0  0  0  0  0  0  0  0  0  0  0  0
   -6.6595   -2.5207   -4.1097 H   0  0  0  0  0  0  0  0  0  0  0  0
   -8.7995   -3.7077   -2.1661 H   0  0  0  0  0  0  0  0  0  0  0  0
  -10.4054   -4.3274   -2.7142 H   0  0  0  0  0  0  0  0  0  0  0  0
  -10.2956   -2.7138   -1.9061 H   0  0  0  0  0  0  0  0  0  0  0  0
   -9.9799   -0.0250   -2.9849 H   0  0  0  0  0  0  0  0  0  0  0  0
   -8.4082    1.6909   -2.1508 H   0  0  0  0  0  0  0  0  0  0  0  0
   -5.6266    4.2169   -1.6731 H   0  0  0  0  0  0  0  0  0  0  0  0
   -5.6577    5.2378    0.5709 H   0  0  0  0  0  0  0  0  0  0  0  0
   -3.7079    4.5367    4.3388 H   0  0  0  0  0  0  0  0  0  0  0  0
   -3.5673    4.6855    2.5475 H   0  0  0  0  0  0  0  0  0  0  0  0
   -3.6357    3.0446    3.3254 H   0  0  0  0  0  0  0  0  0  0  0  0
   -6.0021    1.3311    2.3494 H   0  0  0  0  0  0  0  0  0  0  0  0
   -5.9758    0.3032    0.1067 H   0  0  0  0  0  0  0  0  0  0  0  0
   -6.9289    3.0830   -4.8211 H   0  0  0  0  0  0  0  0  0  0  0  0
   -9.9721   -0.4180   -7.7326 H   0  0  0  0  0  0  0  0  0  0  0  0
   -5.3241   -2.2415   -7.8263 H   0  0  0  0  0  0  0  0  0  0  0  0
  1  2  2  3
  2  3  1  0
  3  4  2  0
  3  5  1  0
  5  6  2  0
  6  7  1  0
  7  8  1  0
  7  9  2  0
  9 10  1  0
  9 11  1  0
 11 12  2  0
 12 13  1  0
 13 14  2  0
  1 15  1  0
 15 16  2  0
 16 17  1  0
 17 18  1  0
 18 19  2  0
 19 20  1  0
 20 21  2  0
 21 22  1  0
 22 23  1  0
 21 24  1  0
 24 25  2  0
 17 26  1  0
 26 27  2  0
 27 28  1  0
 28 29  2  0
 29 30  1  0
 30 31  1  0
 29 32  1  0
 32 33  2  0
 16 34  1  0
 34 35  1  0
 35 36  1  0
 36 37  2  0
 37 38  1  0
 38 39  1  0
 39 40  2  0
 40 41  1  0
 41 42  2  0
 42 43  1  0
 43 44  1  0
 42 45  1  0
 45 46  2  0
 38 47  1  0
 47 48  2  0
 48 49  1  0
 49 50  2  0
 50 51  1  0
 51 52  1  0
 50 53  1  0
 53 54  2  0
 37 55  1  0
 55 56  1  0
 36 57  1  0
 57 58  2  0
 58 59  1  0
 58 60  1  0
 60 61  1  0
 60 62  2  0
 62 63  1  0
 63 64  2  0
 64 65  1  0
 65 66  1  0
 66 67  1  0
 65 68  2  0
 68 69  1  0
 69 70  2  0
 68 71  1  0
 71 72  1  0
 62 73  1  0
 73 74  2  0
 74 75  1  0
 75 76  1  0
 76 77  2  0
 77 78  1  0
 78 79  2  0
 79 80  1  0
 80 81  1  0
 79 82  1  0
 82 83  2  0
 75 84  1  0
 84 85  2  0
 85 86  1  0
 86 87  2  0
 87 88  1  0
 88 89  1  0
 87 90  1  0
 90 91  2  0
 74 92  1  0
 92 93  1  0
 93 94  1  0
 94 95  2  0
 95 96  1  0
 96 97  1  0
 97 98  2  0
 98 99  1  0
 99100  2  0
100101  1  0
101102  1  0
100103  1  0
103104  2  0
 96105  1  0
105106  2  0
106107  1  0
107108  2  0
108109  1  0
109110  1  0
108111  1  0
111112  2  0
 95113  1  0
113114  1  0
 94115  1  0
115116  2  3
116117  1  0
117118  2  0
117119  1  0
119120  2  0
120121  1  0
121122  1  0
121123  2  0
123124  1  0
123125  1  0
125126  2  0
126127  1  0
127128  2  0
 13  2  1  0
 56 15  1  0
 70 57  1  0
114 73  1  0
127116  1  0
 12  5  1  0
 25 18  1  0
 33 26  1  0
 55 34  2  0
 70 63  1  0
 83 76  1  0
 91 84  1  0
113 92  2  0
126119  1  0
 46 39  1  0
 54 47  1  0
104 97  1  0
112105  1  0
  1129  1  0
  6130  1  0
 11131  1  0
 19132  1  0
 20133  1  0
 23134  1  0
 23135  1  0
 23136  1  0
 24137  1  0
 25138  1  0
 27139  1  0
 28140  1  0
 31141  1  0
 31142  1  0
 31143  1  0
 32144  1  0
 33145  1  0
 40146  1  0
 41147  1  0
 44148  1  0
 44149  1  0
 44150  1  0
 45151  1  0
 46152  1  0
 48153  1  0
 49154  1  0
 52155  1  0
 52156  1  0
 52157  1  0
 53158  1  0
 54159  1  0
 66160  1  0
 66161  1  0
 67162  1  0
 67163  1  0
 67164  1  0
 71165  1  0
 71166  1  0
 72167  1  0
 72168  1  0
 72169  1  0
 77170  1  0
 78171  1  0
 81172  1  0
 81173  1  0
 81174  1  0
 82175  1  0
 83176  1  0
 85177  1  0
 86178  1  0
 89179  1  0
 89180  1  0
 89181  1  0
 90182  1  0
 91183  1  0
 98184  1  0
 99185  1  0
102186  1  0
102187  1  0
102188  1  0
103189  1  0
104190  1  0
106191  1  0
107192  1  0
110193  1  0
110194  1  0
110195  1  0
111196  1  0
112197  1  0
115198  1  0
120199  1  0
125200  1  0
M  END

