
     RDKit          3D

143158  0  0  0  0  0  0  0  0999 V2000
    8.1461   -0.4200   -3.0138 C   0  0  0  0  0  0  0  0  0  0  0  0
    8.5242    0.3377   -1.9620 C   0  0  0  0  0  0  0  0  0  0  0  0
    7.7155    1.3893   -1.3185 C   0  0  0  0  0  0  0  0  0  0  0  0
    6.4822    1.5959   -1.4761 O   0  0  0  0  0  0  0  0  0  0  0  0
    8.6045    2.2442   -0.5625 C   0  0  0  0  0  0  0  0  0  0  0  0
    8.2877    3.4322    0.0993 C   0  0  0  0  0  0  0  0  0  0  0  0
    9.3305    4.1764    0.6695 C   0  0  0  0  0  0  0  0  0  0  0  0
   10.6652    3.7387    0.5536 C   0  0  0  0  0  0  0  0  0  0  0  0
   11.7854    4.5787    1.0910 C   0  0  0  0  0  0  0  0  0  0  0  0
   10.9562    2.5436   -0.1408 C   0  0  0  0  0  0  0  0  0  0  0  0
    9.9027    1.7852   -0.6714 C   0  0  0  0  0  0  0  0  0  0  0  0
    9.9166    0.5144   -1.4503 C   0  0  0  0  0  0  0  0  0  0  0  0
   10.8895   -0.4318   -1.4485 C   0  0  0  0  0  0  0  0  0  0  0  0
   10.6499   -1.7621   -1.9521 C   0  0  0  0  0  0  0  0  0  0  0  0
   10.4392   -2.8264   -2.3419 N   0  0  0  0  0  0  0  0  0  0  0  0
   12.1552   -0.2426   -0.7868 C   0  0  0  0  0  0  0  0  0  0  0  0
   13.1746   -0.1035   -0.2559 N   0  0  0  0  0  0  0  0  0  0  0  0
    6.7480   -0.5387   -3.4458 C   0  0  0  0  0  0  0  0  0  0  0  0
    5.6907   -0.8826   -2.6160 C   0  0  0  0  0  0  0  0  0  0  0  0
    4.4423   -0.7001   -3.2248 C   0  0  0  0  0  0  0  0  0  0  0  0
    3.2006   -0.7807   -2.5765 C   0  0  0  0  0  0  0  0  0  0  0  0
    3.0792   -1.2210   -1.1747 C   0  0  0  0  0  0  0  0  0  0  0  0
    2.6364   -0.4353   -0.1193 C   0  0  0  0  0  0  0  0  0  0  0  0
    2.5779   -1.1282    1.0923 C   0  0  0  0  0  0  0  0  0  0  0  0
    2.9629   -2.4579    0.9817 C   0  0  0  0  0  0  0  0  0  0  0  0
    3.0142   -3.4465    2.1066 C   0  0  0  0  0  0  0  0  0  0  0  0
    4.2467   -3.2132    2.9738 C   0  0  0  0  0  0  0  0  0  0  0  0
    3.3976   -2.7754   -0.6105 S   0  0  0  0  0  0  0  0  0  0  0  0
    2.0822   -0.3472   -3.2989 C   0  0  0  0  0  0  0  0  0  0  0  0
    2.1498    0.1133   -4.6179 C   0  0  0  0  0  0  0  0  0  0  0  0
    3.3920    0.1377   -5.2913 C   0  0  0  0  0  0  0  0  0  0  0  0
    3.5095    0.5819   -6.6879 C   0  0  0  0  0  0  0  0  0  0  0  0
    3.1476    1.8299   -7.1837 C   0  0  0  0  0  0  0  0  0  0  0  0
    3.3185    1.9446   -8.5684 C   0  0  0  0  0  0  0  0  0  0  0  0
    3.7953    0.7809   -9.1576 C   0  0  0  0  0  0  0  0  0  0  0  0
    4.1321    0.6115  -10.6069 C   0  0  0  0  0  0  0  0  0  0  0  0
    5.5570    1.0771  -10.8820 C   0  0  0  0  0  0  0  0  0  0  0  0
    4.0436   -0.3751   -7.9602 S   0  0  0  0  0  0  0  0  0  0  0  0
    4.5259   -0.2601   -4.5523 C   0  0  0  0  0  0  0  0  0  0  0  0
    6.1531   -0.0856   -4.9590 S   0  0  0  0  0  0  0  0  0  0  0  0
    0.9005    0.5544   -5.1097 C   0  0  0  0  0  0  0  0  0  0  0  0
   -0.1100    0.4366   -4.1574 C   0  0  0  0  0  0  0  0  0  0  0  0
    0.5132   -0.2195   -2.7405 S   0  0  0  0  0  0  0  0  0  0  0  0
   -1.4911    0.9135   -4.2291 C   0  0  0  0  0  0  0  0  0  0  0  0
   -2.4913    0.0036   -4.5921 C   0  0  0  0  0  0  0  0  0  0  0  0
   -3.7709    0.0899   -4.0260 C   0  0  0  0  0  0  0  0  0  0  0  0
   -4.0650    1.0565   -3.0402 C   0  0  0  0  0  0  0  0  0  0  0  0
   -3.1390    2.1035   -2.8567 C   0  0  0  0  0  0  0  0  0  0  0  0
   -3.3472    3.1580   -2.0252 N   0  0  0  0  0  0  0  0  0  0  0  0
   -1.8823    3.9163   -2.1071 S   0  0  0  0  0  0  0  0  0  0  0  0
   -0.9563    2.9970   -3.1197 N   0  0  0  0  0  0  0  0  0  0  0  0
   -1.8448    2.0239   -3.4541 C   0  0  0  0  0  0  0  0  0  0  0  0
   -5.0934    0.7388   -2.0095 C   0  0  0  0  0  0  0  0  0  0  0  0
   -5.3732   -0.5732   -1.6043 C   0  0  0  0  0  0  0  0  0  0  0  0
   -5.9504   -0.6718   -0.3271 C   0  0  0  0  0  0  0  0  0  0  0  0
   -6.1284   -1.8656    0.4045 C   0  0  0  0  0  0  0  0  0  0  0  0
   -5.9214   -3.1894   -0.2165 C   0  0  0  0  0  0  0  0  0  0  0  0
   -5.0146   -4.1555    0.2095 C   0  0  0  0  0  0  0  0  0  0  0  0
   -4.9322   -5.2534   -0.6548 C   0  0  0  0  0  0  0  0  0  0  0  0
   -5.7815   -5.1564   -1.7513 C   0  0  0  0  0  0  0  0  0  0  0  0
   -5.8200   -6.0963   -2.9141 C   0  0  0  0  0  0  0  0  0  0  0  0
   -4.7291   -5.7406   -3.9249 C   0  0  0  0  0  0  0  0  0  0  0  0
   -6.6143   -3.6985   -1.6641 S   0  0  0  0  0  0  0  0  0  0  0  0
   -6.4529   -1.7301    1.7645 C   0  0  0  0  0  0  0  0  0  0  0  0
   -6.6302   -0.4837    2.3765 C   0  0  0  0  0  0  0  0  0  0  0  0
   -6.5035    0.7044    1.6278 C   0  0  0  0  0  0  0  0  0  0  0  0
   -6.6081    2.0313    2.2496 C   0  0  0  0  0  0  0  0  0  0  0  0
   -5.7948    2.5195    3.2623 C   0  0  0  0  0  0  0  0  0  0  0  0
   -6.0986    3.8363    3.6254 C   0  0  0  0  0  0  0  0  0  0  0  0
   -7.1583    4.3729    2.9010 C   0  0  0  0  0  0  0  0  0  0  0  0
   -7.6858    5.7646    3.0218 C   0  0  0  0  0  0  0  0  0  0  0  0
   -6.9242    6.7011    2.0919 C   0  0  0  0  0  0  0  0  0  0  0  0
   -7.6926    3.2317    1.7889 S   0  0  0  0  0  0  0  0  0  0  0  0
   -6.1565    0.5703    0.2731 C   0  0  0  0  0  0  0  0  0  0  0  0
   -5.6256    1.7738   -0.7776 S   0  0  0  0  0  0  0  0  0  0  0  0
   -6.8894   -0.5745    3.7535 C   0  0  0  0  0  0  0  0  0  0  0  0
   -6.9021   -1.8882    4.2117 C   0  0  0  0  0  0  0  0  0  0  0  0
   -6.6224   -2.9397    2.9225 S   0  0  0  0  0  0  0  0  0  0  0  0
   -7.0354   -2.2981    5.6147 C   0  0  0  0  0  0  0  0  0  0  0  0
   -6.0232   -2.1965    6.5008 C   0  0  0  0  0  0  0  0  0  0  0  0
   -4.6982   -1.6250    6.2117 C   0  0  0  0  0  0  0  0  0  0  0  0
   -4.2530   -1.2837    5.0803 O   0  0  0  0  0  0  0  0  0  0  0  0
   -3.9931   -1.4484    7.4607 C   0  0  0  0  0  0  0  0  0  0  0  0
   -2.7509   -0.8510    7.6650 C   0  0  0  0  0  0  0  0  0  0  0  0
   -2.2978   -0.6874    8.9808 C   0  0  0  0  0  0  0  0  0  0  0  0
   -3.0929   -1.1121   10.0668 C   0  0  0  0  0  0  0  0  0  0  0  0
   -2.6271   -0.9064   11.4771 C   0  0  0  0  0  0  0  0  0  0  0  0
   -4.3574   -1.6880    9.8304 C   0  0  0  0  0  0  0  0  0  0  0  0
   -4.7824   -1.8937    8.5057 C   0  0  0  0  0  0  0  0  0  0  0  0
   -6.0533   -2.4718    7.9730 C   0  0  0  0  0  0  0  0  0  0  0  0
   -6.9342   -3.2534    8.6564 C   0  0  0  0  0  0  0  0  0  0  0  0
   -8.0316   -3.9309    8.0218 C   0  0  0  0  0  0  0  0  0  0  0  0
   -8.9168   -4.4851    7.5238 N   0  0  0  0  0  0  0  0  0  0  0  0
   -6.7431   -3.6066   10.0383 C   0  0  0  0  0  0  0  0  0  0  0  0
   -6.5928   -3.9171   11.1466 N   0  0  0  0  0  0  0  0  0  0  0  0
    8.8904   -0.8899   -3.6351 H   0  0  0  0  0  0  0  0  0  0  0  0
    7.2647    3.7834    0.1533 H   0  0  0  0  0  0  0  0  0  0  0  0
    9.0961    5.1120    1.1668 H   0  0  0  0  0  0  0  0  0  0  0  0
   12.5701    3.9348    1.5387 H   0  0  0  0  0  0  0  0  0  0  0  0
   12.2265    5.1710    0.2639 H   0  0  0  0  0  0  0  0  0  0  0  0
   11.4202    5.2757    1.8757 H   0  0  0  0  0  0  0  0  0  0  0  0
   11.9865    2.2533   -0.2770 H   0  0  0  0  0  0  0  0  0  0  0  0
    5.8160   -1.1625   -1.5778 H   0  0  0  0  0  0  0  0  0  0  0  0
    2.3674    0.6094   -0.2239 H   0  0  0  0  0  0  0  0  0  0  0  0
    2.2654   -0.6730    2.0247 H   0  0  0  0  0  0  0  0  0  0  0  0
    3.0433   -4.4775    1.6982 H   0  0  0  0  0  0  0  0  0  0  0  0
    2.1026   -3.3473    2.7321 H   0  0  0  0  0  0  0  0  0  0  0  0
    4.2777   -3.9680    3.7895 H   0  0  0  0  0  0  0  0  0  0  0  0
    5.1757   -3.3075    2.3669 H   0  0  0  0  0  0  0  0  0  0  0  0
    4.2103   -2.1976    3.4267 H   0  0  0  0  0  0  0  0  0  0  0  0
    2.7777    2.6361   -6.5630 H   0  0  0  0  0  0  0  0  0  0  0  0
    3.1043    2.8522   -9.1206 H   0  0  0  0  0  0  0  0  0  0  0  0
    4.0351   -0.4566  -10.8861 H   0  0  0  0  0  0  0  0  0  0  0  0
    3.4251    1.2015  -11.2286 H   0  0  0  0  0  0  0  0  0  0  0  0
    5.6779    2.1462  -10.6051 H   0  0  0  0  0  0  0  0  0  0  0  0
    6.2818    0.4662  -10.2990 H   0  0  0  0  0  0  0  0  0  0  0  0
    5.7906    0.9626  -11.9637 H   0  0  0  0  0  0  0  0  0  0  0  0
    0.7405    0.9739   -6.0962 H   0  0  0  0  0  0  0  0  0  0  0  0
   -2.2431   -0.8608   -5.1920 H   0  0  0  0  0  0  0  0  0  0  0  0
   -4.4779   -0.6972   -4.2470 H   0  0  0  0  0  0  0  0  0  0  0  0
   -5.0109   -1.4344   -2.1420 H   0  0  0  0  0  0  0  0  0  0  0  0
   -4.3999   -4.0474    1.0952 H   0  0  0  0  0  0  0  0  0  0  0  0
   -4.2439   -6.0755   -0.5061 H   0  0  0  0  0  0  0  0  0  0  0  0
   -5.6707   -7.1398   -2.5625 H   0  0  0  0  0  0  0  0  0  0  0  0
   -6.8146   -6.0349   -3.4077 H   0  0  0  0  0  0  0  0  0  0  0  0
   -4.8154   -4.6777   -4.2275 H   0  0  0  0  0  0  0  0  0  0  0  0
   -3.7274   -5.9204   -3.4874 H   0  0  0  0  0  0  0  0  0  0  0  0
   -4.8400   -6.3771   -4.8256 H   0  0  0  0  0  0  0  0  0  0  0  0
   -4.9857    1.9561    3.7056 H   0  0  0  0  0  0  0  0  0  0  0  0
   -5.5602    4.3785    4.3920 H   0  0  0  0  0  0  0  0  0  0  0  0
   -8.7631    5.7822    2.7606 H   0  0  0  0  0  0  0  0  0  0  0  0
   -7.5761    6.1184    4.0701 H   0  0  0  0  0  0  0  0  0  0  0  0
   -7.3415    7.7308    2.1657 H   0  0  0  0  0  0  0  0  0  0  0  0
   -5.8513    6.7355    2.3825 H   0  0  0  0  0  0  0  0  0  0  0  0
   -7.0053    6.3520    1.0357 H   0  0  0  0  0  0  0  0  0  0  0  0
   -7.0284    0.2752    4.4091 H   0  0  0  0  0  0  0  0  0  0  0  0
   -8.0178   -2.6039    5.9172 H   0  0  0  0  0  0  0  0  0  0  0  0
   -2.1543   -0.5094    6.8274 H   0  0  0  0  0  0  0  0  0  0  0  0
   -1.3307   -0.2303    9.1522 H   0  0  0  0  0  0  0  0  0  0  0  0
   -2.6874   -1.8681   12.0331 H   0  0  0  0  0  0  0  0  0  0  0  0
   -1.5721   -0.5536   11.5146 H   0  0  0  0  0  0  0  0  0  0  0  0
   -3.2691   -0.1557   11.9834 H   0  0  0  0  0  0  0  0  0  0  0  0
   -4.9881   -1.9093   10.6718 H   0  0  0  0  0  0  0  0  0  0  0  0
  1  2  2  3
  2  3  1  0
  3  4  2  0
  3  5  1  0
  5  6  2  0
  6  7  1  0
  7  8  2  0
  8  9  1  0
  8 10  1  0
 10 11  2  0
 11 12  1  0
 12 13  2  3
 13 14  1  0
 14 15  3  0
 13 16  1  0
 16 17  3  0
  1 18  1  0
 18 19  2  0
 19 20  1  0
 20 21  2  0
 21 22  1  0
 22 23  2  0
 23 24  1  0
 24 25  2  0
 25 26  1  0
 26 27  1  0
 25 28  1  0
 21 29  1  0
 29 30  2  0
 30 31  1  0
 31 32  1  0
 32 33  2  0
 33 34  1  0
 34 35  2  0
 35 36  1  0
 36 37  1  0
 35 38  1  0
 31 39  2  0
 39 40  1  0
 30 41  1  0
 41 42  2  0
 42 43  1  0
 42 44  1  0
 44 45  2  0
 45 46  1  0
 46 47  2  0
 47 48  1  0
 48 49  2  0
 49 50  1  0
 50 51  1  0
 51 52  2  0
 47 53  1  0
 53 54  2  0
 54 55  1  0
 55 56  2  0
 56 57  1  0
 57 58  2  0
 58 59  1  0
 59 60  2  0
 60 61  1  0
 61 62  1  0
 60 63  1  0
 56 64  1  0
 64 65  2  0
 65 66  1  0
 66 67  1  0
 67 68  2  0
 68 69  1  0
 69 70  2  0
 70 71  1  0
 71 72  1  0
 70 73  1  0
 66 74  2  0
 74 75  1  0
 65 76  1  0
 76 77  2  0
 77 78  1  0
 77 79  1  0
 79 80  2  3
 80 81  1  0
 81 82  2  0
 81 83  1  0
 83 84  2  0
 84 85  1  0
 85 86  2  0
 86 87  1  0
 86 88  1  0
 88 89  2  0
 89 90  1  0
 90 91  2  3
 91 92  1  0
 92 93  3  0
 91 94  1  0
 94 95  3  0
 12  2  1  0
 40 18  1  0
 52 44  1  0
 75 53  1  0
 90 80  1  0
 11  5  1  0
 39 20  1  0
 52 48  1  0
 74 55  1  0
 89 83  1  0
 28 22  1  0
 43 29  1  0
 63 57  1  0
 78 64  1  0
 38 32  1  0
 73 67  1  0
  1 96  1  0
  6 97  1  0
  7 98  1  0
  9 99  1  0
  9100  1  0
  9101  1  0
 10102  1  0
 19103  1  0
 23104  1  0
 24105  1  0
 26106  1  0
 26107  1  0
 27108  1  0
 27109  1  0
 27110  1  0
 33111  1  0
 34112  1  0
 36113  1  0
 36114  1  0
 37115  1  0
 37116  1  0
 37117  1  0
 41118  1  0
 45119  1  0
 46120  1  0
 54121  1  0
 58122  1  0
 59123  1  0
 61124  1  0
 61125  1  0
 62126  1  0
 62127  1  0
 62128  1  0
 68129  1  0
 69130  1  0
 71131  1  0
 71132  1  0
 72133  1  0
 72134  1  0
 72135  1  0
 76136  1  0
 79137  1  0
 84138  1  0
 85139  1  0
 87140  1  0
 87141  1  0
 87142  1  0
 88143  1  0
M  END

