
     RDKit          3D

210227  0  0  0  0  0  0  0  0999 V2000
    2.8916   -7.3525    4.3589 C   0  0  0  0  0  0  0  0  0  0  0  0
    4.2039   -7.1367    4.1360 C   0  0  0  0  0  0  0  0  0  0  0  0
    5.1857   -8.2031    3.9225 C   0  0  0  0  0  0  0  0  0  0  0  0
    5.0794   -9.4032    4.2968 O   0  0  0  0  0  0  0  0  0  0  0  0
    6.2549   -7.6543    3.0995 C   0  0  0  0  0  0  0  0  0  0  0  0
    7.4088   -8.2827    2.6252 C   0  0  0  0  0  0  0  0  0  0  0  0
    8.3172   -7.5262    1.8609 C   0  0  0  0  0  0  0  0  0  0  0  0
    8.0693   -6.1614    1.5940 C   0  0  0  0  0  0  0  0  0  0  0  0
    9.0318   -5.3711    0.7583 C   0  0  0  0  0  0  0  0  0  0  0  0
    6.8839   -5.5589    2.0696 C   0  0  0  0  0  0  0  0  0  0  0  0
    5.9887   -6.3240    2.8232 C   0  0  0  0  0  0  0  0  0  0  0  0
    4.7695   -5.8957    3.5459 C   0  0  0  0  0  0  0  0  0  0  0  0
    4.7234   -4.7279    4.2000 C   0  0  0  0  0  0  0  0  0  0  0  0
    4.6649   -4.7222    5.6390 C   0  0  0  0  0  0  0  0  0  0  0  0
    4.6364   -4.7292    6.8061 N   0  0  0  0  0  0  0  0  0  0  0  0
    4.9304   -3.4752    3.5139 C   0  0  0  0  0  0  0  0  0  0  0  0
    5.0643   -2.4668    2.9551 N   0  0  0  0  0  0  0  0  0  0  0  0
    1.8948   -6.5097    3.6784 C   0  0  0  0  0  0  0  0  0  0  0  0
    1.4694   -5.2017    4.0090 C   0  0  0  0  0  0  0  0  0  0  0  0
    1.2915   -4.7327    5.3669 N   0  0  0  0  0  0  0  0  0  0  0  0
    0.7938   -5.6705    6.3422 C   0  0  0  0  0  0  0  0  0  0  0  0
    1.2938   -5.6612    7.6532 C   0  0  0  0  0  0  0  0  0  0  0  0
    0.7302   -6.4809    8.6335 C   0  0  0  0  0  0  0  0  0  0  0  0
   -0.3650   -7.2953    8.3249 C   0  0  0  0  0  0  0  0  0  0  0  0
   -0.9773   -8.1725    9.3800 C   0  0  0  0  0  0  0  0  0  0  0  0
   -0.8658   -7.3158    7.0152 C   0  0  0  0  0  0  0  0  0  0  0  0
   -0.2981   -6.5014    6.0349 C   0  0  0  0  0  0  0  0  0  0  0  0
    1.0126   -3.3418    5.6311 C   0  0  0  0  0  0  0  0  0  0  0  0
    2.0559   -2.4127    5.7879 C   0  0  0  0  0  0  0  0  0  0  0  0
    1.7778   -1.0841    6.1226 C   0  0  0  0  0  0  0  0  0  0  0  0
    0.4509   -0.6503    6.2637 C   0  0  0  0  0  0  0  0  0  0  0  0
    0.1655    0.7634    6.6623 C   0  0  0  0  0  0  0  0  0  0  0  0
   -0.5976   -1.5682    6.0931 C   0  0  0  0  0  0  0  0  0  0  0  0
   -0.3182   -2.9049    5.7931 C   0  0  0  0  0  0  0  0  0  0  0  0
    0.8629   -4.6017    2.8948 C   0  0  0  0  0  0  0  0  0  0  0  0
    0.1987   -3.1026    2.5574 S   0  0  0  0  0  0  0  0  0  0  0  0
   -0.3275   -3.5185    0.9898 C   0  0  0  0  0  0  0  0  0  0  0  0
    0.0067   -4.8640    0.7398 C   0  0  0  0  0  0  0  0  0  0  0  0
   -0.6631   -5.6785   -0.2372 N   0  0  0  0  0  0  0  0  0  0  0  0
   -2.0153   -6.0308    0.1063 C   0  0  0  0  0  0  0  0  0  0  0  0
   -3.0680   -5.1456   -0.1651 C   0  0  0  0  0  0  0  0  0  0  0  0
   -4.3569   -5.4181    0.3085 C   0  0  0  0  0  0  0  0  0  0  0  0
   -4.5965   -6.5676    1.0790 C   0  0  0  0  0  0  0  0  0  0  0  0
   -5.9684   -6.8551    1.6096 C   0  0  0  0  0  0  0  0  0  0  0  0
   -3.5475   -7.4734    1.3141 C   0  0  0  0  0  0  0  0  0  0  0  0
   -2.2663   -7.2030    0.8282 C   0  0  0  0  0  0  0  0  0  0  0  0
    0.0664   -6.4195   -1.2526 C   0  0  0  0  0  0  0  0  0  0  0  0
    1.4617   -6.2663   -1.4027 C   0  0  0  0  0  0  0  0  0  0  0  0
    2.1515   -6.9657   -2.3949 C   0  0  0  0  0  0  0  0  0  0  0  0
    1.4707   -7.8222   -3.2683 C   0  0  0  0  0  0  0  0  0  0  0  0
    2.2184   -8.5900   -4.3189 C   0  0  0  0  0  0  0  0  0  0  0  0
    0.0876   -7.9883   -3.1205 C   0  0  0  0  0  0  0  0  0  0  0  0
   -0.6117   -7.2835   -2.1373 C   0  0  0  0  0  0  0  0  0  0  0  0
    0.7006   -5.4087    1.8171 C   0  0  0  0  0  0  0  0  0  0  0  0
    1.3795   -6.9055    2.1038 S   0  0  0  0  0  0  0  0  0  0  0  0
   -0.7925   -2.5178    0.0055 C   0  0  0  0  0  0  0  0  0  0  0  0
   -0.2144   -2.4708   -1.2679 C   0  0  0  0  0  0  0  0  0  0  0  0
    0.6238   -3.4514   -1.6828 F   0  0  0  0  0  0  0  0  0  0  0  0
   -0.3854   -1.3613   -2.0882 C   0  0  0  0  0  0  0  0  0  0  0  0
    0.3167   -1.3388   -3.2400 F   0  0  0  0  0  0  0  0  0  0  0  0
   -1.1499   -0.2546   -1.6654 C   0  0  0  0  0  0  0  0  0  0  0  0
   -1.8310   -0.3535   -0.4313 C   0  0  0  0  0  0  0  0  0  0  0  0
   -2.6293    0.6529    0.0091 N   0  0  0  0  0  0  0  0  0  0  0  0
   -3.2371    0.6378    1.2237 C   0  0  0  0  0  0  0  0  0  0  0  0
   -4.0115    1.8532    1.6386 C   0  0  0  0  0  0  0  0  0  0  0  0
   -3.0941    2.8683    2.3124 C   0  0  0  0  0  0  0  0  0  0  0  0
   -3.0252   -0.4751    2.0700 C   0  0  0  0  0  0  0  0  0  0  0  0
   -2.2504   -1.4950    1.6158 N   0  0  0  0  0  0  0  0  0  0  0  0
   -1.6429   -1.4743    0.4008 C   0  0  0  0  0  0  0  0  0  0  0  0
   -3.6384   -0.5992    3.4432 C   0  0  0  0  0  0  0  0  0  0  0  0
   -5.0071   -1.2655    3.3632 C   0  0  0  0  0  0  0  0  0  0  0  0
   -1.0910    1.0621   -2.3769 C   0  0  0  0  0  0  0  0  0  0  0  0
   -1.0387    1.3432   -3.7600 C   0  0  0  0  0  0  0  0  0  0  0  0
   -0.8313    0.3960   -4.8172 N   0  0  0  0  0  0  0  0  0  0  0  0
    0.4160    0.5048   -5.5457 C   0  0  0  0  0  0  0  0  0  0  0  0
    0.4421    0.5322   -6.9546 C   0  0  0  0  0  0  0  0  0  0  0  0
    1.6448    0.7492   -7.6357 C   0  0  0  0  0  0  0  0  0  0  0  0
    2.8400    0.9074   -6.9230 C   0  0  0  0  0  0  0  0  0  0  0  0
    4.3895    1.1442   -7.7873 S   0  0  0  0  0  0  0  0  0  0  0  0
    4.3367    2.9582   -7.6540 C   0  0  0  0  0  0  0  0  0  0  0  0
    2.8256    0.8765   -5.5267 C   0  0  0  0  0  0  0  0  0  0  0  0
    1.6223    0.7070   -4.8437 C   0  0  0  0  0  0  0  0  0  0  0  0
   -1.9355   -0.4039   -5.3035 C   0  0  0  0  0  0  0  0  0  0  0  0
   -3.2672    0.0328   -5.1476 C   0  0  0  0  0  0  0  0  0  0  0  0
   -4.3268   -0.7240   -5.6609 C   0  0  0  0  0  0  0  0  0  0  0  0
   -4.0678   -1.9283   -6.3301 C   0  0  0  0  0  0  0  0  0  0  0  0
   -5.4201   -2.8874   -7.0224 S   0  0  0  0  0  0  0  0  0  0  0  0
   -5.6011   -3.9211   -5.5329 C   0  0  0  0  0  0  0  0  0  0  0  0
   -2.7499   -2.3699   -6.4873 C   0  0  0  0  0  0  0  0  0  0  0  0
   -1.6905   -1.6174   -5.9693 C   0  0  0  0  0  0  0  0  0  0  0  0
   -1.0259    2.7132   -4.0097 C   0  0  0  0  0  0  0  0  0  0  0  0
   -1.2384    3.6153   -5.3993 S   0  0  0  0  0  0  0  0  0  0  0  0
   -1.2653    5.0997   -4.5671 C   0  0  0  0  0  0  0  0  0  0  0  0
   -1.1531    4.8707   -3.1874 C   0  0  0  0  0  0  0  0  0  0  0  0
   -1.5082    5.8172   -2.1640 N   0  0  0  0  0  0  0  0  0  0  0  0
   -0.4633    6.5134   -1.4437 C   0  0  0  0  0  0  0  0  0  0  0  0
   -0.7646    7.6956   -0.7400 C   0  0  0  0  0  0  0  0  0  0  0  0
    0.1723    8.2610    0.1286 C   0  0  0  0  0  0  0  0  0  0  0  0
    1.4302    7.6717    0.2903 C   0  0  0  0  0  0  0  0  0  0  0  0
    2.5623    8.2918    1.5381 S   0  0  0  0  0  0  0  0  0  0  0  0
    1.9975    7.1027    2.8035 C   0  0  0  0  0  0  0  0  0  0  0  0
    1.7728    6.5527   -0.4793 C   0  0  0  0  0  0  0  0  0  0  0  0
    0.8357    5.9724   -1.3382 C   0  0  0  0  0  0  0  0  0  0  0  0
   -2.8516    5.7508   -1.6252 C   0  0  0  0  0  0  0  0  0  0  0  0
   -3.9730    5.8170   -2.4740 C   0  0  0  0  0  0  0  0  0  0  0  0
   -5.2670    5.7356   -1.9482 C   0  0  0  0  0  0  0  0  0  0  0  0
   -5.4609    5.5779   -0.5712 C   0  0  0  0  0  0  0  0  0  0  0  0
   -7.1145    5.4750    0.1071 S   0  0  0  0  0  0  0  0  0  0  0  0
   -7.2914    3.6894   -0.2038 C   0  0  0  0  0  0  0  0  0  0  0  0
   -4.3533    5.5142    0.2788 C   0  0  0  0  0  0  0  0  0  0  0  0
   -3.0602    5.5843   -0.2420 C   0  0  0  0  0  0  0  0  0  0  0  0
   -1.0240    3.5088   -2.9275 C   0  0  0  0  0  0  0  0  0  0  0  0
   -1.0740    2.5646   -1.5506 S   0  0  0  0  0  0  0  0  0  0  0  0
   -1.7090    6.3517   -5.1770 C   0  0  0  0  0  0  0  0  0  0  0  0
   -1.1291    7.5329   -4.9005 C   0  0  0  0  0  0  0  0  0  0  0  0
   -1.9208    8.7249   -4.5967 C   0  0  0  0  0  0  0  0  0  0  0  0
   -3.1785    8.8201   -4.7012 O   0  0  0  0  0  0  0  0  0  0  0  0
   -1.0774    9.6443   -3.8693 C   0  0  0  0  0  0  0  0  0  0  0  0
   -1.4363   10.8394   -3.2565 C   0  0  0  0  0  0  0  0  0  0  0  0
   -0.4572   11.5523   -2.5535 C   0  0  0  0  0  0  0  0  0  0  0  0
    0.8653   11.0606   -2.4726 C   0  0  0  0  0  0  0  0  0  0  0  0
    1.9216   11.8664   -1.7819 C   0  0  0  0  0  0  0  0  0  0  0  0
    1.1935    9.8263   -3.0639 C   0  0  0  0  0  0  0  0  0  0  0  0
    0.2108    9.1323   -3.7897 C   0  0  0  0  0  0  0  0  0  0  0  0
    0.2724    7.8104   -4.4700 C   0  0  0  0  0  0  0  0  0  0  0  0
    1.3910    7.1940   -4.9220 C   0  0  0  0  0  0  0  0  0  0  0  0
    1.3398    6.0622   -5.8152 C   0  0  0  0  0  0  0  0  0  0  0  0
    1.3156    5.1586   -6.5391 N   0  0  0  0  0  0  0  0  0  0  0  0
    2.6942    7.8004   -4.8192 C   0  0  0  0  0  0  0  0  0  0  0  0
    3.7392    8.3114   -4.7953 N   0  0  0  0  0  0  0  0  0  0  0  0
    2.5778   -8.3578    4.5939 H   0  0  0  0  0  0  0  0  0  0  0  0
    7.6130   -9.3220    2.8550 H   0  0  0  0  0  0  0  0  0  0  0  0
    9.2225   -7.9994    1.4974 H   0  0  0  0  0  0  0  0  0  0  0  0
   10.0702   -5.7171    0.9429 H   0  0  0  0  0  0  0  0  0  0  0  0
    8.9806   -4.2911    1.0108 H   0  0  0  0  0  0  0  0  0  0  0  0
    8.7918   -5.5068   -0.3175 H   0  0  0  0  0  0  0  0  0  0  0  0
    6.6690   -4.5200    1.8448 H   0  0  0  0  0  0  0  0  0  0  0  0
    2.1199   -5.0133    7.9121 H   0  0  0  0  0  0  0  0  0  0  0  0
    1.1340   -6.4640    9.6381 H   0  0  0  0  0  0  0  0  0  0  0  0
   -2.0229   -8.4445    9.1150 H   0  0  0  0  0  0  0  0  0  0  0  0
   -0.9977   -7.6413   10.3559 H   0  0  0  0  0  0  0  0  0  0  0  0
   -0.3782   -9.1005    9.4810 H   0  0  0  0  0  0  0  0  0  0  0  0
   -1.7070   -7.9495    6.7544 H   0  0  0  0  0  0  0  0  0  0  0  0
   -0.7308   -6.4964    5.0423 H   0  0  0  0  0  0  0  0  0  0  0  0
    3.0804   -2.7179    5.6765 H   0  0  0  0  0  0  0  0  0  0  0  0
    2.6001   -0.3981    6.2866 H   0  0  0  0  0  0  0  0  0  0  0  0
    0.8444    1.4602    6.1232 H   0  0  0  0  0  0  0  0  0  0  0  0
    0.3263    0.8799    7.7564 H   0  0  0  0  0  0  0  0  0  0  0  0
   -0.8828    1.0473    6.4221 H   0  0  0  0  0  0  0  0  0  0  0  0
   -1.6306   -1.2516    6.1984 H   0  0  0  0  0  0  0  0  0  0  0  0
   -1.1369   -3.6054    5.6660 H   0  0  0  0  0  0  0  0  0  0  0  0
   -2.8908   -4.2482   -0.7426 H   0  0  0  0  0  0  0  0  0  0  0  0
   -5.1602   -4.7236    0.0912 H   0  0  0  0  0  0  0  0  0  0  0  0
   -5.9083   -7.3800    2.5900 H   0  0  0  0  0  0  0  0  0  0  0  0
   -6.5164   -7.4984    0.8933 H   0  0  0  0  0  0  0  0  0  0  0  0
   -6.5422   -5.9154    1.7670 H   0  0  0  0  0  0  0  0  0  0  0  0
   -3.7236   -8.3763    1.8872 H   0  0  0  0  0  0  0  0  0  0  0  0
   -1.4529   -7.8821    1.0652 H   0  0  0  0  0  0  0  0  0  0  0  0
    2.0273   -5.6089   -0.7525 H   0  0  0  0  0  0  0  0  0  0  0  0
    3.2260   -6.8364   -2.4806 H   0  0  0  0  0  0  0  0  0  0  0  0
    2.4432   -9.6080   -3.9403 H   0  0  0  0  0  0  0  0  0  0  0  0
    3.1735   -8.0834   -4.5766 H   0  0  0  0  0  0  0  0  0  0  0  0
    1.6125   -8.6696   -5.2463 H   0  0  0  0  0  0  0  0  0  0  0  0
   -0.4572   -8.6563   -3.7787 H   0  0  0  0  0  0  0  0  0  0  0  0
   -1.6797   -7.4251   -2.0674 H   0  0  0  0  0  0  0  0  0  0  0  0
   -4.4370    2.3178    0.7306 H   0  0  0  0  0  0  0  0  0  0  0  0
   -4.8596    1.5993    2.3051 H   0  0  0  0  0  0  0  0  0  0  0  0
   -3.6927    3.7299    2.6641 H   0  0  0  0  0  0  0  0  0  0  0  0
   -2.5945    2.4118    3.1947 H   0  0  0  0  0  0  0  0  0  0  0  0
   -2.3183    3.2147    1.5946 H   0  0  0  0  0  0  0  0  0  0  0  0
   -3.7267    0.3898    3.9387 H   0  0  0  0  0  0  0  0  0  0  0  0
   -2.9777   -1.2198    4.0832 H   0  0  0  0  0  0  0  0  0  0  0  0
   -5.6834   -0.6946    2.6909 H   0  0  0  0  0  0  0  0  0  0  0  0
   -4.9124   -2.3087    2.9992 H   0  0  0  0  0  0  0  0  0  0  0  0
   -5.4589   -1.2833    4.3788 H   0  0  0  0  0  0  0  0  0  0  0  0
   -0.4680    0.4198   -7.5282 H   0  0  0  0  0  0  0  0  0  0  0  0
    1.6542    0.7745   -8.7163 H   0  0  0  0  0  0  0  0  0  0  0  0
    3.4128    3.3495   -8.1247 H   0  0  0  0  0  0  0  0  0  0  0  0
    4.3734    3.2588   -6.5878 H   0  0  0  0  0  0  0  0  0  0  0  0
    5.2176    3.3856   -8.1758 H   0  0  0  0  0  0  0  0  0  0  0  0
    3.7423    1.0203   -4.9678 H   0  0  0  0  0  0  0  0  0  0  0  0
    1.6285    0.7537   -3.7629 H   0  0  0  0  0  0  0  0  0  0  0  0
   -3.4952    0.9659   -4.6467 H   0  0  0  0  0  0  0  0  0  0  0  0
   -5.3442   -0.3713   -5.5463 H   0  0  0  0  0  0  0  0  0  0  0  0
   -6.0466   -3.3257   -4.7068 H   0  0  0  0  0  0  0  0  0  0  0  0
   -6.2690   -4.7740   -5.7679 H   0  0  0  0  0  0  0  0  0  0  0  0
   -4.6189   -4.3214   -5.2067 H   0  0  0  0  0  0  0  0  0  0  0  0
   -2.5418   -3.2980   -7.0077 H   0  0  0  0  0  0  0  0  0  0  0  0
   -0.6795   -1.9766   -6.0949 H   0  0  0  0  0  0  0  0  0  0  0  0
   -1.7440    8.1474   -0.8234 H   0  0  0  0  0  0  0  0  0  0  0  0
   -0.0953    9.1394    0.7030 H   0  0  0  0  0  0  0  0  0  0  0  0
    2.2715    6.0680    2.4964 H   0  0  0  0  0  0  0  0  0  0  0  0
    2.4975    7.3364    3.7674 H   0  0  0  0  0  0  0  0  0  0  0  0
    0.8991    7.1675    2.9386 H   0  0  0  0  0  0  0  0  0  0  0  0
    2.7392    6.0909   -0.3545 H   0  0  0  0  0  0  0  0  0  0  0  0
    1.1092    5.0680   -1.8546 H   0  0  0  0  0  0  0  0  0  0  0  0
   -3.8593    5.9480   -3.5378 H   0  0  0  0  0  0  0  0  0  0  0  0
   -6.1197    5.7941   -2.6102 H   0  0  0  0  0  0  0  0  0  0  0  0
   -8.2375    3.3252    0.2464 H   0  0  0  0  0  0  0  0  0  0  0  0
   -7.3135    3.4951   -1.2968 H   0  0  0  0  0  0  0  0  0  0  0  0
   -6.4546    3.1321    0.2484 H   0  0  0  0  0  0  0  0  0  0  0  0
   -4.4964    5.4191    1.3420 H   0  0  0  0  0  0  0  0  0  0  0  0
   -2.2154    5.5067    0.4280 H   0  0  0  0  0  0  0  0  0  0  0  0
   -2.7148    6.3334   -5.5711 H   0  0  0  0  0  0  0  0  0  0  0  0
   -2.4584   11.2034   -3.3044 H   0  0  0  0  0  0  0  0  0  0  0  0
   -0.7194   12.4924   -2.0786 H   0  0  0  0  0  0  0  0  0  0  0  0
    2.7854   11.2297   -1.4791 H   0  0  0  0  0  0  0  0  0  0  0  0
    1.5095   12.3527   -0.8677 H   0  0  0  0  0  0  0  0  0  0  0  0
    2.2835   12.6528   -2.4784 H   0  0  0  0  0  0  0  0  0  0  0  0
    2.1967    9.4401   -2.9569 H   0  0  0  0  0  0  0  0  0  0  0  0
  1  2  2  3
  2  3  1  0
  3  4  2  0
  3  5  1  0
  5  6  2  0
  6  7  1  0
  7  8  2  0
  8  9  1  0
  8 10  1  0
 10 11  2  0
 11 12  1  0
 12 13  2  3
 13 14  1  0
 14 15  3  0
 13 16  1  0
 16 17  3  0
  1 18  1  0
 18 19  2  0
 19 20  1  0
 20 21  1  0
 21 22  2  0
 22 23  1  0
 23 24  2  0
 24 25  1  0
 24 26  1  0
 26 27  2  0
 20 28  1  0
 28 29  2  0
 29 30  1  0
 30 31  2  0
 31 32  1  0
 31 33  1  0
 33 34  2  0
 19 35  1  0
 35 36  1  0
 36 37  1  0
 37 38  2  0
 38 39  1  0
 39 40  1  0
 40 41  2  0
 41 42  1  0
 42 43  2  0
 43 44  1  0
 43 45  1  0
 45 46  2  0
 39 47  1  0
 47 48  2  0
 48 49  1  0
 49 50  2  0
 50 51  1  0
 50 52  1  0
 52 53  2  0
 38 54  1  0
 54 55  1  0
 37 56  1  0
 56 57  2  0
 57 58  1  0
 57 59  1  0
 59 60  1  0
 59 61  2  0
 61 62  1  0
 62 63  2  0
 63 64  1  0
 64 65  1  0
 65 66  1  0
 64 67  2  0
 67 68  1  0
 68 69  2  0
 67 70  1  0
 70 71  1  0
 61 72  1  0
 72 73  2  0
 73 74  1  0
 74 75  1  0
 75 76  2  0
 76 77  1  0
 77 78  2  0
 78 79  1  0
 79 80  1  0
 78 81  1  0
 81 82  2  0
 74 83  1  0
 83 84  2  0
 84 85  1  0
 85 86  2  0
 86 87  1  0
 87 88  1  0
 86 89  1  0
 89 90  2  0
 73 91  1  0
 91 92  1  0
 92 93  1  0
 93 94  2  0
 94 95  1  0
 95 96  1  0
 96 97  2  0
 97 98  1  0
 98 99  2  0
 99100  1  0
100101  1  0
 99102  1  0
102103  2  0
 95104  1  0
104105  2  0
105106  1  0
106107  2  0
107108  1  0
108109  1  0
107110  1  0
110111  2  0
 94112  1  0
112113  1  0
 93114  1  0
114115  2  3
115116  1  0
116117  2  0
116118  1  0
118119  2  0
119120  1  0
120121  2  0
121122  1  0
121123  1  0
123124  2  0
124125  1  0
125126  2  3
126127  1  0
127128  3  0
126129  1  0
129130  3  0
 12  2  1  0
 55 18  1  0
 69 56  1  0
113 72  1  0
125115  1  0
 11  5  1  0
 27 21  1  0
 34 28  1  0
 54 35  2  0
 69 62  1  0
 82 75  1  0
 90 83  1  0
112 91  2  0
124118  1  0
 46 40  1  0
 53 47  1  0
103 96  1  0
111104  1  0
  1131  1  0
  6132  1  0
  7133  1  0
  9134  1  0
  9135  1  0
  9136  1  0
 10137  1  0
 22138  1  0
 23139  1  0
 25140  1  0
 25141  1  0
 25142  1  0
 26143  1  0
 27144  1  0
 29145  1  0
 30146  1  0
 32147  1  0
 32148  1  0
 32149  1  0
 33150  1  0
 34151  1  0
 41152  1  0
 42153  1  0
 44154  1  0
 44155  1  0
 44156  1  0
 45157  1  0
 46158  1  0
 48159  1  0
 49160  1  0
 51161  1  0
 51162  1  0
 51163  1  0
 52164  1  0
 53165  1  0
 65166  1  0
 65167  1  0
 66168  1  0
 66169  1  0
 66170  1  0
 70171  1  0
 70172  1  0
 71173  1  0
 71174  1  0
 71175  1  0
 76176  1  0
 77177  1  0
 80178  1  0
 80179  1  0
 80180  1  0
 81181  1  0
 82182  1  0
 84183  1  0
 85184  1  0
 88185  1  0
 88186  1  0
 88187  1  0
 89188  1  0
 90189  1  0
 97190  1  0
 98191  1  0
101192  1  0
101193  1  0
101194  1  0
102195  1  0
103196  1  0
105197  1  0
106198  1  0
109199  1  0
109200  1  0
109201  1  0
110202  1  0
111203  1  0
114204  1  0
119205  1  0
120206  1  0
122207  1  0
122208  1  0
122209  1  0
123210  1  0
M  END

