
     RDKit          3D

112120  0  0  0  0  0  0  0  0999 V2000
   -2.0129    6.4315    0.3790 C   0  0  0  0  0  0  0  0  0  0  0  0
   -3.2631    6.3174    0.8659 C   0  0  0  0  0  0  0  0  0  0  0  0
   -3.7305    7.1144    2.0029 C   0  0  0  0  0  0  0  0  0  0  0  0
   -3.3323    8.2704    2.3154 O   0  0  0  0  0  0  0  0  0  0  0  0
   -4.5885    6.2645    2.8158 C   0  0  0  0  0  0  0  0  0  0  0  0
   -5.0397    6.4829    4.1181 C   0  0  0  0  0  0  0  0  0  0  0  0
   -5.6678    5.4286    4.7982 C   0  0  0  0  0  0  0  0  0  0  0  0
   -5.8360    4.1726    4.1726 C   0  0  0  0  0  0  0  0  0  0  0  0
   -6.4258    3.0200    4.9292 C   0  0  0  0  0  0  0  0  0  0  0  0
   -5.3590    3.9721    2.8612 C   0  0  0  0  0  0  0  0  0  0  0  0
   -4.7585    5.0419    2.1855 C   0  0  0  0  0  0  0  0  0  0  0  0
   -4.0821    5.0737    0.8713 C   0  0  0  0  0  0  0  0  0  0  0  0
   -4.3775    4.3254   -0.2192 C   0  0  0  0  0  0  0  0  0  0  0  0
   -5.2617    3.1892   -0.1683 C   0  0  0  0  0  0  0  0  0  0  0  0
   -5.9774    2.2749   -0.1567 N   0  0  0  0  0  0  0  0  0  0  0  0
   -3.9300    4.7112   -1.5338 C   0  0  0  0  0  0  0  0  0  0  0  0
   -3.5880    5.0219   -2.5957 N   0  0  0  0  0  0  0  0  0  0  0  0
   -1.2344    5.2357   -0.0145 C   0  0  0  0  0  0  0  0  0  0  0  0
   -0.6835    5.1212   -1.3000 C   0  0  0  0  0  0  0  0  0  0  0  0
   -0.6777    6.2625   -2.1191 O   0  0  0  0  0  0  0  0  0  0  0  0
   -0.0536    6.3610   -3.3944 C   0  0  0  0  0  0  0  0  0  0  0  0
   -0.1898    3.8632   -1.7206 C   0  0  0  0  0  0  0  0  0  0  0  0
    0.2356    3.6649   -2.9926 F   0  0  0  0  0  0  0  0  0  0  0  0
   -0.2032    2.7712   -0.8390 C   0  0  0  0  0  0  0  0  0  0  0  0
   -0.5849    2.9435    0.5031 C   0  0  0  0  0  0  0  0  0  0  0  0
   -0.4594    1.8464    1.3782 O   0  0  0  0  0  0  0  0  0  0  0  0
   -0.7398    1.8481    2.7714 C   0  0  0  0  0  0  0  0  0  0  0  0
   -1.0950    4.1869    0.9099 C   0  0  0  0  0  0  0  0  0  0  0  0
   -1.5016    4.3848    2.1906 F   0  0  0  0  0  0  0  0  0  0  0  0
    0.1191    1.4103   -1.3195 C   0  0  0  0  0  0  0  0  0  0  0  0
    1.4340    1.0218   -1.6485 C   0  0  0  0  0  0  0  0  0  0  0  0
    2.5638    1.8544   -1.6781 C   0  0  0  0  0  0  0  0  0  0  0  0
    3.7414    1.1621   -1.9535 C   0  0  0  0  0  0  0  0  0  0  0  0
    5.1173    1.7557   -1.9130 C   0  0  0  0  0  0  0  0  0  0  0  0
    5.9631    1.3104   -3.1023 C   0  0  0  0  0  0  0  0  0  0  0  0
    3.3949   -0.4839   -2.1087 S   0  0  0  0  0  0  0  0  0  0  0  0
    1.7358   -0.3256   -1.8754 C   0  0  0  0  0  0  0  0  0  0  0  0
    0.7756   -1.3460   -1.7638 C   0  0  0  0  0  0  0  0  0  0  0  0
   -0.5331   -0.9595   -1.4282 C   0  0  0  0  0  0  0  0  0  0  0  0
   -0.8491    0.3899   -1.2529 C   0  0  0  0  0  0  0  0  0  0  0  0
   -2.4760    0.5238   -0.8363 S   0  0  0  0  0  0  0  0  0  0  0  0
   -2.7764   -1.1377   -0.8389 C   0  0  0  0  0  0  0  0  0  0  0  0
   -4.1071   -1.7698   -0.5816 C   0  0  0  0  0  0  0  0  0  0  0  0
   -4.8568   -1.9803   -1.8915 C   0  0  0  0  0  0  0  0  0  0  0  0
   -1.6131   -1.8191   -1.1829 C   0  0  0  0  0  0  0  0  0  0  0  0
    1.1839   -2.7535   -1.7500 C   0  0  0  0  0  0  0  0  0  0  0  0
    1.3236   -3.6470   -2.8212 C   0  0  0  0  0  0  0  0  0  0  0  0
    0.9229   -3.4223   -4.1491 O   0  0  0  0  0  0  0  0  0  0  0  0
   -0.2402   -2.7055   -4.5572 C   0  0  0  0  0  0  0  0  0  0  0  0
   -1.4854   -3.5595   -4.3656 C   0  0  0  0  0  0  0  0  0  0  0  0
    1.9842   -4.8345   -2.4643 C   0  0  0  0  0  0  0  0  0  0  0  0
    2.1579   -5.8745   -3.3867 O   0  0  0  0  0  0  0  0  0  0  0  0
    3.3670   -6.6100   -3.5536 C   0  0  0  0  0  0  0  0  0  0  0  0
    4.0223   -6.2042   -4.8691 C   0  0  0  0  0  0  0  0  0  0  0  0
    2.3939   -4.8663   -1.1266 C   0  0  0  0  0  0  0  0  0  0  0  0
    1.8812   -3.4430   -0.3975 S   0  0  0  0  0  0  0  0  0  0  0  0
    2.9888   -5.9944   -0.3926 C   0  0  0  0  0  0  0  0  0  0  0  0
    3.8320   -5.8322    0.6455 C   0  0  0  0  0  0  0  0  0  0  0  0
    3.8282   -6.7457    1.7969 C   0  0  0  0  0  0  0  0  0  0  0  0
    3.3567   -7.9156    1.8226 O   0  0  0  0  0  0  0  0  0  0  0  0
    4.3173   -6.0025    2.9379 C   0  0  0  0  0  0  0  0  0  0  0  0
    4.7017   -4.7394    2.5481 C   0  0  0  0  0  0  0  0  0  0  0  0
    5.0803   -3.8973    3.5863 C   0  0  0  0  0  0  0  0  0  0  0  0
    4.8983   -4.8014    5.0073 S   0  0  0  0  0  0  0  0  0  0  0  0
    4.3561   -6.2409    4.3002 C   0  0  0  0  0  0  0  0  0  0  0  0
    3.8775   -7.4526    5.0227 C   0  0  0  0  0  0  0  0  0  0  0  0
    4.5265   -4.5786    1.0933 C   0  0  0  0  0  0  0  0  0  0  0  0
    5.1032   -3.6315    0.3128 C   0  0  0  0  0  0  0  0  0  0  0  0
    5.2087   -3.7854   -1.1164 C   0  0  0  0  0  0  0  0  0  0  0  0
    5.3010   -3.9047   -2.2620 N   0  0  0  0  0  0  0  0  0  0  0  0
    5.7497   -2.4764    0.8746 C   0  0  0  0  0  0  0  0  0  0  0  0
    6.2709   -1.5412    1.3165 N   0  0  0  0  0  0  0  0  0  0  0  0
   -1.4831    7.3726    0.4769 H   0  0  0  0  0  0  0  0  0  0  0  0
   -4.8664    7.4277    4.6145 H   0  0  0  0  0  0  0  0  0  0  0  0
   -5.9913    5.5778    5.8222 H   0  0  0  0  0  0  0  0  0  0  0  0
   -7.0150    3.3723    5.8051 H   0  0  0  0  0  0  0  0  0  0  0  0
   -7.0999    2.4378    4.2652 H   0  0  0  0  0  0  0  0  0  0  0  0
   -5.6061    2.3575    5.2848 H   0  0  0  0  0  0  0  0  0  0  0  0
   -5.4072    2.9898    2.4185 H   0  0  0  0  0  0  0  0  0  0  0  0
   -0.5786    5.7196   -4.1326 H   0  0  0  0  0  0  0  0  0  0  0  0
    1.0186    6.0795   -3.3232 H   0  0  0  0  0  0  0  0  0  0  0  0
   -0.1103    7.4102   -3.7435 H   0  0  0  0  0  0  0  0  0  0  0  0
   -1.8174    2.0427    2.9474 H   0  0  0  0  0  0  0  0  0  0  0  0
   -0.1169    2.6051    3.2876 H   0  0  0  0  0  0  0  0  0  0  0  0
   -0.4999    0.8509    3.1928 H   0  0  0  0  0  0  0  0  0  0  0  0
    2.5355    2.9185   -1.4706 H   0  0  0  0  0  0  0  0  0  0  0  0
    5.0491    2.8643   -1.9182 H   0  0  0  0  0  0  0  0  0  0  0  0
    5.6122    1.4440   -0.9703 H   0  0  0  0  0  0  0  0  0  0  0  0
    5.4533    1.5624   -4.0591 H   0  0  0  0  0  0  0  0  0  0  0  0
    6.1428    0.2145   -3.0580 H   0  0  0  0  0  0  0  0  0  0  0  0
    6.9445    1.8277   -3.0668 H   0  0  0  0  0  0  0  0  0  0  0  0
   -4.7062   -1.1135    0.0868 H   0  0  0  0  0  0  0  0  0  0  0  0
   -3.9630   -2.7486   -0.0719 H   0  0  0  0  0  0  0  0  0  0  0  0
   -4.2790   -2.6558   -2.5569 H   0  0  0  0  0  0  0  0  0  0  0  0
   -5.8448   -2.4432   -1.6830 H   0  0  0  0  0  0  0  0  0  0  0  0
   -5.0190   -1.0087   -2.4041 H   0  0  0  0  0  0  0  0  0  0  0  0
   -1.5530   -2.8982   -1.2298 H   0  0  0  0  0  0  0  0  0  0  0  0
   -0.1443   -2.4729   -5.6386 H   0  0  0  0  0  0  0  0  0  0  0  0
   -0.3377   -1.7402   -4.0321 H   0  0  0  0  0  0  0  0  0  0  0  0
   -1.4361   -4.4548   -5.0246 H   0  0  0  0  0  0  0  0  0  0  0  0
   -1.5626   -3.9088   -3.3169 H   0  0  0  0  0  0  0  0  0  0  0  0
   -2.3932   -2.9734   -4.6262 H   0  0  0  0  0  0  0  0  0  0  0  0
    4.0846   -6.4345   -2.7260 H   0  0  0  0  0  0  0  0  0  0  0  0
    3.1236   -7.6952   -3.5887 H   0  0  0  0  0  0  0  0  0  0  0  0
    4.8989   -6.8530   -5.0678 H   0  0  0  0  0  0  0  0  0  0  0  0
    4.3540   -5.1500   -4.8157 H   0  0  0  0  0  0  0  0  0  0  0  0
    3.2949   -6.3152   -5.7015 H   0  0  0  0  0  0  0  0  0  0  0  0
    2.5689   -6.9754   -0.5796 H   0  0  0  0  0  0  0  0  0  0  0  0
    5.3968   -2.8646    3.5260 H   0  0  0  0  0  0  0  0  0  0  0  0
    4.1103   -7.3673    6.1044 H   0  0  0  0  0  0  0  0  0  0  0  0
    4.3693   -8.3573    4.6062 H   0  0  0  0  0  0  0  0  0  0  0  0
    2.7768   -7.5446    4.9020 H   0  0  0  0  0  0  0  0  0  0  0  0
  1  2  2  3
  2  3  1  0
  3  4  2  0
  3  5  1  0
  5  6  2  0
  6  7  1  0
  7  8  2  0
  8  9  1  0
  8 10  1  0
 10 11  2  0
 11 12  1  0
 12 13  2  3
 13 14  1  0
 14 15  3  0
 13 16  1  0
 16 17  3  0
  1 18  1  0
 18 19  2  0
 19 20  1  0
 20 21  1  0
 19 22  1  0
 22 23  1  0
 22 24  2  0
 24 25  1  0
 25 26  1  0
 26 27  1  0
 25 28  2  0
 28 29  1  0
 24 30  1  0
 30 31  2  0
 31 32  1  0
 32 33  2  0
 33 34  1  0
 34 35  1  0
 33 36  1  0
 36 37  1  0
 37 38  2  0
 38 39  1  0
 39 40  2  0
 40 41  1  0
 41 42  1  0
 42 43  1  0
 43 44  1  0
 42 45  2  0
 38 46  1  0
 46 47  2  0
 47 48  1  0
 48 49  1  0
 49 50  1  0
 47 51  1  0
 51 52  1  0
 52 53  1  0
 53 54  1  0
 51 55  2  0
 55 56  1  0
 55 57  1  0
 57 58  2  3
 58 59  1  0
 59 60  2  0
 59 61  1  0
 61 62  1  0
 62 63  2  0
 63 64  1  0
 64 65  1  0
 65 66  1  0
 62 67  1  0
 67 68  2  3
 68 69  1  0
 69 70  3  0
 68 71  1  0
 71 72  3  0
 12  2  1  0
 28 18  1  0
 40 30  1  0
 56 46  1  0
 67 58  1  0
 11  5  1  0
 37 31  1  0
 45 39  1  0
 65 61  2  0
  1 73  1  0
  6 74  1  0
  7 75  1  0
  9 76  1  0
  9 77  1  0
  9 78  1  0
 10 79  1  0
 21 80  1  0
 21 81  1  0
 21 82  1  0
 27 83  1  0
 27 84  1  0
 27 85  1  0
 32 86  1  0
 34 87  1  0
 34 88  1  0
 35 89  1  0
 35 90  1  0
 35 91  1  0
 43 92  1  0
 43 93  1  0
 44 94  1  0
 44 95  1  0
 44 96  1  0
 45 97  1  0
 49 98  1  0
 49 99  1  0
 50100  1  0
 50101  1  0
 50102  1  0
 53103  1  0
 53104  1  0
 54105  1  0
 54106  1  0
 54107  1  0
 57108  1  0
 63109  1  0
 66110  1  0
 66111  1  0
 66112  1  0
M  END

