
     RDKit          3D

197215  0  0  0  0  0  0  0  0999 V2000
   -7.0716    7.1719   -1.4030 C   0  0  0  0  0  0  0  0  0  0  0  0
   -8.1976    6.4872   -1.6885 C   0  0  0  0  0  0  0  0  0  0  0  0
   -8.4599    5.0933   -1.3110 C   0  0  0  0  0  0  0  0  0  0  0  0
   -7.6366    4.2884   -0.8049 O   0  0  0  0  0  0  0  0  0  0  0  0
   -9.8871    4.8652   -1.3708 C   0  0  0  0  0  0  0  0  0  0  0  0
  -10.5825    3.7280   -0.9612 C   0  0  0  0  0  0  0  0  0  0  0  0
  -11.9786    3.7816   -0.9102 C   0  0  0  0  0  0  0  0  0  0  0  0
  -12.6564    4.9784   -1.2188 C   0  0  0  0  0  0  0  0  0  0  0  0
  -14.1516    5.0473   -1.1195 C   0  0  0  0  0  0  0  0  0  0  0  0
  -11.9292    6.1074   -1.6587 C   0  0  0  0  0  0  0  0  0  0  0  0
  -10.5302    6.0299   -1.7468 C   0  0  0  0  0  0  0  0  0  0  0  0
   -9.5147    7.0751   -2.0690 C   0  0  0  0  0  0  0  0  0  0  0  0
   -9.7128    8.2204   -2.7775 C   0  0  0  0  0  0  0  0  0  0  0  0
   -8.6066    9.0192   -3.2557 C   0  0  0  0  0  0  0  0  0  0  0  0
   -7.7262    9.6650   -3.6374 N   0  0  0  0  0  0  0  0  0  0  0  0
  -11.0078    8.6568   -3.2173 C   0  0  0  0  0  0  0  0  0  0  0  0
  -12.0437    9.0373   -3.5680 N   0  0  0  0  0  0  0  0  0  0  0  0
   -5.7911    6.5377   -1.0632 C   0  0  0  0  0  0  0  0  0  0  0  0
   -4.9031    6.9966   -0.0924 C   0  0  0  0  0  0  0  0  0  0  0  0
   -3.7180    6.2511   -0.0368 C   0  0  0  0  0  0  0  0  0  0  0  0
   -2.6567    6.4838    0.9523 C   0  0  0  0  0  0  0  0  0  0  0  0
   -2.7674    5.9302    2.2357 C   0  0  0  0  0  0  0  0  0  0  0  0
   -1.7189    6.0584    3.1468 C   0  0  0  0  0  0  0  0  0  0  0  0
   -0.5571    6.7487    2.7851 C   0  0  0  0  0  0  0  0  0  0  0  0
   -0.4443    7.3154    1.5116 C   0  0  0  0  0  0  0  0  0  0  0  0
   -1.4912    7.1862    0.5938 C   0  0  0  0  0  0  0  0  0  0  0  0
   -3.6632    5.2220   -0.9770 C   0  0  0  0  0  0  0  0  0  0  0  0
   -5.0756    5.2508   -1.8946 S   0  0  0  0  0  0  0  0  0  0  0  0
   -2.6022    4.2172   -1.0461 C   0  0  0  0  0  0  0  0  0  0  0  0
   -2.5879    3.0176   -0.3012 C   0  0  0  0  0  0  0  0  0  0  0  0
   -3.7649    2.1916   -0.0940 N   0  0  0  0  0  0  0  0  0  0  0  0
   -3.7912    1.1979    0.9455 C   0  0  0  0  0  0  0  0  0  0  0  0
   -4.1367    1.5513    2.2580 C   0  0  0  0  0  0  0  0  0  0  0  0
   -4.3119    0.5528    3.2269 C   0  0  0  0  0  0  0  0  0  0  0  0
   -4.1341   -0.7992    2.8913 C   0  0  0  0  0  0  0  0  0  0  0  0
   -4.3373   -2.0853    4.1305 S   0  0  0  0  0  0  0  0  0  0  0  0
   -6.0622   -2.4635    3.6746 C   0  0  0  0  0  0  0  0  0  0  0  0
   -3.7644   -1.1482    1.5859 C   0  0  0  0  0  0  0  0  0  0  0  0
   -3.6133   -0.1558    0.6149 C   0  0  0  0  0  0  0  0  0  0  0  0
   -4.7339    2.0144   -1.1577 C   0  0  0  0  0  0  0  0  0  0  0  0
   -4.3249    1.9647   -2.5057 C   0  0  0  0  0  0  0  0  0  0  0  0
   -5.2570    1.7161   -3.5207 C   0  0  0  0  0  0  0  0  0  0  0  0
   -6.6045    1.5031   -3.2050 C   0  0  0  0  0  0  0  0  0  0  0  0
   -7.7795    1.1197   -4.5044 S   0  0  0  0  0  0  0  0  0  0  0  0
   -8.3910    2.8290   -4.6637 C   0  0  0  0  0  0  0  0  0  0  0  0
   -7.0153    1.5296   -1.8655 C   0  0  0  0  0  0  0  0  0  0  0  0
   -6.0861    1.7867   -0.8459 C   0  0  0  0  0  0  0  0  0  0  0  0
   -1.2730    2.5587   -0.1513 C   0  0  0  0  0  0  0  0  0  0  0  0
   -0.5790    1.1692    0.4701 S   0  0  0  0  0  0  0  0  0  0  0  0
    0.9580    1.4619   -0.1915 C   0  0  0  0  0  0  0  0  0  0  0  0
    0.9162    2.6351   -0.9718 C   0  0  0  0  0  0  0  0  0  0  0  0
    1.7431    2.8411   -2.1329 N   0  0  0  0  0  0  0  0  0  0  0  0
    2.4001    4.1133   -2.2854 C   0  0  0  0  0  0  0  0  0  0  0  0
    3.4414    4.4835   -1.4243 C   0  0  0  0  0  0  0  0  0  0  0  0
    4.0795    5.7199   -1.5818 C   0  0  0  0  0  0  0  0  0  0  0  0
    3.6640    6.6068   -2.5823 C   0  0  0  0  0  0  0  0  0  0  0  0
    4.4129    8.2290   -2.7200 S   0  0  0  0  0  0  0  0  0  0  0  0
    5.4909    7.7741   -4.1135 C   0  0  0  0  0  0  0  0  0  0  0  0
    2.6228    6.2402   -3.4437 C   0  0  0  0  0  0  0  0  0  0  0  0
    2.0108    4.9897   -3.3145 C   0  0  0  0  0  0  0  0  0  0  0  0
    1.5807    1.9706   -3.2753 C   0  0  0  0  0  0  0  0  0  0  0  0
    0.3657    1.2896   -3.5085 C   0  0  0  0  0  0  0  0  0  0  0  0
    0.2364    0.4067   -4.5796 C   0  0  0  0  0  0  0  0  0  0  0  0
    1.3057    0.2126   -5.4627 C   0  0  0  0  0  0  0  0  0  0  0  0
    1.1159   -0.9303   -6.8323 S   0  0  0  0  0  0  0  0  0  0  0  0
    0.3583    0.3146   -7.9297 C   0  0  0  0  0  0  0  0  0  0  0  0
    2.5085    0.8954   -5.2559 C   0  0  0  0  0  0  0  0  0  0  0  0
    2.6453    1.7760   -4.1754 C   0  0  0  0  0  0  0  0  0  0  0  0
   -0.3268    3.2598   -0.8447 C   0  0  0  0  0  0  0  0  0  0  0  0
   -1.0358    4.5740   -1.6030 S   0  0  0  0  0  0  0  0  0  0  0  0
    2.0172    0.4486   -0.1548 C   0  0  0  0  0  0  0  0  0  0  0  0
    2.4762   -0.1317    1.0334 C   0  0  0  0  0  0  0  0  0  0  0  0
    3.0358   -1.4032    0.8397 C   0  0  0  0  0  0  0  0  0  0  0  0
    3.4381   -2.2923    1.8528 C   0  0  0  0  0  0  0  0  0  0  0  0
    3.7489   -1.8338    3.2250 C   0  0  0  0  0  0  0  0  0  0  0  0
    3.0533   -2.3422    4.3382 C   0  0  0  0  0  0  0  0  0  0  0  0
    3.5487   -2.1320    5.6318 C   0  0  0  0  0  0  0  0  0  0  0  0
    4.7467   -1.4221    5.8226 C   0  0  0  0  0  0  0  0  0  0  0  0
    5.3382   -1.3374    7.0940 C   0  0  0  0  0  0  0  0  0  0  0  0
    6.5749   -0.6930    7.2497 C   0  0  0  0  0  0  0  0  0  0  0  0
    7.4493   -0.7835    8.8170 S   0  0  0  0  0  0  0  0  0  0  0  0
    8.4353   -2.2606    8.3488 C   0  0  0  0  0  0  0  0  0  0  0  0
    7.6892   -3.5470    8.6835 C   0  0  0  0  0  0  0  0  0  0  0  0
    7.1692   -0.0442    6.1606 C   0  0  0  0  0  0  0  0  0  0  0  0
    6.5850   -0.1110    4.8953 C   0  0  0  0  0  0  0  0  0  0  0  0
    5.3953   -0.8331    4.7099 C   0  0  0  0  0  0  0  0  0  0  0  0
    4.8830   -1.0360    3.4215 C   0  0  0  0  0  0  0  0  0  0  0  0
    3.6753   -3.6219    1.4611 C   0  0  0  0  0  0  0  0  0  0  0  0
    3.6336   -4.0506    0.1276 C   0  0  0  0  0  0  0  0  0  0  0  0
    3.3594   -3.1194   -0.8942 C   0  0  0  0  0  0  0  0  0  0  0  0
    3.4507   -3.4421   -2.3338 C   0  0  0  0  0  0  0  0  0  0  0  0
    2.5879   -4.3766   -2.9366 C   0  0  0  0  0  0  0  0  0  0  0  0
    2.6498   -4.5923   -4.3252 C   0  0  0  0  0  0  0  0  0  0  0  0
    1.8133   -5.5366   -4.9442 C   0  0  0  0  0  0  0  0  0  0  0  0
    1.9092   -5.7628   -6.3194 C   0  0  0  0  0  0  0  0  0  0  0  0
    2.8272   -5.0430   -7.0936 C   0  0  0  0  0  0  0  0  0  0  0  0
    2.9975   -5.3790   -8.8471 S   0  0  0  0  0  0  0  0  0  0  0  0
    4.2567   -6.6923   -8.6444 C   0  0  0  0  0  0  0  0  0  0  0  0
    5.6176   -6.1111   -8.2724 C   0  0  0  0  0  0  0  0  0  0  0  0
    3.6321   -4.0688   -6.4941 C   0  0  0  0  0  0  0  0  0  0  0  0
    3.5666   -3.8540   -5.1124 C   0  0  0  0  0  0  0  0  0  0  0  0
    4.4208   -2.9287   -4.5025 C   0  0  0  0  0  0  0  0  0  0  0  0
    4.3707   -2.7334   -3.1234 C   0  0  0  0  0  0  0  0  0  0  0  0
    3.0212   -1.8145   -0.4942 C   0  0  0  0  0  0  0  0  0  0  0  0
    2.3220   -0.6128   -1.4323 S   0  0  0  0  0  0  0  0  0  0  0  0
    3.8155   -5.4366   -0.0136 C   0  0  0  0  0  0  0  0  0  0  0  0
    3.9591   -6.1054    1.2102 C   0  0  0  0  0  0  0  0  0  0  0  0
    3.9084   -4.9470    2.4454 S   0  0  0  0  0  0  0  0  0  0  0  0
    3.6755   -7.5467    1.3707 C   0  0  0  0  0  0  0  0  0  0  0  0
    3.6503   -8.2102    2.5505 C   0  0  0  0  0  0  0  0  0  0  0  0
    4.1750   -7.7296    3.8333 C   0  0  0  0  0  0  0  0  0  0  0  0
    5.2522   -7.0925    4.0100 O   0  0  0  0  0  0  0  0  0  0  0  0
    3.3416   -8.2535    4.8921 C   0  0  0  0  0  0  0  0  0  0  0  0
    3.3100   -7.8753    6.2334 C   0  0  0  0  0  0  0  0  0  0  0  0
    2.2947   -8.3889    7.0485 C   0  0  0  0  0  0  0  0  0  0  0  0
    1.3134   -9.2503    6.5162 C   0  0  0  0  0  0  0  0  0  0  0  0
    0.1748   -9.7094    7.3756 C   0  0  0  0  0  0  0  0  0  0  0  0
    1.3547   -9.6048    5.1504 C   0  0  0  0  0  0  0  0  0  0  0  0
    2.4115   -9.1299    4.3552 C   0  0  0  0  0  0  0  0  0  0  0  0
    2.6616   -9.2773    2.8961 C   0  0  0  0  0  0  0  0  0  0  0  0
    2.2144  -10.2768    2.0897 C   0  0  0  0  0  0  0  0  0  0  0  0
    2.6845  -10.4423    0.7386 C   0  0  0  0  0  0  0  0  0  0  0  0
    3.0527  -10.5909   -0.3518 N   0  0  0  0  0  0  0  0  0  0  0  0
    1.3549  -11.3267    2.5676 C   0  0  0  0  0  0  0  0  0  0  0  0
    0.6650  -12.1758    2.9476 N   0  0  0  0  0  0  0  0  0  0  0  0
   -7.0957    8.2467   -1.3465 H   0  0  0  0  0  0  0  0  0  0  0  0
  -10.0524    2.8311   -0.6597 H   0  0  0  0  0  0  0  0  0  0  0  0
  -12.5290    2.8991   -0.5951 H   0  0  0  0  0  0  0  0  0  0  0  0
  -14.5937    4.8414   -2.1182 H   0  0  0  0  0  0  0  0  0  0  0  0
  -14.4679    6.0560   -0.7786 H   0  0  0  0  0  0  0  0  0  0  0  0
  -14.5457    4.3009   -0.3871 H   0  0  0  0  0  0  0  0  0  0  0  0
  -12.4588    7.0151   -1.8766 H   0  0  0  0  0  0  0  0  0  0  0  0
   -5.1129    7.8347    0.5626 H   0  0  0  0  0  0  0  0  0  0  0  0
   -3.6548    5.3752    2.5187 H   0  0  0  0  0  0  0  0  0  0  0  0
   -1.7974    5.6197    4.1338 H   0  0  0  0  0  0  0  0  0  0  0  0
    0.2632    6.8372    3.4855 H   0  0  0  0  0  0  0  0  0  0  0  0
    0.4596    7.8443    1.2325 H   0  0  0  0  0  0  0  0  0  0  0  0
   -1.3878    7.6038   -0.4022 H   0  0  0  0  0  0  0  0  0  0  0  0
   -4.2902    2.5891    2.5146 H   0  0  0  0  0  0  0  0  0  0  0  0
   -4.5829    0.8322    4.2350 H   0  0  0  0  0  0  0  0  0  0  0  0
   -6.3980   -3.3654    4.2298 H   0  0  0  0  0  0  0  0  0  0  0  0
   -6.1363   -2.6742    2.5861 H   0  0  0  0  0  0  0  0  0  0  0  0
   -6.7179   -1.6116    3.9425 H   0  0  0  0  0  0  0  0  0  0  0  0
   -3.6495   -2.1859    1.3124 H   0  0  0  0  0  0  0  0  0  0  0  0
   -3.3774   -0.4395   -0.4048 H   0  0  0  0  0  0  0  0  0  0  0  0
   -3.2838    2.0850   -2.7674 H   0  0  0  0  0  0  0  0  0  0  0  0
   -4.9239    1.6754   -4.5525 H   0  0  0  0  0  0  0  0  0  0  0  0
   -8.8850    2.9445   -5.6498 H   0  0  0  0  0  0  0  0  0  0  0  0
   -7.5592    3.5654   -4.5960 H   0  0  0  0  0  0  0  0  0  0  0  0
   -9.1370    3.0290   -3.8646 H   0  0  0  0  0  0  0  0  0  0  0  0
   -8.0549    1.3738   -1.6104 H   0  0  0  0  0  0  0  0  0  0  0  0
   -6.4231    1.8099    0.1852 H   0  0  0  0  0  0  0  0  0  0  0  0
    3.7628    3.8018   -0.6456 H   0  0  0  0  0  0  0  0  0  0  0  0
    4.8883    5.9908   -0.9179 H   0  0  0  0  0  0  0  0  0  0  0  0
    4.8708    7.5301   -4.9994 H   0  0  0  0  0  0  0  0  0  0  0  0
    6.1284    6.9048   -3.8415 H   0  0  0  0  0  0  0  0  0  0  0  0
    6.1480    8.6347   -4.3640 H   0  0  0  0  0  0  0  0  0  0  0  0
    2.3010    6.9117   -4.2315 H   0  0  0  0  0  0  0  0  0  0  0  0
    1.2156    4.7069   -4.0013 H   0  0  0  0  0  0  0  0  0  0  0  0
   -0.4922    1.4273   -2.8583 H   0  0  0  0  0  0  0  0  0  0  0  0
   -0.7068   -0.1157   -4.7196 H   0  0  0  0  0  0  0  0  0  0  0  0
   -0.5384    0.7572   -7.4445 H   0  0  0  0  0  0  0  0  0  0  0  0
    1.0913    1.1139   -8.1629 H   0  0  0  0  0  0  0  0  0  0  0  0
    0.0355   -0.1676   -8.8740 H   0  0  0  0  0  0  0  0  0  0  0  0
    3.3396    0.7533   -5.9321 H   0  0  0  0  0  0  0  0  0  0  0  0
    3.5867    2.2895   -4.0216 H   0  0  0  0  0  0  0  0  0  0  0  0
    2.2879    0.2993    2.0082 H   0  0  0  0  0  0  0  0  0  0  0  0
    2.1713   -2.9546    4.1982 H   0  0  0  0  0  0  0  0  0  0  0  0
    3.0283   -2.5762    6.4714 H   0  0  0  0  0  0  0  0  0  0  0  0
    4.8722   -1.8145    7.9484 H   0  0  0  0  0  0  0  0  0  0  0  0
    8.6874   -2.2480    7.2649 H   0  0  0  0  0  0  0  0  0  0  0  0
    9.3890   -2.2407    8.9156 H   0  0  0  0  0  0  0  0  0  0  0  0
    7.4955   -3.6021    9.7763 H   0  0  0  0  0  0  0  0  0  0  0  0
    8.3018   -4.4220    8.3826 H   0  0  0  0  0  0  0  0  0  0  0  0
    6.7222   -3.5882    8.1397 H   0  0  0  0  0  0  0  0  0  0  0  0
    8.1165    0.4651    6.2836 H   0  0  0  0  0  0  0  0  0  0  0  0
    7.0844    0.3587    4.0570 H   0  0  0  0  0  0  0  0  0  0  0  0
    5.4228   -0.6547    2.5586 H   0  0  0  0  0  0  0  0  0  0  0  0
    1.8719   -4.9137   -2.3279 H   0  0  0  0  0  0  0  0  0  0  0  0
    1.0953   -6.1062   -4.3645 H   0  0  0  0  0  0  0  0  0  0  0  0
    1.2767   -6.5102   -6.7869 H   0  0  0  0  0  0  0  0  0  0  0  0
    4.3505   -7.2248   -9.6137 H   0  0  0  0  0  0  0  0  0  0  0  0
    3.9285   -7.4248   -7.8731 H   0  0  0  0  0  0  0  0  0  0  0  0
    6.3941   -6.9030   -8.3499 H   0  0  0  0  0  0  0  0  0  0  0  0
    5.8877   -5.2839   -8.9631 H   0  0  0  0  0  0  0  0  0  0  0  0
    5.6151   -5.7389   -7.2293 H   0  0  0  0  0  0  0  0  0  0  0  0
    4.3326   -3.5064   -7.1021 H   0  0  0  0  0  0  0  0  0  0  0  0
    5.1377   -2.3631   -5.0880 H   0  0  0  0  0  0  0  0  0  0  0  0
    5.0464   -2.0171   -2.6680 H   0  0  0  0  0  0  0  0  0  0  0  0
    3.7551   -5.9588   -0.9602 H   0  0  0  0  0  0  0  0  0  0  0  0
    3.1857   -7.9876    0.5193 H   0  0  0  0  0  0  0  0  0  0  0  0
    4.0337   -7.1752    6.6266 H   0  0  0  0  0  0  0  0  0  0  0  0
    2.2421   -8.0886    8.0874 H   0  0  0  0  0  0  0  0  0  0  0  0
   -0.6750   -9.0003    7.2796 H   0  0  0  0  0  0  0  0  0  0  0  0
    0.4850   -9.7574    8.4410 H   0  0  0  0  0  0  0  0  0  0  0  0
   -0.1538  -10.7247    7.0698 H   0  0  0  0  0  0  0  0  0  0  0  0
    0.5527  -10.1868    4.7242 H   0  0  0  0  0  0  0  0  0  0  0  0
  1  2  2  3
  2  3  1  0
  3  4  2  0
  3  5  1  0
  5  6  2  0
  6  7  1  0
  7  8  2  0
  8  9  1  0
  8 10  1  0
 10 11  2  0
 11 12  1  0
 12 13  2  3
 13 14  1  0
 14 15  3  0
 13 16  1  0
 16 17  3  0
  1 18  1  0
 18 19  2  0
 19 20  1  0
 20 21  1  0
 21 22  2  0
 22 23  1  0
 23 24  2  0
 24 25  1  0
 25 26  2  0
 20 27  2  0
 27 28  1  0
 27 29  1  0
 29 30  2  0
 30 31  1  0
 31 32  1  0
 32 33  2  0
 33 34  1  0
 34 35  2  0
 35 36  1  0
 36 37  1  0
 35 38  1  0
 38 39  2  0
 31 40  1  0
 40 41  2  0
 41 42  1  0
 42 43  2  0
 43 44  1  0
 44 45  1  0
 43 46  1  0
 46 47  2  0
 30 48  1  0
 48 49  1  0
 49 50  1  0
 50 51  2  0
 51 52  1  0
 52 53  1  0
 53 54  2  0
 54 55  1  0
 55 56  2  0
 56 57  1  0
 57 58  1  0
 56 59  1  0
 59 60  2  0
 52 61  1  0
 61 62  2  0
 62 63  1  0
 63 64  2  0
 64 65  1  0
 65 66  1  0
 64 67  1  0
 67 68  2  0
 51 69  1  0
 69 70  1  0
 50 71  1  0
 71 72  2  0
 72 73  1  0
 73 74  2  0
 74 75  1  0
 75 76  2  0
 76 77  1  0
 77 78  2  0
 78 79  1  0
 79 80  2  0
 80 81  1  0
 81 82  1  0
 82 83  1  0
 80 84  1  0
 84 85  2  0
 85 86  1  0
 86 87  2  0
 74 88  1  0
 88 89  2  0
 89 90  1  0
 90 91  1  0
 91 92  2  0
 92 93  1  0
 93 94  2  0
 94 95  1  0
 95 96  2  0
 96 97  1  0
 97 98  1  0
 98 99  1  0
 96100  1  0
100101  2  0
101102  1  0
102103  2  0
 90104  2  0
104105  1  0
 89106  1  0
106107  2  0
107108  1  0
107109  1  0
109110  2  3
110111  1  0
111112  2  0
111113  1  0
113114  2  0
114115  1  0
115116  2  0
116117  1  0
116118  1  0
118119  2  0
119120  1  0
120121  2  3
121122  1  0
122123  3  0
121124  1  0
124125  3  0
 12  2  1  0
 28 18  1  0
 70 29  1  0
105 71  1  0
120110  1  0
 11  5  1  0
 26 21  1  0
 39 32  1  0
 47 40  1  0
 69 48  2  0
104 73  1  0
119113  1  0
 60 53  1  0
 68 61  1  0
 87 75  1  0
108 88  1  0
 86 78  1  0
103 91  1  0
101 93  1  0
  1126  1  0
  6127  1  0
  7128  1  0
  9129  1  0
  9130  1  0
  9131  1  0
 10132  1  0
 19133  1  0
 22134  1  0
 23135  1  0
 24136  1  0
 25137  1  0
 26138  1  0
 33139  1  0
 34140  1  0
 37141  1  0
 37142  1  0
 37143  1  0
 38144  1  0
 39145  1  0
 41146  1  0
 42147  1  0
 45148  1  0
 45149  1  0
 45150  1  0
 46151  1  0
 47152  1  0
 54153  1  0
 55154  1  0
 58155  1  0
 58156  1  0
 58157  1  0
 59158  1  0
 60159  1  0
 62160  1  0
 63161  1  0
 66162  1  0
 66163  1  0
 66164  1  0
 67165  1  0
 68166  1  0
 72167  1  0
 76168  1  0
 77169  1  0
 79170  1  0
 82171  1  0
 82172  1  0
 83173  1  0
 83174  1  0
 83175  1  0
 84176  1  0
 85177  1  0
 87178  1  0
 92179  1  0
 94180  1  0
 95181  1  0
 98182  1  0
 98183  1  0
 99184  1  0
 99185  1  0
 99186  1  0
100187  1  0
102188  1  0
103189  1  0
106190  1  0
109191  1  0
114192  1  0
115193  1  0
117194  1  0
117195  1  0
117196  1  0
118197  1  0
M  END

