
     RDKit          3D

113126  0  0  0  0  0  0  0  0999 V2000
   -1.9270    5.2871   -3.4072 C   0  0  0  0  0  0  0  0  0  0  0  0
   -3.0428    5.3803   -2.6581 C   0  0  0  0  0  0  0  0  0  0  0  0
   -3.3236    4.6018   -1.4455 C   0  0  0  0  0  0  0  0  0  0  0  0
   -2.4898    3.9512   -0.7621 O   0  0  0  0  0  0  0  0  0  0  0  0
   -4.7419    4.6764   -1.1751 C   0  0  0  0  0  0  0  0  0  0  0  0
   -5.4708    3.9966   -0.1991 C   0  0  0  0  0  0  0  0  0  0  0  0
   -6.8645    4.1390   -0.1810 C   0  0  0  0  0  0  0  0  0  0  0  0
   -7.5125    4.9211   -1.1588 C   0  0  0  0  0  0  0  0  0  0  0  0
   -9.0059    5.0602   -1.1360 C   0  0  0  0  0  0  0  0  0  0  0  0
   -6.7515    5.6070   -2.1277 C   0  0  0  0  0  0  0  0  0  0  0  0
   -5.3513    5.4935   -2.1110 C   0  0  0  0  0  0  0  0  0  0  0  0
   -4.3183    6.0769   -3.0159 C   0  0  0  0  0  0  0  0  0  0  0  0
   -4.4583    7.1612   -3.8245 C   0  0  0  0  0  0  0  0  0  0  0  0
   -3.3372    7.7883   -4.4721 C   0  0  0  0  0  0  0  0  0  0  0  0
   -2.4410    8.2976   -5.0024 N   0  0  0  0  0  0  0  0  0  0  0  0
   -5.7141    7.8432   -3.9983 C   0  0  0  0  0  0  0  0  0  0  0  0
   -6.7152    8.4043   -4.1485 N   0  0  0  0  0  0  0  0  0  0  0  0
   -0.7914    4.4453   -3.0257 C   0  0  0  0  0  0  0  0  0  0  0  0
    0.2983    4.8585   -2.2653 C   0  0  0  0  0  0  0  0  0  0  0  0
    1.1617    3.7962   -1.9387 C   0  0  0  0  0  0  0  0  0  0  0  0
    2.2822    3.8617   -1.0775 C   0  0  0  0  0  0  0  0  0  0  0  0
    2.7458    5.1363   -0.4942 C   0  0  0  0  0  0  0  0  0  0  0  0
    2.8430    5.4583    1.1549 S   0  0  0  0  0  0  0  0  0  0  0  0
    3.4132    7.0307    1.0016 C   0  0  0  0  0  0  0  0  0  0  0  0
    3.8513    7.8888    2.1501 C   0  0  0  0  0  0  0  0  0  0  0  0
    5.3197    7.6383    2.4749 C   0  0  0  0  0  0  0  0  0  0  0  0
    3.5545    7.3213   -0.3547 C   0  0  0  0  0  0  0  0  0  0  0  0
    4.1863    8.8464   -0.9545 Cl  0  0  0  0  0  0  0  0  0  0  0  0
    3.1727    6.2636   -1.1928 C   0  0  0  0  0  0  0  0  0  0  0  0
    3.3023    6.3296   -2.9467 Cl  0  0  0  0  0  0  0  0  0  0  0  0
    2.8954    2.6398   -0.7409 C   0  0  0  0  0  0  0  0  0  0  0  0
    2.4530    1.4184   -1.2538 C   0  0  0  0  0  0  0  0  0  0  0  0
    1.3464    1.3529   -2.1213 C   0  0  0  0  0  0  0  0  0  0  0  0
    0.7463    0.0648   -2.5016 C   0  0  0  0  0  0  0  0  0  0  0  0
    0.1706   -0.8383   -1.6166 C   0  0  0  0  0  0  0  0  0  0  0  0
   -0.2209   -2.0327   -2.2270 C   0  0  0  0  0  0  0  0  0  0  0  0
    0.0433   -2.0601   -3.5919 C   0  0  0  0  0  0  0  0  0  0  0  0
   -0.1546   -3.2409   -4.4877 C   0  0  0  0  0  0  0  0  0  0  0  0
    1.0430   -4.1832   -4.4024 C   0  0  0  0  0  0  0  0  0  0  0  0
    0.7857   -0.6155   -4.0391 S   0  0  0  0  0  0  0  0  0  0  0  0
    0.7282    2.5651   -2.4493 C   0  0  0  0  0  0  0  0  0  0  0  0
   -0.7066    2.7847   -3.2968 S   0  0  0  0  0  0  0  0  0  0  0  0
    3.1327    0.3173   -0.7213 C   0  0  0  0  0  0  0  0  0  0  0  0
    4.0844    0.6624    0.2278 C   0  0  0  0  0  0  0  0  0  0  0  0
    4.0949    2.3417    0.4103 S   0  0  0  0  0  0  0  0  0  0  0  0
    4.5312   -0.3142    1.2237 C   0  0  0  0  0  0  0  0  0  0  0  0
    3.5900   -0.7383    2.1727 C   0  0  0  0  0  0  0  0  0  0  0  0
    3.6702   -2.0145    2.7362 C   0  0  0  0  0  0  0  0  0  0  0  0
    4.6969   -2.9022    2.3653 C   0  0  0  0  0  0  0  0  0  0  0  0
    5.7520   -2.4071    1.5771 C   0  0  0  0  0  0  0  0  0  0  0  0
    6.8296   -3.1561    1.2280 N   0  0  0  0  0  0  0  0  0  0  0  0
    7.5983   -2.1119    0.2020 S   0  0  0  0  0  0  0  0  0  0  0  0
    6.6497   -0.7604    0.1288 N   0  0  0  0  0  0  0  0  0  0  0  0
    5.6590   -1.1118    0.9890 C   0  0  0  0  0  0  0  0  0  0  0  0
    4.4269   -4.3560    2.4719 C   0  0  0  0  0  0  0  0  0  0  0  0
    4.0268   -4.9350    3.6908 C   0  0  0  0  0  0  0  0  0  0  0  0
    3.3875   -6.2005    3.7298 C   0  0  0  0  0  0  0  0  0  0  0  0
    2.9244   -6.6000    5.0250 N   0  0  0  0  0  0  0  0  0  0  0  0
    3.3844   -5.3423    5.8947 S   0  0  0  0  0  4  0  0  0  0  0  0
    4.1065   -4.2687    4.9566 N   0  0  0  0  0  0  0  0  0  0  0  0
    3.1353   -6.9224    2.5556 C   0  0  0  0  0  0  0  0  0  0  0  0
    3.6069   -6.3973    1.3427 C   0  0  0  0  0  0  0  0  0  0  0  0
    3.3945   -7.0126    0.1482 N   0  0  0  0  0  0  0  0  0  0  0  0
    4.0211   -5.8909   -0.8899 S   0  0  0  0  0  0  0  0  0  0  0  0
    4.5485   -4.6465    0.0587 N   0  0  0  0  0  0  0  0  0  0  0  0
    4.2426   -5.1172    1.2979 C   0  0  0  0  0  0  0  0  0  0  0  0
    2.1869   -8.0497    2.5418 C   0  0  0  0  0  0  0  0  0  0  0  0
    0.8911   -7.8549    2.2314 C   0  0  0  0  0  0  0  0  0  0  0  0
    0.2883   -6.5469    1.9351 C   0  0  0  0  0  0  0  0  0  0  0  0
    0.6868   -5.4271    2.3485 O   0  0  0  0  0  0  0  0  0  0  0  0
   -0.8608   -6.7582    1.0874 C   0  0  0  0  0  0  0  0  0  0  0  0
   -1.6323   -5.7963    0.4387 C   0  0  0  0  0  0  0  0  0  0  0  0
   -2.6265   -6.2222   -0.4583 C   0  0  0  0  0  0  0  0  0  0  0  0
   -3.4818   -5.2124   -1.1668 C   0  0  0  0  0  0  0  0  0  0  0  0
   -2.8312   -7.6056   -0.6679 C   0  0  0  0  0  0  0  0  0  0  0  0
   -3.7826   -8.0313   -1.5383 F   0  0  0  0  0  0  0  0  0  0  0  0
   -2.0381   -8.5557    0.0001 C   0  0  0  0  0  0  0  0  0  0  0  0
   -1.0593   -8.1164    0.9041 C   0  0  0  0  0  0  0  0  0  0  0  0
   -0.0613   -8.8788    1.7096 C   0  0  0  0  0  0  0  0  0  0  0  0
   -0.1156  -10.1882    2.0596 C   0  0  0  0  0  0  0  0  0  0  0  0
    0.7661  -10.7405    3.0557 C   0  0  0  0  0  0  0  0  0  0  0  0
    1.4665  -11.1900    3.8601 N   0  0  0  0  0  0  0  0  0  0  0  0
   -1.1075  -11.0907    1.5411 C   0  0  0  0  0  0  0  0  0  0  0  0
   -1.8931  -11.8325    1.1292 N   0  0  0  0  0  0  0  0  0  0  0  0
   -1.8723    5.7482   -4.3793 H   0  0  0  0  0  0  0  0  0  0  0  0
   -4.9777    3.3627    0.5253 H   0  0  0  0  0  0  0  0  0  0  0  0
   -7.4414    3.6229    0.5774 H   0  0  0  0  0  0  0  0  0  0  0  0
   -9.4024    5.2091   -2.1617 H   0  0  0  0  0  0  0  0  0  0  0  0
   -9.2861    5.9337   -0.5113 H   0  0  0  0  0  0  0  0  0  0  0  0
   -9.4805    4.1462   -0.7161 H   0  0  0  0  0  0  0  0  0  0  0  0
   -7.2651    6.1769   -2.8839 H   0  0  0  0  0  0  0  0  0  0  0  0
    0.4203    5.8761   -1.9130 H   0  0  0  0  0  0  0  0  0  0  0  0
    3.2321    7.6494    3.0401 H   0  0  0  0  0  0  0  0  0  0  0  0
    3.7002    8.9610    1.9027 H   0  0  0  0  0  0  0  0  0  0  0  0
    5.6238    8.2813    3.3266 H   0  0  0  0  0  0  0  0  0  0  0  0
    5.9568    7.8768    1.5950 H   0  0  0  0  0  0  0  0  0  0  0  0
    5.4744    6.5737    2.7581 H   0  0  0  0  0  0  0  0  0  0  0  0
    0.0639   -0.6520   -0.5556 H   0  0  0  0  0  0  0  0  0  0  0  0
   -0.6588   -2.8586   -1.6830 H   0  0  0  0  0  0  0  0  0  0  0  0
   -1.0770   -3.7868   -4.1919 H   0  0  0  0  0  0  0  0  0  0  0  0
   -0.2796   -2.8936   -5.5360 H   0  0  0  0  0  0  0  0  0  0  0  0
    0.8776   -5.0538   -5.0708 H   0  0  0  0  0  0  0  0  0  0  0  0
    1.9699   -3.6564   -4.7195 H   0  0  0  0  0  0  0  0  0  0  0  0
    1.1684   -4.5551   -3.3614 H   0  0  0  0  0  0  0  0  0  0  0  0
    2.8738   -0.7121   -0.9324 H   0  0  0  0  0  0  0  0  0  0  0  0
    2.6954   -0.1487    2.3439 H   0  0  0  0  0  0  0  0  0  0  0  0
    2.8326   -2.3686    3.3265 H   0  0  0  0  0  0  0  0  0  0  0  0
    2.6141   -9.0415    2.5450 H   0  0  0  0  0  0  0  0  0  0  0  0
   -1.4449   -4.7419    0.6040 H   0  0  0  0  0  0  0  0  0  0  0  0
   -3.0028   -4.2086   -1.1624 H   0  0  0  0  0  0  0  0  0  0  0  0
   -3.6307   -5.5069   -2.2269 H   0  0  0  0  0  0  0  0  0  0  0  0
   -4.4686   -5.1428   -0.6627 H   0  0  0  0  0  0  0  0  0  0  0  0
   -2.1811   -9.5977   -0.2300 H   0  0  0  0  0  0  0  0  0  0  0  0
  1  2  2  3
  2  3  1  0
  3  4  2  0
  3  5  1  0
  5  6  2  0
  6  7  1  0
  7  8  2  0
  8  9  1  0
  8 10  1  0
 10 11  2  0
 11 12  1  0
 12 13  2  3
 13 14  1  0
 14 15  3  0
 13 16  1  0
 16 17  3  0
  1 18  1  0
 18 19  2  0
 19 20  1  0
 20 21  2  0
 21 22  1  0
 22 23  1  0
 23 24  1  0
 24 25  1  0
 25 26  1  0
 24 27  2  0
 27 28  1  0
 27 29  1  0
 29 30  1  0
 21 31  1  0
 31 32  2  0
 32 33  1  0
 33 34  1  0
 34 35  2  0
 35 36  1  0
 36 37  2  0
 37 38  1  0
 38 39  1  0
 37 40  1  0
 33 41  2  0
 41 42  1  0
 32 43  1  0
 43 44  2  0
 44 45  1  0
 44 46  1  0
 46 47  2  0
 47 48  1  0
 48 49  2  0
 49 50  1  0
 50 51  2  0
 51 52  1  0
 52 53  1  0
 53 54  2  0
 49 55  1  0
 55 56  2  0
 56 57  1  0
 57 58  1  0
 58 59  2  0
 59 60  2  0
 57 61  2  0
 61 62  1  0
 62 63  2  0
 63 64  1  0
 64 65  1  0
 65 66  2  0
 61 67  1  0
 67 68  2  3
 68 69  1  0
 69 70  2  0
 69 71  1  0
 71 72  2  0
 72 73  1  0
 73 74  1  0
 73 75  2  0
 75 76  1  0
 75 77  1  0
 77 78  2  0
 78 79  1  0
 79 80  2  3
 80 81  1  0
 81 82  3  0
 80 83  1  0
 83 84  3  0
 12  2  1  0
 42 18  1  0
 54 46  1  0
 66 55  1  0
 79 68  1  0
 11  5  1  0
 41 20  1  0
 54 50  1  0
 60 56  1  0
 66 62  1  0
 78 71  1  0
 29 22  2  0
 45 31  1  0
 40 34  1  0
  1 85  1  0
  6 86  1  0
  7 87  1  0
  9 88  1  0
  9 89  1  0
  9 90  1  0
 10 91  1  0
 19 92  1  0
 25 93  1  0
 25 94  1  0
 26 95  1  0
 26 96  1  0
 26 97  1  0
 35 98  1  0
 36 99  1  0
 38100  1  0
 38101  1  0
 39102  1  0
 39103  1  0
 39104  1  0
 43105  1  0
 47106  1  0
 48107  1  0
 67108  1  0
 72109  1  0
 74110  1  0
 74111  1  0
 74112  1  0
 77113  1  0
M  END

