
     RDKit          3D

168186  0  0  0  0  0  0  0  0999 V2000
    1.4081    3.3174   -4.8835 C   0  0  0  0  0  0  0  0  0  0  0  0
    0.1152    2.9710   -5.0282 C   0  0  0  0  0  0  0  0  0  0  0  0
   -0.6459    2.1370   -4.0860 C   0  0  0  0  0  0  0  0  0  0  0  0
   -0.1723    1.3903   -3.1890 O   0  0  0  0  0  0  0  0  0  0  0  0
   -2.0550    2.3359   -4.3355 C   0  0  0  0  0  0  0  0  0  0  0  0
   -3.1362    1.8628   -3.5981 C   0  0  0  0  0  0  0  0  0  0  0  0
   -4.4255    2.2851   -3.9496 C   0  0  0  0  0  0  0  0  0  0  0  0
   -4.6176    3.1673   -5.0335 C   0  0  0  0  0  0  0  0  0  0  0  0
   -5.9971    3.6611   -5.3743 C   0  0  0  0  0  0  0  0  0  0  0  0
   -3.5035    3.6425   -5.7559 C   0  0  0  0  0  0  0  0  0  0  0  0
   -2.2168    3.1980   -5.4090 C   0  0  0  0  0  0  0  0  0  0  0  0
   -0.8835    3.5731   -5.9622 C   0  0  0  0  0  0  0  0  0  0  0  0
   -0.6268    4.1471   -7.1659 C   0  0  0  0  0  0  0  0  0  0  0  0
    0.7074    4.2566   -7.6989 C   0  0  0  0  0  0  0  0  0  0  0  0
    1.7717    4.3544   -8.1414 N   0  0  0  0  0  0  0  0  0  0  0  0
   -1.6636    4.5878   -8.0602 C   0  0  0  0  0  0  0  0  0  0  0  0
   -2.4837    4.9413   -8.7993 N   0  0  0  0  0  0  0  0  0  0  0  0
    2.2703    2.7486   -3.8428 C   0  0  0  0  0  0  0  0  0  0  0  0
    2.8940    1.5064   -3.8941 C   0  0  0  0  0  0  0  0  0  0  0  0
    3.5147    1.1647   -2.6788 C   0  0  0  0  0  0  0  0  0  0  0  0
    4.1660   -0.0573   -2.4177 C   0  0  0  0  0  0  0  0  0  0  0  0
    4.5829   -0.9521   -3.5166 C   0  0  0  0  0  0  0  0  0  0  0  0
    5.5689   -0.4245   -4.7774 S   0  0  0  0  0  0  0  0  0  0  0  0
    5.7234   -1.9116   -5.5428 C   0  0  0  0  0  0  0  0  0  0  0  0
    6.5658   -2.1480   -6.7615 C   0  0  0  0  0  0  0  0  0  0  0  0
    5.7046   -2.3677   -7.9972 C   0  0  0  0  0  0  0  0  0  0  0  0
    4.9741   -2.8525   -4.8324 C   0  0  0  0  0  0  0  0  0  0  0  0
    4.8757   -4.5528   -5.2708 Cl  0  0  0  0  0  0  0  0  0  0  0  0
    4.3199   -2.3154   -3.7032 C   0  0  0  0  0  0  0  0  0  0  0  0
    3.2748   -3.2700   -2.6747 Cl  0  0  0  0  0  0  0  0  0  0  0  0
    4.5055   -0.3010   -1.0796 C   0  0  0  0  0  0  0  0  0  0  0  0
    4.2824    0.6302   -0.0562 C   0  0  0  0  0  0  0  0  0  0  0  0
    3.8561    1.9488   -0.3653 C   0  0  0  0  0  0  0  0  0  0  0  0
    4.0544    3.0733    0.5969 C   0  0  0  0  0  0  0  0  0  0  0  0
    5.0757    3.1346    1.5446 C   0  0  0  0  0  0  0  0  0  0  0  0
    5.1923    4.3696    2.1863 C   0  0  0  0  0  0  0  0  0  0  0  0
    4.2596    5.3061    1.7584 C   0  0  0  0  0  0  0  0  0  0  0  0
    4.3044    6.7693    2.0764 C   0  0  0  0  0  0  0  0  0  0  0  0
    5.3120    7.4833    1.1791 C   0  0  0  0  0  0  0  0  0  0  0  0
    3.3104    4.5912    0.5701 S   0  0  0  0  0  0  0  0  0  0  0  0
    3.3863    2.1445   -1.6823 C   0  0  0  0  0  0  0  0  0  0  0  0
    2.5132    3.4322   -2.3253 S   0  0  0  0  0  0  0  0  0  0  0  0
    4.4012    0.0760    1.2312 C   0  0  0  0  0  0  0  0  0  0  0  0
    4.7133   -1.2885    1.2259 C   0  0  0  0  0  0  0  0  0  0  0  0
    4.9884   -1.7396   -0.3799 S   0  0  0  0  0  0  0  0  0  0  0  0
    4.0049   -2.2071    2.1370 C   0  0  0  0  0  0  0  0  0  0  0  0
    2.9078   -2.9294    1.6721 C   0  0  0  0  0  0  0  0  0  0  0  0
    1.9427   -3.2064    2.6464 C   0  0  0  0  0  0  0  0  0  0  0  0
    0.6268   -3.6246    2.3664 C   0  0  0  0  0  0  0  0  0  0  0  0
    0.1590   -3.7692    0.9764 C   0  0  0  0  0  0  0  0  0  0  0  0
    0.6103   -4.7033    0.0486 C   0  0  0  0  0  0  0  0  0  0  0  0
    0.1491   -4.4423   -1.2492 C   0  0  0  0  0  0  0  0  0  0  0  0
   -0.6515   -3.3062   -1.3317 C   0  0  0  0  0  0  0  0  0  0  0  0
   -1.2037   -2.7074   -2.5470 C   0  0  0  0  0  0  0  0  0  0  0  0
   -0.5080   -2.7044   -3.6833 C   0  0  0  0  0  0  0  0  0  0  0  0
   -1.0212   -2.1230   -4.9298 C   0  0  0  0  0  0  0  0  0  0  0  0
   -2.3581   -1.9146   -5.2735 C   0  0  0  0  0  0  0  0  0  0  0  0
   -2.5232   -1.5383   -6.6118 C   0  0  0  0  0  0  0  0  0  0  0  0
   -1.3262   -1.4462   -7.3004 C   0  0  0  0  0  0  0  0  0  0  0  0
   -1.1588   -1.2136   -9.0698 S   0  0  0  0  0  0  0  0  0  0  0  0
   -1.1157   -3.0096   -9.3931 C   0  0  0  0  0  0  0  0  0  0  0  0
   -0.8397   -3.2812  -10.8631 C   0  0  0  0  0  0  0  0  0  0  0  0
   -0.0564   -1.8351   -6.2762 S   0  0  0  0  0  0  0  0  0  0  0  0
   -0.7953   -2.6282    0.1901 S   0  0  0  0  0  0  0  0  0  0  0  0
   -0.2972   -3.5479    3.4135 C   0  0  0  0  0  0  0  0  0  0  0  0
    0.0537   -3.1189    4.6956 C   0  0  0  0  0  0  0  0  0  0  0  0
    1.3974   -2.8120    5.0126 C   0  0  0  0  0  0  0  0  0  0  0  0
    1.8214   -2.6124    6.4219 C   0  0  0  0  0  0  0  0  0  0  0  0
    1.3277   -3.3420    7.5033 C   0  0  0  0  0  0  0  0  0  0  0  0
    1.9360   -3.0344    8.7210 C   0  0  0  0  0  0  0  0  0  0  0  0
    2.9523   -2.1008    8.6015 C   0  0  0  0  0  0  0  0  0  0  0  0
    3.7255   -1.5638    9.7304 C   0  0  0  0  0  0  0  0  0  0  0  0
    5.0590   -1.4392    9.7680 C   0  0  0  0  0  0  0  0  0  0  0  0
    6.0105   -1.9414    8.7581 C   0  0  0  0  0  0  0  0  0  0  0  0
    7.3100   -1.4593    8.6204 C   0  0  0  0  0  0  0  0  0  0  0  0
    8.0611   -2.1486    7.6634 C   0  0  0  0  0  0  0  0  0  0  0  0
    7.3649   -3.1936    7.0733 C   0  0  0  0  0  0  0  0  0  0  0  0
    8.0361   -4.3244    5.8558 S   0  0  0  0  0  0  0  0  0  0  0  0
    7.1257   -3.6299    4.4326 C   0  0  0  0  0  0  0  0  0  0  0  0
    7.5418   -2.1920    4.1221 C   0  0  0  0  0  0  0  0  0  0  0  0
    5.8232   -3.2803    7.7393 S   0  0  0  0  0  0  0  0  0  0  0  0
    3.0365   -1.5930    6.9955 S   0  0  0  0  0  0  0  0  0  0  0  0
    2.3061   -2.7812    3.9285 C   0  0  0  0  0  0  0  0  0  0  0  0
    3.7881   -1.9774    3.8016 S   0  0  0  0  0  0  0  0  0  0  0  0
   -1.0718   -2.8113    5.4889 C   0  0  0  0  0  0  0  0  0  0  0  0
   -2.2851   -3.0243    4.8298 C   0  0  0  0  0  0  0  0  0  0  0  0
   -1.9725   -3.5968    3.2866 S   0  0  0  0  0  0  0  0  0  0  0  0
   -3.5032   -2.2490    5.1013 C   0  0  0  0  0  0  0  0  0  0  0  0
   -4.5398   -2.7465    5.9026 C   0  0  0  0  0  0  0  0  0  0  0  0
   -5.7453   -2.0257    6.0675 C   0  0  0  0  0  0  0  0  0  0  0  0
   -6.7141   -2.6742    6.8974 N   0  0  0  0  0  0  0  0  0  0  0  0
   -5.9232   -4.0088    7.2842 S   0  0  0  0  0  4  0  0  0  0  0  0
   -4.4867   -4.0039    6.5936 N   0  0  0  0  0  0  0  0  0  0  0  0
   -5.9633   -0.8013    5.4080 C   0  0  0  0  0  0  0  0  0  0  0  0
   -4.8944   -0.2643    4.6593 C   0  0  0  0  0  0  0  0  0  0  0  0
   -4.9471    0.9576    4.0701 N   0  0  0  0  0  0  0  0  0  0  0  0
   -3.4599    1.0172    3.3535 S   0  0  0  0  0  0  0  0  0  0  0  0
   -2.7145   -0.4028    3.7442 N   0  0  0  0  0  0  0  0  0  0  0  0
   -3.6785   -0.9939    4.4938 C   0  0  0  0  0  0  0  0  0  0  0  0
   -7.2584   -0.0965    5.5654 C   0  0  0  0  0  0  0  0  0  0  0  0
   -7.9413    0.5009    4.5684 C   0  0  0  0  0  0  0  0  0  0  0  0
   -8.8869    1.5888    4.8185 C   0  0  0  0  0  0  0  0  0  0  0  0
   -9.4121    1.8724    5.9297 O   0  0  0  0  0  0  0  0  0  0  0  0
   -9.0232    2.3597    3.6020 C   0  0  0  0  0  0  0  0  0  0  0  0
   -9.6936    3.5680    3.4120 C   0  0  0  0  0  0  0  0  0  0  0  0
   -9.6010    4.2046    2.1591 C   0  0  0  0  0  0  0  0  0  0  0  0
  -10.3433    5.4896    1.9406 C   0  0  0  0  0  0  0  0  0  0  0  0
   -8.8299    3.6148    1.1307 C   0  0  0  0  0  0  0  0  0  0  0  0
   -8.7225    4.2207   -0.0778 F   0  0  0  0  0  0  0  0  0  0  0  0
   -8.1538    2.4028    1.3502 C   0  0  0  0  0  0  0  0  0  0  0  0
   -8.2830    1.7632    2.5923 C   0  0  0  0  0  0  0  0  0  0  0  0
   -7.6945    0.4939    3.0928 C   0  0  0  0  0  0  0  0  0  0  0  0
   -7.3544   -0.5795    2.3388 C   0  0  0  0  0  0  0  0  0  0  0  0
   -7.2188   -1.8987    2.9050 C   0  0  0  0  0  0  0  0  0  0  0  0
   -7.1137   -2.9636    3.3458 N   0  0  0  0  0  0  0  0  0  0  0  0
   -7.2928   -0.5282    0.9009 C   0  0  0  0  0  0  0  0  0  0  0  0
   -7.2492   -0.4978   -0.2549 N   0  0  0  0  0  0  0  0  0  0  0  0
    1.8361    4.1221   -5.4577 H   0  0  0  0  0  0  0  0  0  0  0  0
   -2.9888    1.2070   -2.7562 H   0  0  0  0  0  0  0  0  0  0  0  0
   -5.2723    1.9468   -3.3644 H   0  0  0  0  0  0  0  0  0  0  0  0
   -6.1465    4.6804   -4.9570 H   0  0  0  0  0  0  0  0  0  0  0  0
   -6.7777    2.9847   -4.9605 H   0  0  0  0  0  0  0  0  0  0  0  0
   -6.1283    3.7024   -6.4776 H   0  0  0  0  0  0  0  0  0  0  0  0
   -3.6686    4.3649   -6.5418 H   0  0  0  0  0  0  0  0  0  0  0  0
    2.8484    0.8563   -4.7579 H   0  0  0  0  0  0  0  0  0  0  0  0
    7.1960   -1.2475   -6.9333 H   0  0  0  0  0  0  0  0  0  0  0  0
    7.2409   -3.0159   -6.5994 H   0  0  0  0  0  0  0  0  0  0  0  0
    5.2122   -3.3620   -7.9404 H   0  0  0  0  0  0  0  0  0  0  0  0
    6.3414   -2.3502   -8.9111 H   0  0  0  0  0  0  0  0  0  0  0  0
    4.9228   -1.5787   -8.0887 H   0  0  0  0  0  0  0  0  0  0  0  0
    5.7864    2.3349    1.7110 H   0  0  0  0  0  0  0  0  0  0  0  0
    5.9738    4.5880    2.9012 H   0  0  0  0  0  0  0  0  0  0  0  0
    3.2956    7.2125    1.9342 H   0  0  0  0  0  0  0  0  0  0  0  0
    4.6013    6.9046    3.1372 H   0  0  0  0  0  0  0  0  0  0  0  0
    6.2663    6.9171    1.1302 H   0  0  0  0  0  0  0  0  0  0  0  0
    4.9014    7.5823    0.1521 H   0  0  0  0  0  0  0  0  0  0  0  0
    5.5236    8.4939    1.5841 H   0  0  0  0  0  0  0  0  0  0  0  0
    4.0566    0.5889    2.1238 H   0  0  0  0  0  0  0  0  0  0  0  0
    2.7310   -3.0698    0.6185 H   0  0  0  0  0  0  0  0  0  0  0  0
    1.2798   -5.5188    0.2909 H   0  0  0  0  0  0  0  0  0  0  0  0
    0.4047   -5.0567   -2.1021 H   0  0  0  0  0  0  0  0  0  0  0  0
   -2.1484   -2.1867   -2.4777 H   0  0  0  0  0  0  0  0  0  0  0  0
    0.4866   -3.1338   -3.7031 H   0  0  0  0  0  0  0  0  0  0  0  0
   -3.1862   -2.0859   -4.6065 H   0  0  0  0  0  0  0  0  0  0  0  0
   -3.4886   -1.3876   -7.0759 H   0  0  0  0  0  0  0  0  0  0  0  0
   -0.3098   -3.4787   -8.7884 H   0  0  0  0  0  0  0  0  0  0  0  0
   -2.0925   -3.4642   -9.1095 H   0  0  0  0  0  0  0  0  0  0  0  0
   -1.6137   -2.7924  -11.4944 H   0  0  0  0  0  0  0  0  0  0  0  0
    0.1638   -2.8867  -11.1370 H   0  0  0  0  0  0  0  0  0  0  0  0
   -0.8649   -4.3796  -11.0420 H   0  0  0  0  0  0  0  0  0  0  0  0
    0.5488   -4.0901    7.4157 H   0  0  0  0  0  0  0  0  0  0  0  0
    1.6650   -3.5119    9.6554 H   0  0  0  0  0  0  0  0  0  0  0  0
    3.1671   -1.2458   10.6027 H   0  0  0  0  0  0  0  0  0  0  0  0
    5.4843   -0.9436   10.6310 H   0  0  0  0  0  0  0  0  0  0  0  0
    7.7145   -0.6507    9.2188 H   0  0  0  0  0  0  0  0  0  0  0  0
    9.0901   -1.9125    7.4346 H   0  0  0  0  0  0  0  0  0  0  0  0
    6.0358   -3.6758    4.6263 H   0  0  0  0  0  0  0  0  0  0  0  0
    7.3396   -4.2597    3.5418 H   0  0  0  0  0  0  0  0  0  0  0  0
    8.6470   -2.1317    4.0418 H   0  0  0  0  0  0  0  0  0  0  0  0
    7.0811   -1.8757    3.1667 H   0  0  0  0  0  0  0  0  0  0  0  0
    7.1974   -1.5076    4.9273 H   0  0  0  0  0  0  0  0  0  0  0  0
   -1.0083   -2.2897    6.4335 H   0  0  0  0  0  0  0  0  0  0  0  0
   -7.6100    0.0311    6.5784 H   0  0  0  0  0  0  0  0  0  0  0  0
  -10.2530    4.0117    4.2238 H   0  0  0  0  0  0  0  0  0  0  0  0
  -10.2543    6.1444    2.8348 H   0  0  0  0  0  0  0  0  0  0  0  0
  -11.4130    5.2735    1.7452 H   0  0  0  0  0  0  0  0  0  0  0  0
   -9.9322    6.0513    1.0737 H   0  0  0  0  0  0  0  0  0  0  0  0
   -7.5202    2.0126    0.5705 H   0  0  0  0  0  0  0  0  0  0  0  0
  1  2  2  3
  2  3  1  0
  3  4  2  0
  3  5  1  0
  5  6  2  0
  6  7  1  0
  7  8  2  0
  8  9  1  0
  8 10  1  0
 10 11  2  0
 11 12  1  0
 12 13  2  3
 13 14  1  0
 14 15  3  0
 13 16  1  0
 16 17  3  0
  1 18  1  0
 18 19  2  0
 19 20  1  0
 20 21  2  0
 21 22  1  0
 22 23  1  0
 23 24  1  0
 24 25  1  0
 25 26  1  0
 24 27  2  0
 27 28  1  0
 27 29  1  0
 29 30  1  0
 21 31  1  0
 31 32  2  0
 32 33  1  0
 33 34  1  0
 34 35  2  0
 35 36  1  0
 36 37  2  0
 37 38  1  0
 38 39  1  0
 37 40  1  0
 33 41  2  0
 41 42  1  0
 32 43  1  0
 43 44  2  0
 44 45  1  0
 44 46  1  0
 46 47  2  0
 47 48  1  0
 48 49  2  0
 49 50  1  0
 50 51  2  0
 51 52  1  0
 52 53  2  0
 53 54  1  0
 54 55  2  3
 55 56  1  0
 56 57  2  0
 57 58  1  0
 58 59  2  0
 59 60  1  0
 60 61  1  0
 61 62  1  0
 59 63  1  0
 53 64  1  0
 49 65  1  0
 65 66  2  0
 66 67  1  0
 67 68  1  0
 68 69  2  0
 69 70  1  0
 70 71  2  0
 71 72  1  0
 72 73  2  3
 73 74  1  0
 74 75  2  0
 75 76  1  0
 76 77  2  0
 77 78  1  0
 78 79  1  0
 79 80  1  0
 77 81  1  0
 71 82  1  0
 67 83  2  0
 83 84  1  0
 66 85  1  0
 85 86  2  0
 86 87  1  0
 86 88  1  0
 88 89  2  0
 89 90  1  0
 90 91  1  0
 91 92  2  0
 92 93  2  0
 90 94  2  0
 94 95  1  0
 95 96  2  0
 96 97  1  0
 97 98  1  0
 98 99  2  0
 94100  1  0
100101  2  3
101102  1  0
102103  2  0
102104  1  0
104105  2  0
105106  1  0
106107  1  0
106108  2  0
108109  1  0
108110  1  0
110111  2  0
111112  1  0
112113  2  3
113114  1  0
114115  3  0
113116  1  0
116117  3  0
 12  2  1  0
 42 18  1  0
 84 46  1  0
 99 88  1  0
112101  1  0
 11  5  1  0
 41 20  1  0
 83 48  1  0
 93 89  1  0
 99 95  1  0
111104  1  0
 29 22  2  0
 45 31  1  0
 64 50  1  0
 87 65  1  0
 40 34  1  0
 63 56  1  0
 82 68  1  0
 81 74  1  0
  1118  1  0
  6119  1  0
  7120  1  0
  9121  1  0
  9122  1  0
  9123  1  0
 10124  1  0
 19125  1  0
 25126  1  0
 25127  1  0
 26128  1  0
 26129  1  0
 26130  1  0
 35131  1  0
 36132  1  0
 38133  1  0
 38134  1  0
 39135  1  0
 39136  1  0
 39137  1  0
 43138  1  0
 47139  1  0
 51140  1  0
 52141  1  0
 54142  1  0
 55143  1  0
 57144  1  0
 58145  1  0
 61146  1  0
 61147  1  0
 62148  1  0
 62149  1  0
 62150  1  0
 69151  1  0
 70152  1  0
 72153  1  0
 73154  1  0
 75155  1  0
 76156  1  0
 79157  1  0
 79158  1  0
 80159  1  0
 80160  1  0
 80161  1  0
 85162  1  0
100163  1  0
105164  1  0
107165  1  0
107166  1  0
107167  1  0
110168  1  0
M  END

