
     RDKit          3D

181196  0  0  0  0  0  0  0  0999 V2000
    6.5947   -1.3835    0.3601 C   0  0  0  0  0  0  0  0  0  0  0  0
    7.1179   -2.6194    0.3683 C   0  0  0  0  0  0  0  0  0  0  0  0
    6.7347   -3.6586    1.2376 C   0  0  0  0  0  0  0  0  0  0  0  0
    5.8050   -3.6245    2.1532 O   0  0  0  0  0  0  0  0  0  0  0  0
    7.2281   -4.9304    0.8169 C   0  0  0  0  0  0  0  0  0  0  0  0
    6.6498   -6.1245    1.0335 C   0  0  0  0  0  0  0  0  0  0  0  0
    6.8767   -7.2306    0.2515 C   0  0  0  0  0  0  0  0  0  0  0  0
    7.8416   -7.0998   -0.7336 C   0  0  0  0  0  0  0  0  0  0  0  0
    7.9518   -8.2836   -1.6847 C   0  0  0  0  0  0  0  0  0  0  0  0
    8.4483   -5.8393   -0.9622 C   0  0  0  0  0  0  0  0  0  0  0  0
    8.0600   -4.6728   -0.2545 C   0  0  0  0  0  0  0  0  0  0  0  0
    8.0353   -3.2151   -0.5932 C   0  0  0  0  0  0  0  0  0  0  0  0
    7.9447   -3.0111   -1.8749 C   0  0  0  0  0  0  0  0  0  0  0  0
    9.0768   -3.2011   -2.7345 C   0  0  0  0  0  0  0  0  0  0  0  0
    9.9131   -3.4316   -3.4843 N   0  0  0  0  0  0  0  0  0  0  0  0
    6.7225   -3.5912   -2.4818 C   0  0  0  0  0  0  0  0  0  0  0  0
    5.8178   -3.8441   -3.0827 N   0  0  0  0  0  0  0  0  0  0  0  0
    5.4672   -0.8468    1.2496 C   0  0  0  0  0  0  0  0  0  0  0  0
    4.1995   -1.4737    1.2442 C   0  0  0  0  0  0  0  0  0  0  0  0
    3.8549   -2.7184   -0.0471 S   0  0  0  0  0  0  0  0  0  0  0  0
    2.5020   -3.9402    0.3044 C   0  0  0  0  0  0  0  0  0  0  0  0
    2.6899   -4.8556    1.5100 C   0  0  0  0  0  0  0  0  0  0  0  0
    3.1344   -0.9082    1.9636 C   0  0  0  0  0  0  0  0  0  0  0  0
    1.7604   -2.0165    2.5163 S   0  0  0  0  0  0  0  0  0  0  0  0
    2.3209   -2.4861    4.2117 C   0  0  0  0  0  0  0  0  0  0  0  0
    2.3997   -1.2902    5.1088 C   0  0  0  0  0  0  0  0  0  0  0  0
    3.2375    0.3566    2.5302 C   0  0  0  0  0  0  0  0  0  0  0  0
    4.5181    0.9695    2.6115 C   0  0  0  0  0  0  0  0  0  0  0  0
    5.6463    0.3553    1.9949 C   0  0  0  0  0  0  0  0  0  0  0  0
    6.9786    0.9599    2.1976 C   0  0  0  0  0  0  0  0  0  0  0  0
    8.0017    0.2922    1.9089 O   0  0  0  0  0  0  0  0  0  0  0  0
    7.0934    2.2863    2.8570 C   0  0  0  0  0  0  0  0  0  0  0  0
    6.0135    2.9291    3.3861 C   0  0  0  0  0  0  0  0  0  0  0  0
    4.6920    2.2619    3.3498 C   0  0  0  0  0  0  0  0  0  0  0  0
    3.7493    2.7807    4.0049 O   0  0  0  0  0  0  0  0  0  0  0  0
    6.2698    4.1385    3.9981 C   0  0  0  0  0  0  0  0  0  0  0  0
    7.9216    4.3797    3.8555 S   0  0  0  0  0  0  0  0  0  0  0  0
    8.2715    2.9858    3.0156 C   0  0  0  0  0  0  0  0  0  0  0  0
    2.0433    1.2399    2.8719 C   0  0  0  0  0  0  0  0  0  0  0  0
    1.4049    1.9872    1.9341 C   0  0  0  0  0  0  0  0  0  0  0  0
    1.8533    3.3193    1.5080 N   0  0  0  0  0  0  0  0  0  0  0  0
    1.4080    4.5465    2.1769 C   0  0  0  0  0  0  0  0  0  0  0  0
    2.2622    5.4501    2.7972 C   0  0  0  0  0  0  0  0  0  0  0  0
    1.9096    6.7764    3.1074 C   0  0  0  0  0  0  0  0  0  0  0  0
    0.5599    7.1862    2.8135 C   0  0  0  0  0  0  0  0  0  0  0  0
    0.0199    8.8244    3.4026 S   0  0  0  0  0  0  0  0  0  0  0  0
   -1.4530    9.2396    2.3888 C   0  0  0  0  0  0  0  0  0  0  0  0
   -0.3194    6.2456    2.3160 C   0  0  0  0  0  0  0  0  0  0  0  0
    0.0837    5.0088    1.8931 C   0  0  0  0  0  0  0  0  0  0  0  0
    2.4852    3.5574    0.2063 C   0  0  0  0  0  0  0  0  0  0  0  0
    2.8825    4.8904   -0.1949 C   0  0  0  0  0  0  0  0  0  0  0  0
    3.3274    5.1040   -1.4924 C   0  0  0  0  0  0  0  0  0  0  0  0
    3.3785    4.1128   -2.4536 C   0  0  0  0  0  0  0  0  0  0  0  0
    4.0785    4.3766   -4.1107 S   0  0  0  0  0  0  0  0  0  0  0  0
    3.4906    6.0734   -4.4543 C   0  0  0  0  0  0  0  0  0  0  0  0
    3.0736    2.7885   -2.0301 C   0  0  0  0  0  0  0  0  0  0  0  0
    2.6755    2.5621   -0.7143 C   0  0  0  0  0  0  0  0  0  0  0  0
    0.0924    1.5979    2.0030 C   0  0  0  0  0  0  0  0  0  0  0  0
   -0.7755    1.9437    0.2219 S   0  0  0  0  0  0  0  0  0  0  0  0
   -2.2608    1.1556   -0.0143 C   0  0  0  0  0  0  0  0  0  0  0  0
   -2.1987    1.2406    1.3336 C   0  0  0  0  0  0  0  0  0  0  0  0
   -2.8823    0.4165    2.2918 N   0  0  0  0  0  0  0  0  0  0  0  0
   -3.3522   -0.9141    1.8087 C   0  0  0  0  0  0  0  0  0  0  0  0
   -4.7196   -1.0913    1.5019 C   0  0  0  0  0  0  0  0  0  0  0  0
   -5.1723   -2.1675    0.7323 C   0  0  0  0  0  0  0  0  0  0  0  0
   -4.2576   -3.0939    0.2527 C   0  0  0  0  0  0  0  0  0  0  0  0
   -4.8611   -4.3655   -0.8662 S   0  0  0  0  0  0  0  0  0  0  0  0
   -5.3783   -5.4953    0.4541 C   0  0  0  0  0  0  0  0  0  0  0  0
   -2.8826   -2.9232    0.4645 C   0  0  0  0  0  0  0  0  0  0  0  0
   -2.4331   -1.8478    1.2949 C   0  0  0  0  0  0  0  0  0  0  0  0
   -3.3003    0.9604    3.5357 C   0  0  0  0  0  0  0  0  0  0  0  0
   -2.3907    1.7243    4.3310 C   0  0  0  0  0  0  0  0  0  0  0  0
   -2.7983    2.2336    5.5578 C   0  0  0  0  0  0  0  0  0  0  0  0
   -4.1337    2.1469    5.9787 C   0  0  0  0  0  0  0  0  0  0  0  0
   -4.7077    2.8015    7.6041 S   0  0  0  0  0  0  0  0  0  0  0  0
   -3.2023    3.4764    8.3811 C   0  0  0  0  0  0  0  0  0  0  0  0
   -5.0902    1.5572    5.1446 C   0  0  0  0  0  0  0  0  0  0  0  0
   -4.6896    0.9516    3.9577 C   0  0  0  0  0  0  0  0  0  0  0  0
   -0.8290    1.6766    1.2072 C   0  0  0  0  0  0  0  0  0  0  0  0
    0.3475    1.0630    2.6352 S   0  0  0  0  0  0  0  0  0  0  0  0
   -2.8646    0.3606   -1.0983 C   0  0  0  0  0  0  0  0  0  0  0  0
   -4.1945    0.6937   -1.3989 C   0  0  0  0  0  0  0  0  0  0  0  0
   -5.1832    1.6898   -0.2897 S   0  0  0  0  0  0  0  0  0  0  0  0
   -4.9806    3.2876   -1.0975 C   0  0  0  0  0  0  0  0  0  0  0  0
   -3.7835    4.0560   -0.5767 C   0  0  0  0  0  0  0  0  0  0  0  0
   -4.8276    0.0913   -2.5103 C   0  0  0  0  0  0  0  0  0  0  0  0
   -6.5400    0.5260   -2.9358 S   0  0  0  0  0  0  0  0  0  0  0  0
   -7.4886   -0.7110   -1.9734 C   0  0  0  0  0  0  0  0  0  0  0  0
   -7.2415   -2.1435   -2.4253 C   0  0  0  0  0  0  0  0  0  0  0  0
   -4.1093   -0.7600   -3.3906 C   0  0  0  0  0  0  0  0  0  0  0  0
   -2.7471   -1.0860   -3.0976 C   0  0  0  0  0  0  0  0  0  0  0  0
   -2.1151   -0.4999   -1.9729 C   0  0  0  0  0  0  0  0  0  0  0  0
   -0.7386   -0.9426   -1.7089 C   0  0  0  0  0  0  0  0  0  0  0  0
   -0.1591   -0.5412   -0.6764 O   0  0  0  0  0  0  0  0  0  0  0  0
   -0.0139   -1.8528   -2.5726 C   0  0  0  0  0  0  0  0  0  0  0  0
   -0.6197   -2.4415   -3.6593 C   0  0  0  0  0  0  0  0  0  0  0  0
   -2.0004   -2.0699   -3.9900 C   0  0  0  0  0  0  0  0  0  0  0  0
   -2.5440   -2.5515   -5.0156 O   0  0  0  0  0  0  0  0  0  0  0  0
    0.1730   -3.3040   -4.4115 C   0  0  0  0  0  0  0  0  0  0  0  0
    1.6468   -3.3229   -3.6821 S   0  0  0  0  0  0  0  0  0  0  0  0
    1.2946   -2.2509   -2.4394 C   0  0  0  0  0  0  0  0  0  0  0  0
   -4.8105   -1.4092   -4.5138 C   0  0  0  0  0  0  0  0  0  0  0  0
   -5.2223   -0.7613   -5.6198 C   0  0  0  0  0  0  0  0  0  0  0  0
   -5.0686    0.6348   -5.8454 C   0  0  0  0  0  0  0  0  0  0  0  0
   -4.2259    1.3877   -5.2847 O   0  0  0  0  0  0  0  0  0  0  0  0
   -6.0346    1.0871   -6.8531 C   0  0  0  0  0  0  0  0  0  0  0  0
   -6.2364    2.3939   -7.2616 C   0  0  0  0  0  0  0  0  0  0  0  0
   -5.2897    3.7434   -6.6650 Cl  0  0  0  0  0  0  0  0  0  0  0  0
   -7.2468    2.6491   -8.2058 C   0  0  0  0  0  0  0  0  0  0  0  0
   -7.5565    4.3147   -8.7809 Cl  0  0  0  0  0  0  0  0  0  0  0  0
   -7.9941    1.5599   -8.7244 C   0  0  0  0  0  0  0  0  0  0  0  0
   -9.2701    1.8764   -9.8943 Cl  0  0  0  0  0  0  0  0  0  0  0  0
   -7.6943    0.2406   -8.3722 C   0  0  0  0  0  0  0  0  0  0  0  0
   -8.3301   -1.0126   -9.3945 Cl  0  0  0  0  0  0  0  0  0  0  0  0
   -6.7207   -0.0075   -7.3172 C   0  0  0  0  0  0  0  0  0  0  0  0
   -6.2668   -1.2512   -6.6143 C   0  0  0  0  0  0  0  0  0  0  0  0
   -6.6295   -2.5506   -6.7386 C   0  0  0  0  0  0  0  0  0  0  0  0
   -5.8965   -3.6371   -6.1487 C   0  0  0  0  0  0  0  0  0  0  0  0
   -5.3064   -4.5340   -5.6670 N   0  0  0  0  0  0  0  0  0  0  0  0
   -7.8670   -3.0073   -7.3248 C   0  0  0  0  0  0  0  0  0  0  0  0
   -8.8245   -3.4123   -7.7843 N   0  0  0  0  0  0  0  0  0  0  0  0
    7.1709   -0.7835   -0.3873 H   0  0  0  0  0  0  0  0  0  0  0  0
    5.7440   -6.1114    1.5646 H   0  0  0  0  0  0  0  0  0  0  0  0
    6.2407   -8.0576    0.3802 H   0  0  0  0  0  0  0  0  0  0  0  0
    7.7376   -7.9910   -2.7037 H   0  0  0  0  0  0  0  0  0  0  0  0
    8.9198   -8.7563   -1.6508 H   0  0  0  0  0  0  0  0  0  0  0  0
    7.1852   -9.0591   -1.4758 H   0  0  0  0  0  0  0  0  0  0  0  0
    9.2145   -5.8007   -1.7228 H   0  0  0  0  0  0  0  0  0  0  0  0
    2.4709   -4.6036   -0.5816 H   0  0  0  0  0  0  0  0  0  0  0  0
    1.4812   -3.4931    0.3074 H   0  0  0  0  0  0  0  0  0  0  0  0
    1.7271   -4.9139    2.1004 H   0  0  0  0  0  0  0  0  0  0  0  0
    3.4776   -4.4970    2.1934 H   0  0  0  0  0  0  0  0  0  0  0  0
    2.8951   -5.8964    1.2120 H   0  0  0  0  0  0  0  0  0  0  0  0
    1.6530   -3.2500    4.6711 H   0  0  0  0  0  0  0  0  0  0  0  0
    3.2879   -2.9899    4.1833 H   0  0  0  0  0  0  0  0  0  0  0  0
    3.3109   -0.7620    4.8989 H   0  0  0  0  0  0  0  0  0  0  0  0
    2.4190   -1.5608    6.1831 H   0  0  0  0  0  0  0  0  0  0  0  0
    1.5607   -0.6358    4.9012 H   0  0  0  0  0  0  0  0  0  0  0  0
    5.6066    4.8184    4.5709 H   0  0  0  0  0  0  0  0  0  0  0  0
    9.2541    2.7271    2.7057 H   0  0  0  0  0  0  0  0  0  0  0  0
    3.2983    5.2035    3.0237 H   0  0  0  0  0  0  0  0  0  0  0  0
    2.5974    7.4846    3.5553 H   0  0  0  0  0  0  0  0  0  0  0  0
   -1.1877    9.9790    1.6074 H   0  0  0  0  0  0  0  0  0  0  0  0
   -1.9523    8.3832    1.9239 H   0  0  0  0  0  0  0  0  0  0  0  0
   -2.1745    9.7043    3.0854 H   0  0  0  0  0  0  0  0  0  0  0  0
   -1.3716    6.4703    2.0482 H   0  0  0  0  0  0  0  0  0  0  0  0
   -0.5355    4.3877    1.3563 H   0  0  0  0  0  0  0  0  0  0  0  0
    2.8002    5.7509    0.4292 H   0  0  0  0  0  0  0  0  0  0  0  0
    3.6423    6.1129   -1.7558 H   0  0  0  0  0  0  0  0  0  0  0  0
    4.0107    6.8012   -3.7917 H   0  0  0  0  0  0  0  0  0  0  0  0
    2.3833    6.1485   -4.3297 H   0  0  0  0  0  0  0  0  0  0  0  0
    3.7647    6.3255   -5.4975 H   0  0  0  0  0  0  0  0  0  0  0  0
    3.1784    1.9469   -2.7147 H   0  0  0  0  0  0  0  0  0  0  0  0
    2.4942    1.5674   -0.4014 H   0  0  0  0  0  0  0  0  0  0  0  0
   -5.3594   -0.2704    1.5045 H   0  0  0  0  0  0  0  0  0  0  0  0
   -6.2396   -2.2664    0.5539 H   0  0  0  0  0  0  0  0  0  0  0  0
   -4.5681   -5.6003    1.2065 H   0  0  0  0  0  0  0  0  0  0  0  0
   -5.6049   -6.4938    0.0273 H   0  0  0  0  0  0  0  0  0  0  0  0
   -6.2956   -5.0935    0.9391 H   0  0  0  0  0  0  0  0  0  0  0  0
   -2.2057   -3.6425    0.0064 H   0  0  0  0  0  0  0  0  0  0  0  0
   -1.3924   -1.7189    1.3654 H   0  0  0  0  0  0  0  0  0  0  0  0
   -1.3990    1.9990    4.0644 H   0  0  0  0  0  0  0  0  0  0  0  0
   -2.0496    2.6967    6.1350 H   0  0  0  0  0  0  0  0  0  0  0  0
   -2.3098    2.8356    8.2354 H   0  0  0  0  0  0  0  0  0  0  0  0
   -3.4046    3.5035    9.4691 H   0  0  0  0  0  0  0  0  0  0  0  0
   -3.0319    4.5130    8.0296 H   0  0  0  0  0  0  0  0  0  0  0  0
   -6.1480    1.5629    5.3955 H   0  0  0  0  0  0  0  0  0  0  0  0
   -5.4546    0.4778    3.3898 H   0  0  0  0  0  0  0  0  0  0  0  0
   -5.8963    3.8652   -0.8824 H   0  0  0  0  0  0  0  0  0  0  0  0
   -4.9146    3.1381   -2.1852 H   0  0  0  0  0  0  0  0  0  0  0  0
   -2.8554    3.5076   -0.7898 H   0  0  0  0  0  0  0  0  0  0  0  0
   -3.7153    5.0335   -1.1065 H   0  0  0  0  0  0  0  0  0  0  0  0
   -3.8799    4.2396    0.5136 H   0  0  0  0  0  0  0  0  0  0  0  0
   -7.2482   -0.6064   -0.8948 H   0  0  0  0  0  0  0  0  0  0  0  0
   -8.5812   -0.5019   -2.1002 H   0  0  0  0  0  0  0  0  0  0  0  0
   -7.7325   -2.8461   -1.7157 H   0  0  0  0  0  0  0  0  0  0  0  0
   -7.6508   -2.3210   -3.4425 H   0  0  0  0  0  0  0  0  0  0  0  0
   -6.1636   -2.3715   -2.4031 H   0  0  0  0  0  0  0  0  0  0  0  0
   -0.1287   -3.8585   -5.2971 H   0  0  0  0  0  0  0  0  0  0  0  0
    1.9666   -1.8528   -1.7195 H   0  0  0  0  0  0  0  0  0  0  0  0
   -5.0719   -2.4302   -4.3635 H   0  0  0  0  0  0  0  0  0  0  0  0
  1  2  2  3
  2  3  1  0
  3  4  2  0
  3  5  1  0
  5  6  2  0
  6  7  1  0
  7  8  2  0
  8  9  1  0
  8 10  1  0
 10 11  2  0
 11 12  1  0
 12 13  2  3
 13 14  1  0
 14 15  3  0
 13 16  1  0
 16 17  3  0
  1 18  1  0
 18 19  2  0
 19 20  1  0
 20 21  1  0
 21 22  1  0
 19 23  1  0
 23 24  1  0
 24 25  1  0
 25 26  1  0
 23 27  2  0
 27 28  1  0
 28 29  2  0
 29 30  1  0
 30 31  2  0
 30 32  1  0
 32 33  1  0
 33 34  1  0
 34 35  2  0
 33 36  2  0
 36 37  1  0
 37 38  1  0
 27 39  1  0
 39 40  2  0
 40 41  1  0
 41 42  1  0
 42 43  2  0
 43 44  1  0
 44 45  2  0
 45 46  1  0
 46 47  1  0
 45 48  1  0
 48 49  2  0
 41 50  1  0
 50 51  2  0
 51 52  1  0
 52 53  2  0
 53 54  1  0
 54 55  1  0
 53 56  1  0
 56 57  2  0
 40 58  1  0
 58 59  1  0
 59 60  1  0
 60 61  2  0
 61 62  1  0
 62 63  1  0
 63 64  2  0
 64 65  1  0
 65 66  2  0
 66 67  1  0
 67 68  1  0
 66 69  1  0
 69 70  2  0
 62 71  1  0
 71 72  2  0
 72 73  1  0
 73 74  2  0
 74 75  1  0
 75 76  1  0
 74 77  1  0
 77 78  2  0
 61 79  1  0
 79 80  1  0
 60 81  1  0
 81 82  2  0
 82 83  1  0
 83 84  1  0
 84 85  1  0
 82 86  1  0
 86 87  1  0
 87 88  1  0
 88 89  1  0
 86 90  2  0
 90 91  1  0
 91 92  2  0
 92 93  1  0
 93 94  2  0
 93 95  1  0
 95 96  1  0
 96 97  1  0
 97 98  2  0
 96 99  2  0
 99100  1  0
100101  1  0
 90102  1  0
102103  2  3
103104  1  0
104105  2  0
104106  1  0
106107  2  0
107108  1  0
107109  1  0
109110  1  0
109111  2  0
111112  1  0
111113  1  0
113114  1  0
113115  2  0
115116  1  0
116117  2  3
117118  1  0
118119  3  0
117120  1  0
120121  3  0
 12  2  1  0
 29 18  1  0
 38 32  2  0
 80 39  1  0
 92 81  1  0
101 95  2  0
116103  1  0
 11  5  1  0
 34 28  1  0
 49 42  1  0
 57 50  1  0
 79 58  2  0
 97 91  1  0
115106  1  0
 70 63  1  0
 78 71  1  0
  1122  1  0
  6123  1  0
  7124  1  0
  9125  1  0
  9126  1  0
  9127  1  0
 10128  1  0
 21129  1  0
 21130  1  0
 22131  1  0
 22132  1  0
 22133  1  0
 25134  1  0
 25135  1  0
 26136  1  0
 26137  1  0
 26138  1  0
 36139  1  0
 38140  1  0
 43141  1  0
 44142  1  0
 47143  1  0
 47144  1  0
 47145  1  0
 48146  1  0
 49147  1  0
 51148  1  0
 52149  1  0
 55150  1  0
 55151  1  0
 55152  1  0
 56153  1  0
 57154  1  0
 64155  1  0
 65156  1  0
 68157  1  0
 68158  1  0
 68159  1  0
 69160  1  0
 70161  1  0
 72162  1  0
 73163  1  0
 76164  1  0
 76165  1  0
 76166  1  0
 77167  1  0
 78168  1  0
 84169  1  0
 84170  1  0
 85171  1  0
 85172  1  0
 85173  1  0
 88174  1  0
 88175  1  0
 89176  1  0
 89177  1  0
 89178  1  0
 99179  1  0
101180  1  0
102181  1  0
M  END

