
     RDKit          3D

159173  0  0  0  0  0  0  0  0999 V2000
   -5.2641    3.5866    3.0905 C   0  0  0  0  0  0  0  0  0  0  0  0
   -4.5146    4.6237    3.5612 C   0  0  0  0  0  0  0  0  0  0  0  0
   -3.0346    4.7087    3.6027 C   0  0  0  0  0  0  0  0  0  0  0  0
   -2.2552    4.0126    2.9078 O   0  0  0  0  0  0  0  0  0  0  0  0
   -2.6426    5.6957    4.5999 C   0  0  0  0  0  0  0  0  0  0  0  0
   -1.3664    6.1368    4.9328 C   0  0  0  0  0  0  0  0  0  0  0  0
   -1.2127    7.1805    5.8455 C   0  0  0  0  0  0  0  0  0  0  0  0
   -2.3473    7.7644    6.4499 C   0  0  0  0  0  0  0  0  0  0  0  0
   -2.1938    8.8840    7.4228 C   0  0  0  0  0  0  0  0  0  0  0  0
   -3.6289    7.3018    6.1182 C   0  0  0  0  0  0  0  0  0  0  0  0
   -3.7733    6.2610    5.1598 C   0  0  0  0  0  0  0  0  0  0  0  0
   -4.9852    5.7489    4.4789 C   0  0  0  0  0  0  0  0  0  0  0  0
   -6.1853    6.3183    4.4845 C   0  0  0  0  0  0  0  0  0  0  0  0
   -6.5609    7.4017    5.3469 C   0  0  0  0  0  0  0  0  0  0  0  0
   -6.8946    8.3019    5.9526 N   0  0  0  0  0  0  0  0  0  0  0  0
   -6.9500    6.2260    3.2676 C   0  0  0  0  0  0  0  0  0  0  0  0
   -7.5142    6.1944    2.2166 N   0  0  0  0  0  0  0  0  0  0  0  0
   -4.6716    2.2702    2.6397 C   0  0  0  0  0  0  0  0  0  0  0  0
   -4.8185    1.8637    1.3007 C   0  0  0  0  0  0  0  0  0  0  0  0
   -5.5661    3.1131    0.1286 S   0  0  0  0  0  0  0  0  0  0  0  0
   -7.3242    2.7646    0.2294 C   0  0  0  0  0  0  0  0  0  0  0  0
   -7.9991    3.6017   -0.8942 C   0  0  0  0  0  0  0  0  0  0  0  0
   -4.1839    0.7068    0.7955 C   0  0  0  0  0  0  0  0  0  0  0  0
   -4.6607    0.2721   -0.9052 S   0  0  0  0  0  0  0  0  0  0  0  0
   -5.9379   -0.9281   -0.4660 C   0  0  0  0  0  0  0  0  0  0  0  0
   -5.4055   -2.1069    0.3350 C   0  0  0  0  0  0  0  0  0  0  0  0
   -3.2692   -0.1336    1.6219 C   0  0  0  0  0  0  0  0  0  0  0  0
   -3.1694    0.2183    3.1007 C   0  0  0  0  0  0  0  0  0  0  0  0
   -3.9148    1.4180    3.6235 C   0  0  0  0  0  0  0  0  0  0  0  0
   -3.9102    1.8393    5.1405 C   0  0  0  0  0  0  0  0  0  0  0  0
   -4.6020    2.7603    5.6185 O   0  0  0  0  0  0  0  0  0  0  0  0
   -3.1168    1.0214    6.1150 C   0  0  0  0  0  0  0  0  0  0  0  0
   -2.5802   -0.1856    5.6470 C   0  0  0  0  0  0  0  0  0  0  0  0
   -2.1957   -0.4192    4.2547 C   0  0  0  0  0  0  0  0  0  0  0  0
   -1.0383   -0.8345    4.0404 O   0  0  0  0  0  0  0  0  0  0  0  0
   -1.8838   -0.7950    6.6176 C   0  0  0  0  0  0  0  0  0  0  0  0
   -2.1554   -0.0825    8.1890 S   0  0  0  0  0  0  0  0  0  0  0  0
   -3.0589    1.2333    7.4843 C   0  0  0  0  0  0  0  0  0  0  0  0
   -2.4210   -1.2125    0.7782 C   0  0  0  0  0  0  0  0  0  0  0  0
   -1.4449   -1.0374   -0.3472 C   0  0  0  0  0  0  0  0  0  0  0  0
   -1.7035   -0.1423   -1.4165 N   0  0  0  0  0  0  0  0  0  0  0  0
   -1.4964    1.2268   -1.1843 C   0  0  0  0  0  0  0  0  0  0  0  0
   -1.9156    2.1915   -2.0919 C   0  0  0  0  0  0  0  0  0  0  0  0
   -1.5701    3.5274   -1.9616 C   0  0  0  0  0  0  0  0  0  0  0  0
   -0.8669    3.9290   -0.8402 C   0  0  0  0  0  0  0  0  0  0  0  0
   -0.4665    5.6538   -0.5815 S   0  0  0  0  0  0  0  0  0  0  0  0
    1.2882    5.4577   -0.9896 C   0  0  0  0  0  0  0  0  0  0  0  0
   -0.5202    2.9756    0.1260 C   0  0  0  0  0  0  0  0  0  0  0  0
   -0.7970    1.6275   -0.0289 C   0  0  0  0  0  0  0  0  0  0  0  0
   -1.9648   -0.7117   -2.7637 C   0  0  0  0  0  0  0  0  0  0  0  0
   -1.0827   -0.3696   -3.7386 C   0  0  0  0  0  0  0  0  0  0  0  0
   -1.2651   -0.8470   -5.0425 C   0  0  0  0  0  0  0  0  0  0  0  0
   -2.3463   -1.6526   -5.3591 C   0  0  0  0  0  0  0  0  0  0  0  0
   -2.7035   -2.0435   -7.0460 S   0  0  0  0  0  0  0  0  0  0  0  0
   -1.9219   -3.6928   -7.1436 C   0  0  0  0  0  0  0  0  0  0  0  0
   -3.2323   -2.0419   -4.3651 C   0  0  0  0  0  0  0  0  0  0  0  0
   -3.0370   -1.5988   -3.0409 C   0  0  0  0  0  0  0  0  0  0  0  0
   -0.3464   -1.9148   -0.4378 C   0  0  0  0  0  0  0  0  0  0  0  0
    0.8281   -2.2079   -1.6027 S   0  0  0  0  0  0  0  0  0  0  0  0
    1.6292   -3.3882   -0.6016 C   0  0  0  0  0  0  0  0  0  0  0  0
    0.8333   -3.6448    0.5168 C   0  0  0  0  0  0  0  0  0  0  0  0
    1.2341   -4.4390    1.6772 N   0  0  0  0  0  0  0  0  0  0  0  0
    1.0395   -5.8529    1.5003 C   0  0  0  0  0  0  0  0  0  0  0  0
    2.0216   -6.7715    1.8209 C   0  0  0  0  0  0  0  0  0  0  0  0
    1.8388   -8.1514    1.5911 C   0  0  0  0  0  0  0  0  0  0  0  0
    0.6165   -8.6104    1.0682 C   0  0  0  0  0  0  0  0  0  0  0  0
    0.3502  -10.3591    0.7929 S   0  0  0  0  0  0  0  0  0  0  0  0
    0.6271  -10.3635   -1.0046 C   0  0  0  0  0  0  0  0  0  0  0  0
   -0.3798   -7.6858    0.7555 C   0  0  0  0  0  0  0  0  0  0  0  0
   -0.1778   -6.3126    0.9972 C   0  0  0  0  0  0  0  0  0  0  0  0
    1.8089   -3.9755    2.9538 C   0  0  0  0  0  0  0  0  0  0  0  0
    2.8536   -3.0541    3.0130 C   0  0  0  0  0  0  0  0  0  0  0  0
    3.5924   -2.8199    4.1801 C   0  0  0  0  0  0  0  0  0  0  0  0
    3.2454   -3.4554    5.3806 C   0  0  0  0  0  0  0  0  0  0  0  0
    4.2834   -3.3299    6.8795 S   0  0  0  0  0  0  0  0  0  0  0  0
    4.6741   -1.5218    6.7772 C   0  0  0  0  0  0  0  0  0  0  0  0
    2.1468   -4.3487    5.3650 C   0  0  0  0  0  0  0  0  0  0  0  0
    1.4355   -4.6186    4.1776 C   0  0  0  0  0  0  0  0  0  0  0  0
   -0.3959   -2.9152    0.3697 C   0  0  0  0  0  0  0  0  0  0  0  0
   -1.9233   -2.9241    0.9652 S   0  0  0  0  0  0  0  0  0  0  0  0
    2.9144   -3.7552   -0.9701 C   0  0  0  0  0  0  0  0  0  0  0  0
    4.2080   -2.5872   -0.9342 S   0  0  0  0  0  0  0  0  0  0  0  0
    5.1734   -3.6145   -1.8609 C   0  0  0  0  0  0  0  0  0  0  0  0
    6.3054   -3.3794   -2.5169 N   0  0  0  0  0  0  0  0  0  0  0  0
    6.5591   -4.3949   -3.3982 C   0  0  0  0  0  0  0  0  0  0  0  0
    5.3368   -5.5903   -3.3569 S   0  0  0  0  0  0  0  0  0  0  0  0
    4.5069   -4.7223   -2.1867 C   0  0  0  0  0  0  0  0  0  0  0  0
    3.2277   -4.8417   -1.7394 N   0  0  0  0  0  0  0  0  0  0  0  0
    7.6497   -4.2409   -4.3852 C   0  0  0  0  0  0  0  0  0  0  0  0
    7.8361   -3.1420   -5.1681 C   0  0  0  0  0  0  0  0  0  0  0  0
    6.9623   -1.9619   -5.1628 C   0  0  0  0  0  0  0  0  0  0  0  0
    5.7951   -1.8484   -4.6935 O   0  0  0  0  0  0  0  0  0  0  0  0
    7.6168   -0.9208   -5.9015 C   0  0  0  0  0  0  0  0  0  0  0  0
    7.1346    0.3792   -6.1489 C   0  0  0  0  0  0  0  0  0  0  0  0
    7.9165    1.2505   -6.9037 C   0  0  0  0  0  0  0  0  0  0  0  0
    9.1490    0.8225   -7.4364 C   0  0  0  0  0  0  0  0  0  0  0  0
   10.0105    1.7876   -8.1798 C   0  0  0  0  0  0  0  0  0  0  0  0
    9.6101   -0.4782   -7.2004 C   0  0  0  0  0  0  0  0  0  0  0  0
    8.8172   -1.3712   -6.4136 C   0  0  0  0  0  0  0  0  0  0  0  0
    8.9761   -2.7963   -6.0770 C   0  0  0  0  0  0  0  0  0  0  0  0
    9.8160   -3.6632   -6.6875 C   0  0  0  0  0  0  0  0  0  0  0  0
   10.9350   -3.2349   -7.5407 C   0  0  0  0  0  0  0  0  0  0  0  0
   11.8186   -2.9286   -8.1867 N   0  0  0  0  0  0  0  0  0  0  0  0
    9.5318   -5.0777   -6.7177 C   0  0  0  0  0  0  0  0  0  0  0  0
    9.3073   -6.2418   -6.7911 N   0  0  0  0  0  0  0  0  0  0  0  0
   -6.3834    3.6750    3.2540 H   0  0  0  0  0  0  0  0  0  0  0  0
   -0.5279    5.6785    4.4286 H   0  0  0  0  0  0  0  0  0  0  0  0
   -0.1855    7.4924    6.0939 H   0  0  0  0  0  0  0  0  0  0  0  0
   -2.8487    9.7324    7.1284 H   0  0  0  0  0  0  0  0  0  0  0  0
   -1.1443    9.2554    7.4773 H   0  0  0  0  0  0  0  0  0  0  0  0
   -2.5249    8.5241    8.4182 H   0  0  0  0  0  0  0  0  0  0  0  0
   -4.4859    7.7391    6.6197 H   0  0  0  0  0  0  0  0  0  0  0  0
   -7.7750    3.0723    1.2052 H   0  0  0  0  0  0  0  0  0  0  0  0
   -7.5212    1.7061    0.0159 H   0  0  0  0  0  0  0  0  0  0  0  0
   -7.8404    4.7008   -0.6762 H   0  0  0  0  0  0  0  0  0  0  0  0
   -7.5375    3.3159   -1.8774 H   0  0  0  0  0  0  0  0  0  0  0  0
   -9.0815    3.4115   -0.9771 H   0  0  0  0  0  0  0  0  0  0  0  0
   -6.3164   -1.2910   -1.4492 H   0  0  0  0  0  0  0  0  0  0  0  0
   -6.7493   -0.4495    0.1121 H   0  0  0  0  0  0  0  0  0  0  0  0
   -4.4931   -2.4987   -0.1428 H   0  0  0  0  0  0  0  0  0  0  0  0
   -6.1148   -2.9284    0.2895 H   0  0  0  0  0  0  0  0  0  0  0  0
   -5.2378   -1.8482    1.4122 H   0  0  0  0  0  0  0  0  0  0  0  0
   -1.2811   -1.6421    6.7893 H   0  0  0  0  0  0  0  0  0  0  0  0
   -3.5475    2.0446    8.0053 H   0  0  0  0  0  0  0  0  0  0  0  0
   -2.4588    1.9125   -2.9492 H   0  0  0  0  0  0  0  0  0  0  0  0
   -1.8915    4.2537   -2.7253 H   0  0  0  0  0  0  0  0  0  0  0  0
    1.7888    6.3989   -0.7524 H   0  0  0  0  0  0  0  0  0  0  0  0
    1.7634    4.6929   -0.3496 H   0  0  0  0  0  0  0  0  0  0  0  0
    1.4612    5.2193   -2.0533 H   0  0  0  0  0  0  0  0  0  0  0  0
   -0.0114    3.2902    1.0386 H   0  0  0  0  0  0  0  0  0  0  0  0
   -0.4409    0.9062    0.7292 H   0  0  0  0  0  0  0  0  0  0  0  0
   -0.2415    0.2846   -3.5106 H   0  0  0  0  0  0  0  0  0  0  0  0
   -0.6428   -0.4332   -5.7987 H   0  0  0  0  0  0  0  0  0  0  0  0
   -2.3414   -4.3978   -6.4009 H   0  0  0  0  0  0  0  0  0  0  0  0
   -0.8375   -3.6285   -7.0152 H   0  0  0  0  0  0  0  0  0  0  0  0
   -2.1110   -4.1415   -8.1409 H   0  0  0  0  0  0  0  0  0  0  0  0
   -4.1787   -2.5928   -4.5675 H   0  0  0  0  0  0  0  0  0  0  0  0
   -3.7337   -1.8881   -2.2853 H   0  0  0  0  0  0  0  0  0  0  0  0
    2.9409   -6.4819    2.2678 H   0  0  0  0  0  0  0  0  0  0  0  0
    2.5923   -8.8513    1.9141 H   0  0  0  0  0  0  0  0  0  0  0  0
    0.1432  -11.2739   -1.4389 H   0  0  0  0  0  0  0  0  0  0  0  0
    1.7039  -10.4017   -1.2101 H   0  0  0  0  0  0  0  0  0  0  0  0
    0.1604   -9.4740   -1.4936 H   0  0  0  0  0  0  0  0  0  0  0  0
   -1.3548   -8.0299    0.4182 H   0  0  0  0  0  0  0  0  0  0  0  0
   -1.0036   -5.6247    0.7989 H   0  0  0  0  0  0  0  0  0  0  0  0
    3.1555   -2.6082    2.0989 H   0  0  0  0  0  0  0  0  0  0  0  0
    4.4321   -2.1153    4.1286 H   0  0  0  0  0  0  0  0  0  0  0  0
    4.7407   -1.1226    7.8078 H   0  0  0  0  0  0  0  0  0  0  0  0
    3.8777   -0.9265    6.2738 H   0  0  0  0  0  0  0  0  0  0  0  0
    5.6687   -1.3268    6.2896 H   0  0  0  0  0  0  0  0  0  0  0  0
    1.8881   -4.9095    6.2688 H   0  0  0  0  0  0  0  0  0  0  0  0
    0.6690   -5.4169    4.2221 H   0  0  0  0  0  0  0  0  0  0  0  0
    8.3098   -5.0353   -4.4339 H   0  0  0  0  0  0  0  0  0  0  0  0
    6.1747    0.6850   -5.7394 H   0  0  0  0  0  0  0  0  0  0  0  0
    7.5298    2.2642   -7.0499 H   0  0  0  0  0  0  0  0  0  0  0  0
   10.7527    2.2285   -7.4850 H   0  0  0  0  0  0  0  0  0  0  0  0
    9.4111    2.6065   -8.6294 H   0  0  0  0  0  0  0  0  0  0  0  0
   10.5627    1.2760   -8.9921 H   0  0  0  0  0  0  0  0  0  0  0  0
   10.5841   -0.7553   -7.6053 H   0  0  0  0  0  0  0  0  0  0  0  0
  1  2  2  3
  2  3  1  0
  3  4  2  0
  3  5  1  0
  5  6  2  0
  6  7  1  0
  7  8  2  0
  8  9  1  0
  8 10  1  0
 10 11  2  0
 11 12  1  0
 12 13  2  3
 13 14  1  0
 14 15  3  0
 13 16  1  0
 16 17  3  0
  1 18  1  0
 18 19  2  0
 19 20  1  0
 20 21  1  0
 21 22  1  0
 19 23  1  0
 23 24  1  0
 24 25  1  0
 25 26  1  0
 23 27  2  0
 27 28  1  0
 28 29  2  0
 29 30  1  0
 30 31  2  0
 30 32  1  0
 32 33  1  0
 33 34  1  0
 34 35  2  0
 33 36  2  0
 36 37  1  0
 37 38  1  0
 27 39  1  0
 39 40  2  0
 40 41  1  0
 41 42  1  0
 42 43  2  0
 43 44  1  0
 44 45  2  0
 45 46  1  0
 46 47  1  0
 45 48  1  0
 48 49  2  0
 41 50  1  0
 50 51  2  0
 51 52  1  0
 52 53  2  0
 53 54  1  0
 54 55  1  0
 53 56  1  0
 56 57  2  0
 40 58  1  0
 58 59  1  0
 59 60  1  0
 60 61  2  0
 61 62  1  0
 62 63  1  0
 63 64  2  0
 64 65  1  0
 65 66  2  0
 66 67  1  0
 67 68  1  0
 66 69  1  0
 69 70  2  0
 62 71  1  0
 71 72  2  0
 72 73  1  0
 73 74  2  0
 74 75  1  0
 75 76  1  0
 74 77  1  0
 77 78  2  0
 61 79  1  0
 79 80  1  0
 60 81  1  0
 81 82  1  0
 82 83  1  0
 83 84  1  0
 84 85  2  0
 85 86  1  0
 86 87  1  0
 87 88  1  0
 85 89  1  0
 89 90  2  3
 90 91  1  0
 91 92  2  0
 91 93  1  0
 93 94  2  0
 94 95  1  0
 95 96  2  0
 96 97  1  0
 96 98  1  0
 98 99  2  0
 99100  1  0
100101  2  3
101102  1  0
102103  3  0
101104  1  0
104105  3  0
 12  2  1  0
 29 18  1  0
 38 32  2  0
 80 39  1  0
 88 81  2  0
100 90  1  0
 11  5  1  0
 34 28  1  0
 49 42  1  0
 57 50  1  0
 79 58  2  0
 87 83  2  0
 99 93  1  0
 70 63  1  0
 78 71  1  0
  1106  1  0
  6107  1  0
  7108  1  0
  9109  1  0
  9110  1  0
  9111  1  0
 10112  1  0
 21113  1  0
 21114  1  0
 22115  1  0
 22116  1  0
 22117  1  0
 25118  1  0
 25119  1  0
 26120  1  0
 26121  1  0
 26122  1  0
 36123  1  0
 38124  1  0
 43125  1  0
 44126  1  0
 47127  1  0
 47128  1  0
 47129  1  0
 48130  1  0
 49131  1  0
 51132  1  0
 52133  1  0
 55134  1  0
 55135  1  0
 55136  1  0
 56137  1  0
 57138  1  0
 64139  1  0
 65140  1  0
 68141  1  0
 68142  1  0
 68143  1  0
 69144  1  0
 70145  1  0
 72146  1  0
 73147  1  0
 76148  1  0
 76149  1  0
 76150  1  0
 77151  1  0
 78152  1  0
 89153  1  0
 94154  1  0
 95155  1  0
 97156  1  0
 97157  1  0
 97158  1  0
 98159  1  0
M  END

