
     RDKit          3D

173190  0  0  0  0  0  0  0  0999 V2000
   -5.6951   -4.9621   -6.5555 C   0  0  0  0  0  0  0  0  0  0  0  0
   -6.2822   -5.1482   -5.3472 C   0  0  0  0  0  0  0  0  0  0  0  0
   -5.7278   -4.7336   -4.0540 C   0  0  0  0  0  0  0  0  0  0  0  0
   -4.5209   -4.5092   -3.7969 O   0  0  0  0  0  0  0  0  0  0  0  0
   -6.8015   -4.6309   -3.0961 C   0  0  0  0  0  0  0  0  0  0  0  0
   -6.7142   -4.3259   -1.7451 C   0  0  0  0  0  0  0  0  0  0  0  0
   -7.8877   -4.3665   -0.9856 C   0  0  0  0  0  0  0  0  0  0  0  0
   -9.1239   -4.7181   -1.5796 C   0  0  0  0  0  0  0  0  0  0  0  0
  -10.3513   -4.8460   -0.7232 C   0  0  0  0  0  0  0  0  0  0  0  0
   -9.1742   -5.0301   -2.9561 C   0  0  0  0  0  0  0  0  0  0  0  0
   -7.9974   -4.9578   -3.7130 C   0  0  0  0  0  0  0  0  0  0  0  0
   -7.7388   -5.3554   -5.1312 C   0  0  0  0  0  0  0  0  0  0  0  0
   -8.6263   -5.9147   -5.9952 C   0  0  0  0  0  0  0  0  0  0  0  0
  -10.0359   -5.6904   -5.9055 C   0  0  0  0  0  0  0  0  0  0  0  0
  -11.1827   -5.5321   -5.8251 N   0  0  0  0  0  0  0  0  0  0  0  0
   -8.1830   -6.9461   -6.9048 C   0  0  0  0  0  0  0  0  0  0  0  0
   -7.8034   -7.8479   -7.5086 N   0  0  0  0  0  0  0  0  0  0  0  0
   -4.5213   -4.0800   -6.7141 C   0  0  0  0  0  0  0  0  0  0  0  0
   -4.6316   -2.6885   -6.7435 C   0  0  0  0  0  0  0  0  0  0  0  0
   -3.4053   -2.0536   -6.5419 C   0  0  0  0  0  0  0  0  0  0  0  0
   -3.2099   -0.6542   -6.4242 C   0  0  0  0  0  0  0  0  0  0  0  0
   -4.3438    0.3027   -6.4089 C   0  0  0  0  0  0  0  0  0  0  0  0
   -5.3534    0.1699   -5.4354 C   0  0  0  0  0  0  0  0  0  0  0  0
   -6.2811    1.1936   -5.2449 C   0  0  0  0  0  0  0  0  0  0  0  0
   -6.1975    2.3668   -5.9942 C   0  0  0  0  0  0  0  0  0  0  0  0
   -7.0757    3.4365   -5.7537 C   0  0  0  0  0  0  0  0  0  0  0  0
   -6.9477    4.6219   -6.4749 C   0  0  0  0  0  0  0  0  0  0  0  0
   -5.9919    4.7424   -7.4822 C   0  0  0  0  0  0  0  0  0  0  0  0
   -5.1158    3.6824   -7.7593 C   0  0  0  0  0  0  0  0  0  0  0  0
   -5.2219    2.4950   -7.0232 C   0  0  0  0  0  0  0  0  0  0  0  0
   -4.3205    1.4358   -7.2455 C   0  0  0  0  0  0  0  0  0  0  0  0
   -1.9287   -0.2206   -6.0667 C   0  0  0  0  0  0  0  0  0  0  0  0
   -0.8733   -1.0994   -5.8219 C   0  0  0  0  0  0  0  0  0  0  0  0
   -1.0521   -2.5058   -5.9603 C   0  0  0  0  0  0  0  0  0  0  0  0
    0.1000   -3.4233   -5.8001 C   0  0  0  0  0  0  0  0  0  0  0  0
    0.9849   -3.6321   -6.8466 C   0  0  0  0  0  0  0  0  0  0  0  0
    2.2925   -3.8923   -6.4272 C   0  0  0  0  0  0  0  0  0  0  0  0
    2.4369   -3.9222   -5.0380 C   0  0  0  0  0  0  0  0  0  0  0  0
    3.9865   -3.6599   -4.1724 S   0  0  0  0  0  0  0  0  0  0  0  0
    4.2820   -5.4014   -3.6716 C   0  0  0  0  0  0  0  0  0  0  0  0
    3.1224   -6.0094   -2.8752 C   0  0  0  0  0  0  0  0  0  0  0  0
    0.9541   -3.5917   -4.3469 S   0  0  0  0  0  0  0  0  0  0  0  0
   -2.3370   -2.9431   -6.3540 C   0  0  0  0  0  0  0  0  0  0  0  0
   -2.9173   -4.5348   -6.4358 S   0  0  0  0  0  0  0  0  0  0  0  0
    0.2682   -0.4394   -5.3246 C   0  0  0  0  0  0  0  0  0  0  0  0
    0.0727    0.9214   -5.0493 C   0  0  0  0  0  0  0  0  0  0  0  0
   -1.4844    1.3254   -5.5476 S   0  0  0  0  0  0  0  0  0  0  0  0
    0.8073    1.5978   -3.9399 C   0  0  0  0  0  0  0  0  0  0  0  0
    2.1772    1.3356   -3.7261 C   0  0  0  0  0  0  0  0  0  0  0  0
    2.7593    1.4834   -2.4209 C   0  0  0  0  0  0  0  0  0  0  0  0
    4.0977    1.1713   -2.1382 O   0  0  0  0  0  0  0  0  0  0  0  0
    5.1011    0.8486   -3.0907 C   0  0  0  0  0  0  0  0  0  0  0  0
    4.9985   -0.6183   -3.4777 C   0  0  0  0  0  0  0  0  0  0  0  0
    1.9106    1.9101   -1.3777 C   0  0  0  0  0  0  0  0  0  0  0  0
    0.6537    2.4188   -1.6692 C   0  0  0  0  0  0  0  0  0  0  0  0
    0.0918    2.2888   -2.9344 C   0  0  0  0  0  0  0  0  0  0  0  0
   -1.1874    2.6794   -3.0892 F   0  0  0  0  0  0  0  0  0  0  0  0
    2.2411    1.6439    0.0388 C   0  0  0  0  0  0  0  0  0  0  0  0
    3.4910    1.6220    0.6671 C   0  0  0  0  0  0  0  0  0  0  0  0
    3.4291    1.1745    1.9965 C   0  0  0  0  0  0  0  0  0  0  0  0
    4.4820    1.0885    2.9301 C   0  0  0  0  0  0  0  0  0  0  0  0
    5.8281    1.5154    2.5216 C   0  0  0  0  0  0  0  0  0  0  0  0
    6.2864    2.7820    2.9227 C   0  0  0  0  0  0  0  0  0  0  0  0
    7.4081    3.3320    2.3382 C   0  0  0  0  0  0  0  0  0  0  0  0
    8.0649    2.6422    1.3038 C   0  0  0  0  0  0  0  0  0  0  0  0
    9.1254    3.2480    0.6306 C   0  0  0  0  0  0  0  0  0  0  0  0
    9.7803    2.5858   -0.4373 C   0  0  0  0  0  0  0  0  0  0  0  0
   11.0799    3.3409   -1.4737 S   0  0  0  0  0  0  0  0  0  0  0  0
   11.5016    4.8523   -0.4965 C   0  0  0  0  0  0  0  0  0  0  0  0
   10.6007    6.0280   -0.8768 C   0  0  0  0  0  0  0  0  0  0  0  0
    9.3825    1.2733   -0.7624 C   0  0  0  0  0  0  0  0  0  0  0  0
    8.3010    0.6639   -0.1116 C   0  0  0  0  0  0  0  0  0  0  0  0
    7.6384    1.3508    0.9176 C   0  0  0  0  0  0  0  0  0  0  0  0
    6.5226    0.7798    1.5417 C   0  0  0  0  0  0  0  0  0  0  0  0
    4.1236    0.8055    4.2679 C   0  0  0  0  0  0  0  0  0  0  0  0
    2.8032    0.5174    4.6515 C   0  0  0  0  0  0  0  0  0  0  0  0
    1.7863    0.4385    3.6747 C   0  0  0  0  0  0  0  0  0  0  0  0
    0.4854   -0.2407    3.8891 C   0  0  0  0  0  0  0  0  0  0  0  0
    0.1127   -1.2177    2.9555 C   0  0  0  0  0  0  0  0  0  0  0  0
   -1.2088   -1.6167    2.8301 C   0  0  0  0  0  0  0  0  0  0  0  0
   -1.5933   -2.4094    1.7319 C   0  0  0  0  0  0  0  0  0  0  0  0
   -2.9195   -2.7934    1.5899 C   0  0  0  0  0  0  0  0  0  0  0  0
   -3.8684   -2.4411    2.5550 C   0  0  0  0  0  0  0  0  0  0  0  0
   -5.5938   -2.9246    2.3251 S   0  0  0  0  0  0  0  0  0  0  0  0
   -5.4045   -4.6052    3.0337 C   0  0  0  0  0  0  0  0  0  0  0  0
   -4.7251   -5.5678    2.0519 C   0  0  0  0  0  0  0  0  0  0  0  0
   -3.5005   -1.6102    3.6340 C   0  0  0  0  0  0  0  0  0  0  0  0
   -2.1686   -1.1772    3.7616 C   0  0  0  0  0  0  0  0  0  0  0  0
   -1.7773   -0.2914    4.7918 C   0  0  0  0  0  0  0  0  0  0  0  0
   -0.4627    0.2039    4.8247 C   0  0  0  0  0  0  0  0  0  0  0  0
    2.1304    0.8643    2.3923 C   0  0  0  0  0  0  0  0  0  0  0  0
    1.0766    1.1174    1.1140 S   0  0  0  0  0  0  0  0  0  0  0  0
    2.6380    0.4134    6.0379 C   0  0  0  0  0  0  0  0  0  0  0  0
    3.8205    0.6272    6.7637 C   0  0  0  0  0  0  0  0  0  0  0  0
    5.0932    0.8771    5.6389 S   0  0  0  0  0  0  0  0  0  0  0  0
    3.9371    1.2006    8.1357 C   0  0  0  0  0  0  0  0  0  0  0  0
    3.2421    2.2437    8.6995 C   0  0  0  0  0  0  0  0  0  0  0  0
    1.8268    2.6361    8.4594 C   0  0  0  0  0  0  0  0  0  0  0  0
    0.9306    1.9442    7.9284 O   0  0  0  0  0  0  0  0  0  0  0  0
    1.6471    4.0490    8.7540 C   0  0  0  0  0  0  0  0  0  0  0  0
    0.5784    4.8526    8.3782 C   0  0  0  0  0  0  0  0  0  0  0  0
    0.7999    6.2372    8.1963 C   0  0  0  0  0  0  0  0  0  0  0  0
    2.0846    6.7909    8.4011 C   0  0  0  0  0  0  0  0  0  0  0  0
    2.3620    8.2068    7.9760 C   0  0  0  0  0  0  0  0  0  0  0  0
    3.1335    5.9571    8.8381 C   0  0  0  0  0  0  0  0  0  0  0  0
    2.8914    4.5803    9.0184 C   0  0  0  0  0  0  0  0  0  0  0  0
    3.9631    3.5322    9.0652 C   0  0  0  0  0  0  0  0  0  0  0  0
    5.0981    3.8784    8.4013 C   0  0  0  0  0  0  0  0  0  0  0  0
    4.9348    3.9617    6.9734 C   0  0  0  0  0  0  0  0  0  0  0  0
    4.6443    3.9422    5.8591 N   0  0  0  0  0  0  0  0  0  0  0  0
    6.3614    3.4224    8.9171 C   0  0  0  0  0  0  0  0  0  0  0  0
    7.3424    2.9985    9.3700 N   0  0  0  0  0  0  0  0  0  0  0  0
   -6.2749   -5.0976   -7.4536 H   0  0  0  0  0  0  0  0  0  0  0  0
   -5.7550   -4.0746   -1.3011 H   0  0  0  0  0  0  0  0  0  0  0  0
   -7.8254   -4.1483    0.0713 H   0  0  0  0  0  0  0  0  0  0  0  0
  -10.3035   -5.8019   -0.1566 H   0  0  0  0  0  0  0  0  0  0  0  0
  -10.4181   -3.9881   -0.0287 H   0  0  0  0  0  0  0  0  0  0  0  0
  -11.2608   -4.8545   -1.3592 H   0  0  0  0  0  0  0  0  0  0  0  0
  -10.1114   -5.3431   -3.3943 H   0  0  0  0  0  0  0  0  0  0  0  0
   -5.5973   -2.1839   -6.8275 H   0  0  0  0  0  0  0  0  0  0  0  0
   -5.3663   -0.6959   -4.7779 H   0  0  0  0  0  0  0  0  0  0  0  0
   -7.0105    1.0855   -4.4594 H   0  0  0  0  0  0  0  0  0  0  0  0
   -7.8085    3.3596   -4.9641 H   0  0  0  0  0  0  0  0  0  0  0  0
   -7.6203    5.4444   -6.2688 H   0  0  0  0  0  0  0  0  0  0  0  0
   -5.8954    5.6645   -8.0400 H   0  0  0  0  0  0  0  0  0  0  0  0
   -4.3616    3.7966   -8.5412 H   0  0  0  0  0  0  0  0  0  0  0  0
   -3.5213    1.5354   -7.9959 H   0  0  0  0  0  0  0  0  0  0  0  0
    0.7331   -3.4142   -7.8793 H   0  0  0  0  0  0  0  0  0  0  0  0
    3.1212   -3.8226   -7.1122 H   0  0  0  0  0  0  0  0  0  0  0  0
    5.1978   -5.4021   -3.0300 H   0  0  0  0  0  0  0  0  0  0  0  0
    4.5038   -6.0308   -4.5751 H   0  0  0  0  0  0  0  0  0  0  0  0
    3.4863   -6.9047   -2.3104 H   0  0  0  0  0  0  0  0  0  0  0  0
    2.7098   -5.2596   -2.1522 H   0  0  0  0  0  0  0  0  0  0  0  0
    2.3261   -6.3304   -3.5890 H   0  0  0  0  0  0  0  0  0  0  0  0
    1.1753   -0.9366   -5.0180 H   0  0  0  0  0  0  0  0  0  0  0  0
    2.7668    0.8954   -4.5347 H   0  0  0  0  0  0  0  0  0  0  0  0
    4.9985    1.5001   -3.9882 H   0  0  0  0  0  0  0  0  0  0  0  0
    6.0875    1.0359   -2.6306 H   0  0  0  0  0  0  0  0  0  0  0  0
    3.9446   -0.9040   -3.6561 H   0  0  0  0  0  0  0  0  0  0  0  0
    5.4432   -1.2634   -2.6847 H   0  0  0  0  0  0  0  0  0  0  0  0
    5.5698   -0.7948   -4.4152 H   0  0  0  0  0  0  0  0  0  0  0  0
    0.0161    2.8092   -0.8944 H   0  0  0  0  0  0  0  0  0  0  0  0
    4.3989    1.9408    0.1784 H   0  0  0  0  0  0  0  0  0  0  0  0
    5.7128    3.3677    3.6320 H   0  0  0  0  0  0  0  0  0  0  0  0
    7.7174    4.3257    2.6245 H   0  0  0  0  0  0  0  0  0  0  0  0
    9.3728    4.2602    0.9089 H   0  0  0  0  0  0  0  0  0  0  0  0
   12.5507    5.1214   -0.7463 H   0  0  0  0  0  0  0  0  0  0  0  0
   11.4963    4.6711    0.5997 H   0  0  0  0  0  0  0  0  0  0  0  0
    9.5314    5.7539   -0.8080 H   0  0  0  0  0  0  0  0  0  0  0  0
   10.8200    6.3537   -1.9162 H   0  0  0  0  0  0  0  0  0  0  0  0
   10.7903    6.8878   -0.1828 H   0  0  0  0  0  0  0  0  0  0  0  0
    9.8694    0.7399   -1.5684 H   0  0  0  0  0  0  0  0  0  0  0  0
    7.9683   -0.3168   -0.4358 H   0  0  0  0  0  0  0  0  0  0  0  0
    6.0977   -0.1674    1.2023 H   0  0  0  0  0  0  0  0  0  0  0  0
    0.8312   -1.5580    2.2265 H   0  0  0  0  0  0  0  0  0  0  0  0
   -0.8748   -2.7100    0.9671 H   0  0  0  0  0  0  0  0  0  0  0  0
   -3.1951   -3.3957    0.7361 H   0  0  0  0  0  0  0  0  0  0  0  0
   -4.8435   -4.5744    3.9977 H   0  0  0  0  0  0  0  0  0  0  0  0
   -6.4213   -4.9972    3.2444 H   0  0  0  0  0  0  0  0  0  0  0  0
   -3.6236   -5.4308    2.0809 H   0  0  0  0  0  0  0  0  0  0  0  0
   -5.1050   -5.4156    1.0174 H   0  0  0  0  0  0  0  0  0  0  0  0
   -4.9373   -6.6183    2.3461 H   0  0  0  0  0  0  0  0  0  0  0  0
   -4.2480   -1.2817    4.3465 H   0  0  0  0  0  0  0  0  0  0  0  0
   -2.5087    0.0692    5.5121 H   0  0  0  0  0  0  0  0  0  0  0  0
   -0.2186    0.9684    5.5501 H   0  0  0  0  0  0  0  0  0  0  0  0
    1.7063    0.2217    6.5384 H   0  0  0  0  0  0  0  0  0  0  0  0
    4.9655    1.1357    8.4629 H   0  0  0  0  0  0  0  0  0  0  0  0
   -0.3561    4.4030    8.0753 H   0  0  0  0  0  0  0  0  0  0  0  0
    0.0227    6.8406    7.7794 H   0  0  0  0  0  0  0  0  0  0  0  0
    2.0864    8.3254    6.9039 H   0  0  0  0  0  0  0  0  0  0  0  0
    1.7520    8.8989    8.5972 H   0  0  0  0  0  0  0  0  0  0  0  0
    3.4299    8.4780    8.1164 H   0  0  0  0  0  0  0  0  0  0  0  0
    4.1592    6.3445    8.8882 H   0  0  0  0  0  0  0  0  0  0  0  0
  1  2  2  3
  2  3  1  0
  3  4  2  0
  3  5  1  0
  5  6  2  0
  6  7  1  0
  7  8  2  0
  8  9  1  0
  8 10  1  0
 10 11  2  0
 11 12  1  0
 12 13  2  3
 13 14  1  0
 14 15  3  0
 13 16  1  0
 16 17  3  0
  1 18  1  0
 18 19  2  0
 19 20  1  0
 20 21  2  0
 21 22  1  0
 22 23  2  0
 23 24  1  0
 24 25  2  0
 25 26  1  0
 26 27  2  0
 27 28  1  0
 28 29  2  0
 29 30  1  0
 30 31  2  0
 21 32  1  0
 32 33  2  0
 33 34  1  0
 34 35  1  0
 35 36  2  0
 36 37  1  0
 37 38  2  0
 38 39  1  0
 39 40  1  0
 40 41  1  0
 38 42  1  0
 34 43  2  0
 43 44  1  0
 33 45  1  0
 45 46  2  0
 46 47  1  0
 46 48  1  0
 48 49  2  0
 49 50  1  0
 50 51  1  0
 51 52  1  0
 52 53  1  0
 50 54  2  0
 54 55  1  0
 55 56  2  0
 56 57  1  0
 54 58  1  0
 58 59  2  0
 59 60  1  0
 60 61  2  0
 61 62  1  0
 62 63  2  0
 63 64  1  0
 64 65  2  0
 65 66  1  0
 66 67  2  0
 67 68  1  0
 68 69  1  0
 69 70  1  0
 67 71  1  0
 71 72  2  0
 72 73  1  0
 73 74  2  0
 61 75  1  0
 75 76  2  0
 76 77  1  0
 77 78  1  0
 78 79  2  0
 79 80  1  0
 80 81  2  0
 81 82  1  0
 82 83  2  0
 83 84  1  0
 84 85  1  0
 85 86  1  0
 83 87  1  0
 87 88  2  0
 88 89  1  0
 89 90  2  0
 77 91  2  0
 91 92  1  0
 76 93  1  0
 93 94  2  0
 94 95  1  0
 94 96  1  0
 96 97  2  3
 97 98  1  0
 98 99  2  0
 98100  1  0
100101  2  0
101102  1  0
102103  2  0
103104  1  0
103105  1  0
105106  2  0
106107  1  0
107108  2  3
108109  1  0
109110  3  0
108111  1  0
111112  3  0
 12  2  1  0
 44 18  1  0
 56 48  1  0
 92 58  1  0
107 97  1  0
 11  5  1  0
 43 20  1  0
 91 60  1  0
106100  1  0
 31 22  1  0
 47 32  1  0
 74 62  1  0
 95 75  1  0
 30 25  1  0
 42 35  1  0
 73 65  1  0
 90 78  1  0
 88 80  1  0
  1113  1  0
  6114  1  0
  7115  1  0
  9116  1  0
  9117  1  0
  9118  1  0
 10119  1  0
 19120  1  0
 23121  1  0
 24122  1  0
 26123  1  0
 27124  1  0
 28125  1  0
 29126  1  0
 31127  1  0
 36128  1  0
 37129  1  0
 40130  1  0
 40131  1  0
 41132  1  0
 41133  1  0
 41134  1  0
 45135  1  0
 49136  1  0
 52137  1  0
 52138  1  0
 53139  1  0
 53140  1  0
 53141  1  0
 55142  1  0
 59143  1  0
 63144  1  0
 64145  1  0
 66146  1  0
 69147  1  0
 69148  1  0
 70149  1  0
 70150  1  0
 70151  1  0
 71152  1  0
 72153  1  0
 74154  1  0
 79155  1  0
 81156  1  0
 82157  1  0
 85158  1  0
 85159  1  0
 86160  1  0
 86161  1  0
 86162  1  0
 87163  1  0
 89164  1  0
 90165  1  0
 93166  1  0
 96167  1  0
101168  1  0
102169  1  0
104170  1  0
104171  1  0
104172  1  0
105173  1  0
M  END

