
     RDKit          3D

162179  0  0  0  0  0  0  0  0999 V2000
    8.0346    3.1984   -4.6955 C   0  0  0  0  0  0  0  0  0  0  0  0
    8.2867    1.8884   -4.5072 C   0  0  0  0  0  0  0  0  0  0  0  0
    9.6356    1.3537   -4.3377 C   0  0  0  0  0  0  0  0  0  0  0  0
   10.7080    1.9090   -4.7039 O   0  0  0  0  0  0  0  0  0  0  0  0
    9.5350    0.1211   -3.5797 C   0  0  0  0  0  0  0  0  0  0  0  0
   10.5600   -0.7250   -3.1484 C   0  0  0  0  0  0  0  0  0  0  0  0
   10.2206   -1.8730   -2.4114 C   0  0  0  0  0  0  0  0  0  0  0  0
    8.8716   -2.1499   -2.0992 C   0  0  0  0  0  0  0  0  0  0  0  0
    8.5103   -3.4056   -1.3581 C   0  0  0  0  0  0  0  0  0  0  0  0
    7.8551   -1.2764   -2.5499 C   0  0  0  0  0  0  0  0  0  0  0  0
    8.2024   -0.1586   -3.3273 C   0  0  0  0  0  0  0  0  0  0  0  0
    7.3492    0.8298   -4.0249 C   0  0  0  0  0  0  0  0  0  0  0  0
    6.0895    0.6281   -4.4832 C   0  0  0  0  0  0  0  0  0  0  0  0
    5.5548    1.3656   -5.6033 C   0  0  0  0  0  0  0  0  0  0  0  0
    5.1227    1.9335   -6.5122 N   0  0  0  0  0  0  0  0  0  0  0  0
    5.2707   -0.4688   -4.0392 C   0  0  0  0  0  0  0  0  0  0  0  0
    4.5978   -1.3430   -3.6949 N   0  0  0  0  0  0  0  0  0  0  0  0
    6.8055    3.8257   -4.1921 C   0  0  0  0  0  0  0  0  0  0  0  0
    5.8255    4.4334   -4.9716 C   0  0  0  0  0  0  0  0  0  0  0  0
    4.6109    4.6109   -4.2688 C   0  0  0  0  0  0  0  0  0  0  0  0
    3.3620    4.9831   -4.8211 C   0  0  0  0  0  0  0  0  0  0  0  0
    3.2356    5.4334   -6.2274 C   0  0  0  0  0  0  0  0  0  0  0  0
    2.3640    4.7842   -7.1146 C   0  0  0  0  0  0  0  0  0  0  0  0
    2.2267    5.2348   -8.4360 C   0  0  0  0  0  0  0  0  0  0  0  0
    2.9745    6.3350   -8.8840 C   0  0  0  0  0  0  0  0  0  0  0  0
    2.8357    6.8037  -10.1960 C   0  0  0  0  0  0  0  0  0  0  0  0
    3.5801    7.9036  -10.6318 C   0  0  0  0  0  0  0  0  0  0  0  0
    4.4635    8.5432   -9.7567 C   0  0  0  0  0  0  0  0  0  0  0  0
    4.6125    8.0868   -8.4446 C   0  0  0  0  0  0  0  0  0  0  0  0
    3.8702    6.9818   -7.9985 C   0  0  0  0  0  0  0  0  0  0  0  0
    3.9973    6.5250   -6.6781 C   0  0  0  0  0  0  0  0  0  0  0  0
    2.2366    4.8773   -3.9711 C   0  0  0  0  0  0  0  0  0  0  0  0
    2.3468    4.5187   -2.6224 C   0  0  0  0  0  0  0  0  0  0  0  0
    3.5919    4.1821   -2.0674 C   0  0  0  0  0  0  0  0  0  0  0  0
    3.7358    3.7186   -0.6784 C   0  0  0  0  0  0  0  0  0  0  0  0
    4.1752    2.4529   -0.2962 C   0  0  0  0  0  0  0  0  0  0  0  0
    4.4362    2.3485    1.0733 C   0  0  0  0  0  0  0  0  0  0  0  0
    4.1942    3.5284    1.7591 C   0  0  0  0  0  0  0  0  0  0  0  0
    4.5278    3.8058    3.4962 S   0  0  0  0  0  0  0  0  0  0  0  0
    2.8029    3.5356    4.0148 C   0  0  0  0  0  0  0  0  0  0  0  0
    2.6634    3.8612    5.4948 C   0  0  0  0  0  0  0  0  0  0  0  0
    3.6799    4.7142    0.6784 S   0  0  0  0  0  0  0  0  0  0  0  0
    4.6946    4.2069   -2.9293 C   0  0  0  0  0  0  0  0  0  0  0  0
    6.2287    3.6100   -2.6241 S   0  0  0  0  0  0  0  0  0  0  0  0
    1.1101    4.3773   -1.9835 C   0  0  0  0  0  0  0  0  0  0  0  0
    0.0228    4.5854   -2.8286 C   0  0  0  0  0  0  0  0  0  0  0  0
    0.5961    4.9974   -4.3629 S   0  0  0  0  0  0  0  0  0  0  0  0
   -1.3434    4.1612   -2.4909 C   0  0  0  0  0  0  0  0  0  0  0  0
   -2.1277    3.3032   -3.2640 C   0  0  0  0  0  0  0  0  0  0  0  0
   -3.0580    2.5846   -2.5752 N   0  0  0  0  0  0  0  0  0  0  0  0
   -3.0659    2.8957   -1.2558 C   0  0  0  0  0  0  0  0  0  0  0  0
   -1.8882    4.0438   -0.9082 S   0  0  0  0  0  0  0  0  0  0  0  0
   -3.6096    2.0126   -0.2098 C   0  0  0  0  0  0  0  0  0  0  0  0
   -4.3108    0.8126   -0.3977 C   0  0  0  0  0  0  0  0  0  0  0  0
   -4.2746   -0.0292    0.7393 C   0  0  0  0  0  0  0  0  0  0  0  0
   -4.8146   -1.3331    0.8610 C   0  0  0  0  0  0  0  0  0  0  0  0
   -5.8342   -1.8595   -0.0761 C   0  0  0  0  0  0  0  0  0  0  0  0
   -7.0226   -1.1384   -0.2728 C   0  0  0  0  0  0  0  0  0  0  0  0
   -8.0889   -1.7074   -0.9746 C   0  0  0  0  0  0  0  0  0  0  0  0
   -7.9827   -3.0053   -1.4843 C   0  0  0  0  0  0  0  0  0  0  0  0
   -9.0789   -3.6153   -2.1138 C   0  0  0  0  0  0  0  0  0  0  0  0
   -8.9951   -4.9435   -2.5527 C   0  0  0  0  0  0  0  0  0  0  0  0
  -10.4076   -5.7148   -3.3628 S   0  0  0  0  0  0  0  0  0  0  0  0
  -11.3318   -6.0747   -1.8261 C   0  0  0  0  0  0  0  0  0  0  0  0
  -10.7784   -7.3056   -1.1194 C   0  0  0  0  0  0  0  0  0  0  0  0
   -7.7989   -5.6575   -2.3892 C   0  0  0  0  0  0  0  0  0  0  0  0
   -6.6968   -5.0547   -1.7775 C   0  0  0  0  0  0  0  0  0  0  0  0
   -6.7796   -3.7298   -1.3140 C   0  0  0  0  0  0  0  0  0  0  0  0
   -5.6983   -3.1368   -0.6384 C   0  0  0  0  0  0  0  0  0  0  0  0
   -4.4585   -2.0599    2.0219 C   0  0  0  0  0  0  0  0  0  0  0  0
   -3.6885   -1.5033    3.0519 C   0  0  0  0  0  0  0  0  0  0  0  0
   -3.2626   -0.1684    2.9770 C   0  0  0  0  0  0  0  0  0  0  0  0
   -2.6849    0.5357    4.1353 C   0  0  0  0  0  0  0  0  0  0  0  0
   -3.5300    0.8875    5.1971 C   0  0  0  0  0  0  0  0  0  0  0  0
   -3.1259    1.8508    6.1324 C   0  0  0  0  0  0  0  0  0  0  0  0
   -4.0179    2.3014    7.1168 C   0  0  0  0  0  0  0  0  0  0  0  0
   -3.6633    3.3525    7.9634 C   0  0  0  0  0  0  0  0  0  0  0  0
   -2.4171    3.9787    7.8203 C   0  0  0  0  0  0  0  0  0  0  0  0
   -2.0359    5.4234    8.8159 S   0  0  0  0  0  0  0  0  0  0  0  0
   -2.9031    6.5754    7.6896 C   0  0  0  0  0  0  0  0  0  0  0  0
   -2.9059    7.9857    8.2686 C   0  0  0  0  0  0  0  0  0  0  0  0
   -1.5001    3.5163    6.8662 C   0  0  0  0  0  0  0  0  0  0  0  0
   -1.8497    2.4515    6.0168 C   0  0  0  0  0  0  0  0  0  0  0  0
   -0.9704    2.0232    5.0040 C   0  0  0  0  0  0  0  0  0  0  0  0
   -1.3949    1.0779    4.0646 C   0  0  0  0  0  0  0  0  0  0  0  0
   -3.5500    0.5227    1.7973 C   0  0  0  0  0  0  0  0  0  0  0  0
   -3.0135    2.0433    1.3649 S   0  0  0  0  0  0  0  0  0  0  0  0
   -3.3983   -2.4062    4.0866 C   0  0  0  0  0  0  0  0  0  0  0  0
   -3.9594   -3.6653    3.8737 C   0  0  0  0  0  0  0  0  0  0  0  0
   -4.8385   -3.6529    2.4372 S   0  0  0  0  0  0  0  0  0  0  0  0
   -3.7213   -4.8511    4.6994 C   0  0  0  0  0  0  0  0  0  0  0  0
   -2.5536   -5.5199    4.6851 C   0  0  0  0  0  0  0  0  0  0  0  0
   -1.4238   -5.2784    3.7759 C   0  0  0  0  0  0  0  0  0  0  0  0
   -1.2378   -4.2499    3.0633 O   0  0  0  0  0  0  0  0  0  0  0  0
   -0.6314   -6.4941    3.7143 C   0  0  0  0  0  0  0  0  0  0  0  0
    0.4114   -6.8012    2.8383 C   0  0  0  0  0  0  0  0  0  0  0  0
    0.8596   -8.1287    2.7699 C   0  0  0  0  0  0  0  0  0  0  0  0
    0.2310   -9.1347    3.5353 C   0  0  0  0  0  0  0  0  0  0  0  0
    0.5957  -10.5713    3.3128 C   0  0  0  0  0  0  0  0  0  0  0  0
   -0.7930   -8.7896    4.4455 C   0  0  0  0  0  0  0  0  0  0  0  0
   -1.1915   -7.4476    4.5431 C   0  0  0  0  0  0  0  0  0  0  0  0
   -2.3035   -6.8452    5.3155 C   0  0  0  0  0  0  0  0  0  0  0  0
   -2.7664   -7.2663    6.5194 C   0  0  0  0  0  0  0  0  0  0  0  0
   -3.6376   -6.4410    7.3266 C   0  0  0  0  0  0  0  0  0  0  0  0
   -4.3437   -5.7880    7.9643 N   0  0  0  0  0  0  0  0  0  0  0  0
   -2.2584   -8.4427    7.1745 C   0  0  0  0  0  0  0  0  0  0  0  0
   -1.8556   -9.3696    7.7279 N   0  0  0  0  0  0  0  0  0  0  0  0
    8.8258    3.8580   -5.0277 H   0  0  0  0  0  0  0  0  0  0  0  0
   11.5965   -0.4943   -3.3722 H   0  0  0  0  0  0  0  0  0  0  0  0
   11.0015   -2.5569   -2.0938 H   0  0  0  0  0  0  0  0  0  0  0  0
    9.3656   -3.7699   -0.7546 H   0  0  0  0  0  0  0  0  0  0  0  0
    7.6633   -3.2118   -0.6649 H   0  0  0  0  0  0  0  0  0  0  0  0
    8.2137   -4.1888   -2.0909 H   0  0  0  0  0  0  0  0  0  0  0  0
    6.8235   -1.4844   -2.2980 H   0  0  0  0  0  0  0  0  0  0  0  0
    5.9426    4.6187   -6.0297 H   0  0  0  0  0  0  0  0  0  0  0  0
    1.7807    3.9303   -6.7945 H   0  0  0  0  0  0  0  0  0  0  0  0
    1.5367    4.7334   -9.0959 H   0  0  0  0  0  0  0  0  0  0  0  0
    2.1423    6.3286  -10.8814 H   0  0  0  0  0  0  0  0  0  0  0  0
    3.4654    8.2655  -11.6425 H   0  0  0  0  0  0  0  0  0  0  0  0
    5.0469    9.3891  -10.1010 H   0  0  0  0  0  0  0  0  0  0  0  0
    5.3071    8.5872   -7.7863 H   0  0  0  0  0  0  0  0  0  0  0  0
    4.6723    7.0251   -5.9962 H   0  0  0  0  0  0  0  0  0  0  0  0
    4.3484    1.6423   -0.9991 H   0  0  0  0  0  0  0  0  0  0  0  0
    4.8240    1.4525    1.5376 H   0  0  0  0  0  0  0  0  0  0  0  0
    2.5198    2.4739    3.8395 H   0  0  0  0  0  0  0  0  0  0  0  0
    2.1208    4.1927    3.4298 H   0  0  0  0  0  0  0  0  0  0  0  0
    3.0000    4.9009    5.6924 H   0  0  0  0  0  0  0  0  0  0  0  0
    3.2667    3.1513    6.1029 H   0  0  0  0  0  0  0  0  0  0  0  0
    1.6007    3.7905    5.7973 H   0  0  0  0  0  0  0  0  0  0  0  0
    1.0136    4.0159   -0.9728 H   0  0  0  0  0  0  0  0  0  0  0  0
   -1.9289    3.1138   -4.3135 H   0  0  0  0  0  0  0  0  0  0  0  0
   -4.7418    0.5169   -1.3460 H   0  0  0  0  0  0  0  0  0  0  0  0
   -7.1599   -0.1660    0.1826 H   0  0  0  0  0  0  0  0  0  0  0  0
   -9.0091   -1.1435   -1.0805 H   0  0  0  0  0  0  0  0  0  0  0  0
  -10.0077   -3.0692   -2.2473 H   0  0  0  0  0  0  0  0  0  0  0  0
  -12.3920   -6.2625   -2.0910 H   0  0  0  0  0  0  0  0  0  0  0  0
  -11.3011   -5.2013   -1.1391 H   0  0  0  0  0  0  0  0  0  0  0  0
   -9.7299   -7.1358   -0.7993 H   0  0  0  0  0  0  0  0  0  0  0  0
  -10.8304   -8.1946   -1.7881 H   0  0  0  0  0  0  0  0  0  0  0  0
  -11.3908   -7.5254   -0.2203 H   0  0  0  0  0  0  0  0  0  0  0  0
   -7.7236   -6.6747   -2.7459 H   0  0  0  0  0  0  0  0  0  0  0  0
   -5.7830   -5.6239   -1.6592 H   0  0  0  0  0  0  0  0  0  0  0  0
   -4.7819   -3.6928   -0.4941 H   0  0  0  0  0  0  0  0  0  0  0  0
   -4.5391    0.4866    5.2358 H   0  0  0  0  0  0  0  0  0  0  0  0
   -5.0025    1.8525    7.2193 H   0  0  0  0  0  0  0  0  0  0  0  0
   -4.3691    3.7112    8.6996 H   0  0  0  0  0  0  0  0  0  0  0  0
   -3.9565    6.2433    7.5506 H   0  0  0  0  0  0  0  0  0  0  0  0
   -2.3903    6.5886    6.7018 H   0  0  0  0  0  0  0  0  0  0  0  0
   -3.3988    7.9895    9.2640 H   0  0  0  0  0  0  0  0  0  0  0  0
   -3.4665    8.6616    7.5869 H   0  0  0  0  0  0  0  0  0  0  0  0
   -1.8686    8.3583    8.3717 H   0  0  0  0  0  0  0  0  0  0  0  0
   -0.5376    4.0003    6.7753 H   0  0  0  0  0  0  0  0  0  0  0  0
   -0.0014    2.4746    4.8879 H   0  0  0  0  0  0  0  0  0  0  0  0
   -0.7374    0.8264    3.2366 H   0  0  0  0  0  0  0  0  0  0  0  0
   -2.7698   -2.1713    4.9367 H   0  0  0  0  0  0  0  0  0  0  0  0
   -4.5821   -5.2563    5.2148 H   0  0  0  0  0  0  0  0  0  0  0  0
    0.8324   -6.0413    2.1979 H   0  0  0  0  0  0  0  0  0  0  0  0
    1.6518   -8.3869    2.0713 H   0  0  0  0  0  0  0  0  0  0  0  0
    1.6910  -10.7143    3.3857 H   0  0  0  0  0  0  0  0  0  0  0  0
    0.1086  -11.2405    4.0521 H   0  0  0  0  0  0  0  0  0  0  0  0
    0.2573  -10.8843    2.3007 H   0  0  0  0  0  0  0  0  0  0  0  0
   -1.3178   -9.5623    4.9870 H   0  0  0  0  0  0  0  0  0  0  0  0
  1  2  2  3
  2  3  1  0
  3  4  2  0
  3  5  1  0
  5  6  2  0
  6  7  1  0
  7  8  2  0
  8  9  1  0
  8 10  1  0
 10 11  2  0
 11 12  1  0
 12 13  2  3
 13 14  1  0
 14 15  3  0
 13 16  1  0
 16 17  3  0
  1 18  1  0
 18 19  2  0
 19 20  1  0
 20 21  2  0
 21 22  1  0
 22 23  2  0
 23 24  1  0
 24 25  2  0
 25 26  1  0
 26 27  2  0
 27 28  1  0
 28 29  2  0
 29 30  1  0
 30 31  2  0
 21 32  1  0
 32 33  2  0
 33 34  1  0
 34 35  1  0
 35 36  2  0
 36 37  1  0
 37 38  2  0
 38 39  1  0
 39 40  1  0
 40 41  1  0
 38 42  1  0
 34 43  2  0
 43 44  1  0
 33 45  1  0
 45 46  2  0
 46 47  1  0
 46 48  1  0
 48 49  2  0
 49 50  1  0
 50 51  2  0
 51 52  1  0
 51 53  1  0
 53 54  2  0
 54 55  1  0
 55 56  2  0
 56 57  1  0
 57 58  2  0
 58 59  1  0
 59 60  2  0
 60 61  1  0
 61 62  2  0
 62 63  1  0
 63 64  1  0
 64 65  1  0
 62 66  1  0
 66 67  2  0
 67 68  1  0
 68 69  2  0
 56 70  1  0
 70 71  2  0
 71 72  1  0
 72 73  1  0
 73 74  2  0
 74 75  1  0
 75 76  2  0
 76 77  1  0
 77 78  2  0
 78 79  1  0
 79 80  1  0
 80 81  1  0
 78 82  1  0
 82 83  2  0
 83 84  1  0
 84 85  2  0
 72 86  2  0
 86 87  1  0
 71 88  1  0
 88 89  2  0
 89 90  1  0
 89 91  1  0
 91 92  2  3
 92 93  1  0
 93 94  2  0
 93 95  1  0
 95 96  2  0
 96 97  1  0
 97 98  2  0
 98 99  1  0
 98100  1  0
100101  2  0
101102  1  0
102103  2  3
103104  1  0
104105  3  0
103106  1  0
106107  3  0
 12  2  1  0
 44 18  1  0
 52 48  1  0
 87 53  1  0
102 92  1  0
 11  5  1  0
 43 20  1  0
 86 55  1  0
101 95  1  0
 31 22  1  0
 47 32  1  0
 69 57  1  0
 90 70  1  0
 30 25  1  0
 42 35  1  0
 68 60  1  0
 85 73  1  0
 83 75  1  0
  1108  1  0
  6109  1  0
  7110  1  0
  9111  1  0
  9112  1  0
  9113  1  0
 10114  1  0
 19115  1  0
 23116  1  0
 24117  1  0
 26118  1  0
 27119  1  0
 28120  1  0
 29121  1  0
 31122  1  0
 36123  1  0
 37124  1  0
 40125  1  0
 40126  1  0
 41127  1  0
 41128  1  0
 41129  1  0
 45130  1  0
 49131  1  0
 54132  1  0
 58133  1  0
 59134  1  0
 61135  1  0
 64136  1  0
 64137  1  0
 65138  1  0
 65139  1  0
 65140  1  0
 66141  1  0
 67142  1  0
 69143  1  0
 74144  1  0
 76145  1  0
 77146  1  0
 80147  1  0
 80148  1  0
 81149  1  0
 81150  1  0
 81151  1  0
 82152  1  0
 84153  1  0
 85154  1  0
 88155  1  0
 91156  1  0
 96157  1  0
 97158  1  0
 99159  1  0
 99160  1  0
 99161  1  0
100162  1  0
M  END

