
     RDKit          3D

167185  0  0  0  0  0  0  0  0999 V2000
    5.9417   -4.7965   -1.2421 C   0  0  0  0  0  0  0  0  0  0  0  0
    6.1238   -3.6805   -0.5057 C   0  0  0  0  0  0  0  0  0  0  0  0
    5.0618   -2.9293    0.1766 C   0  0  0  0  0  0  0  0  0  0  0  0
    3.9374   -3.3714    0.5378 O   0  0  0  0  0  0  0  0  0  0  0  0
    5.5253   -1.5811    0.3984 C   0  0  0  0  0  0  0  0  0  0  0  0
    4.7987   -0.4917    0.8774 C   0  0  0  0  0  0  0  0  0  0  0  0
    5.4270    0.7579    0.9244 C   0  0  0  0  0  0  0  0  0  0  0  0
    6.7497    0.9121    0.4571 C   0  0  0  0  0  0  0  0  0  0  0  0
    7.4166    2.2537    0.5309 C   0  0  0  0  0  0  0  0  0  0  0  0
    7.4626   -0.2093   -0.0159 C   0  0  0  0  0  0  0  0  0  0  0  0
    6.8360   -1.4677   -0.0250 C   0  0  0  0  0  0  0  0  0  0  0  0
    7.3278   -2.7987   -0.4900 C   0  0  0  0  0  0  0  0  0  0  0  0
    8.6182   -3.1940   -0.6280 C   0  0  0  0  0  0  0  0  0  0  0  0
    8.9788   -4.5783   -0.8025 C   0  0  0  0  0  0  0  0  0  0  0  0
    9.2787   -5.6900   -0.9324 N   0  0  0  0  0  0  0  0  0  0  0  0
    9.7241   -2.2888   -0.4656 C   0  0  0  0  0  0  0  0  0  0  0  0
   10.6224   -1.5667   -0.3420 N   0  0  0  0  0  0  0  0  0  0  0  0
    4.6169   -5.4035   -1.3889 C   0  0  0  0  0  0  0  0  0  0  0  0
    4.0594   -6.2665   -0.4494 C   0  0  0  0  0  0  0  0  0  0  0  0
    2.6534   -6.2567   -0.4663 C   0  0  0  0  0  0  0  0  0  0  0  0
    1.8043   -6.8515    0.4920 C   0  0  0  0  0  0  0  0  0  0  0  0
    2.3201   -7.7246    1.5651 C   0  0  0  0  0  0  0  0  0  0  0  0
    3.1291   -7.2039    2.5859 C   0  0  0  0  0  0  0  0  0  0  0  0
    3.6054   -8.0369    3.6027 C   0  0  0  0  0  0  0  0  0  0  0  0
    3.2734   -9.3996    3.6126 C   0  0  0  0  0  0  0  0  0  0  0  0
    3.7434  -10.2457    4.6298 C   0  0  0  0  0  0  0  0  0  0  0  0
    3.4065  -11.6033    4.6269 C   0  0  0  0  0  0  0  0  0  0  0  0
    2.5991  -12.1253    3.6124 C   0  0  0  0  0  0  0  0  0  0  0  0
    2.1229  -11.2948    2.5936 C   0  0  0  0  0  0  0  0  0  0  0  0
    2.4536   -9.9299    2.5872 C   0  0  0  0  0  0  0  0  0  0  0  0
    1.9763   -9.0853    1.5743 C   0  0  0  0  0  0  0  0  0  0  0  0
    0.4496   -6.4801    0.4598 C   0  0  0  0  0  0  0  0  0  0  0  0
   -0.0656   -5.6216   -0.5153 C   0  0  0  0  0  0  0  0  0  0  0  0
    0.7663   -5.0749   -1.5111 C   0  0  0  0  0  0  0  0  0  0  0  0
    0.3016   -3.9532   -2.3461 C   0  0  0  0  0  0  0  0  0  0  0  0
   -0.6979   -4.0187   -3.3131 C   0  0  0  0  0  0  0  0  0  0  0  0
   -1.1305   -2.7585   -3.7460 C   0  0  0  0  0  0  0  0  0  0  0  0
   -0.4842   -1.7102   -3.1023 C   0  0  0  0  0  0  0  0  0  0  0  0
   -0.8917    0.0273   -3.2804 S   0  0  0  0  0  0  0  0  0  0  0  0
    0.2944    0.3323   -4.6352 C   0  0  0  0  0  0  0  0  0  0  0  0
    1.6821    0.6250   -4.0847 C   0  0  0  0  0  0  0  0  0  0  0  0
    0.6133   -2.3344   -1.9937 S   0  0  0  0  0  0  0  0  0  0  0  0
    2.1266   -5.4071   -1.4485 C   0  0  0  0  0  0  0  0  0  0  0  0
    3.3875   -4.6700   -2.2783 S   0  0  0  0  0  0  0  0  0  0  0  0
   -1.3563   -5.1726   -0.2245 C   0  0  0  0  0  0  0  0  0  0  0  0
   -1.8357   -5.5914    1.0162 C   0  0  0  0  0  0  0  0  0  0  0  0
   -0.6749   -6.6063    1.7129 S   0  0  0  0  0  0  0  0  0  0  0  0
   -2.8201   -4.7528    1.7370 C   0  0  0  0  0  0  0  0  0  0  0  0
   -3.9133   -4.2666    1.0043 C   0  0  0  0  0  0  0  0  0  0  0  0
   -4.3979   -2.9726    1.2239 C   0  0  0  0  0  0  0  0  0  0  0  0
   -3.8040   -2.1273    2.1850 C   0  0  0  0  0  0  0  0  0  0  0  0
   -2.9369   -2.7300    3.1214 C   0  0  0  0  0  0  0  0  0  0  0  0
   -2.4643   -2.0964    4.2259 N   0  0  0  0  0  0  0  0  0  0  0  0
   -1.4242   -3.2313    4.8213 S   0  0  0  0  0  0  0  0  0  0  0  0
   -1.5112   -4.5058    3.7749 N   0  0  0  0  0  0  0  0  0  0  0  0
   -2.4349   -4.0449    2.8892 C   0  0  0  0  0  0  0  0  0  0  0  0
   -3.8778   -0.6473    1.9814 C   0  0  0  0  0  0  0  0  0  0  0  0
   -2.9962    0.3099    2.5096 C   0  0  0  0  0  0  0  0  0  0  0  0
   -3.0045    1.5429    1.8265 C   0  0  0  0  0  0  0  0  0  0  0  0
   -2.0976    2.6042    2.0275 C   0  0  0  0  0  0  0  0  0  0  0  0
   -0.9842    2.4916    2.9899 C   0  0  0  0  0  0  0  0  0  0  0  0
    0.3206    2.3015    2.5092 C   0  0  0  0  0  0  0  0  0  0  0  0
    1.3732    2.0681    3.3942 C   0  0  0  0  0  0  0  0  0  0  0  0
    1.1358    2.0166    4.7743 C   0  0  0  0  0  0  0  0  0  0  0  0
    2.1791    1.7340    5.6662 C   0  0  0  0  0  0  0  0  0  0  0  0
    1.9298    1.6529    7.0405 C   0  0  0  0  0  0  0  0  0  0  0  0
    3.2682    1.2455    8.1659 S   0  0  0  0  0  0  0  0  0  0  0  0
    3.0347   -0.5676    8.0426 C   0  0  0  0  0  0  0  0  0  0  0  0
    2.0725   -1.0515    9.1162 C   0  0  0  0  0  0  0  0  0  0  0  0
    0.6422    1.8943    7.5327 C   0  0  0  0  0  0  0  0  0  0  0  0
   -0.4082    2.1754    6.6530 C   0  0  0  0  0  0  0  0  0  0  0  0
   -0.1740    2.2287    5.2694 C   0  0  0  0  0  0  0  0  0  0  0  0
   -1.2295    2.4644    4.3707 C   0  0  0  0  0  0  0  0  0  0  0  0
   -2.1668    3.6794    1.1249 C   0  0  0  0  0  0  0  0  0  0  0  0
   -3.0328    3.6895    0.0274 C   0  0  0  0  0  0  0  0  0  0  0  0
   -3.9006    2.6025   -0.2080 C   0  0  0  0  0  0  0  0  0  0  0  0
   -4.5899    2.4152   -1.5069 C   0  0  0  0  0  0  0  0  0  0  0  0
   -5.9541    2.0864   -1.5540 C   0  0  0  0  0  0  0  0  0  0  0  0
   -6.5527    1.7175   -2.7679 C   0  0  0  0  0  0  0  0  0  0  0  0
   -7.8886    1.2925   -2.8099 C   0  0  0  0  0  0  0  0  0  0  0  0
   -8.4451    0.8377   -4.0089 C   0  0  0  0  0  0  0  0  0  0  0  0
   -7.6749    0.8146   -5.1771 C   0  0  0  0  0  0  0  0  0  0  0  0
   -8.3525    0.1255   -6.6893 S   0  0  0  0  0  0  0  0  0  0  0  0
   -7.8032   -1.5865   -6.3435 C   0  0  0  0  0  0  0  0  0  0  0  0
   -6.3365   -1.7845   -6.7153 C   0  0  0  0  0  0  0  0  0  0  0  0
   -6.3651    1.3032   -5.1638 C   0  0  0  0  0  0  0  0  0  0  0  0
   -5.7876    1.7289   -3.9590 C   0  0  0  0  0  0  0  0  0  0  0  0
   -4.4381    2.1090   -3.9171 C   0  0  0  0  0  0  0  0  0  0  0  0
   -3.8413    2.4304   -2.6980 C   0  0  0  0  0  0  0  0  0  0  0  0
   -3.8932    1.5683    0.7498 C   0  0  0  0  0  0  0  0  0  0  0  0
   -4.6497    0.0737    0.6587 S   0  0  0  0  0  0  0  0  0  0  0  0
   -2.8516    4.8088   -0.8032 C   0  0  0  0  0  0  0  0  0  0  0  0
   -1.8653    5.6812   -0.3416 C   0  0  0  0  0  0  0  0  0  0  0  0
   -1.1747    5.0340    1.0532 S   0  0  0  0  0  0  0  0  0  0  0  0
   -1.2699    6.8024   -1.0914 C   0  0  0  0  0  0  0  0  0  0  0  0
   -1.9593    7.7126   -1.8043 C   0  0  0  0  0  0  0  0  0  0  0  0
   -3.4178    7.7881   -1.9511 C   0  0  0  0  0  0  0  0  0  0  0  0
   -4.2801    7.3012   -1.1702 O   0  0  0  0  0  0  0  0  0  0  0  0
   -3.7153    8.6078   -3.1070 C   0  0  0  0  0  0  0  0  0  0  0  0
   -4.9498    8.8349   -3.7129 C   0  0  0  0  0  0  0  0  0  0  0  0
   -4.9880    9.5867   -4.8969 C   0  0  0  0  0  0  0  0  0  0  0  0
   -3.7951   10.0821   -5.4681 C   0  0  0  0  0  0  0  0  0  0  0  0
   -3.8319   10.8073   -6.7814 C   0  0  0  0  0  0  0  0  0  0  0  0
   -2.5584    9.8191   -4.8444 C   0  0  0  0  0  0  0  0  0  0  0  0
   -2.5387    9.1102   -3.6318 C   0  0  0  0  0  0  0  0  0  0  0  0
   -1.3942    8.7043   -2.7702 C   0  0  0  0  0  0  0  0  0  0  0  0
   -0.1813    9.3106   -2.6988 C   0  0  0  0  0  0  0  0  0  0  0  0
    0.7448    9.0571   -1.6267 C   0  0  0  0  0  0  0  0  0  0  0  0
    1.4885    8.8625   -0.7635 N   0  0  0  0  0  0  0  0  0  0  0  0
    0.2029   10.3757   -3.5903 C   0  0  0  0  0  0  0  0  0  0  0  0
    0.5189   11.2332   -4.3029 N   0  0  0  0  0  0  0  0  0  0  0  0
    6.7339   -5.1912   -1.8626 H   0  0  0  0  0  0  0  0  0  0  0  0
    3.7708   -0.6084    1.2021 H   0  0  0  0  0  0  0  0  0  0  0  0
    4.8785    1.6091    1.3106 H   0  0  0  0  0  0  0  0  0  0  0  0
    8.1647    2.3640   -0.2833 H   0  0  0  0  0  0  0  0  0  0  0  0
    7.9269    2.3589    1.5098 H   0  0  0  0  0  0  0  0  0  0  0  0
    6.6698    3.0688    0.4202 H   0  0  0  0  0  0  0  0  0  0  0  0
    8.4651   -0.0763   -0.3878 H   0  0  0  0  0  0  0  0  0  0  0  0
    4.6500   -6.7585    0.3110 H   0  0  0  0  0  0  0  0  0  0  0  0
    3.3906   -6.1544    2.5891 H   0  0  0  0  0  0  0  0  0  0  0  0
    4.2309   -7.6163    4.3821 H   0  0  0  0  0  0  0  0  0  0  0  0
    4.3698   -9.8566    5.4262 H   0  0  0  0  0  0  0  0  0  0  0  0
    3.7665  -12.2493    5.4170 H   0  0  0  0  0  0  0  0  0  0  0  0
    2.3435  -13.1755    3.6150 H   0  0  0  0  0  0  0  0  0  0  0  0
    1.4984  -11.7149    1.8149 H   0  0  0  0  0  0  0  0  0  0  0  0
    1.3442   -9.4793    0.7853 H   0  0  0  0  0  0  0  0  0  0  0  0
   -1.1348   -4.9445   -3.6626 H   0  0  0  0  0  0  0  0  0  0  0  0
   -1.9170   -2.6160   -4.4774 H   0  0  0  0  0  0  0  0  0  0  0  0
   -0.0539    1.2193   -5.2094 H   0  0  0  0  0  0  0  0  0  0  0  0
    0.3286   -0.5357   -5.3297 H   0  0  0  0  0  0  0  0  0  0  0  0
    2.0726   -0.2602   -3.5422 H   0  0  0  0  0  0  0  0  0  0  0  0
    2.3743    0.8589   -4.9224 H   0  0  0  0  0  0  0  0  0  0  0  0
    1.6514    1.4968   -3.3947 H   0  0  0  0  0  0  0  0  0  0  0  0
   -1.8537   -4.4052   -0.8060 H   0  0  0  0  0  0  0  0  0  0  0  0
   -4.2644   -4.8107    0.1318 H   0  0  0  0  0  0  0  0  0  0  0  0
   -5.1350   -2.5932    0.5279 H   0  0  0  0  0  0  0  0  0  0  0  0
   -2.2754    0.1061    3.2841 H   0  0  0  0  0  0  0  0  0  0  0  0
    0.5157    2.3026    1.4428 H   0  0  0  0  0  0  0  0  0  0  0  0
    2.3701    1.9094    2.9985 H   0  0  0  0  0  0  0  0  0  0  0  0
    3.1822    1.5515    5.2985 H   0  0  0  0  0  0  0  0  0  0  0  0
    4.0203   -1.0542    8.1973 H   0  0  0  0  0  0  0  0  0  0  0  0
    2.6649   -0.8593    7.0349 H   0  0  0  0  0  0  0  0  0  0  0  0
    2.4508   -0.7559   10.1179 H   0  0  0  0  0  0  0  0  0  0  0  0
    1.9870   -2.1559    9.0756 H   0  0  0  0  0  0  0  0  0  0  0  0
    1.0666   -0.6096    8.9626 H   0  0  0  0  0  0  0  0  0  0  0  0
    0.4488    1.8477    8.5969 H   0  0  0  0  0  0  0  0  0  0  0  0
   -1.4008    2.3456    7.0533 H   0  0  0  0  0  0  0  0  0  0  0  0
   -2.2386    2.5995    4.7395 H   0  0  0  0  0  0  0  0  0  0  0  0
   -6.5326    2.0651   -0.6356 H   0  0  0  0  0  0  0  0  0  0  0  0
   -8.4896    1.2751   -1.9065 H   0  0  0  0  0  0  0  0  0  0  0  0
   -9.4624    0.4726   -4.0199 H   0  0  0  0  0  0  0  0  0  0  0  0
   -7.9632   -1.8468   -5.2752 H   0  0  0  0  0  0  0  0  0  0  0  0
   -8.4186   -2.2764   -6.9585 H   0  0  0  0  0  0  0  0  0  0  0  0
   -6.0695   -2.8582   -6.6213 H   0  0  0  0  0  0  0  0  0  0  0  0
   -5.6790   -1.2084   -6.0343 H   0  0  0  0  0  0  0  0  0  0  0  0
   -6.1574   -1.4595   -7.7622 H   0  0  0  0  0  0  0  0  0  0  0  0
   -5.7809    1.2927   -6.0775 H   0  0  0  0  0  0  0  0  0  0  0  0
   -3.8386    2.1141   -4.8172 H   0  0  0  0  0  0  0  0  0  0  0  0
   -2.7804    2.6487   -2.6788 H   0  0  0  0  0  0  0  0  0  0  0  0
   -3.3747    4.9518   -1.7408 H   0  0  0  0  0  0  0  0  0  0  0  0
   -0.1946    6.8097   -1.1046 H   0  0  0  0  0  0  0  0  0  0  0  0
   -5.8571    8.4181   -3.2933 H   0  0  0  0  0  0  0  0  0  0  0  0
   -5.9410    9.7627   -5.3796 H   0  0  0  0  0  0  0  0  0  0  0  0
   -3.6064   10.0963   -7.6040 H   0  0  0  0  0  0  0  0  0  0  0  0
   -4.8308   11.2556   -6.9596 H   0  0  0  0  0  0  0  0  0  0  0  0
   -3.0801   11.6263   -6.7929 H   0  0  0  0  0  0  0  0  0  0  0  0
   -1.6477   10.1320   -5.3307 H   0  0  0  0  0  0  0  0  0  0  0  0
  1  2  2  3
  2  3  1  0
  3  4  2  0
  3  5  1  0
  5  6  2  0
  6  7  1  0
  7  8  2  0
  8  9  1  0
  8 10  1  0
 10 11  2  0
 11 12  1  0
 12 13  2  3
 13 14  1  0
 14 15  3  0
 13 16  1  0
 16 17  3  0
  1 18  1  0
 18 19  2  0
 19 20  1  0
 20 21  2  0
 21 22  1  0
 22 23  2  0
 23 24  1  0
 24 25  2  0
 25 26  1  0
 26 27  2  0
 27 28  1  0
 28 29  2  0
 29 30  1  0
 30 31  2  0
 21 32  1  0
 32 33  2  0
 33 34  1  0
 34 35  1  0
 35 36  2  0
 36 37  1  0
 37 38  2  0
 38 39  1  0
 39 40  1  0
 40 41  1  0
 38 42  1  0
 34 43  2  0
 43 44  1  0
 33 45  1  0
 45 46  2  0
 46 47  1  0
 46 48  1  0
 48 49  2  0
 49 50  1  0
 50 51  2  0
 51 52  1  0
 52 53  2  0
 53 54  1  0
 54 55  1  0
 55 56  2  0
 51 57  1  0
 57 58  2  0
 58 59  1  0
 59 60  2  0
 60 61  1  0
 61 62  2  0
 62 63  1  0
 63 64  2  0
 64 65  1  0
 65 66  2  0
 66 67  1  0
 67 68  1  0
 68 69  1  0
 66 70  1  0
 70 71  2  0
 71 72  1  0
 72 73  2  0
 60 74  1  0
 74 75  2  0
 75 76  1  0
 76 77  1  0
 77 78  2  0
 78 79  1  0
 79 80  2  0
 80 81  1  0
 81 82  2  0
 82 83  1  0
 83 84  1  0
 84 85  1  0
 82 86  1  0
 86 87  2  0
 87 88  1  0
 88 89  2  0
 76 90  2  0
 90 91  1  0
 75 92  1  0
 92 93  2  0
 93 94  1  0
 93 95  1  0
 95 96  2  3
 96 97  1  0
 97 98  2  0
 97 99  1  0
 99100  2  0
100101  1  0
101102  2  0
102103  1  0
102104  1  0
104105  2  0
105106  1  0
106107  2  3
107108  1  0
108109  3  0
107110  1  0
110111  3  0
 12  2  1  0
 44 18  1  0
 56 48  1  0
 91 57  1  0
106 96  1  0
 11  5  1  0
 43 20  1  0
 56 52  1  0
 90 59  1  0
105 99  1  0
 31 22  1  0
 47 32  1  0
 73 61  1  0
 94 74  1  0
 30 25  1  0
 42 35  1  0
 72 64  1  0
 89 77  1  0
 87 79  1  0
  1112  1  0
  6113  1  0
  7114  1  0
  9115  1  0
  9116  1  0
  9117  1  0
 10118  1  0
 19119  1  0
 23120  1  0
 24121  1  0
 26122  1  0
 27123  1  0
 28124  1  0
 29125  1  0
 31126  1  0
 36127  1  0
 37128  1  0
 40129  1  0
 40130  1  0
 41131  1  0
 41132  1  0
 41133  1  0
 45134  1  0
 49135  1  0
 50136  1  0
 58137  1  0
 62138  1  0
 63139  1  0
 65140  1  0
 68141  1  0
 68142  1  0
 69143  1  0
 69144  1  0
 69145  1  0
 70146  1  0
 71147  1  0
 73148  1  0
 78149  1  0
 80150  1  0
 81151  1  0
 84152  1  0
 84153  1  0
 85154  1  0
 85155  1  0
 85156  1  0
 86157  1  0
 88158  1  0
 89159  1  0
 92160  1  0
 95161  1  0
100162  1  0
101163  1  0
103164  1  0
103165  1  0
103166  1  0
104167  1  0
M  END

