
     RDKit          3D

202219  0  0  0  0  0  0  0  0999 V2000
   -6.1627    2.2087   -4.3628 C   0  0  0  0  0  0  0  0  0  0  0  0
   -5.8462    2.7386   -5.5504 C   0  0  0  0  0  0  0  0  0  0  0  0
   -6.6071    2.4205   -6.7701 C   0  0  0  0  0  0  0  0  0  0  0  0
   -7.7557    1.8941   -6.8272 O   0  0  0  0  0  0  0  0  0  0  0  0
   -5.7557    2.7125   -7.8991 C   0  0  0  0  0  0  0  0  0  0  0  0
   -5.9073    2.5779   -9.2697 C   0  0  0  0  0  0  0  0  0  0  0  0
   -4.4620    3.1621   -9.9272 S   0  0  0  0  0  0  0  0  0  0  0  0
   -3.6731    3.5685   -8.4825 C   0  0  0  0  0  0  0  0  0  0  0  0
   -4.5664    3.2442   -7.4644 C   0  0  0  0  0  0  0  0  0  0  0  0
   -4.5751    3.4015   -5.9927 C   0  0  0  0  0  0  0  0  0  0  0  0
   -3.8304    4.3061   -5.3083 C   0  0  0  0  0  0  0  0  0  0  0  0
   -4.1800    4.7785   -3.9940 C   0  0  0  0  0  0  0  0  0  0  0  0
   -4.4350    5.1997   -2.9483 N   0  0  0  0  0  0  0  0  0  0  0  0
   -2.7651    5.0423   -5.9412 C   0  0  0  0  0  0  0  0  0  0  0  0
   -1.9110    5.6473   -6.4362 N   0  0  0  0  0  0  0  0  0  0  0  0
   -5.1708    1.9383   -3.3191 C   0  0  0  0  0  0  0  0  0  0  0  0
   -5.1482    2.4408   -1.9929 C   0  0  0  0  0  0  0  0  0  0  0  0
   -6.2150    3.2140   -1.3721 N   0  0  0  0  0  0  0  0  0  0  0  0
   -6.1784    3.5387    0.0206 C   0  0  0  0  0  0  0  0  0  0  0  0
   -6.0451    4.8733    0.4215 C   0  0  0  0  0  0  0  0  0  0  0  0
   -6.1249    5.2104    1.7786 C   0  0  0  0  0  0  0  0  0  0  0  0
   -6.3250    4.2113    2.7376 C   0  0  0  0  0  0  0  0  0  0  0  0
   -6.4494    4.6478    4.4737 S   0  0  0  0  0  0  0  0  0  0  0  0
   -8.2538    4.9052    4.4209 C   0  0  0  0  0  0  0  0  0  0  0  0
   -6.4560    2.8718    2.3429 C   0  0  0  0  0  0  0  0  0  0  0  0
   -6.3937    2.5392    0.9868 C   0  0  0  0  0  0  0  0  0  0  0  0
   -7.5014    3.3260   -1.9989 C   0  0  0  0  0  0  0  0  0  0  0  0
   -7.8203    4.4419   -2.7851 C   0  0  0  0  0  0  0  0  0  0  0  0
   -9.0655    4.5318   -3.4144 C   0  0  0  0  0  0  0  0  0  0  0  0
  -10.0180    3.5207   -3.2303 C   0  0  0  0  0  0  0  0  0  0  0  0
  -11.6288    3.6420   -4.0116 S   0  0  0  0  0  0  0  0  0  0  0  0
  -11.1576    2.6092   -5.4378 C   0  0  0  0  0  0  0  0  0  0  0  0
   -9.7143    2.4166   -2.4190 C   0  0  0  0  0  0  0  0  0  0  0  0
   -8.4627    2.3169   -1.8141 C   0  0  0  0  0  0  0  0  0  0  0  0
   -3.9903    1.9823   -1.3360 C   0  0  0  0  0  0  0  0  0  0  0  0
   -3.2642    2.2325    0.1688 S   0  0  0  0  0  0  0  0  0  0  0  0
   -2.0671    1.0464   -0.0611 C   0  0  0  0  0  0  0  0  0  0  0  0
   -2.2459    0.4315   -1.3112 C   0  0  0  0  0  0  0  0  0  0  0  0
   -1.8198   -0.9099   -1.6062 N   0  0  0  0  0  0  0  0  0  0  0  0
   -0.8527   -1.1563   -2.6382 C   0  0  0  0  0  0  0  0  0  0  0  0
   -1.1137   -2.0930   -3.6529 C   0  0  0  0  0  0  0  0  0  0  0  0
   -0.1652   -2.3313   -4.6485 C   0  0  0  0  0  0  0  0  0  0  0  0
    1.0432   -1.6229   -4.6544 C   0  0  0  0  0  0  0  0  0  0  0  0
    2.2561   -1.8956   -5.9500 S   0  0  0  0  0  0  0  0  0  0  0  0
    3.1799   -3.1375   -4.9883 C   0  0  0  0  0  0  0  0  0  0  0  0
    1.3034   -0.6866   -3.6513 C   0  0  0  0  0  0  0  0  0  0  0  0
    0.3680   -0.4713   -2.6337 C   0  0  0  0  0  0  0  0  0  0  0  0
   -2.4766   -2.0109   -0.9446 C   0  0  0  0  0  0  0  0  0  0  0  0
   -3.8649   -1.9831   -0.7125 C   0  0  0  0  0  0  0  0  0  0  0  0
   -4.4802   -2.9997    0.0189 C   0  0  0  0  0  0  0  0  0  0  0  0
   -3.7178   -4.0515    0.5346 C   0  0  0  0  0  0  0  0  0  0  0  0
   -4.4986   -5.3136    1.5439 S   0  0  0  0  0  0  0  0  0  0  0  0
   -4.2536   -4.3939    3.0976 C   0  0  0  0  0  0  0  0  0  0  0  0
   -2.3391   -4.1043    0.2866 C   0  0  0  0  0  0  0  0  0  0  0  0
   -1.7260   -3.0946   -0.4589 C   0  0  0  0  0  0  0  0  0  0  0  0
   -3.2711    1.0515   -2.0178 C   0  0  0  0  0  0  0  0  0  0  0  0
   -3.9178    0.8124   -3.5379 S   0  0  0  0  0  0  0  0  0  0  0  0
   -0.9681    0.7697    0.8711 C   0  0  0  0  0  0  0  0  0  0  0  0
    0.1101    1.6362    1.1485 C   0  0  0  0  0  0  0  0  0  0  0  0
    0.2419    2.9847    0.6687 N   0  0  0  0  0  0  0  0  0  0  0  0
    0.3346    3.1986   -0.7473 C   0  0  0  0  0  0  0  0  0  0  0  0
    1.3987    2.6407   -1.4743 C   0  0  0  0  0  0  0  0  0  0  0  0
    1.4412    2.7749   -2.8640 C   0  0  0  0  0  0  0  0  0  0  0  0
    0.4251    3.4619   -3.5326 C   0  0  0  0  0  0  0  0  0  0  0  0
    0.4284    3.5225   -5.3206 S   0  0  0  0  0  0  0  0  0  0  0  0
   -0.7176    2.1200   -5.5061 C   0  0  0  0  0  0  0  0  0  0  0  0
   -0.6071    4.0699   -2.8037 C   0  0  0  0  0  0  0  0  0  0  0  0
   -0.6459    3.9472   -1.4147 C   0  0  0  0  0  0  0  0  0  0  0  0
    0.5348    4.0529    1.6013 C   0  0  0  0  0  0  0  0  0  0  0  0
    1.2965    5.1726    1.2094 C   0  0  0  0  0  0  0  0  0  0  0  0
    1.6308    6.1640    2.1380 C   0  0  0  0  0  0  0  0  0  0  0  0
    1.2165    6.0487    3.4698 C   0  0  0  0  0  0  0  0  0  0  0  0
    1.6932    7.2875    4.6765 S   0  0  0  0  0  0  0  0  0  0  0  0
    3.2249    6.4171    5.1498 C   0  0  0  0  0  0  0  0  0  0  0  0
    0.4385    4.9567    3.8646 C   0  0  0  0  0  0  0  0  0  0  0  0
    0.0973    3.9650    2.9394 C   0  0  0  0  0  0  0  0  0  0  0  0
    1.1020    0.9789    1.8737 C   0  0  0  0  0  0  0  0  0  0  0  0
    2.7052    1.3218    2.2213 S   0  0  0  0  0  0  0  0  0  0  0  0
    3.0581   -0.2375    2.8219 C   0  0  0  0  0  0  0  0  0  0  0  0
    1.9042   -1.0318    2.7059 C   0  0  0  0  0  0  0  0  0  0  0  0
    1.8530   -2.4362    3.0066 N   0  0  0  0  0  0  0  0  0  0  0  0
    1.9821   -2.8125    4.3907 C   0  0  0  0  0  0  0  0  0  0  0  0
    2.9074   -3.7975    4.7809 C   0  0  0  0  0  0  0  0  0  0  0  0
    3.0976   -4.0843    6.1346 C   0  0  0  0  0  0  0  0  0  0  0  0
    2.3705   -3.3853    7.1075 C   0  0  0  0  0  0  0  0  0  0  0  0
    2.6595   -3.7067    8.8470 S   0  0  0  0  0  0  0  0  0  0  0  0
    3.9582   -2.4348    8.9894 C   0  0  0  0  0  0  0  0  0  0  0  0
    1.4346   -2.4229    6.7236 C   0  0  0  0  0  0  0  0  0  0  0  0
    1.2413   -2.1310    5.3750 C   0  0  0  0  0  0  0  0  0  0  0  0
    1.6776   -3.4144    1.9516 C   0  0  0  0  0  0  0  0  0  0  0  0
    2.0671   -3.1196    0.6285 C   0  0  0  0  0  0  0  0  0  0  0  0
    1.9512   -4.0797   -0.3795 C   0  0  0  0  0  0  0  0  0  0  0  0
    1.4113   -5.3391   -0.0883 C   0  0  0  0  0  0  0  0  0  0  0  0
    1.3285   -6.5894   -1.3737 S   0  0  0  0  0  0  0  0  0  0  0  0
   -0.2984   -6.0576   -1.9931 C   0  0  0  0  0  0  0  0  0  0  0  0
    0.9906   -5.6316    1.2100 C   0  0  0  0  0  0  0  0  0  0  0  0
    1.1133   -4.6748    2.2236 C   0  0  0  0  0  0  0  0  0  0  0  0
    0.8372   -0.3168    2.1748 C   0  0  0  0  0  0  0  0  0  0  0  0
   -0.6479   -0.7567    1.5529 S   0  0  0  0  0  0  0  0  0  0  0  0
    4.4223   -0.7957    2.8803 C   0  0  0  0  0  0  0  0  0  0  0  0
    5.0049   -1.1600    4.1011 C   0  0  0  0  0  0  0  0  0  0  0  0
    4.3815   -0.8796    5.2744 F   0  0  0  0  0  0  0  0  0  0  0  0
    6.2408   -1.8231    4.1206 C   0  0  0  0  0  0  0  0  0  0  0  0
    6.7867   -2.1743    5.3140 F   0  0  0  0  0  0  0  0  0  0  0  0
    6.9007   -2.1459    2.9207 C   0  0  0  0  0  0  0  0  0  0  0  0
    6.3340   -1.7347    1.6985 C   0  0  0  0  0  0  0  0  0  0  0  0
    6.9517   -1.9979    0.5139 N   0  0  0  0  0  0  0  0  0  0  0  0
    6.4220   -1.6294   -0.6839 C   0  0  0  0  0  0  0  0  0  0  0  0
    7.1286   -2.0779   -1.9362 C   0  0  0  0  0  0  0  0  0  0  0  0
    6.6457   -3.4655   -2.3559 C   0  0  0  0  0  0  0  0  0  0  0  0
    5.1898   -0.9364   -0.6921 C   0  0  0  0  0  0  0  0  0  0  0  0
    4.5882   -0.6651    0.4922 N   0  0  0  0  0  0  0  0  0  0  0  0
    5.1089   -1.0542    1.6843 C   0  0  0  0  0  0  0  0  0  0  0  0
    4.5294   -0.4438   -1.9479 C   0  0  0  0  0  0  0  0  0  0  0  0
    5.0256    0.9456   -2.3198 C   0  0  0  0  0  0  0  0  0  0  0  0
    8.2314   -2.8043    2.9580 C   0  0  0  0  0  0  0  0  0  0  0  0
    8.5524   -3.8849    2.2200 C   0  0  0  0  0  0  0  0  0  0  0  0
    7.5860   -4.7904    1.5641 C   0  0  0  0  0  0  0  0  0  0  0  0
    6.3296   -4.6996    1.5837 O   0  0  0  0  0  0  0  0  0  0  0  0
    8.3282   -5.8937    1.0018 C   0  0  0  0  0  0  0  0  0  0  0  0
    7.9606   -7.0185    0.2907 C   0  0  0  0  0  0  0  0  0  0  0  0
    9.4054   -7.8423   -0.0058 S   0  0  0  0  0  0  0  0  0  0  0  0
   10.4620   -6.7723    0.7689 C   0  0  0  0  0  0  0  0  0  0  0  0
    9.6675   -5.7482    1.2687 C   0  0  0  0  0  0  0  0  0  0  0  0
    9.9162   -4.4867    2.0084 C   0  0  0  0  0  0  0  0  0  0  0  0
   11.1343   -3.9476    2.2731 C   0  0  0  0  0  0  0  0  0  0  0  0
   11.3115   -2.6178    2.7898 C   0  0  0  0  0  0  0  0  0  0  0  0
   11.4638   -1.5489    3.2040 N   0  0  0  0  0  0  0  0  0  0  0  0
   12.3559   -4.6559    1.9800 C   0  0  0  0  0  0  0  0  0  0  0  0
   13.3442   -5.2135    1.7547 N   0  0  0  0  0  0  0  0  0  0  0  0
   -7.1213    1.7155   -4.2531 H   0  0  0  0  0  0  0  0  0  0  0  0
   -6.7674    2.1882   -9.8007 H   0  0  0  0  0  0  0  0  0  0  0  0
   -2.6821    3.9877   -8.3933 H   0  0  0  0  0  0  0  0  0  0  0  0
   -5.9047    5.6515   -0.3192 H   0  0  0  0  0  0  0  0  0  0  0  0
   -6.0353    6.2449    2.0752 H   0  0  0  0  0  0  0  0  0  0  0  0
   -8.5010    5.7171    3.7011 H   0  0  0  0  0  0  0  0  0  0  0  0
   -8.6058    5.2019    5.4319 H   0  0  0  0  0  0  0  0  0  0  0  0
   -8.7632    3.9668    4.1201 H   0  0  0  0  0  0  0  0  0  0  0  0
   -6.6081    2.0957    3.0761 H   0  0  0  0  0  0  0  0  0  0  0  0
   -6.5122    1.5051    0.6799 H   0  0  0  0  0  0  0  0  0  0  0  0
   -7.0973    5.2372   -2.9249 H   0  0  0  0  0  0  0  0  0  0  0  0
   -9.3001    5.3929   -4.0265 H   0  0  0  0  0  0  0  0  0  0  0  0
  -10.4085    3.1431   -6.0578 H   0  0  0  0  0  0  0  0  0  0  0  0
  -12.0567    2.4078   -6.0553 H   0  0  0  0  0  0  0  0  0  0  0  0
  -10.7390    1.6405   -5.0939 H   0  0  0  0  0  0  0  0  0  0  0  0
  -10.4455    1.6299   -2.2713 H   0  0  0  0  0  0  0  0  0  0  0  0
   -8.2275    1.4476   -1.2055 H   0  0  0  0  0  0  0  0  0  0  0  0
   -2.0540   -2.6274   -3.6734 H   0  0  0  0  0  0  0  0  0  0  0  0
   -0.3738   -3.0544   -5.4270 H   0  0  0  0  0  0  0  0  0  0  0  0
    4.0564   -3.4798   -5.5753 H   0  0  0  0  0  0  0  0  0  0  0  0
    3.5377   -2.6958   -4.0394 H   0  0  0  0  0  0  0  0  0  0  0  0
    2.5238   -4.0043   -4.7585 H   0  0  0  0  0  0  0  0  0  0  0  0
    2.2235   -0.1283   -3.6626 H   0  0  0  0  0  0  0  0  0  0  0  0
    0.5946    0.1996   -1.8245 H   0  0  0  0  0  0  0  0  0  0  0  0
   -4.4755   -1.1815   -1.0928 H   0  0  0  0  0  0  0  0  0  0  0  0
   -5.5465   -2.9587    0.2021 H   0  0  0  0  0  0  0  0  0  0  0  0
   -4.7617   -4.9281    3.9247 H   0  0  0  0  0  0  0  0  0  0  0  0
   -4.6796   -3.3712    3.0189 H   0  0  0  0  0  0  0  0  0  0  0  0
   -3.1692   -4.3338    3.3256 H   0  0  0  0  0  0  0  0  0  0  0  0
   -1.7455   -4.9174    0.6910 H   0  0  0  0  0  0  0  0  0  0  0  0
   -0.6591   -3.1266   -0.6131 H   0  0  0  0  0  0  0  0  0  0  0  0
    2.1709    2.0760   -0.9634 H   0  0  0  0  0  0  0  0  0  0  0  0
    2.2488    2.3168   -3.4205 H   0  0  0  0  0  0  0  0  0  0  0  0
   -0.2731    1.1944   -5.0950 H   0  0  0  0  0  0  0  0  0  0  0  0
   -1.6678    2.3377   -4.9781 H   0  0  0  0  0  0  0  0  0  0  0  0
   -0.9312    1.9697   -6.5835 H   0  0  0  0  0  0  0  0  0  0  0  0
   -1.3827    4.6186   -3.3161 H   0  0  0  0  0  0  0  0  0  0  0  0
   -1.4561    4.4009   -0.8589 H   0  0  0  0  0  0  0  0  0  0  0  0
    1.6582    5.2689    0.1935 H   0  0  0  0  0  0  0  0  0  0  0  0
    2.2257    7.0128    1.8234 H   0  0  0  0  0  0  0  0  0  0  0  0
    3.9639    6.4735    4.3239 H   0  0  0  0  0  0  0  0  0  0  0  0
    3.6526    6.8993    6.0518 H   0  0  0  0  0  0  0  0  0  0  0  0
    3.0113    5.3531    5.3853 H   0  0  0  0  0  0  0  0  0  0  0  0
    0.1081    4.8654    4.8905 H   0  0  0  0  0  0  0  0  0  0  0  0
   -0.4895    3.1222    3.2733 H   0  0  0  0  0  0  0  0  0  0  0  0
    3.5070   -4.3081    4.0342 H   0  0  0  0  0  0  0  0  0  0  0  0
    3.8244   -4.8370    6.4263 H   0  0  0  0  0  0  0  0  0  0  0  0
    4.2887   -2.3828   10.0464 H   0  0  0  0  0  0  0  0  0  0  0  0
    4.8277   -2.6982    8.3530 H   0  0  0  0  0  0  0  0  0  0  0  0
    3.5617   -1.4409    8.6899 H   0  0  0  0  0  0  0  0  0  0  0  0
    0.8665   -1.8840    7.4747 H   0  0  0  0  0  0  0  0  0  0  0  0
    0.5284   -1.3665    5.0899 H   0  0  0  0  0  0  0  0  0  0  0  0
    2.4676   -2.1515    0.3708 H   0  0  0  0  0  0  0  0  0  0  0  0
    2.2593   -3.8404   -1.3875 H   0  0  0  0  0  0  0  0  0  0  0  0
   -0.2897   -4.9717   -2.2228 H   0  0  0  0  0  0  0  0  0  0  0  0
   -0.5271   -6.6147   -2.9234 H   0  0  0  0  0  0  0  0  0  0  0  0
   -1.0767   -6.2896   -1.2394 H   0  0  0  0  0  0  0  0  0  0  0  0
    0.5564   -6.6024    1.4406 H   0  0  0  0  0  0  0  0  0  0  0  0
    0.7592   -4.9216    3.2186 H   0  0  0  0  0  0  0  0  0  0  0  0
    6.9787   -1.3614   -2.7699 H   0  0  0  0  0  0  0  0  0  0  0  0
    8.2279   -2.1175   -1.7536 H   0  0  0  0  0  0  0  0  0  0  0  0
    6.8856   -4.2048   -1.5635 H   0  0  0  0  0  0  0  0  0  0  0  0
    5.5469   -3.4600   -2.5288 H   0  0  0  0  0  0  0  0  0  0  0  0
    7.1544   -3.7754   -3.2941 H   0  0  0  0  0  0  0  0  0  0  0  0
    4.6861   -1.1421   -2.7929 H   0  0  0  0  0  0  0  0  0  0  0  0
    3.4370   -0.3865   -1.7589 H   0  0  0  0  0  0  0  0  0  0  0  0
    4.7732    1.6747   -1.5212 H   0  0  0  0  0  0  0  0  0  0  0  0
    6.1263    0.9398   -2.4732 H   0  0  0  0  0  0  0  0  0  0  0  0
    4.5425    1.2717   -3.2685 H   0  0  0  0  0  0  0  0  0  0  0  0
    8.9593   -2.3569    3.6167 H   0  0  0  0  0  0  0  0  0  0  0  0
    6.9606   -7.3034   -0.0163 H   0  0  0  0  0  0  0  0  0  0  0  0
   11.5301   -6.8897    0.8464 H   0  0  0  0  0  0  0  0  0  0  0  0
  1  2  2  3
  2  3  1  0
  3  4  2  0
  3  5  1  0
  5  6  2  0
  6  7  1  0
  7  8  1  0
  8  9  2  0
  9 10  1  0
 10 11  2  3
 11 12  1  0
 12 13  3  0
 11 14  1  0
 14 15  3  0
  1 16  1  0
 16 17  2  0
 17 18  1  0
 18 19  1  0
 19 20  2  0
 20 21  1  0
 21 22  2  0
 22 23  1  0
 23 24  1  0
 22 25  1  0
 25 26  2  0
 18 27  1  0
 27 28  2  0
 28 29  1  0
 29 30  2  0
 30 31  1  0
 31 32  1  0
 30 33  1  0
 33 34  2  0
 17 35  1  0
 35 36  1  0
 36 37  1  0
 37 38  2  0
 38 39  1  0
 39 40  1  0
 40 41  2  0
 41 42  1  0
 42 43  2  0
 43 44  1  0
 44 45  1  0
 43 46  1  0
 46 47  2  0
 39 48  1  0
 48 49  2  0
 49 50  1  0
 50 51  2  0
 51 52  1  0
 52 53  1  0
 51 54  1  0
 54 55  2  0
 38 56  1  0
 56 57  1  0
 37 58  1  0
 58 59  2  0
 59 60  1  0
 60 61  1  0
 61 62  2  0
 62 63  1  0
 63 64  2  0
 64 65  1  0
 65 66  1  0
 64 67  1  0
 67 68  2  0
 60 69  1  0
 69 70  2  0
 70 71  1  0
 71 72  2  0
 72 73  1  0
 73 74  1  0
 72 75  1  0
 75 76  2  0
 59 77  1  0
 77 78  1  0
 78 79  1  0
 79 80  2  0
 80 81  1  0
 81 82  1  0
 82 83  2  0
 83 84  1  0
 84 85  2  0
 85 86  1  0
 86 87  1  0
 85 88  1  0
 88 89  2  0
 81 90  1  0
 90 91  2  0
 91 92  1  0
 92 93  2  0
 93 94  1  0
 94 95  1  0
 93 96  1  0
 96 97  2  0
 80 98  1  0
 98 99  1  0
 79100  1  0
100101  2  0
101102  1  0
101103  1  0
103104  1  0
103105  2  0
105106  1  0
106107  2  0
107108  1  0
108109  1  0
109110  1  0
108111  2  0
111112  1  0
112113  2  0
111114  1  0
114115  1  0
105116  1  0
116117  2  3
117118  1  0
118119  2  0
118120  1  0
120121  2  0
121122  1  0
122123  1  0
123124  2  0
124125  1  0
125126  2  3
126127  1  0
127128  3  0
126129  1  0
129130  3  0
 10  2  1  0
 57 16  1  0
 99 58  1  0
113100  1  0
125117  1  0
  9  5  1  0
 26 19  1  0
 34 27  1  0
 56 35  2  0
 68 61  1  0
 76 69  1  0
 98 77  2  0
113106  1  0
124120  1  0
 47 40  1  0
 55 48  1  0
 89 82  1  0
 97 90  1  0
  1131  1  0
  6132  1  0
  8133  1  0
 20134  1  0
 21135  1  0
 24136  1  0
 24137  1  0
 24138  1  0
 25139  1  0
 26140  1  0
 28141  1  0
 29142  1  0
 32143  1  0
 32144  1  0
 32145  1  0
 33146  1  0
 34147  1  0
 41148  1  0
 42149  1  0
 45150  1  0
 45151  1  0
 45152  1  0
 46153  1  0
 47154  1  0
 49155  1  0
 50156  1  0
 53157  1  0
 53158  1  0
 53159  1  0
 54160  1  0
 55161  1  0
 62162  1  0
 63163  1  0
 66164  1  0
 66165  1  0
 66166  1  0
 67167  1  0
 68168  1  0
 70169  1  0
 71170  1  0
 74171  1  0
 74172  1  0
 74173  1  0
 75174  1  0
 76175  1  0
 83176  1  0
 84177  1  0
 87178  1  0
 87179  1  0
 87180  1  0
 88181  1  0
 89182  1  0
 91183  1  0
 92184  1  0
 95185  1  0
 95186  1  0
 95187  1  0
 96188  1  0
 97189  1  0
109190  1  0
109191  1  0
110192  1  0
110193  1  0
110194  1  0
114195  1  0
114196  1  0
115197  1  0
115198  1  0
115199  1  0
116200  1  0
121201  1  0
123202  1  0
M  END

