
     RDKit          3D

238259  0  0  0  0  0  0  0  0999 V2000
    7.1710   -2.5430    5.5308 C   0  0  0  0  0  0  0  0  0  0  0  0
    6.9959   -2.7971    6.8468 C   0  0  0  0  0  0  0  0  0  0  0  0
    5.7404   -2.5577    7.5925 C   0  0  0  0  0  0  0  0  0  0  0  0
    4.7237   -1.9305    7.1877 O   0  0  0  0  0  0  0  0  0  0  0  0
    5.8555   -3.2236    8.8670 C   0  0  0  0  0  0  0  0  0  0  0  0
    4.9771   -3.4187    9.9173 C   0  0  0  0  0  0  0  0  0  0  0  0
    5.8197   -4.3856   11.0176 S   0  0  0  0  0  0  0  0  0  0  0  0
    7.2667   -4.5372   10.1547 C   0  0  0  0  0  0  0  0  0  0  0  0
    7.0848   -3.8278    8.9719 C   0  0  0  0  0  0  0  0  0  0  0  0
    7.9008   -3.5759    7.7618 C   0  0  0  0  0  0  0  0  0  0  0  0
    9.1769   -3.9824    7.5596 C   0  0  0  0  0  0  0  0  0  0  0  0
    9.8564   -4.8350    8.4995 C   0  0  0  0  0  0  0  0  0  0  0  0
   10.4129   -5.5277    9.2440 N   0  0  0  0  0  0  0  0  0  0  0  0
    9.9771   -3.5504    6.4394 C   0  0  0  0  0  0  0  0  0  0  0  0
   10.6419   -3.1949    5.5618 N   0  0  0  0  0  0  0  0  0  0  0  0
    6.1198   -1.9569    4.6918 C   0  0  0  0  0  0  0  0  0  0  0  0
    5.0942   -2.6614    4.0159 C   0  0  0  0  0  0  0  0  0  0  0  0
    5.0888   -4.0897    3.8075 N   0  0  0  0  0  0  0  0  0  0  0  0
    4.9158   -4.6098    2.4725 C   0  0  0  0  0  0  0  0  0  0  0  0
    4.0096   -5.6492    2.2281 C   0  0  0  0  0  0  0  0  0  0  0  0
    3.7909   -6.1023    0.9219 C   0  0  0  0  0  0  0  0  0  0  0  0
    4.4712   -5.5102   -0.1544 C   0  0  0  0  0  0  0  0  0  0  0  0
    4.2235   -5.9881   -1.5542 C   0  0  0  0  0  0  0  0  0  0  0  0
    5.4006   -4.4904    0.0908 C   0  0  0  0  0  0  0  0  0  0  0  0
    5.6303   -4.0491    1.3967 C   0  0  0  0  0  0  0  0  0  0  0  0
    5.5029   -4.9967    4.8443 C   0  0  0  0  0  0  0  0  0  0  0  0
    4.7023   -5.1977    5.9750 C   0  0  0  0  0  0  0  0  0  0  0  0
    5.1406   -6.0385    7.0055 C   0  0  0  0  0  0  0  0  0  0  0  0
    6.4012   -6.6551    6.9267 C   0  0  0  0  0  0  0  0  0  0  0  0
    6.9038   -7.5161    8.0456 C   0  0  0  0  0  0  0  0  0  0  0  0
    7.1825   -6.4802    5.7741 C   0  0  0  0  0  0  0  0  0  0  0  0
    6.7315   -5.6601    4.7368 C   0  0  0  0  0  0  0  0  0  0  0  0
    4.3297   -1.7734    3.2479 C   0  0  0  0  0  0  0  0  0  0  0  0
    3.0976   -1.9765    2.1244 S   0  0  0  0  0  0  0  0  0  0  0  0
    3.1699   -0.3754    1.5604 C   0  0  0  0  0  0  0  0  0  0  0  0
    4.1831    0.3158    2.2461 C   0  0  0  0  0  0  0  0  0  0  0  0
    4.8247    1.4848    1.7039 N   0  0  0  0  0  0  0  0  0  0  0  0
    5.0676    2.6409    2.5335 C   0  0  0  0  0  0  0  0  0  0  0  0
    4.1261    3.0359    3.4965 C   0  0  0  0  0  0  0  0  0  0  0  0
    4.3667    4.1447    4.3120 C   0  0  0  0  0  0  0  0  0  0  0  0
    5.5665    4.8678    4.1855 C   0  0  0  0  0  0  0  0  0  0  0  0
    5.8205    6.0673    5.0509 C   0  0  0  0  0  0  0  0  0  0  0  0
    6.4976    4.4895    3.2099 C   0  0  0  0  0  0  0  0  0  0  0  0
    6.2519    3.3833    2.3916 C   0  0  0  0  0  0  0  0  0  0  0  0
    5.3054    1.4306    0.3457 C   0  0  0  0  0  0  0  0  0  0  0  0
    4.9834    2.4476   -0.5612 C   0  0  0  0  0  0  0  0  0  0  0  0
    5.3234    2.3251   -1.9105 C   0  0  0  0  0  0  0  0  0  0  0  0
    6.0189    1.1932   -2.3637 C   0  0  0  0  0  0  0  0  0  0  0  0
    6.3297    1.0388   -3.8206 C   0  0  0  0  0  0  0  0  0  0  0  0
    6.3824    0.1932   -1.4456 C   0  0  0  0  0  0  0  0  0  0  0  0
    6.0190    0.3081   -0.1048 C   0  0  0  0  0  0  0  0  0  0  0  0
    4.7728   -0.4905    3.2160 C   0  0  0  0  0  0  0  0  0  0  0  0
    6.1274   -0.3289    4.1879 S   0  0  0  0  0  0  0  0  0  0  0  0
    2.3231    0.2235    0.5168 C   0  0  0  0  0  0  0  0  0  0  0  0
    1.8043   -0.3813   -0.6383 C   0  0  0  0  0  0  0  0  0  0  0  0
    1.7441   -1.7994   -0.8638 N   0  0  0  0  0  0  0  0  0  0  0  0
    2.3527   -2.3135   -2.0621 C   0  0  0  0  0  0  0  0  0  0  0  0
    3.6901   -2.0065   -2.3590 C   0  0  0  0  0  0  0  0  0  0  0  0
    4.2722   -2.4451   -3.5524 C   0  0  0  0  0  0  0  0  0  0  0  0
    3.5193   -3.1912   -4.4615 C   0  0  0  0  0  0  0  0  0  0  0  0
    4.2744   -3.7961   -5.9721 S   0  0  0  0  0  0  0  0  0  0  0  0
    3.8583   -2.3003   -6.9224 C   0  0  0  0  0  0  0  0  0  0  0  0
    2.1804   -3.4942   -4.1807 C   0  0  0  0  0  0  0  0  0  0  0  0
    1.5987   -3.0520   -2.9886 C   0  0  0  0  0  0  0  0  0  0  0  0
    0.8231   -2.6077   -0.0901 C   0  0  0  0  0  0  0  0  0  0  0  0
   -0.3033   -2.0374    0.5387 C   0  0  0  0  0  0  0  0  0  0  0  0
   -1.1441   -2.8150    1.3369 C   0  0  0  0  0  0  0  0  0  0  0  0
   -0.8606   -4.1665    1.5410 C   0  0  0  0  0  0  0  0  0  0  0  0
   -1.9239   -5.1520    2.6044 S   0  0  0  0  0  0  0  0  0  0  0  0
   -1.0490   -4.6757    4.1311 C   0  0  0  0  0  0  0  0  0  0  0  0
    0.2354   -4.7539    0.9072 C   0  0  0  0  0  0  0  0  0  0  0  0
    1.0687   -3.9777    0.0957 C   0  0  0  0  0  0  0  0  0  0  0  0
    1.0057    0.5030   -1.3547 C   0  0  0  0  0  0  0  0  0  0  0  0
   -0.1700    0.2275   -2.4979 S   0  0  0  0  0  0  0  0  0  0  0  0
   -1.0013    1.6922   -2.2392 C   0  0  0  0  0  0  0  0  0  0  0  0
   -0.3226    2.4250   -1.2234 C   0  0  0  0  0  0  0  0  0  0  0  0
   -0.7442    3.6741   -0.6120 N   0  0  0  0  0  0  0  0  0  0  0  0
    0.2557    4.5972   -0.1153 C   0  0  0  0  0  0  0  0  0  0  0  0
    1.4588    4.8004   -0.8160 C   0  0  0  0  0  0  0  0  0  0  0  0
    2.4572    5.6310   -0.2953 C   0  0  0  0  0  0  0  0  0  0  0  0
    2.2541    6.2885    0.9234 C   0  0  0  0  0  0  0  0  0  0  0  0
    3.5578    7.2902    1.6508 S   0  0  0  0  0  0  0  0  0  0  0  0
    3.1680    8.7736    0.6658 C   0  0  0  0  0  0  0  0  0  0  0  0
    1.0555    6.1080    1.6214 C   0  0  0  0  0  0  0  0  0  0  0  0
    0.0686    5.2614    1.1111 C   0  0  0  0  0  0  0  0  0  0  0  0
   -2.1365    3.9805   -0.4028 C   0  0  0  0  0  0  0  0  0  0  0  0
   -2.6279    5.2588   -0.7242 C   0  0  0  0  0  0  0  0  0  0  0  0
   -3.9808    5.5651   -0.5470 C   0  0  0  0  0  0  0  0  0  0  0  0
   -4.8604    4.5974   -0.0500 C   0  0  0  0  0  0  0  0  0  0  0  0
   -6.6165    4.9290    0.0049 S   0  0  0  0  0  0  0  0  0  0  0  0
   -6.9050    4.1814   -1.6279 C   0  0  0  0  0  0  0  0  0  0  0  0
   -4.3633    3.3501    0.3457 C   0  0  0  0  0  0  0  0  0  0  0  0
   -3.0029    3.0516    0.1899 C   0  0  0  0  0  0  0  0  0  0  0  0
    0.7993    1.7108   -0.7751 C   0  0  0  0  0  0  0  0  0  0  0  0
    1.6873    1.7962    0.6479 S   0  0  0  0  0  0  0  0  0  0  0  0
   -2.4469    1.6921   -2.4913 C   0  0  0  0  0  0  0  0  0  0  0  0
   -3.2184    2.4774   -3.3819 C   0  0  0  0  0  0  0  0  0  0  0  0
   -2.7091    3.5315   -4.2310 N   0  0  0  0  0  0  0  0  0  0  0  0
   -3.5973    4.4790   -4.8478 C   0  0  0  0  0  0  0  0  0  0  0  0
   -4.0919    4.2519   -6.1424 C   0  0  0  0  0  0  0  0  0  0  0  0
   -4.9839    5.1629   -6.7260 C   0  0  0  0  0  0  0  0  0  0  0  0
   -5.3669    6.3196   -6.0274 C   0  0  0  0  0  0  0  0  0  0  0  0
   -6.2982    7.3098   -6.6583 C   0  0  0  0  0  0  0  0  0  0  0  0
   -4.8287    6.5713   -4.7555 C   0  0  0  0  0  0  0  0  0  0  0  0
   -3.9513    5.6513   -4.1750 C   0  0  0  0  0  0  0  0  0  0  0  0
   -1.3143    3.6379   -4.5481 C   0  0  0  0  0  0  0  0  0  0  0  0
   -0.5448    4.6749   -4.0001 C   0  0  0  0  0  0  0  0  0  0  0  0
    0.7979    4.8232   -4.3561 C   0  0  0  0  0  0  0  0  0  0  0  0
    1.3838    3.9391   -5.2780 C   0  0  0  0  0  0  0  0  0  0  0  0
    2.8264    4.0886   -5.6627 C   0  0  0  0  0  0  0  0  0  0  0  0
    0.6200    2.8964   -5.8200 C   0  0  0  0  0  0  0  0  0  0  0  0
   -0.7277    2.7528   -5.4652 C   0  0  0  0  0  0  0  0  0  0  0  0
   -4.5482    2.0025   -3.4012 C   0  0  0  0  0  0  0  0  0  0  0  0
   -5.9162    2.2766   -4.3511 S   0  0  0  0  0  0  0  0  0  0  0  0
   -6.8305    1.0005   -3.6935 C   0  0  0  0  0  0  0  0  0  0  0  0
   -6.0167    0.2765   -2.8068 C   0  0  0  0  0  0  0  0  0  0  0  0
   -6.1760   -1.1358   -2.5670 N   0  0  0  0  0  0  0  0  0  0  0  0
   -6.9760   -1.6052   -1.4640 C   0  0  0  0  0  0  0  0  0  0  0  0
   -7.8785   -2.6694   -1.6493 C   0  0  0  0  0  0  0  0  0  0  0  0
   -8.6277   -3.1583   -0.5736 C   0  0  0  0  0  0  0  0  0  0  0  0
   -8.4797   -2.5887    0.7013 C   0  0  0  0  0  0  0  0  0  0  0  0
   -9.2290   -3.1532    1.8724 C   0  0  0  0  0  0  0  0  0  0  0  0
   -7.5783   -1.5310    0.8883 C   0  0  0  0  0  0  0  0  0  0  0  0
   -6.8381   -1.0351   -0.1876 C   0  0  0  0  0  0  0  0  0  0  0  0
   -5.4019   -2.0719   -3.3559 C   0  0  0  0  0  0  0  0  0  0  0  0
   -4.8785   -3.2409   -2.7709 C   0  0  0  0  0  0  0  0  0  0  0  0
   -4.0811   -4.1124   -3.5161 C   0  0  0  0  0  0  0  0  0  0  0  0
   -3.8043   -3.8428   -4.8662 C   0  0  0  0  0  0  0  0  0  0  0  0
   -2.9332   -4.7697   -5.6651 C   0  0  0  0  0  0  0  0  0  0  0  0
   -4.3160   -2.6785   -5.4556 C   0  0  0  0  0  0  0  0  0  0  0  0
   -5.1117   -1.8037   -4.7085 C   0  0  0  0  0  0  0  0  0  0  0  0
   -4.7923    0.9072   -2.6351 C   0  0  0  0  0  0  0  0  0  0  0  0
   -3.4029    0.4354   -1.8558 S   0  0  0  0  0  0  0  0  0  0  0  0
   -8.0837    0.4830   -4.2688 C   0  0  0  0  0  0  0  0  0  0  0  0
   -9.1122    0.0771   -3.5021 C   0  0  0  0  0  0  0  0  0  0  0  0
   -9.3007    0.4281   -2.0750 C   0  0  0  0  0  0  0  0  0  0  0  0
   -8.6115    1.2316   -1.3931 O   0  0  0  0  0  0  0  0  0  0  0  0
  -10.4735   -0.2638   -1.6039 C   0  0  0  0  0  0  0  0  0  0  0  0
  -11.0640   -0.3760   -0.3586 C   0  0  0  0  0  0  0  0  0  0  0  0
  -12.3512   -1.4452   -0.5785 S   0  0  0  0  0  0  0  0  0  0  0  0
  -12.1453   -1.7426   -2.2342 C   0  0  0  0  0  0  0  0  0  0  0  0
  -11.0402   -0.9834   -2.6251 C   0  0  0  0  0  0  0  0  0  0  0  0
  -10.2612   -0.8167   -3.8782 C   0  0  0  0  0  0  0  0  0  0  0  0
  -10.5050   -1.4528   -5.0507 C   0  0  0  0  0  0  0  0  0  0  0  0
  -11.6524   -2.2984   -5.2385 C   0  0  0  0  0  0  0  0  0  0  0  0
  -12.5689   -2.9867   -5.4176 N   0  0  0  0  0  0  0  0  0  0  0  0
   -9.6505   -1.3349   -6.1978 C   0  0  0  0  0  0  0  0  0  0  0  0
   -8.9727   -1.2541   -7.1332 N   0  0  0  0  0  0  0  0  0  0  0  0
    8.0607   -2.8453    5.0124 H   0  0  0  0  0  0  0  0  0  0  0  0
    3.9635   -3.0494   10.0048 H   0  0  0  0  0  0  0  0  0  0  0  0
    8.1322   -5.0927   10.4729 H   0  0  0  0  0  0  0  0  0  0  0  0
    3.4495   -6.0869    3.0481 H   0  0  0  0  0  0  0  0  0  0  0  0
    3.0794   -6.8992    0.7494 H   0  0  0  0  0  0  0  0  0  0  0  0
    3.1331   -6.0834   -1.7408 H   0  0  0  0  0  0  0  0  0  0  0  0
    4.7100   -6.9749   -1.6953 H   0  0  0  0  0  0  0  0  0  0  0  0
    4.6331   -5.2753   -2.3027 H   0  0  0  0  0  0  0  0  0  0  0  0
    5.9462   -4.0336   -0.7265 H   0  0  0  0  0  0  0  0  0  0  0  0
    6.3486   -3.2568    1.5666 H   0  0  0  0  0  0  0  0  0  0  0  0
    3.7429   -4.7010    6.0593 H   0  0  0  0  0  0  0  0  0  0  0  0
    4.5118   -6.1854    7.8754 H   0  0  0  0  0  0  0  0  0  0  0  0
    6.3849   -7.2765    8.9960 H   0  0  0  0  0  0  0  0  0  0  0  0
    6.7358   -8.5844    7.7940 H   0  0  0  0  0  0  0  0  0  0  0  0
    7.9909   -7.3438    8.1969 H   0  0  0  0  0  0  0  0  0  0  0  0
    8.1539   -6.9589    5.6877 H   0  0  0  0  0  0  0  0  0  0  0  0
    7.3587   -5.5080    3.8658 H   0  0  0  0  0  0  0  0  0  0  0  0
    3.1989    2.4882    3.6120 H   0  0  0  0  0  0  0  0  0  0  0  0
    3.6197    4.4424    5.0380 H   0  0  0  0  0  0  0  0  0  0  0  0
    6.9090    6.1699    5.2614 H   0  0  0  0  0  0  0  0  0  0  0  0
    5.2970    5.9644    6.0245 H   0  0  0  0  0  0  0  0  0  0  0  0
    5.4653    6.9855    4.5341 H   0  0  0  0  0  0  0  0  0  0  0  0
    7.4190    5.0482    3.0809 H   0  0  0  0  0  0  0  0  0  0  0  0
    7.0026    3.0937    1.6639 H   0  0  0  0  0  0  0  0  0  0  0  0
    4.4200    3.3155   -0.2326 H   0  0  0  0  0  0  0  0  0  0  0  0
    5.0365    3.1023   -2.6101 H   0  0  0  0  0  0  0  0  0  0  0  0
    6.9303    1.9045   -4.1687 H   0  0  0  0  0  0  0  0  0  0  0  0
    5.3837    0.9908   -4.4054 H   0  0  0  0  0  0  0  0  0  0  0  0
    6.9104    0.1113   -4.0151 H   0  0  0  0  0  0  0  0  0  0  0  0
    6.9131   -0.6935   -1.7761 H   0  0  0  0  0  0  0  0  0  0  0  0
    6.2724   -0.4938    0.5817 H   0  0  0  0  0  0  0  0  0  0  0  0
    4.2761   -1.4441   -1.6474 H   0  0  0  0  0  0  0  0  0  0  0  0
    5.3078   -2.2115   -3.7550 H   0  0  0  0  0  0  0  0  0  0  0  0
    4.2337   -2.4157   -7.9603 H   0  0  0  0  0  0  0  0  0  0  0  0
    4.3361   -1.4127   -6.4645 H   0  0  0  0  0  0  0  0  0  0  0  0
    2.7557   -2.1650   -6.9509 H   0  0  0  0  0  0  0  0  0  0  0  0
    1.5874   -4.0701   -4.8800 H   0  0  0  0  0  0  0  0  0  0  0  0
    0.5563   -3.2724   -2.7885 H   0  0  0  0  0  0  0  0  0  0  0  0
   -0.5402   -0.9906    0.4130 H   0  0  0  0  0  0  0  0  0  0  0  0
   -2.0055   -2.3539    1.8124 H   0  0  0  0  0  0  0  0  0  0  0  0
   -1.5292   -5.1828    4.9969 H   0  0  0  0  0  0  0  0  0  0  0  0
   -1.1162   -3.5748    4.2813 H   0  0  0  0  0  0  0  0  0  0  0  0
    0.0163   -4.9850    4.0758 H   0  0  0  0  0  0  0  0  0  0  0  0
    0.4531   -5.8044    1.0467 H   0  0  0  0  0  0  0  0  0  0  0  0
    1.9215   -4.4398   -0.3738 H   0  0  0  0  0  0  0  0  0  0  0  0
    1.6433    4.2946   -1.7531 H   0  0  0  0  0  0  0  0  0  0  0  0
    3.3933    5.7502   -0.8349 H   0  0  0  0  0  0  0  0  0  0  0  0
    3.5972    9.6656    1.1733 H   0  0  0  0  0  0  0  0  0  0  0  0
    2.0691    8.9140    0.5422 H   0  0  0  0  0  0  0  0  0  0  0  0
    3.6453    8.6735   -0.3331 H   0  0  0  0  0  0  0  0  0  0  0  0
    0.8961    6.5986    2.5725 H   0  0  0  0  0  0  0  0  0  0  0  0
   -0.8342    5.1039    1.6866 H   0  0  0  0  0  0  0  0  0  0  0  0
   -1.9646    6.0190   -1.1277 H   0  0  0  0  0  0  0  0  0  0  0  0
   -4.3475    6.5448   -0.8362 H   0  0  0  0  0  0  0  0  0  0  0  0
   -7.9747    4.2781   -1.9008 H   0  0  0  0  0  0  0  0  0  0  0  0
   -6.6501    3.1039   -1.5758 H   0  0  0  0  0  0  0  0  0  0  0  0
   -6.2840    4.6741   -2.4031 H   0  0  0  0  0  0  0  0  0  0  0  0
   -5.0312    2.5958    0.7412 H   0  0  0  0  0  0  0  0  0  0  0  0
   -2.6252    2.0909    0.5073 H   0  0  0  0  0  0  0  0  0  0  0  0
   -3.7952    3.3658   -6.6855 H   0  0  0  0  0  0  0  0  0  0  0  0
   -5.3745    4.9600   -7.7112 H   0  0  0  0  0  0  0  0  0  0  0  0
   -7.0695    6.7795   -7.2581 H   0  0  0  0  0  0  0  0  0  0  0  0
   -6.8189    7.9088   -5.8808 H   0  0  0  0  0  0  0  0  0  0  0  0
   -5.7209    7.9919   -7.3170 H   0  0  0  0  0  0  0  0  0  0  0  0
   -5.0770    7.4748   -4.2144 H   0  0  0  0  0  0  0  0  0  0  0  0
   -3.5299    5.8623   -3.2080 H   0  0  0  0  0  0  0  0  0  0  0  0
   -0.9828    5.3575   -3.2871 H   0  0  0  0  0  0  0  0  0  0  0  0
    1.3797    5.6251   -3.9212 H   0  0  0  0  0  0  0  0  0  0  0  0
    2.9092    4.2444   -6.7634 H   0  0  0  0  0  0  0  0  0  0  0  0
    3.2997    4.9607   -5.1528 H   0  0  0  0  0  0  0  0  0  0  0  0
    3.3930    3.1754   -5.3787 H   0  0  0  0  0  0  0  0  0  0  0  0
    1.0493    2.2281   -6.5553 H   0  0  0  0  0  0  0  0  0  0  0  0
   -1.3186    1.9697   -5.9240 H   0  0  0  0  0  0  0  0  0  0  0  0
   -7.9996   -3.1064   -2.6306 H   0  0  0  0  0  0  0  0  0  0  0  0
   -9.3106   -3.9796   -0.7365 H   0  0  0  0  0  0  0  0  0  0  0  0
   -9.4861   -2.3489    2.5956 H   0  0  0  0  0  0  0  0  0  0  0  0
   -8.5962   -3.9083    2.3871 H   0  0  0  0  0  0  0  0  0  0  0  0
  -10.1786   -3.6333    1.5489 H   0  0  0  0  0  0  0  0  0  0  0  0
   -7.4419   -1.0916    1.8699 H   0  0  0  0  0  0  0  0  0  0  0  0
   -6.1445   -0.2201   -0.0245 H   0  0  0  0  0  0  0  0  0  0  0  0
   -5.0628   -3.4714   -1.7292 H   0  0  0  0  0  0  0  0  0  0  0  0
   -3.6835   -5.0032   -3.0416 H   0  0  0  0  0  0  0  0  0  0  0  0
   -2.8885   -5.7783   -5.1969 H   0  0  0  0  0  0  0  0  0  0  0  0
   -1.9040   -4.3558   -5.7193 H   0  0  0  0  0  0  0  0  0  0  0  0
   -3.3375   -4.8840   -6.6943 H   0  0  0  0  0  0  0  0  0  0  0  0
   -4.1019   -2.4436   -6.4901 H   0  0  0  0  0  0  0  0  0  0  0  0
   -5.5005   -0.9214   -5.1879 H   0  0  0  0  0  0  0  0  0  0  0  0
   -8.1000    0.3918   -5.3324 H   0  0  0  0  0  0  0  0  0  0  0  0
  -10.7354    0.0816    0.5638 H   0  0  0  0  0  0  0  0  0  0  0  0
  -12.7537   -2.4030   -2.8353 H   0  0  0  0  0  0  0  0  0  0  0  0
  1  2  2  3
  2  3  1  0
  3  4  2  0
  3  5  1  0
  5  6  2  0
  6  7  1  0
  7  8  1  0
  8  9  2  0
  9 10  1  0
 10 11  2  3
 11 12  1  0
 12 13  3  0
 11 14  1  0
 14 15  3  0
  1 16  1  0
 16 17  2  0
 17 18  1  0
 18 19  1  0
 19 20  2  0
 20 21  1  0
 21 22  2  0
 22 23  1  0
 22 24  1  0
 24 25  2  0
 18 26  1  0
 26 27  2  0
 27 28  1  0
 28 29  2  0
 29 30  1  0
 29 31  1  0
 31 32  2  0
 17 33  1  0
 33 34  1  0
 34 35  1  0
 35 36  2  0
 36 37  1  0
 37 38  1  0
 38 39  2  0
 39 40  1  0
 40 41  2  0
 41 42  1  0
 41 43  1  0
 43 44  2  0
 37 45  1  0
 45 46  2  0
 46 47  1  0
 47 48  2  0
 48 49  1  0
 48 50  1  0
 50 51  2  0
 36 52  1  0
 52 53  1  0
 35 54  1  0
 54 55  2  0
 55 56  1  0
 56 57  1  0
 57 58  2  0
 58 59  1  0
 59 60  2  0
 60 61  1  0
 61 62  1  0
 60 63  1  0
 63 64  2  0
 56 65  1  0
 65 66  2  0
 66 67  1  0
 67 68  2  0
 68 69  1  0
 69 70  1  0
 68 71  1  0
 71 72  2  0
 55 73  1  0
 73 74  1  0
 74 75  1  0
 75 76  2  0
 76 77  1  0
 77 78  1  0
 78 79  2  0
 79 80  1  0
 80 81  2  0
 81 82  1  0
 82 83  1  0
 81 84  1  0
 84 85  2  0
 77 86  1  0
 86 87  2  0
 87 88  1  0
 88 89  2  0
 89 90  1  0
 90 91  1  0
 89 92  1  0
 92 93  2  0
 76 94  1  0
 94 95  1  0
 75 96  1  0
 96 97  2  0
 97 98  1  0
 98 99  1  0
 99100  2  0
100101  1  0
101102  2  0
102103  1  0
102104  1  0
104105  2  0
 98106  1  0
106107  2  0
107108  1  0
108109  2  0
109110  1  0
109111  1  0
111112  2  0
 97113  1  0
113114  1  0
114115  1  0
115116  2  0
116117  1  0
117118  1  0
118119  2  0
119120  1  0
120121  2  0
121122  1  0
121123  1  0
123124  2  0
117125  1  0
125126  2  0
126127  1  0
127128  2  0
128129  1  0
128130  1  0
130131  2  0
116132  1  0
132133  1  0
115134  1  0
134135  2  3
135136  1  0
136137  2  0
136138  1  0
138139  2  0
139140  1  0
140141  1  0
141142  2  0
142143  1  0
143144  2  3
144145  1  0
145146  3  0
144147  1  0
147148  3  0
 10  2  1  0
 53 16  1  0
 95 54  1  0
133 96  1  0
143135  1  0
  9  5  1  0
 25 19  1  0
 32 26  1  0
 52 33  2  0
 64 57  1  0
 72 65  1  0
 94 73  2  0
105 99  1  0
112106  1  0
132113  2  0
142138  1  0
 44 38  1  0
 51 45  1  0
 85 78  1  0
 93 86  1  0
124118  1  0
131125  1  0
  1149  1  0
  6150  1  0
  8151  1  0
 20152  1  0
 21153  1  0
 23154  1  0
 23155  1  0
 23156  1  0
 24157  1  0
 25158  1  0
 27159  1  0
 28160  1  0
 30161  1  0
 30162  1  0
 30163  1  0
 31164  1  0
 32165  1  0
 39166  1  0
 40167  1  0
 42168  1  0
 42169  1  0
 42170  1  0
 43171  1  0
 44172  1  0
 46173  1  0
 47174  1  0
 49175  1  0
 49176  1  0
 49177  1  0
 50178  1  0
 51179  1  0
 58180  1  0
 59181  1  0
 62182  1  0
 62183  1  0
 62184  1  0
 63185  1  0
 64186  1  0
 66187  1  0
 67188  1  0
 70189  1  0
 70190  1  0
 70191  1  0
 71192  1  0
 72193  1  0
 79194  1  0
 80195  1  0
 83196  1  0
 83197  1  0
 83198  1  0
 84199  1  0
 85200  1  0
 87201  1  0
 88202  1  0
 91203  1  0
 91204  1  0
 91205  1  0
 92206  1  0
 93207  1  0
100208  1  0
101209  1  0
103210  1  0
103211  1  0
103212  1  0
104213  1  0
105214  1  0
107215  1  0
108216  1  0
110217  1  0
110218  1  0
110219  1  0
111220  1  0
112221  1  0
119222  1  0
120223  1  0
122224  1  0
122225  1  0
122226  1  0
123227  1  0
124228  1  0
126229  1  0
127230  1  0
129231  1  0
129232  1  0
129233  1  0
130234  1  0
131235  1  0
134236  1  0
139237  1  0
141238  1  0
M  END

