
     RDKit          3D

148165  0  0  0  0  0  0  0  0999 V2000
   -2.1838   -1.7415   14.6407 C   0  0  0  0  0  0  0  0  0  0  0  0
   -0.9616   -0.8926   14.3103 C   0  0  0  0  0  0  0  0  0  0  0  0
   -0.7728   -0.8078   12.8534 N   0  0  0  0  0  0  0  0  0  0  0  0
    0.0432   -1.7718   12.1631 C   0  0  0  0  0  0  0  0  0  0  0  0
    0.6146   -2.6933   12.8094 O   0  0  0  0  0  0  0  0  0  0  0  0
    0.2131   -1.6861   10.6944 C   0  0  0  0  0  0  0  0  0  0  0  0
    1.0435   -2.5993   10.0244 C   0  0  0  0  0  0  0  0  0  0  0  0
    1.2056   -2.5332    8.6420 C   0  0  0  0  0  0  0  0  0  0  0  0
    0.5453   -1.5484    7.8942 C   0  0  0  0  0  0  0  0  0  0  0  0
   -0.3107   -0.6243    8.5449 C   0  0  0  0  0  0  0  0  0  0  0  0
   -1.0264    0.3455    7.8169 C   0  0  0  0  0  0  0  0  0  0  0  0
   -1.8593    1.2478    8.4717 C   0  0  0  0  0  0  0  0  0  0  0  0
   -2.0052    1.2005    9.8556 C   0  0  0  0  0  0  0  0  0  0  0  0
   -1.3168    0.2335   10.6115 C   0  0  0  0  0  0  0  0  0  0  0  0
   -0.4689   -0.6906    9.9582 C   0  0  0  0  0  0  0  0  0  0  0  0
   -1.4787    0.1817   12.0846 C   0  0  0  0  0  0  0  0  0  0  0  0
   -2.2374    1.0084   12.6620 O   0  0  0  0  0  0  0  0  0  0  0  0
    0.7477   -1.5295    6.4287 C   0  0  0  0  0  0  0  0  0  0  0  0
    0.1498   -2.5015    5.6125 C   0  0  0  0  0  0  0  0  0  0  0  0
    0.2585   -2.4415    4.2037 C   0  0  0  0  0  0  0  0  0  0  0  0
   -0.4092   -3.5037    3.5094 N   0  0  0  0  0  0  0  0  0  0  0  0
   -1.0296   -4.3112    4.7366 S   0  0  0  0  0  4  0  0  0  0  0  0
   -0.6286   -3.5969    6.1062 N   0  0  0  0  0  0  0  0  0  0  0  0
    0.9600   -1.4074    3.5694 C   0  0  0  0  0  0  0  0  0  0  0  0
    1.5993   -0.4543    4.3747 C   0  0  0  0  0  0  0  0  0  0  0  0
    2.2983    0.5900    3.8596 N   0  0  0  0  0  0  0  0  0  0  0  0
    2.7447    1.3631    5.2495 S   0  0  0  0  0  0  0  0  0  0  0  0
    2.1103    0.4814    6.4935 N   0  0  0  0  0  0  0  0  0  0  0  0
    1.4918   -0.5120    5.8022 C   0  0  0  0  0  0  0  0  0  0  0  0
    0.9286   -1.2674    2.1069 C   0  0  0  0  0  0  0  0  0  0  0  0
   -0.2139   -1.0008    1.3401 C   0  0  0  0  0  0  0  0  0  0  0  0
   -1.5158   -0.7481    1.8821 N   0  0  0  0  0  0  0  0  0  0  0  0
   -1.8456    0.6043    2.2217 C   0  0  0  0  0  0  0  0  0  0  0  0
   -1.5690    1.0991    3.5054 C   0  0  0  0  0  0  0  0  0  0  0  0
   -1.8542    2.4315    3.8208 C   0  0  0  0  0  0  0  0  0  0  0  0
   -2.4070    3.2771    2.8534 C   0  0  0  0  0  0  0  0  0  0  0  0
   -2.7849    4.9789    3.2705 S   0  0  0  0  0  0  0  0  0  0  0  0
   -1.2122    5.6215    2.6172 C   0  0  0  0  0  0  0  0  0  0  0  0
   -2.6883    2.7862    1.5716 C   0  0  0  0  0  0  0  0  0  0  0  0
   -2.4022    1.4545    1.2568 C   0  0  0  0  0  0  0  0  0  0  0  0
   -2.5028   -1.7971    1.9892 C   0  0  0  0  0  0  0  0  0  0  0  0
   -2.4870   -2.8968    1.1060 C   0  0  0  0  0  0  0  0  0  0  0  0
   -3.4479   -3.9061    1.2095 C   0  0  0  0  0  0  0  0  0  0  0  0
   -4.4306   -3.8409    2.2005 C   0  0  0  0  0  0  0  0  0  0  0  0
   -5.6744   -5.1297    2.3151 S   0  0  0  0  0  0  0  0  0  0  0  0
   -6.8476   -4.2634    1.2247 C   0  0  0  0  0  0  0  0  0  0  0  0
   -4.4416   -2.7693    3.1003 C   0  0  0  0  0  0  0  0  0  0  0  0
   -3.4902   -1.7508    2.9925 C   0  0  0  0  0  0  0  0  0  0  0  0
    0.0953   -0.9258   -0.0104 C   0  0  0  0  0  0  0  0  0  0  0  0
   -0.8002   -0.7195   -1.4099 S   0  0  0  0  0  0  0  0  0  0  0  0
    0.5359   -0.9175   -2.4563 C   0  0  0  0  0  0  0  0  0  0  0  0
    1.6987   -1.1286   -1.6848 C   0  0  0  0  0  0  0  0  0  0  0  0
    3.0094   -1.4057   -2.2105 N   0  0  0  0  0  0  0  0  0  0  0  0
    3.1813   -2.4366   -3.2063 C   0  0  0  0  0  0  0  0  0  0  0  0
    4.1221   -2.2815   -4.2400 C   0  0  0  0  0  0  0  0  0  0  0  0
    4.2853   -3.2809   -5.2067 C   0  0  0  0  0  0  0  0  0  0  0  0
    3.5066   -4.4421   -5.1509 C   0  0  0  0  0  0  0  0  0  0  0  0
    3.7381   -5.7440   -6.3657 S   0  0  0  0  0  0  0  0  0  0  0  0
    2.4927   -5.0721   -7.5119 C   0  0  0  0  0  0  0  0  0  0  0  0
    2.5711   -4.6050   -4.1281 C   0  0  0  0  0  0  0  0  0  0  0  0
    2.4075   -3.6074   -3.1624 C   0  0  0  0  0  0  0  0  0  0  0  0
    4.1454   -0.7117   -1.6520 C   0  0  0  0  0  0  0  0  0  0  0  0
    5.3170   -1.4092   -1.3112 C   0  0  0  0  0  0  0  0  0  0  0  0
    6.3923   -0.7377   -0.7178 C   0  0  0  0  0  0  0  0  0  0  0  0
    6.3064    0.6384   -0.4635 C   0  0  0  0  0  0  0  0  0  0  0  0
    7.6878    1.5053    0.2818 S   0  0  0  0  0  0  0  0  0  0  0  0
    6.9920    1.4455    1.9648 C   0  0  0  0  0  0  0  0  0  0  0  0
    5.1465    1.3409   -0.8070 C   0  0  0  0  0  0  0  0  0  0  0  0
    4.0691    0.6692   -1.3849 C   0  0  0  0  0  0  0  0  0  0  0  0
    1.4012   -1.1304   -0.3203 C   0  0  0  0  0  0  0  0  0  0  0  0
    2.2860   -1.4142    1.0824 S   0  0  0  0  0  0  0  0  0  0  0  0
    0.4311   -0.8378   -3.9308 C   0  0  0  0  0  0  0  0  0  0  0  0
   -0.6081   -1.5039   -4.6032 C   0  0  0  0  0  0  0  0  0  0  0  0
   -0.8391   -1.3034   -5.9852 C   0  0  0  0  0  0  0  0  0  0  0  0
   -1.9793   -1.9947   -6.5088 N   0  0  0  0  0  0  0  0  0  0  0  0
   -2.4931   -2.7452   -5.1972 S   0  0  0  0  0  4  0  0  0  0  0  0
   -1.5431   -2.3855   -3.9673 N   0  0  0  0  0  0  0  0  0  0  0  0
   -0.0392   -0.4370   -6.7404 C   0  0  0  0  0  0  0  0  0  0  0  0
    1.0416    0.1887   -6.0968 C   0  0  0  0  0  0  0  0  0  0  0  0
    1.8785    1.0431   -6.7396 N   0  0  0  0  0  0  0  0  0  0  0  0
    2.8553    1.5023   -5.4920 S   0  0  0  0  0  0  0  0  0  0  0  0
    2.2948    0.7065   -4.1590 N   0  0  0  0  0  0  0  0  0  0  0  0
    1.2726   -0.0034   -4.6958 C   0  0  0  0  0  0  0  0  0  0  0  0
   -0.4066   -0.0998   -8.1337 C   0  0  0  0  0  0  0  0  0  0  0  0
   -0.1929   -1.0555   -9.1333 C   0  0  0  0  0  0  0  0  0  0  0  0
   -0.5337   -0.7864  -10.4557 C   0  0  0  0  0  0  0  0  0  0  0  0
   -1.0863    0.4527  -10.8160 C   0  0  0  0  0  0  0  0  0  0  0  0
   -1.4467    0.7317  -12.2285 C   0  0  0  0  0  0  0  0  0  0  0  0
   -1.3261   -0.1731  -13.0982 O   0  0  0  0  0  0  0  0  0  0  0  0
   -1.9329    2.0338  -12.6027 N   0  0  0  0  0  0  0  0  0  0  0  0
   -2.2502    2.3446  -14.0030 C   0  0  0  0  0  0  0  0  0  0  0  0
   -3.7257    2.0830  -14.2920 C   0  0  0  0  0  0  0  0  0  0  0  0
   -2.1804    3.0060  -11.5728 C   0  0  0  0  0  0  0  0  0  0  0  0
   -2.6636    4.1320  -11.8719 O   0  0  0  0  0  0  0  0  0  0  0  0
   -1.8666    2.6895  -10.1630 C   0  0  0  0  0  0  0  0  0  0  0  0
   -2.1188    3.6334   -9.1541 C   0  0  0  0  0  0  0  0  0  0  0  0
   -1.8245    3.3472   -7.8259 C   0  0  0  0  0  0  0  0  0  0  0  0
   -1.2651    2.1205   -7.4794 C   0  0  0  0  0  0  0  0  0  0  0  0
   -0.9831    1.1507   -8.4668 C   0  0  0  0  0  0  0  0  0  0  0  0
   -1.3086    1.4333   -9.8226 C   0  0  0  0  0  0  0  0  0  0  0  0
   -2.0470   -2.7727   14.2565 H   0  0  0  0  0  0  0  0  0  0  0  0
   -3.0947   -1.2992   14.1840 H   0  0  0  0  0  0  0  0  0  0  0  0
   -2.3219   -1.7775   15.7417 H   0  0  0  0  0  0  0  0  0  0  0  0
   -1.0842    0.1249   14.7448 H   0  0  0  0  0  0  0  0  0  0  0  0
   -0.0658   -1.3355   14.7951 H   0  0  0  0  0  0  0  0  0  0  0  0
    1.5754   -3.3720   10.5706 H   0  0  0  0  0  0  0  0  0  0  0  0
    1.8534   -3.2493    8.1516 H   0  0  0  0  0  0  0  0  0  0  0  0
   -0.9575    0.4145    6.7411 H   0  0  0  0  0  0  0  0  0  0  0  0
   -2.4025    1.9917    7.9038 H   0  0  0  0  0  0  0  0  0  0  0  0
   -2.6608    1.9146   10.3349 H   0  0  0  0  0  0  0  0  0  0  0  0
   -1.1514    0.4511    4.2606 H   0  0  0  0  0  0  0  0  0  0  0  0
   -1.6483    2.8033    4.8171 H   0  0  0  0  0  0  0  0  0  0  0  0
   -1.0977    6.6798    2.9232 H   0  0  0  0  0  0  0  0  0  0  0  0
   -1.2252    5.5667    1.5124 H   0  0  0  0  0  0  0  0  0  0  0  0
   -0.3557    5.0380    3.0110 H   0  0  0  0  0  0  0  0  0  0  0  0
   -3.1228    3.4365    0.8209 H   0  0  0  0  0  0  0  0  0  0  0  0
   -2.6185    1.0818    0.2631 H   0  0  0  0  0  0  0  0  0  0  0  0
   -1.7436   -2.9751    0.3274 H   0  0  0  0  0  0  0  0  0  0  0  0
   -3.4320   -4.7318    0.5094 H   0  0  0  0  0  0  0  0  0  0  0  0
   -7.1570   -3.3035    1.6865 H   0  0  0  0  0  0  0  0  0  0  0  0
   -6.3810   -4.0705    0.2350 H   0  0  0  0  0  0  0  0  0  0  0  0
   -7.7451   -4.8988    1.0810 H   0  0  0  0  0  0  0  0  0  0  0  0
   -5.1951   -2.7206    3.8788 H   0  0  0  0  0  0  0  0  0  0  0  0
   -3.5184   -0.9354    3.7017 H   0  0  0  0  0  0  0  0  0  0  0  0
    4.7251   -1.3865   -4.3039 H   0  0  0  0  0  0  0  0  0  0  0  0
    5.0141   -3.1533   -5.9981 H   0  0  0  0  0  0  0  0  0  0  0  0
    1.5112   -4.9529   -6.9993 H   0  0  0  0  0  0  0  0  0  0  0  0
    2.8355   -4.0893   -7.9004 H   0  0  0  0  0  0  0  0  0  0  0  0
    2.3746   -5.7802   -8.3611 H   0  0  0  0  0  0  0  0  0  0  0  0
    1.9782   -5.5075   -4.0782 H   0  0  0  0  0  0  0  0  0  0  0  0
    1.6810   -3.7592   -2.3751 H   0  0  0  0  0  0  0  0  0  0  0  0
    5.3917   -2.4712   -1.4951 H   0  0  0  0  0  0  0  0  0  0  0  0
    7.2873   -1.2868   -0.4578 H   0  0  0  0  0  0  0  0  0  0  0  0
    7.6959    1.9397    2.6667 H   0  0  0  0  0  0  0  0  0  0  0  0
    6.8392    0.3914    2.2842 H   0  0  0  0  0  0  0  0  0  0  0  0
    6.0246    1.9922    1.9919 H   0  0  0  0  0  0  0  0  0  0  0  0
    5.0772    2.4034   -0.6091 H   0  0  0  0  0  0  0  0  0  0  0  0
    3.1724    1.2306   -1.6225 H   0  0  0  0  0  0  0  0  0  0  0  0
    0.2394   -2.0178   -8.8812 H   0  0  0  0  0  0  0  0  0  0  0  0
   -0.3600   -1.5556  -11.1992 H   0  0  0  0  0  0  0  0  0  0  0  0
   -2.0203    3.4129  -14.2197 H   0  0  0  0  0  0  0  0  0  0  0  0
   -1.6241    1.7430  -14.6940 H   0  0  0  0  0  0  0  0  0  0  0  0
   -3.9453    0.9987  -14.2132 H   0  0  0  0  0  0  0  0  0  0  0  0
   -4.3643    2.6318  -13.5683 H   0  0  0  0  0  0  0  0  0  0  0  0
   -3.9701    2.4293  -15.3154 H   0  0  0  0  0  0  0  0  0  0  0  0
   -2.5468    4.5997   -9.3921 H   0  0  0  0  0  0  0  0  0  0  0  0
   -2.0363    4.0792   -7.0578 H   0  0  0  0  0  0  0  0  0  0  0  0
   -1.0650    1.9363   -6.4331 H   0  0  0  0  0  0  0  0  0  0  0  0
  1  2  1  0
  2  3  1  0
  3  4  1  0
  4  5  2  0
  4  6  1  0
  6  7  1  0
  7  8  2  0
  8  9  1  0
  9 10  2  0
 10 11  1  0
 11 12  2  0
 12 13  1  0
 13 14  2  0
 14 15  1  0
 14 16  1  0
 16 17  2  0
  9 18  1  0
 18 19  2  0
 19 20  1  0
 20 21  1  0
 21 22  2  0
 22 23  2  0
 20 24  2  0
 24 25  1  0
 25 26  2  0
 26 27  1  0
 27 28  1  0
 28 29  2  0
 24 30  1  0
 30 31  2  0
 31 32  1  0
 32 33  1  0
 33 34  2  0
 34 35  1  0
 35 36  2  0
 36 37  1  0
 37 38  1  0
 36 39  1  0
 39 40  2  0
 32 41  1  0
 41 42  2  0
 42 43  1  0
 43 44  2  0
 44 45  1  0
 45 46  1  0
 44 47  1  0
 47 48  2  0
 31 49  1  0
 49 50  1  0
 50 51  1  0
 51 52  2  0
 52 53  1  0
 53 54  1  0
 54 55  2  0
 55 56  1  0
 56 57  2  0
 57 58  1  0
 58 59  1  0
 57 60  1  0
 60 61  2  0
 53 62  1  0
 62 63  2  0
 63 64  1  0
 64 65  2  0
 65 66  1  0
 66 67  1  0
 65 68  1  0
 68 69  2  0
 52 70  1  0
 70 71  1  0
 51 72  1  0
 72 73  2  0
 73 74  1  0
 74 75  1  0
 75 76  2  0
 76 77  2  0
 74 78  2  0
 78 79  1  0
 79 80  2  0
 80 81  1  0
 81 82  1  0
 82 83  2  0
 78 84  1  0
 84 85  2  0
 85 86  1  0
 86 87  2  0
 87 88  1  0
 88 89  2  0
 88 90  1  0
 90 91  1  0
 91 92  1  0
 90 93  1  0
 93 94  2  0
 93 95  1  0
 95 96  1  0
 96 97  2  0
 97 98  1  0
 98 99  2  0
 99100  1  0
 16  3  1  0
 29 18  1  0
 71 30  1  0
 83 72  1  0
 99 84  1  0
 15  6  2  0
 23 19  1  0
 29 25  1  0
 40 33  1  0
 48 41  1  0
 70 49  2  0
 77 73  1  0
 83 79  1  0
100 87  1  0
 15 10  1  0
 61 54  1  0
 69 62  1  0
100 95  2  0
  1101  1  0
  1102  1  0
  1103  1  0
  2104  1  0
  2105  1  0
  7106  1  0
  8107  1  0
 11108  1  0
 12109  1  0
 13110  1  0
 34111  1  0
 35112  1  0
 38113  1  0
 38114  1  0
 38115  1  0
 39116  1  0
 40117  1  0
 42118  1  0
 43119  1  0
 46120  1  0
 46121  1  0
 46122  1  0
 47123  1  0
 48124  1  0
 55125  1  0
 56126  1  0
 59127  1  0
 59128  1  0
 59129  1  0
 60130  1  0
 61131  1  0
 63132  1  0
 64133  1  0
 67134  1  0
 67135  1  0
 67136  1  0
 68137  1  0
 69138  1  0
 85139  1  0
 86140  1  0
 91141  1  0
 91142  1  0
 92143  1  0
 92144  1  0
 92145  1  0
 96146  1  0
 97147  1  0
 98148  1  0
M  END

