
     RDKit          3D

150165  0  0  0  0  0  0  0  0999 V2000
    0.3338    4.5399   13.6434 C   0  0  0  0  0  0  0  0  0  0  0  0
   -0.8833    3.6335   13.4958 C   0  0  0  0  0  0  0  0  0  0  0  0
   -0.7454    2.7758   12.3100 N   0  0  0  0  0  0  0  0  0  0  0  0
   -1.1581    3.2503   11.0159 C   0  0  0  0  0  0  0  0  0  0  0  0
   -1.6396    4.4112   10.8929 O   0  0  0  0  0  0  0  0  0  0  0  0
   -1.0207    2.3761    9.8277 C   0  0  0  0  0  0  0  0  0  0  0  0
   -1.4372    2.8295    8.5692 C   0  0  0  0  0  0  0  0  0  0  0  0
   -1.3170    2.0173    7.4452 C   0  0  0  0  0  0  0  0  0  0  0  0
   -0.7944    0.7225    7.5476 C   0  0  0  0  0  0  0  0  0  0  0  0
   -0.3444    0.2478    8.8064 C   0  0  0  0  0  0  0  0  0  0  0  0
    0.2544   -1.0214    8.9442 C   0  0  0  0  0  0  0  0  0  0  0  0
    0.7013   -1.4640   10.1866 C   0  0  0  0  0  0  0  0  0  0  0  0
    0.5750   -0.6521   11.3101 C   0  0  0  0  0  0  0  0  0  0  0  0
    0.0002    0.6231   11.2088 C   0  0  0  0  0  0  0  0  0  0  0  0
   -0.4605    1.0846    9.9536 C   0  0  0  0  0  0  0  0  0  0  0  0
   -0.1206    1.4834   12.4099 C   0  0  0  0  0  0  0  0  0  0  0  0
    0.3251    1.0821   13.5199 O   0  0  0  0  0  0  0  0  0  0  0  0
   -0.7306   -0.0886    6.3153 C   0  0  0  0  0  0  0  0  0  0  0  0
   -1.3586   -1.3056    6.0934 C   0  0  0  0  0  0  0  0  0  0  0  0
   -1.2261   -1.7737    4.7764 C   0  0  0  0  0  0  0  0  0  0  0  0
   -2.0201   -3.3037    4.2712 S   0  0  0  0  0  0  0  0  0  0  0  0
   -3.5314   -2.4990    3.6244 C   0  0  0  0  0  0  0  0  0  0  0  0
   -4.5297   -2.2325    4.7432 C   0  0  0  0  0  0  0  0  0  0  0  0
   -0.4710   -0.9273    3.9445 C   0  0  0  0  0  0  0  0  0  0  0  0
   -0.0308    0.4038    4.8778 S   0  0  0  0  0  0  0  0  0  0  0  0
   -0.1604   -1.0770    2.4966 C   0  0  0  0  0  0  0  0  0  0  0  0
    0.5507   -0.1559    1.6959 C   0  0  0  0  0  0  0  0  0  0  0  0
    1.1964    1.0358    2.1646 N   0  0  0  0  0  0  0  0  0  0  0  0
    0.6043    2.3060    1.8222 C   0  0  0  0  0  0  0  0  0  0  0  0
   -0.7797    2.5043    1.9668 C   0  0  0  0  0  0  0  0  0  0  0  0
   -1.3659    3.7129    1.5840 C   0  0  0  0  0  0  0  0  0  0  0  0
   -0.5802    4.7315    1.0374 C   0  0  0  0  0  0  0  0  0  0  0  0
   -1.3409    6.2617    0.4971 S   0  0  0  0  0  0  0  0  0  0  0  0
   -1.6982    5.6277   -1.1709 C   0  0  0  0  0  0  0  0  0  0  0  0
    0.7980    4.5437    0.8883 C   0  0  0  0  0  0  0  0  0  0  0  0
    1.3879    3.3384    1.2770 C   0  0  0  0  0  0  0  0  0  0  0  0
    2.5106    0.9519    2.7641 C   0  0  0  0  0  0  0  0  0  0  0  0
    3.3977   -0.0875    2.4216 C   0  0  0  0  0  0  0  0  0  0  0  0
    4.6710   -0.1508    2.9939 C   0  0  0  0  0  0  0  0  0  0  0  0
    5.0778    0.8177    3.9154 C   0  0  0  0  0  0  0  0  0  0  0  0
    6.7258    0.7515    4.6183 S   0  0  0  0  0  0  0  0  0  0  0  0
    7.4538    1.7758    3.3025 C   0  0  0  0  0  0  0  0  0  0  0  0
    4.1981    1.8414    4.2799 C   0  0  0  0  0  0  0  0  0  0  0  0
    2.9236    1.9090    3.7093 C   0  0  0  0  0  0  0  0  0  0  0  0
    0.5699   -0.5356    0.3603 C   0  0  0  0  0  0  0  0  0  0  0  0
    1.1624    0.1629   -1.0428 S   0  0  0  0  0  0  0  0  0  0  0  0
    0.5998   -1.0909   -2.0534 C   0  0  0  0  0  0  0  0  0  0  0  0
   -0.0621   -2.0533   -1.2695 C   0  0  0  0  0  0  0  0  0  0  0  0
   -0.7179   -3.2249   -1.7788 N   0  0  0  0  0  0  0  0  0  0  0  0
   -2.1538   -3.2087   -1.9577 C   0  0  0  0  0  0  0  0  0  0  0  0
   -2.9229   -4.3656   -1.7259 C   0  0  0  0  0  0  0  0  0  0  0  0
   -4.3103   -4.3421   -1.8972 C   0  0  0  0  0  0  0  0  0  0  0  0
   -4.9521   -3.1615   -2.2824 C   0  0  0  0  0  0  0  0  0  0  0  0
   -6.7314   -3.1292   -2.5021 S   0  0  0  0  0  0  0  0  0  0  0  0
   -7.0666   -2.7205   -0.7604 C   0  0  0  0  0  0  0  0  0  0  0  0
   -4.2013   -2.0029   -2.5015 C   0  0  0  0  0  0  0  0  0  0  0  0
   -2.8149   -2.0232   -2.3371 C   0  0  0  0  0  0  0  0  0  0  0  0
    0.0681   -4.4157   -2.0131 C   0  0  0  0  0  0  0  0  0  0  0  0
   -0.1978   -5.2409   -3.1189 C   0  0  0  0  0  0  0  0  0  0  0  0
    0.6021   -6.3590   -3.3801 C   0  0  0  0  0  0  0  0  0  0  0  0
    1.6854   -6.6569   -2.5494 C   0  0  0  0  0  0  0  0  0  0  0  0
    2.7281   -8.0740   -2.8980 S   0  0  0  0  0  0  0  0  0  0  0  0
    3.9352   -7.1075   -3.8574 C   0  0  0  0  0  0  0  0  0  0  0  0
    1.9541   -5.8488   -1.4414 C   0  0  0  0  0  0  0  0  0  0  0  0
    1.1554   -4.7338   -1.1784 C   0  0  0  0  0  0  0  0  0  0  0  0
   -0.0586   -1.6962    0.0744 C   0  0  0  0  0  0  0  0  0  0  0  0
   -0.7099   -2.3387    1.4752 S   0  0  0  0  0  0  0  0  0  0  0  0
    0.5947   -1.0066   -3.5245 C   0  0  0  0  0  0  0  0  0  0  0  0
   -0.0803    0.0460   -4.1629 C   0  0  0  0  0  0  0  0  0  0  0  0
   -0.0719    0.1773   -5.5701 C   0  0  0  0  0  0  0  0  0  0  0  0
   -0.8010    1.3035   -6.0712 N   0  0  0  0  0  0  0  0  0  0  0  0
   -1.3337    1.9362   -4.7062 S   0  0  0  0  0  4  0  0  0  0  0  0
   -0.8243    1.0596   -3.4752 N   0  0  0  0  0  0  0  0  0  0  0  0
    0.6163   -0.7325   -6.3828 C   0  0  0  0  0  0  0  0  0  0  0  0
    1.3007   -1.7897   -5.7567 C   0  0  0  0  0  0  0  0  0  0  0  0
    2.0218   -2.7090   -6.4484 N   0  0  0  0  0  0  0  0  0  0  0  0
    2.6180   -3.6205   -5.2061 S   0  0  0  0  0  0  0  0  0  0  0  0
    2.0336   -2.9413   -3.8184 N   0  0  0  0  0  0  0  0  0  0  0  0
    1.2952   -1.9235   -4.3293 C   0  0  0  0  0  0  0  0  0  0  0  0
    0.6826   -0.5208   -7.8459 C   0  0  0  0  0  0  0  0  0  0  0  0
    1.5186    0.4972   -8.3191 C   0  0  0  0  0  0  0  0  0  0  0  0
    1.5944    0.7821   -9.6789 C   0  0  0  0  0  0  0  0  0  0  0  0
    0.8275    0.0595  -10.6051 C   0  0  0  0  0  0  0  0  0  0  0  0
    0.9052    0.3847  -12.0490 C   0  0  0  0  0  0  0  0  0  0  0  0
    1.6513    1.3241  -12.4428 O   0  0  0  0  0  0  0  0  0  0  0  0
    0.1286   -0.3666  -13.0006 N   0  0  0  0  0  0  0  0  0  0  0  0
    0.1682   -0.0237  -14.4297 C   0  0  0  0  0  0  0  0  0  0  0  0
   -0.8556    1.0592  -14.7447 C   0  0  0  0  0  0  0  0  0  0  0  0
   -0.7626   -1.3885  -12.5177 C   0  0  0  0  0  0  0  0  0  0  0  0
   -1.5055   -2.0114  -13.3256 O   0  0  0  0  0  0  0  0  0  0  0  0
   -0.8153   -1.7044  -11.0691 C   0  0  0  0  0  0  0  0  0  0  0  0
   -1.6616   -2.7215  -10.5967 C   0  0  0  0  0  0  0  0  0  0  0  0
   -1.7258   -3.0151   -9.2368 C   0  0  0  0  0  0  0  0  0  0  0  0
   -0.9555   -2.2978   -8.3226 C   0  0  0  0  0  0  0  0  0  0  0  0
   -0.0950   -1.2714   -8.7608 C   0  0  0  0  0  0  0  0  0  0  0  0
   -0.0225   -0.9741  -10.1523 C   0  0  0  0  0  0  0  0  0  0  0  0
    1.2583    3.9323   13.7312 H   0  0  0  0  0  0  0  0  0  0  0  0
    0.4200    5.2108   12.7624 H   0  0  0  0  0  0  0  0  0  0  0  0
    0.2250    5.1620   14.5570 H   0  0  0  0  0  0  0  0  0  0  0  0
   -1.8016    4.2570   13.4188 H   0  0  0  0  0  0  0  0  0  0  0  0
   -0.9970    3.0166   14.4142 H   0  0  0  0  0  0  0  0  0  0  0  0
   -1.8649    3.8160    8.4513 H   0  0  0  0  0  0  0  0  0  0  0  0
   -1.6544    2.3983    6.4875 H   0  0  0  0  0  0  0  0  0  0  0  0
    0.3994   -1.6762    8.0951 H   0  0  0  0  0  0  0  0  0  0  0  0
    1.1563   -2.4424   10.2789 H   0  0  0  0  0  0  0  0  0  0  0  0
    0.9352   -1.0238   12.2613 H   0  0  0  0  0  0  0  0  0  0  0  0
   -1.9283   -1.8278    6.8514 H   0  0  0  0  0  0  0  0  0  0  0  0
   -3.2852   -1.5466    3.1062 H   0  0  0  0  0  0  0  0  0  0  0  0
   -4.0001   -3.1823    2.8840 H   0  0  0  0  0  0  0  0  0  0  0  0
   -4.1059   -1.5257    5.4839 H   0  0  0  0  0  0  0  0  0  0  0  0
   -4.7959   -3.1828    5.2518 H   0  0  0  0  0  0  0  0  0  0  0  0
   -5.4516   -1.7841    4.3173 H   0  0  0  0  0  0  0  0  0  0  0  0
   -1.4056    1.7204    2.3726 H   0  0  0  0  0  0  0  0  0  0  0  0
   -2.4345    3.8475    1.6960 H   0  0  0  0  0  0  0  0  0  0  0  0
   -2.1687    6.4334   -1.7714 H   0  0  0  0  0  0  0  0  0  0  0  0
   -0.7599    5.3062   -1.6700 H   0  0  0  0  0  0  0  0  0  0  0  0
   -2.4007    4.7708   -1.1064 H   0  0  0  0  0  0  0  0  0  0  0  0
    1.4120    5.3237    0.4579 H   0  0  0  0  0  0  0  0  0  0  0  0
    2.4520    3.1996    1.1273 H   0  0  0  0  0  0  0  0  0  0  0  0
    3.1177   -0.8427    1.6994 H   0  0  0  0  0  0  0  0  0  0  0  0
    5.3454   -0.9479    2.7098 H   0  0  0  0  0  0  0  0  0  0  0  0
    8.5414    1.8881    3.4911 H   0  0  0  0  0  0  0  0  0  0  0  0
    7.3065    1.2925    2.3138 H   0  0  0  0  0  0  0  0  0  0  0  0
    6.9815    2.7809    3.3006 H   0  0  0  0  0  0  0  0  0  0  0  0
    4.5013    2.5898    5.0011 H   0  0  0  0  0  0  0  0  0  0  0  0
    2.2553    2.7055    4.0102 H   0  0  0  0  0  0  0  0  0  0  0  0
   -2.4522   -5.2849   -1.4005 H   0  0  0  0  0  0  0  0  0  0  0  0
   -4.8871   -5.2414   -1.7213 H   0  0  0  0  0  0  0  0  0  0  0  0
   -8.1389   -2.4615   -0.6501 H   0  0  0  0  0  0  0  0  0  0  0  0
   -6.4517   -1.8539   -0.4375 H   0  0  0  0  0  0  0  0  0  0  0  0
   -6.8373   -3.5969   -0.1186 H   0  0  0  0  0  0  0  0  0  0  0  0
   -4.6889   -1.0838   -2.7986 H   0  0  0  0  0  0  0  0  0  0  0  0
   -2.2586   -1.1143   -2.5152 H   0  0  0  0  0  0  0  0  0  0  0  0
   -1.0088   -5.0084   -3.7951 H   0  0  0  0  0  0  0  0  0  0  0  0
    0.3884   -6.9800   -4.2421 H   0  0  0  0  0  0  0  0  0  0  0  0
    3.4329   -6.6189   -4.7208 H   0  0  0  0  0  0  0  0  0  0  0  0
    4.4053   -6.3385   -3.2055 H   0  0  0  0  0  0  0  0  0  0  0  0
    4.7243   -7.7889   -4.2380 H   0  0  0  0  0  0  0  0  0  0  0  0
    2.7909   -6.0712   -0.7936 H   0  0  0  0  0  0  0  0  0  0  0  0
    1.3897   -4.1211   -0.3198 H   0  0  0  0  0  0  0  0  0  0  0  0
    2.1132    1.0774   -7.6242 H   0  0  0  0  0  0  0  0  0  0  0  0
    2.2500    1.5800  -10.0036 H   0  0  0  0  0  0  0  0  0  0  0  0
    1.1819    0.3325  -14.7134 H   0  0  0  0  0  0  0  0  0  0  0  0
   -0.0381   -0.9219  -15.0526 H   0  0  0  0  0  0  0  0  0  0  0  0
   -1.8799    0.6920  -14.5239 H   0  0  0  0  0  0  0  0  0  0  0  0
   -0.6559    1.9687  -14.1358 H   0  0  0  0  0  0  0  0  0  0  0  0
   -0.7958    1.3292  -15.8202 H   0  0  0  0  0  0  0  0  0  0  0  0
   -2.2741   -3.2937  -11.2802 H   0  0  0  0  0  0  0  0  0  0  0  0
   -2.3818   -3.8025   -8.8864 H   0  0  0  0  0  0  0  0  0  0  0  0
   -1.0430   -2.5506   -7.2725 H   0  0  0  0  0  0  0  0  0  0  0  0
  1  2  1  0
  2  3  1  0
  3  4  1  0
  4  5  2  0
  4  6  1  0
  6  7  1  0
  7  8  2  0
  8  9  1  0
  9 10  2  0
 10 11  1  0
 11 12  2  0
 12 13  1  0
 13 14  2  0
 14 15  1  0
 14 16  1  0
 16 17  2  0
  9 18  1  0
 18 19  2  0
 19 20  1  0
 20 21  1  0
 21 22  1  0
 22 23  1  0
 20 24  2  0
 24 25  1  0
 24 26  1  0
 26 27  2  0
 27 28  1  0
 28 29  1  0
 29 30  2  0
 30 31  1  0
 31 32  2  0
 32 33  1  0
 33 34  1  0
 32 35  1  0
 35 36  2  0
 28 37  1  0
 37 38  2  0
 38 39  1  0
 39 40  2  0
 40 41  1  0
 41 42  1  0
 40 43  1  0
 43 44  2  0
 27 45  1  0
 45 46  1  0
 46 47  1  0
 47 48  2  0
 48 49  1  0
 49 50  1  0
 50 51  2  0
 51 52  1  0
 52 53  2  0
 53 54  1  0
 54 55  1  0
 53 56  1  0
 56 57  2  0
 49 58  1  0
 58 59  2  0
 59 60  1  0
 60 61  2  0
 61 62  1  0
 62 63  1  0
 61 64  1  0
 64 65  2  0
 48 66  1  0
 66 67  1  0
 47 68  1  0
 68 69  2  0
 69 70  1  0
 70 71  1  0
 71 72  2  0
 72 73  2  0
 70 74  2  0
 74 75  1  0
 75 76  2  0
 76 77  1  0
 77 78  1  0
 78 79  2  0
 74 80  1  0
 80 81  2  0
 81 82  1  0
 82 83  2  0
 83 84  1  0
 84 85  2  0
 84 86  1  0
 86 87  1  0
 87 88  1  0
 86 89  1  0
 89 90  2  0
 89 91  1  0
 91 92  1  0
 92 93  2  0
 93 94  1  0
 94 95  2  0
 95 96  1  0
 16  3  1  0
 25 18  1  0
 67 26  1  0
 79 68  1  0
 95 80  1  0
 15  6  2  0
 36 29  1  0
 44 37  1  0
 66 45  2  0
 73 69  1  0
 79 75  1  0
 96 83  1  0
 15 10  1  0
 57 50  1  0
 65 58  1  0
 96 91  2  0
  1 97  1  0
  1 98  1  0
  1 99  1  0
  2100  1  0
  2101  1  0
  7102  1  0
  8103  1  0
 11104  1  0
 12105  1  0
 13106  1  0
 19107  1  0
 22108  1  0
 22109  1  0
 23110  1  0
 23111  1  0
 23112  1  0
 30113  1  0
 31114  1  0
 34115  1  0
 34116  1  0
 34117  1  0
 35118  1  0
 36119  1  0
 38120  1  0
 39121  1  0
 42122  1  0
 42123  1  0
 42124  1  0
 43125  1  0
 44126  1  0
 51127  1  0
 52128  1  0
 55129  1  0
 55130  1  0
 55131  1  0
 56132  1  0
 57133  1  0
 59134  1  0
 60135  1  0
 63136  1  0
 63137  1  0
 63138  1  0
 64139  1  0
 65140  1  0
 81141  1  0
 82142  1  0
 87143  1  0
 87144  1  0
 88145  1  0
 88146  1  0
 88147  1  0
 92148  1  0
 93149  1  0
 94150  1  0
M  END

