
     RDKit          3D

252273  0  0  0  0  0  0  0  0999 V2000
    0.2556   -5.8633    4.6786 C   0  0  0  0  0  0  0  0  0  0  0  0
    0.0595   -7.0549    5.2732 C   0  0  0  0  0  0  0  0  0  0  0  0
   -1.1921   -7.4822    5.9043 C   0  0  0  0  0  0  0  0  0  0  0  0
   -2.3248   -6.9572    5.7600 O   0  0  0  0  0  0  0  0  0  0  0  0
   -0.8984   -8.5814    6.7934 C   0  0  0  0  0  0  0  0  0  0  0  0
   -1.7765   -9.2544    7.6416 C   0  0  0  0  0  0  0  0  0  0  0  0
   -1.2760  -10.2921    8.4391 C   0  0  0  0  0  0  0  0  0  0  0  0
    0.0792  -10.6424    8.3636 C   0  0  0  0  0  0  0  0  0  0  0  0
    0.7540  -12.0598    9.4461 Br  0  0  0  0  0  0  0  0  0  0  0  0
    0.9519   -9.9480    7.5075 C   0  0  0  0  0  0  0  0  0  0  0  0
    0.4471   -8.9037    6.7156 C   0  0  0  0  0  0  0  0  0  0  0  0
    1.1190   -8.0070    5.7303 C   0  0  0  0  0  0  0  0  0  0  0  0
    2.4032   -8.0744    5.2949 C   0  0  0  0  0  0  0  0  0  0  0  0
    2.8787   -7.3229    4.1611 C   0  0  0  0  0  0  0  0  0  0  0  0
    3.2619   -6.7190    3.2510 N   0  0  0  0  0  0  0  0  0  0  0  0
    3.3902   -8.9374    5.8832 C   0  0  0  0  0  0  0  0  0  0  0  0
    4.2029   -9.6175    6.3497 N   0  0  0  0  0  0  0  0  0  0  0  0
   -0.8088   -4.8958    4.3816 C   0  0  0  0  0  0  0  0  0  0  0  0
   -0.7722   -3.5594    4.7703 C   0  0  0  0  0  0  0  0  0  0  0  0
    0.1616   -3.0195    5.7155 N   0  0  0  0  0  0  0  0  0  0  0  0
   -0.2652   -2.8585    7.0815 C   0  0  0  0  0  0  0  0  0  0  0  0
   -1.0801   -3.8316    7.6928 C   0  0  0  0  0  0  0  0  0  0  0  0
   -1.5300   -3.6556    9.0026 C   0  0  0  0  0  0  0  0  0  0  0  0
   -1.1850   -2.5041    9.7134 C   0  0  0  0  0  0  0  0  0  0  0  0
   -1.8269   -2.2550   11.3707 S   0  0  0  0  0  0  0  0  0  0  0  0
   -3.3890   -1.5281   10.7814 C   0  0  0  0  0  0  0  0  0  0  0  0
   -0.3727   -1.5318    9.1176 C   0  0  0  0  0  0  0  0  0  0  0  0
    0.0851   -1.7074    7.8091 C   0  0  0  0  0  0  0  0  0  0  0  0
    1.5049   -2.6916    5.3047 C   0  0  0  0  0  0  0  0  0  0  0  0
    2.5984   -2.9911    6.1413 C   0  0  0  0  0  0  0  0  0  0  0  0
    3.9000   -2.6552    5.7518 C   0  0  0  0  0  0  0  0  0  0  0  0
    4.1235   -2.0024    4.5375 C   0  0  0  0  0  0  0  0  0  0  0  0
    5.7874   -1.4898    4.0927 S   0  0  0  0  0  0  0  0  0  0  0  0
    6.0510   -2.8567    2.9189 C   0  0  0  0  0  0  0  0  0  0  0  0
    3.0442   -1.7134    3.6921 C   0  0  0  0  0  0  0  0  0  0  0  0
    1.7455   -2.0787    4.0636 C   0  0  0  0  0  0  0  0  0  0  0  0
   -1.7569   -2.8151    4.1416 C   0  0  0  0  0  0  0  0  0  0  0  0
   -1.9040   -1.1869    3.8858 S   0  0  0  0  0  0  0  0  0  0  0  0
   -3.0773   -1.3025    2.6571 C   0  0  0  0  0  0  0  0  0  0  0  0
   -3.3535   -2.6851    2.4329 C   0  0  0  0  0  0  0  0  0  0  0  0
   -4.2380   -3.2118    1.4016 N   0  0  0  0  0  0  0  0  0  0  0  0
   -4.4602   -4.6223    1.2773 C   0  0  0  0  0  0  0  0  0  0  0  0
   -5.3428   -5.2731    2.1512 C   0  0  0  0  0  0  0  0  0  0  0  0
   -5.5296   -6.6551    2.0595 C   0  0  0  0  0  0  0  0  0  0  0  0
   -4.8518   -7.3903    1.0767 C   0  0  0  0  0  0  0  0  0  0  0  0
   -5.1035   -9.1637    0.9447 S   0  0  0  0  0  0  0  0  0  0  0  0
   -3.6712   -9.5733    1.9910 C   0  0  0  0  0  0  0  0  0  0  0  0
   -3.9795   -6.7397    0.1951 C   0  0  0  0  0  0  0  0  0  0  0  0
   -3.7814   -5.3584    0.2966 C   0  0  0  0  0  0  0  0  0  0  0  0
   -5.1121   -2.3570    0.6449 C   0  0  0  0  0  0  0  0  0  0  0  0
   -6.1391   -1.6509    1.2802 C   0  0  0  0  0  0  0  0  0  0  0  0
   -6.9124   -0.7359    0.5602 C   0  0  0  0  0  0  0  0  0  0  0  0
   -6.6576   -0.5177   -0.8008 C   0  0  0  0  0  0  0  0  0  0  0  0
   -7.5459    0.7642   -1.6899 S   0  0  0  0  0  0  0  0  0  0  0  0
   -8.6602   -0.3969   -2.5369 C   0  0  0  0  0  0  0  0  0  0  0  0
   -5.6754   -1.2738   -1.4517 C   0  0  0  0  0  0  0  0  0  0  0  0
   -4.9356   -2.2175   -0.7405 C   0  0  0  0  0  0  0  0  0  0  0  0
   -2.5613   -3.4901    3.2791 C   0  0  0  0  0  0  0  0  0  0  0  0
   -2.0533   -5.1030    3.2386 S   0  0  0  0  0  0  0  0  0  0  0  0
   -3.0882   -0.2628    1.6142 C   0  0  0  0  0  0  0  0  0  0  0  0
   -3.0128    1.1476    1.8002 C   0  0  0  0  0  0  0  0  0  0  0  0
   -3.6064    1.8930    2.8986 N   0  0  0  0  0  0  0  0  0  0  0  0
   -3.9870    3.2749    2.7325 C   0  0  0  0  0  0  0  0  0  0  0  0
   -3.7469    4.2092    3.7568 C   0  0  0  0  0  0  0  0  0  0  0  0
   -4.1685    5.5355    3.6214 C   0  0  0  0  0  0  0  0  0  0  0  0
   -4.8280    5.9520    2.4640 C   0  0  0  0  0  0  0  0  0  0  0  0
   -5.3107    7.6702    2.2729 S   0  0  0  0  0  0  0  0  0  0  0  0
   -6.9390    7.4345    3.0440 C   0  0  0  0  0  0  0  0  0  0  0  0
   -5.0812    5.0308    1.4396 C   0  0  0  0  0  0  0  0  0  0  0  0
   -4.6704    3.6990    1.5759 C   0  0  0  0  0  0  0  0  0  0  0  0
   -4.1658    1.2106    4.0315 C   0  0  0  0  0  0  0  0  0  0  0  0
   -3.4694    1.1678    5.2480 C   0  0  0  0  0  0  0  0  0  0  0  0
   -3.9364    0.3624    6.2928 C   0  0  0  0  0  0  0  0  0  0  0  0
   -5.1087   -0.3819    6.1358 C   0  0  0  0  0  0  0  0  0  0  0  0
   -5.6205   -1.5283    7.4152 S   0  0  0  0  0  0  0  0  0  0  0  0
   -4.6045   -2.8886    6.7508 C   0  0  0  0  0  0  0  0  0  0  0  0
   -5.8576   -0.2608    4.9584 C   0  0  0  0  0  0  0  0  0  0  0  0
   -5.3951    0.5476    3.9166 C   0  0  0  0  0  0  0  0  0  0  0  0
   -2.3106    1.7416    0.7324 C   0  0  0  0  0  0  0  0  0  0  0  0
   -1.5369    3.2146    0.4791 S   0  0  0  0  0  0  0  0  0  0  0  0
   -0.7559    2.7579   -0.9714 C   0  0  0  0  0  0  0  0  0  0  0  0
   -1.1173    1.4208   -1.2500 C   0  0  0  0  0  0  0  0  0  0  0  0
   -0.7478    0.6684   -2.4252 N   0  0  0  0  0  0  0  0  0  0  0  0
   -1.3186    1.0375   -3.6999 C   0  0  0  0  0  0  0  0  0  0  0  0
   -2.5884    1.6423   -3.7742 C   0  0  0  0  0  0  0  0  0  0  0  0
   -3.0986    2.0686   -5.0015 C   0  0  0  0  0  0  0  0  0  0  0  0
   -2.3376    1.9220   -6.1664 C   0  0  0  0  0  0  0  0  0  0  0  0
   -2.9687    2.5347   -7.7297 S   0  0  0  0  0  0  0  0  0  0  0  0
   -2.4397    4.2502   -7.4267 C   0  0  0  0  0  0  0  0  0  0  0  0
   -1.0892    1.2936   -6.1096 C   0  0  0  0  0  0  0  0  0  0  0  0
   -0.5897    0.8335   -4.8868 C   0  0  0  0  0  0  0  0  0  0  0  0
   -0.2424   -0.6689   -2.2369 C   0  0  0  0  0  0  0  0  0  0  0  0
   -0.9335   -1.7699   -2.7750 C   0  0  0  0  0  0  0  0  0  0  0  0
   -0.5960   -3.0692   -2.3907 C   0  0  0  0  0  0  0  0  0  0  0  0
    0.4496   -3.2854   -1.4830 C   0  0  0  0  0  0  0  0  0  0  0  0
    0.8103   -4.9479   -0.9180 S   0  0  0  0  0  0  0  0  0  0  0  0
    1.9187   -5.3193   -2.3111 C   0  0  0  0  0  0  0  0  0  0  0  0
    1.1751   -2.1993   -0.9848 C   0  0  0  0  0  0  0  0  0  0  0  0
    0.8304   -0.8967   -1.3556 C   0  0  0  0  0  0  0  0  0  0  0  0
   -1.9456    0.9017   -0.2620 C   0  0  0  0  0  0  0  0  0  0  0  0
   -2.3621   -0.6491    0.1341 S   0  0  0  0  0  0  0  0  0  0  0  0
    0.3186    3.5194   -1.6468 C   0  0  0  0  0  0  0  0  0  0  0  0
    1.4754    4.0727   -1.0416 C   0  0  0  0  0  0  0  0  0  0  0  0
    1.7116    4.1688    0.3767 N   0  0  0  0  0  0  0  0  0  0  0  0
    0.9358    5.1061    1.1619 C   0  0  0  0  0  0  0  0  0  0  0  0
    0.6694    4.8527    2.5207 C   0  0  0  0  0  0  0  0  0  0  0  0
   -0.0902    5.7532    3.2725 C   0  0  0  0  0  0  0  0  0  0  0  0
   -0.5948    6.9139    2.6804 C   0  0  0  0  0  0  0  0  0  0  0  0
   -1.5570    8.0770    3.6551 S   0  0  0  0  0  0  0  0  0  0  0  0
   -0.1290    9.1398    4.0283 C   0  0  0  0  0  0  0  0  0  0  0  0
   -0.3620    7.1608    1.3240 C   0  0  0  0  0  0  0  0  0  0  0  0
    0.4016    6.2662    0.5710 C   0  0  0  0  0  0  0  0  0  0  0  0
    2.8743    3.5138    0.9436 C   0  0  0  0  0  0  0  0  0  0  0  0
    3.7100    4.1901    1.8534 C   0  0  0  0  0  0  0  0  0  0  0  0
    4.8626    3.5740    2.3468 C   0  0  0  0  0  0  0  0  0  0  0  0
    5.2030    2.2829    1.9408 C   0  0  0  0  0  0  0  0  0  0  0  0
    6.6862    1.5030    2.5816 S   0  0  0  0  0  0  0  0  0  0  0  0
    7.7469    2.0657    1.2145 C   0  0  0  0  0  0  0  0  0  0  0  0
    4.3751    1.5966    1.0433 C   0  0  0  0  0  0  0  0  0  0  0  0
    3.2235    2.2117    0.5420 C   0  0  0  0  0  0  0  0  0  0  0  0
    2.4462    4.4083   -1.9943 C   0  0  0  0  0  0  0  0  0  0  0  0
    4.0872    4.7540   -1.9076 S   0  0  0  0  0  0  0  0  0  0  0  0
    4.3541    4.5910   -3.5807 C   0  0  0  0  0  0  0  0  0  0  0  0
    3.1449    4.2144   -4.2064 C   0  0  0  0  0  0  0  0  0  0  0  0
    3.0588    3.5677   -5.4927 N   0  0  0  0  0  0  0  0  0  0  0  0
    3.1096    2.1164   -5.5760 C   0  0  0  0  0  0  0  0  0  0  0  0
    3.6628    1.3455   -4.5318 C   0  0  0  0  0  0  0  0  0  0  0  0
    3.7199   -0.0507   -4.6214 C   0  0  0  0  0  0  0  0  0  0  0  0
    3.2316   -0.6988   -5.7599 C   0  0  0  0  0  0  0  0  0  0  0  0
    3.3611   -2.4833   -5.9149 S   0  0  0  0  0  0  0  0  0  0  0  0
    1.6756   -2.7790   -5.2945 C   0  0  0  0  0  0  0  0  0  0  0  0
    2.6697    0.0487   -6.7961 C   0  0  0  0  0  0  0  0  0  0  0  0
    2.5858    1.4366   -6.6980 C   0  0  0  0  0  0  0  0  0  0  0  0
    2.7714    4.3703   -6.6572 C   0  0  0  0  0  0  0  0  0  0  0  0
    1.7665    5.3521   -6.6207 C   0  0  0  0  0  0  0  0  0  0  0  0
    1.4798    6.1081   -7.7601 C   0  0  0  0  0  0  0  0  0  0  0  0
    2.1882    5.8887   -8.9447 C   0  0  0  0  0  0  0  0  0  0  0  0
    1.8146    6.8600  -10.4061 S   0  0  0  0  0  0  0  0  0  0  0  0
    0.5390    5.7022  -11.0044 C   0  0  0  0  0  0  0  0  0  0  0  0
    3.2042    4.9278   -8.9838 C   0  0  0  0  0  0  0  0  0  0  0  0
    3.5042    4.1835   -7.8416 C   0  0  0  0  0  0  0  0  0  0  0  0
    2.1096    4.1519   -3.2807 C   0  0  0  0  0  0  0  0  0  0  0  0
    0.5807    3.4826   -3.3286 S   0  0  0  0  0  0  0  0  0  0  0  0
    5.6978    4.3962   -4.1573 C   0  0  0  0  0  0  0  0  0  0  0  0
    6.0557    4.8787   -5.3589 C   0  0  0  0  0  0  0  0  0  0  0  0
    5.4152    6.0158   -6.0212 C   0  0  0  0  0  0  0  0  0  0  0  0
    4.4860    6.7293   -5.5572 O   0  0  0  0  0  0  0  0  0  0  0  0
    6.0827    6.2498   -7.2771 C   0  0  0  0  0  0  0  0  0  0  0  0
    5.7358    7.1609   -8.2700 C   0  0  0  0  0  0  0  0  0  0  0  0
    6.4745    7.1731   -9.4588 C   0  0  0  0  0  0  0  0  0  0  0  0
    7.5607    6.2943   -9.6215 C   0  0  0  0  0  0  0  0  0  0  0  0
    8.5472    6.3085  -11.2590 Br  0  0  0  0  0  0  0  0  0  0  0  0
    7.9002    5.3873   -8.6069 C   0  0  0  0  0  0  0  0  0  0  0  0
    7.1259    5.3468   -7.4300 C   0  0  0  0  0  0  0  0  0  0  0  0
    7.1767    4.4300   -6.2486 C   0  0  0  0  0  0  0  0  0  0  0  0
    7.9136    3.2843   -6.1296 C   0  0  0  0  0  0  0  0  0  0  0  0
    7.7321    2.3446   -5.0550 C   0  0  0  0  0  0  0  0  0  0  0  0
    7.5950    1.5817   -4.1971 N   0  0  0  0  0  0  0  0  0  0  0  0
    8.8421    2.8426   -7.1371 C   0  0  0  0  0  0  0  0  0  0  0  0
    9.5830    2.4667   -7.9463 N   0  0  0  0  0  0  0  0  0  0  0  0
    1.2554   -5.4961    4.5299 H   0  0  0  0  0  0  0  0  0  0  0  0
   -2.8149   -8.9745    7.6950 H   0  0  0  0  0  0  0  0  0  0  0  0
   -1.9415  -10.8266    9.1134 H   0  0  0  0  0  0  0  0  0  0  0  0
    1.9805  -10.2401    7.4873 H   0  0  0  0  0  0  0  0  0  0  0  0
   -1.3698   -4.7271    7.1600 H   0  0  0  0  0  0  0  0  0  0  0  0
   -2.1663   -4.4086    9.4546 H   0  0  0  0  0  0  0  0  0  0  0  0
   -3.8901   -2.2266   10.0795 H   0  0  0  0  0  0  0  0  0  0  0  0
   -4.0602   -1.3581   11.6479 H   0  0  0  0  0  0  0  0  0  0  0  0
   -3.1881   -0.5636   10.2706 H   0  0  0  0  0  0  0  0  0  0  0  0
   -0.1059   -0.6364    9.6653 H   0  0  0  0  0  0  0  0  0  0  0  0
    0.6952   -0.9386    7.3569 H   0  0  0  0  0  0  0  0  0  0  0  0
    2.4442   -3.4842    7.0928 H   0  0  0  0  0  0  0  0  0  0  0  0
    4.7278   -2.8781    6.4135 H   0  0  0  0  0  0  0  0  0  0  0  0
    5.3238   -2.7816    2.0859 H   0  0  0  0  0  0  0  0  0  0  0  0
    7.0790   -2.7754    2.5117 H   0  0  0  0  0  0  0  0  0  0  0  0
    5.9356   -3.8339    3.4327 H   0  0  0  0  0  0  0  0  0  0  0  0
    3.2096   -1.2068    2.7534 H   0  0  0  0  0  0  0  0  0  0  0  0
    0.9294   -1.8460    3.3953 H   0  0  0  0  0  0  0  0  0  0  0  0
   -5.8637   -4.7122    2.9154 H   0  0  0  0  0  0  0  0  0  0  0  0
   -6.2015   -7.1546    2.7477 H   0  0  0  0  0  0  0  0  0  0  0  0
   -3.6128  -10.6763    2.1020 H   0  0  0  0  0  0  0  0  0  0  0  0
   -2.7348   -9.2069    1.5182 H   0  0  0  0  0  0  0  0  0  0  0  0
   -3.7834   -9.1207    2.9995 H   0  0  0  0  0  0  0  0  0  0  0  0
   -3.4474   -7.3033   -0.5588 H   0  0  0  0  0  0  0  0  0  0  0  0
   -3.0936   -4.8669   -0.3766 H   0  0  0  0  0  0  0  0  0  0  0  0
   -6.3131   -1.7869    2.3364 H   0  0  0  0  0  0  0  0  0  0  0  0
   -7.6811   -0.1708    1.0670 H   0  0  0  0  0  0  0  0  0  0  0  0
   -9.2331   -0.9992   -1.7988 H   0  0  0  0  0  0  0  0  0  0  0  0
   -9.3648    0.1793   -3.1729 H   0  0  0  0  0  0  0  0  0  0  0  0
   -8.0686   -1.0819   -3.1837 H   0  0  0  0  0  0  0  0  0  0  0  0
   -5.4747   -1.1210   -2.5034 H   0  0  0  0  0  0  0  0  0  0  0  0
   -4.1697   -2.7824   -1.2553 H   0  0  0  0  0  0  0  0  0  0  0  0
   -3.2462    3.9155    4.6693 H   0  0  0  0  0  0  0  0  0  0  0  0
   -3.9893    6.2406    4.4248 H   0  0  0  0  0  0  0  0  0  0  0  0
   -7.5655    6.7741    2.4124 H   0  0  0  0  0  0  0  0  0  0  0  0
   -6.8266    6.9905    4.0535 H   0  0  0  0  0  0  0  0  0  0  0  0
   -7.4330    8.4202    3.1377 H   0  0  0  0  0  0  0  0  0  0  0  0
   -5.5918    5.3464    0.5407 H   0  0  0  0  0  0  0  0  0  0  0  0
   -4.8998    2.9971    0.7888 H   0  0  0  0  0  0  0  0  0  0  0  0
   -2.5243    1.6905    5.3579 H   0  0  0  0  0  0  0  0  0  0  0  0
   -3.3594    0.2858    7.2068 H   0  0  0  0  0  0  0  0  0  0  0  0
   -3.5452   -2.5754    6.6826 H   0  0  0  0  0  0  0  0  0  0  0  0
   -4.9664   -3.1790    5.7429 H   0  0  0  0  0  0  0  0  0  0  0  0
   -4.6735   -3.7645    7.4243 H   0  0  0  0  0  0  0  0  0  0  0  0
   -6.7723   -0.8202    4.8352 H   0  0  0  0  0  0  0  0  0  0  0  0
   -5.9633    0.6246    3.0003 H   0  0  0  0  0  0  0  0  0  0  0  0
   -3.1886    1.7766   -2.8839 H   0  0  0  0  0  0  0  0  0  0  0  0
   -4.0742    2.5318   -5.0451 H   0  0  0  0  0  0  0  0  0  0  0  0
   -2.8664    4.6196   -6.4707 H   0  0  0  0  0  0  0  0  0  0  0  0
   -2.8164    4.8851   -8.2526 H   0  0  0  0  0  0  0  0  0  0  0  0
   -1.3345    4.3087   -7.3892 H   0  0  0  0  0  0  0  0  0  0  0  0
   -0.5027    1.1676   -7.0090 H   0  0  0  0  0  0  0  0  0  0  0  0
    0.3813    0.3621   -4.8524 H   0  0  0  0  0  0  0  0  0  0  0  0
   -1.7895   -1.6210   -3.4222 H   0  0  0  0  0  0  0  0  0  0  0  0
   -1.1612   -3.9076   -2.7814 H   0  0  0  0  0  0  0  0  0  0  0  0
    2.8137   -4.6604   -2.2721 H   0  0  0  0  0  0  0  0  0  0  0  0
    1.3764   -5.1731   -3.2717 H   0  0  0  0  0  0  0  0  0  0  0  0
    2.2459   -6.3769   -2.2359 H   0  0  0  0  0  0  0  0  0  0  0  0
    1.9746   -2.3606   -0.2721 H   0  0  0  0  0  0  0  0  0  0  0  0
    1.3604   -0.0669   -0.9180 H   0  0  0  0  0  0  0  0  0  0  0  0
    1.0357    3.9514    2.9960 H   0  0  0  0  0  0  0  0  0  0  0  0
   -0.2812    5.5493    4.3196 H   0  0  0  0  0  0  0  0  0  0  0  0
   -0.4205    9.8694    4.8117 H   0  0  0  0  0  0  0  0  0  0  0  0
    0.1617    9.6935    3.1106 H   0  0  0  0  0  0  0  0  0  0  0  0
    0.7250    8.5306    4.3909 H   0  0  0  0  0  0  0  0  0  0  0  0
   -0.7588    8.0518    0.8537 H   0  0  0  0  0  0  0  0  0  0  0  0
    0.5889    6.4900   -0.4730 H   0  0  0  0  0  0  0  0  0  0  0  0
    3.4865    5.2036    2.1608 H   0  0  0  0  0  0  0  0  0  0  0  0
    5.4958    4.1081    3.0453 H   0  0  0  0  0  0  0  0  0  0  0  0
    7.7874    3.1750    1.1998 H   0  0  0  0  0  0  0  0  0  0  0  0
    8.7706    1.6679    1.3719 H   0  0  0  0  0  0  0  0  0  0  0  0
    7.3607    1.6849    0.2451 H   0  0  0  0  0  0  0  0  0  0  0  0
    4.6260    0.5925    0.7267 H   0  0  0  0  0  0  0  0  0  0  0  0
    2.6092    1.6815   -0.1729 H   0  0  0  0  0  0  0  0  0  0  0  0
    4.0639    1.8133   -3.6440 H   0  0  0  0  0  0  0  0  0  0  0  0
    4.1648   -0.6249   -3.8179 H   0  0  0  0  0  0  0  0  0  0  0  0
    0.9382   -2.1795   -5.8673 H   0  0  0  0  0  0  0  0  0  0  0  0
    1.6203   -2.5127   -4.2184 H   0  0  0  0  0  0  0  0  0  0  0  0
    1.4238   -3.8479   -5.4308 H   0  0  0  0  0  0  0  0  0  0  0  0
    2.2810   -0.4490   -7.6780 H   0  0  0  0  0  0  0  0  0  0  0  0
    2.1019    1.9666   -7.5062 H   0  0  0  0  0  0  0  0  0  0  0  0
    1.1822    5.5010   -5.7249 H   0  0  0  0  0  0  0  0  0  0  0  0
    0.6965    6.8532   -7.7242 H   0  0  0  0  0  0  0  0  0  0  0  0
   -0.2167    5.5158  -10.2163 H   0  0  0  0  0  0  0  0  0  0  0  0
    1.0105    4.7410  -11.2939 H   0  0  0  0  0  0  0  0  0  0  0  0
    0.0334    6.1449  -11.8860 H   0  0  0  0  0  0  0  0  0  0  0  0
    3.7561    4.7535   -9.8986 H   0  0  0  0  0  0  0  0  0  0  0  0
    4.2984    3.4463   -7.8845 H   0  0  0  0  0  0  0  0  0  0  0  0
    6.3767    3.8001   -3.5776 H   0  0  0  0  0  0  0  0  0  0  0  0
    4.8780    7.8091   -8.1464 H   0  0  0  0  0  0  0  0  0  0  0  0
    6.1988    7.8537  -10.2524 H   0  0  0  0  0  0  0  0  0  0  0  0
    8.7470    4.7473   -8.7654 H   0  0  0  0  0  0  0  0  0  0  0  0
  1  2  2  3
  2  3  1  0
  3  4  2  0
  3  5  1  0
  5  6  2  0
  6  7  1  0
  7  8  2  0
  8  9  1  0
  8 10  1  0
 10 11  2  0
 11 12  1  0
 12 13  2  3
 13 14  1  0
 14 15  3  0
 13 16  1  0
 16 17  3  0
  1 18  1  0
 18 19  2  0
 19 20  1  0
 20 21  1  0
 21 22  2  0
 22 23  1  0
 23 24  2  0
 24 25  1  0
 25 26  1  0
 24 27  1  0
 27 28  2  0
 20 29  1  0
 29 30  2  0
 30 31  1  0
 31 32  2  0
 32 33  1  0
 33 34  1  0
 32 35  1  0
 35 36  2  0
 19 37  1  0
 37 38  1  0
 38 39  1  0
 39 40  2  0
 40 41  1  0
 41 42  1  0
 42 43  2  0
 43 44  1  0
 44 45  2  0
 45 46  1  0
 46 47  1  0
 45 48  1  0
 48 49  2  0
 41 50  1  0
 50 51  2  0
 51 52  1  0
 52 53  2  0
 53 54  1  0
 54 55  1  0
 53 56  1  0
 56 57  2  0
 40 58  1  0
 58 59  1  0
 39 60  1  0
 60 61  2  0
 61 62  1  0
 62 63  1  0
 63 64  2  0
 64 65  1  0
 65 66  2  0
 66 67  1  0
 67 68  1  0
 66 69  1  0
 69 70  2  0
 62 71  1  0
 71 72  2  0
 72 73  1  0
 73 74  2  0
 74 75  1  0
 75 76  1  0
 74 77  1  0
 77 78  2  0
 61 79  1  0
 79 80  1  0
 80 81  1  0
 81 82  2  0
 82 83  1  0
 83 84  1  0
 84 85  2  0
 85 86  1  0
 86 87  2  0
 87 88  1  0
 88 89  1  0
 87 90  1  0
 90 91  2  0
 83 92  1  0
 92 93  2  0
 93 94  1  0
 94 95  2  0
 95 96  1  0
 96 97  1  0
 95 98  1  0
 98 99  2  0
 82100  1  0
100101  1  0
 81102  1  0
102103  2  0
103104  1  0
104105  1  0
105106  2  0
106107  1  0
107108  2  0
108109  1  0
109110  1  0
108111  1  0
111112  2  0
104113  1  0
113114  2  0
114115  1  0
115116  2  0
116117  1  0
117118  1  0
116119  1  0
119120  2  0
103121  1  0
121122  1  0
122123  1  0
123124  2  0
124125  1  0
125126  1  0
126127  2  0
127128  1  0
128129  2  0
129130  1  0
130131  1  0
129132  1  0
132133  2  0
125134  1  0
134135  2  0
135136  1  0
136137  2  0
137138  1  0
138139  1  0
137140  1  0
140141  2  0
124142  1  0
142143  1  0
123144  1  0
144145  2  3
145146  1  0
146147  2  0
146148  1  0
148149  2  0
149150  1  0
150151  2  0
151152  1  0
151153  1  0
153154  2  0
154155  1  0
155156  2  3
156157  1  0
157158  3  0
156159  1  0
159160  3  0
 12  2  1  0
 59 18  1  0
101 60  1  0
143102  1  0
155145  1  0
 11  5  1  0
 28 21  1  0
 36 29  1  0
 58 37  2  0
 70 63  1  0
 78 71  1  0
100 79  2  0
112105  1  0
120113  1  0
142121  2  0
154148  1  0
 49 42  1  0
 57 50  1  0
 91 84  1  0
 99 92  1  0
133126  1  0
141134  1  0
  1161  1  0
  6162  1  0
  7163  1  0
 10164  1  0
 22165  1  0
 23166  1  0
 26167  1  0
 26168  1  0
 26169  1  0
 27170  1  0
 28171  1  0
 30172  1  0
 31173  1  0
 34174  1  0
 34175  1  0
 34176  1  0
 35177  1  0
 36178  1  0
 43179  1  0
 44180  1  0
 47181  1  0
 47182  1  0
 47183  1  0
 48184  1  0
 49185  1  0
 51186  1  0
 52187  1  0
 55188  1  0
 55189  1  0
 55190  1  0
 56191  1  0
 57192  1  0
 64193  1  0
 65194  1  0
 68195  1  0
 68196  1  0
 68197  1  0
 69198  1  0
 70199  1  0
 72200  1  0
 73201  1  0
 76202  1  0
 76203  1  0
 76204  1  0
 77205  1  0
 78206  1  0
 85207  1  0
 86208  1  0
 89209  1  0
 89210  1  0
 89211  1  0
 90212  1  0
 91213  1  0
 93214  1  0
 94215  1  0
 97216  1  0
 97217  1  0
 97218  1  0
 98219  1  0
 99220  1  0
106221  1  0
107222  1  0
110223  1  0
110224  1  0
110225  1  0
111226  1  0
112227  1  0
114228  1  0
115229  1  0
118230  1  0
118231  1  0
118232  1  0
119233  1  0
120234  1  0
127235  1  0
128236  1  0
131237  1  0
131238  1  0
131239  1  0
132240  1  0
133241  1  0
135242  1  0
136243  1  0
139244  1  0
139245  1  0
139246  1  0
140247  1  0
141248  1  0
144249  1  0
149250  1  0
150251  1  0
153252  1  0
M  END

