
     RDKit          3D

248269  0  0  0  0  0  0  0  0999 V2000
   -3.8299    7.7884    1.5271 C   0  0  0  0  0  0  0  0  0  0  0  0
   -3.0039    8.6835    0.9527 C   0  0  0  0  0  0  0  0  0  0  0  0
   -1.5449    8.5650    0.9274 C   0  0  0  0  0  0  0  0  0  0  0  0
   -0.8425    7.8567    1.6997 O   0  0  0  0  0  0  0  0  0  0  0  0
   -1.0340    9.3901   -0.1404 C   0  0  0  0  0  0  0  0  0  0  0  0
    0.2879    9.5279   -0.5574 C   0  0  0  0  0  0  0  0  0  0  0  0
    0.5528   10.3130   -1.6874 C   0  0  0  0  0  0  0  0  0  0  0  0
   -0.5000   10.9378   -2.3738 C   0  0  0  0  0  0  0  0  0  0  0  0
   -0.1358   11.9528   -3.9521 Br  0  0  0  0  0  0  0  0  0  0  0  0
   -1.8208   10.8260   -1.9084 C   0  0  0  0  0  0  0  0  0  0  0  0
   -2.0847   10.0290   -0.7824 C   0  0  0  0  0  0  0  0  0  0  0  0
   -3.3697    9.6987   -0.0917 C   0  0  0  0  0  0  0  0  0  0  0  0
   -4.6014   10.1963   -0.3667 C   0  0  0  0  0  0  0  0  0  0  0  0
   -4.9115   10.8353   -1.6184 C   0  0  0  0  0  0  0  0  0  0  0  0
   -5.1857   11.3256   -2.6335 N   0  0  0  0  0  0  0  0  0  0  0  0
   -5.7264   10.0015    0.5104 C   0  0  0  0  0  0  0  0  0  0  0  0
   -6.6227    9.8236    1.2225 N   0  0  0  0  0  0  0  0  0  0  0  0
   -3.3957    6.4152    1.8053 C   0  0  0  0  0  0  0  0  0  0  0  0
   -3.0687    5.4729    0.8196 C   0  0  0  0  0  0  0  0  0  0  0  0
   -3.1126    5.7102   -0.5971 N   0  0  0  0  0  0  0  0  0  0  0  0
   -4.2929    5.2992   -1.3087 C   0  0  0  0  0  0  0  0  0  0  0  0
   -4.2080    4.3022   -2.2951 C   0  0  0  0  0  0  0  0  0  0  0  0
   -5.3589    3.8802   -2.9721 C   0  0  0  0  0  0  0  0  0  0  0  0
   -6.6009    4.4501   -2.6659 C   0  0  0  0  0  0  0  0  0  0  0  0
   -8.0729    3.9304   -3.5504 S   0  0  0  0  0  0  0  0  0  0  0  0
   -8.5672    2.7152   -2.2895 C   0  0  0  0  0  0  0  0  0  0  0  0
   -6.6876    5.4531   -1.6938 C   0  0  0  0  0  0  0  0  0  0  0  0
   -5.5390    5.8738   -1.0173 C   0  0  0  0  0  0  0  0  0  0  0  0
   -1.9313    6.1208   -1.3215 C   0  0  0  0  0  0  0  0  0  0  0  0
   -2.0574    6.8476   -2.5178 C   0  0  0  0  0  0  0  0  0  0  0  0
   -0.9249    7.2799   -3.2130 C   0  0  0  0  0  0  0  0  0  0  0  0
    0.3534    6.9745   -2.7304 C   0  0  0  0  0  0  0  0  0  0  0  0
    1.8046    7.5681   -3.6005 S   0  0  0  0  0  0  0  0  0  0  0  0
    1.9255    6.0815   -4.6379 C   0  0  0  0  0  0  0  0  0  0  0  0
    0.4920    6.2321   -1.5523 C   0  0  0  0  0  0  0  0  0  0  0  0
   -0.6401    5.8120   -0.8499 C   0  0  0  0  0  0  0  0  0  0  0  0
   -2.8132    4.2348    1.3753 C   0  0  0  0  0  0  0  0  0  0  0  0
   -2.2862    2.7848    0.7451 S   0  0  0  0  0  0  0  0  0  0  0  0
   -2.1799    2.0268    2.2650 C   0  0  0  0  0  0  0  0  0  0  0  0
   -2.5831    2.9210    3.2815 C   0  0  0  0  0  0  0  0  0  0  0  0
   -2.7119    2.6029    4.6795 N   0  0  0  0  0  0  0  0  0  0  0  0
   -3.8367    3.1032    5.4220 C   0  0  0  0  0  0  0  0  0  0  0  0
   -3.6337    3.8021    6.6227 C   0  0  0  0  0  0  0  0  0  0  0  0
   -4.7263    4.3000    7.3368 C   0  0  0  0  0  0  0  0  0  0  0  0
   -6.0281    4.0925    6.8638 C   0  0  0  0  0  0  0  0  0  0  0  0
   -7.4381    4.7098    7.7890 S   0  0  0  0  0  0  0  0  0  0  0  0
   -7.5094    6.2835    6.8780 C   0  0  0  0  0  0  0  0  0  0  0  0
   -6.2350    3.3774    5.6779 C   0  0  0  0  0  0  0  0  0  0  0  0
   -5.1445    2.8974    4.9540 C   0  0  0  0  0  0  0  0  0  0  0  0
   -1.8813    1.6076    5.2943 C   0  0  0  0  0  0  0  0  0  0  0  0
   -2.4349    0.3814    5.6873 C   0  0  0  0  0  0  0  0  0  0  0  0
   -1.6164   -0.6164    6.2247 C   0  0  0  0  0  0  0  0  0  0  0  0
   -0.2508   -0.3835    6.4022 C   0  0  0  0  0  0  0  0  0  0  0  0
    0.7907   -1.6771    7.0778 S   0  0  0  0  0  0  0  0  0  0  0  0
    0.6319   -1.0879    8.7910 C   0  0  0  0  0  0  0  0  0  0  0  0
    0.3054    0.8441    6.0167 C   0  0  0  0  0  0  0  0  0  0  0  0
   -0.5075    1.8404    5.4618 C   0  0  0  0  0  0  0  0  0  0  0  0
   -2.9247    4.1602    2.7251 C   0  0  0  0  0  0  0  0  0  0  0  0
   -3.3818    5.6642    3.3338 S   0  0  0  0  0  0  0  0  0  0  0  0
   -1.4936    0.7443    2.4312 C   0  0  0  0  0  0  0  0  0  0  0  0
   -0.1559    0.5476    2.0680 C   0  0  0  0  0  0  0  0  0  0  0  0
    0.6871    1.5928    1.5525 N   0  0  0  0  0  0  0  0  0  0  0  0
    1.3701    2.4114    2.5088 C   0  0  0  0  0  0  0  0  0  0  0  0
    1.1078    3.7868    2.5904 C   0  0  0  0  0  0  0  0  0  0  0  0
    1.8465    4.5962    3.4582 C   0  0  0  0  0  0  0  0  0  0  0  0
    2.8346    4.0295    4.2693 C   0  0  0  0  0  0  0  0  0  0  0  0
    3.8233    5.0761    5.3362 S   0  0  0  0  0  0  0  0  0  0  0  0
    5.1543    5.2657    4.1057 C   0  0  0  0  0  0  0  0  0  0  0  0
    3.0690    2.6496    4.2266 C   0  0  0  0  0  0  0  0  0  0  0  0
    2.3396    1.8445    3.3488 C   0  0  0  0  0  0  0  0  0  0  0  0
    0.9467    1.7156    0.1238 C   0  0  0  0  0  0  0  0  0  0  0  0
    0.2506    0.9204   -0.8146 C   0  0  0  0  0  0  0  0  0  0  0  0
    0.5752    0.9601   -2.1704 C   0  0  0  0  0  0  0  0  0  0  0  0
    1.5597    1.8332   -2.6333 C   0  0  0  0  0  0  0  0  0  0  0  0
    1.9856    1.8696   -4.3757 S   0  0  0  0  0  0  0  0  0  0  0  0
    0.5212    2.8419   -4.8521 C   0  0  0  0  0  0  0  0  0  0  0  0
    2.2247    2.6664   -1.7302 C   0  0  0  0  0  0  0  0  0  0  0  0
    1.9315    2.6068   -0.3629 C   0  0  0  0  0  0  0  0  0  0  0  0
    0.1444   -0.8035    1.9220 C   0  0  0  0  0  0  0  0  0  0  0  0
    1.3723   -1.5660    1.0854 S   0  0  0  0  0  0  0  0  0  0  0  0
    0.5472   -3.0457    0.9431 C   0  0  0  0  0  0  0  0  0  0  0  0
   -0.7184   -2.9310    1.5445 C   0  0  0  0  0  0  0  0  0  0  0  0
   -1.7629   -3.9184    1.4712 N   0  0  0  0  0  0  0  0  0  0  0  0
   -2.4729   -4.2673    2.6824 C   0  0  0  0  0  0  0  0  0  0  0  0
   -1.7835   -4.3503    3.9078 C   0  0  0  0  0  0  0  0  0  0  0  0
   -2.4744   -4.5787    5.1004 C   0  0  0  0  0  0  0  0  0  0  0  0
   -3.8655   -4.7257    5.0877 C   0  0  0  0  0  0  0  0  0  0  0  0
   -4.7600   -4.9875    6.6203 S   0  0  0  0  0  0  0  0  0  0  0  0
   -4.9003   -3.2135    6.9948 C   0  0  0  0  0  0  0  0  0  0  0  0
   -4.5588   -4.6630    3.8731 C   0  0  0  0  0  0  0  0  0  0  0  0
   -3.8679   -4.4401    2.6763 C   0  0  0  0  0  0  0  0  0  0  0  0
   -2.1308   -4.4833    0.1961 C   0  0  0  0  0  0  0  0  0  0  0  0
   -2.3463   -5.8633    0.0627 C   0  0  0  0  0  0  0  0  0  0  0  0
   -2.5853   -6.4236   -1.1995 C   0  0  0  0  0  0  0  0  0  0  0  0
   -2.6306   -5.6033   -2.3345 C   0  0  0  0  0  0  0  0  0  0  0  0
   -2.8660   -6.3219   -3.9636 S   0  0  0  0  0  0  0  0  0  0  0  0
   -4.6778   -6.1592   -3.9216 C   0  0  0  0  0  0  0  0  0  0  0  0
   -2.4579   -4.2177   -2.2034 C   0  0  0  0  0  0  0  0  0  0  0  0
   -2.2150   -3.6623   -0.9436 C   0  0  0  0  0  0  0  0  0  0  0  0
   -0.9051   -1.6528    2.0903 C   0  0  0  0  0  0  0  0  0  0  0  0
   -2.2872   -0.7684    2.4574 S   0  0  0  0  0  0  0  0  0  0  0  0
    0.9804   -4.0538   -0.0298 C   0  0  0  0  0  0  0  0  0  0  0  0
    1.7304   -5.2116    0.2527 C   0  0  0  0  0  0  0  0  0  0  0  0
    2.0172   -5.7075    1.5739 N   0  0  0  0  0  0  0  0  0  0  0  0
    2.5664   -4.8160    2.5672 C   0  0  0  0  0  0  0  0  0  0  0  0
    2.1158   -4.8750    3.8927 C   0  0  0  0  0  0  0  0  0  0  0  0
    2.5871   -3.9616    4.8384 C   0  0  0  0  0  0  0  0  0  0  0  0
    3.5243   -2.9822    4.4758 C   0  0  0  0  0  0  0  0  0  0  0  0
    3.9724   -1.9537    5.4702 C   0  0  0  0  0  0  0  0  0  0  0  0
    3.9893   -2.9307    3.1511 C   0  0  0  0  0  0  0  0  0  0  0  0
    3.5256   -3.8514    2.2083 C   0  0  0  0  0  0  0  0  0  0  0  0
    1.8916   -7.1227    1.8351 C   0  0  0  0  0  0  0  0  0  0  0  0
    2.8591   -7.8051    2.5957 C   0  0  0  0  0  0  0  0  0  0  0  0
    2.7467   -9.1807    2.8160 C   0  0  0  0  0  0  0  0  0  0  0  0
    1.6717   -9.8975    2.2673 C   0  0  0  0  0  0  0  0  0  0  0  0
    1.5297  -11.3692    2.5210 C   0  0  0  0  0  0  0  0  0  0  0  0
    0.6975   -9.2201    1.5207 C   0  0  0  0  0  0  0  0  0  0  0  0
    0.8145   -7.8464    1.2978 C   0  0  0  0  0  0  0  0  0  0  0  0
    2.3803   -5.6837   -0.8906 C   0  0  0  0  0  0  0  0  0  0  0  0
    3.6594   -6.7406   -1.1293 S   0  0  0  0  0  0  0  0  0  0  0  0
    3.9925   -6.2028   -2.7096 C   0  0  0  0  0  0  0  0  0  0  0  0
    3.0938   -5.1825   -3.0514 C   0  0  0  0  0  0  0  0  0  0  0  0
    3.2163   -4.3258   -4.1974 N   0  0  0  0  0  0  0  0  0  0  0  0
    2.3079   -4.5575   -5.2949 C   0  0  0  0  0  0  0  0  0  0  0  0
    2.2650   -5.8125   -5.9240 C   0  0  0  0  0  0  0  0  0  0  0  0
    1.3984   -6.0363   -6.9978 C   0  0  0  0  0  0  0  0  0  0  0  0
    0.5478   -5.0114   -7.4455 C   0  0  0  0  0  0  0  0  0  0  0  0
   -0.3383   -5.2292   -8.6361 C   0  0  0  0  0  0  0  0  0  0  0  0
    0.5853   -3.7593   -6.8162 C   0  0  0  0  0  0  0  0  0  0  0  0
    1.4500   -3.5371   -5.7412 C   0  0  0  0  0  0  0  0  0  0  0  0
    3.9355   -3.0671   -4.1002 C   0  0  0  0  0  0  0  0  0  0  0  0
    4.3879   -2.4190   -5.2689 C   0  0  0  0  0  0  0  0  0  0  0  0
    4.9739   -1.1498   -5.2005 C   0  0  0  0  0  0  0  0  0  0  0  0
    5.1154   -0.5027   -3.9645 C   0  0  0  0  0  0  0  0  0  0  0  0
    5.7325    0.8600   -3.8864 C   0  0  0  0  0  0  0  0  0  0  0  0
    4.7333   -1.1660   -2.7928 C   0  0  0  0  0  0  0  0  0  0  0  0
    4.1587   -2.4334   -2.8594 C   0  0  0  0  0  0  0  0  0  0  0  0
    2.1952   -4.9379   -2.0132 C   0  0  0  0  0  0  0  0  0  0  0  0
    1.1811   -3.6524   -1.6736 S   0  0  0  0  0  0  0  0  0  0  0  0
    4.9573   -6.8752   -3.5921 C   0  0  0  0  0  0  0  0  0  0  0  0
    6.2740   -6.6069   -3.5916 C   0  0  0  0  0  0  0  0  0  0  0  0
    6.8993   -5.3572   -3.1540 C   0  0  0  0  0  0  0  0  0  0  0  0
    6.3381   -4.4112   -2.5422 O   0  0  0  0  0  0  0  0  0  0  0  0
    8.2667   -5.3381   -3.6349 C   0  0  0  0  0  0  0  0  0  0  0  0
    9.2163   -4.3232   -3.4980 C   0  0  0  0  0  0  0  0  0  0  0  0
   10.5117   -4.5465   -3.9957 C   0  0  0  0  0  0  0  0  0  0  0  0
   10.8249   -5.7613   -4.6305 C   0  0  0  0  0  0  0  0  0  0  0  0
   12.6124   -6.0912   -5.2383 Br  0  0  0  0  0  0  0  0  0  0  0  0
    9.8418   -6.7559   -4.7911 C   0  0  0  0  0  0  0  0  0  0  0  0
    8.5490   -6.5300   -4.2859 C   0  0  0  0  0  0  0  0  0  0  0  0
    7.3569   -7.4241   -4.2275 C   0  0  0  0  0  0  0  0  0  0  0  0
    7.3347   -8.7695   -4.4262 C   0  0  0  0  0  0  0  0  0  0  0  0
    6.2581   -9.5867   -3.9351 C   0  0  0  0  0  0  0  0  0  0  0  0
    5.4064  -10.2488   -3.5132 N   0  0  0  0  0  0  0  0  0  0  0  0
    8.4563   -9.5060   -4.9425 C   0  0  0  0  0  0  0  0  0  0  0  0
    9.3456  -10.1314   -5.3474 N   0  0  0  0  0  0  0  0  0  0  0  0
   -4.8955    7.9185    1.5218 H   0  0  0  0  0  0  0  0  0  0  0  0
    1.0921    9.0073   -0.0465 H   0  0  0  0  0  0  0  0  0  0  0  0
    1.5680   10.3976   -2.0520 H   0  0  0  0  0  0  0  0  0  0  0  0
   -2.5975   11.3438   -2.4428 H   0  0  0  0  0  0  0  0  0  0  0  0
   -3.2550    3.8478   -2.5253 H   0  0  0  0  0  0  0  0  0  0  0  0
   -5.2856    3.1116   -3.7306 H   0  0  0  0  0  0  0  0  0  0  0  0
   -7.7588    1.9727   -2.1277 H   0  0  0  0  0  0  0  0  0  0  0  0
   -8.7961    3.2318   -1.3342 H   0  0  0  0  0  0  0  0  0  0  0  0
   -9.4773    2.1860   -2.6405 H   0  0  0  0  0  0  0  0  0  0  0  0
   -7.6463    5.8998   -1.4557 H   0  0  0  0  0  0  0  0  0  0  0  0
   -5.6236    6.6536   -0.2767 H   0  0  0  0  0  0  0  0  0  0  0  0
   -3.0363    7.0975   -2.9059 H   0  0  0  0  0  0  0  0  0  0  0  0
   -1.0461    7.8537   -4.1225 H   0  0  0  0  0  0  0  0  0  0  0  0
    0.9505    5.8885   -5.1351 H   0  0  0  0  0  0  0  0  0  0  0  0
    2.2063    5.2112   -4.0091 H   0  0  0  0  0  0  0  0  0  0  0  0
    2.7033    6.2349   -5.4139 H   0  0  0  0  0  0  0  0  0  0  0  0
    1.4752    5.9851   -1.1709 H   0  0  0  0  0  0  0  0  0  0  0  0
   -0.5053    5.2488    0.0597 H   0  0  0  0  0  0  0  0  0  0  0  0
   -2.6286    3.9670    6.9962 H   0  0  0  0  0  0  0  0  0  0  0  0
   -4.5640    4.8507    8.2588 H   0  0  0  0  0  0  0  0  0  0  0  0
   -8.3678    6.8777    7.2561 H   0  0  0  0  0  0  0  0  0  0  0  0
   -7.6497    6.0958    5.7931 H   0  0  0  0  0  0  0  0  0  0  0  0
   -6.5745    6.8566    7.0404 H   0  0  0  0  0  0  0  0  0  0  0  0
   -7.2383    3.2016    5.3145 H   0  0  0  0  0  0  0  0  0  0  0  0
   -5.3079    2.3466    4.0354 H   0  0  0  0  0  0  0  0  0  0  0  0
   -3.4865    0.1808    5.5347 H   0  0  0  0  0  0  0  0  0  0  0  0
   -2.0399   -1.5755    6.4859 H   0  0  0  0  0  0  0  0  0  0  0  0
    1.1835   -1.7757    9.4632 H   0  0  0  0  0  0  0  0  0  0  0  0
    1.0671   -0.0709    8.8804 H   0  0  0  0  0  0  0  0  0  0  0  0
   -0.4364   -1.0692    9.0909 H   0  0  0  0  0  0  0  0  0  0  0  0
    1.3663    1.0188    6.1410 H   0  0  0  0  0  0  0  0  0  0  0  0
   -0.0708    2.7835    5.1646 H   0  0  0  0  0  0  0  0  0  0  0  0
    0.3485    4.2332    1.9661 H   0  0  0  0  0  0  0  0  0  0  0  0
    1.6538    5.6607    3.4973 H   0  0  0  0  0  0  0  0  0  0  0  0
    5.7548    4.3338    4.0578 H   0  0  0  0  0  0  0  0  0  0  0  0
    4.7348    5.4859    3.1030 H   0  0  0  0  0  0  0  0  0  0  0  0
    5.8065    6.1082    4.4085 H   0  0  0  0  0  0  0  0  0  0  0  0
    3.8262    2.2023    4.8618 H   0  0  0  0  0  0  0  0  0  0  0  0
    2.5398    0.7814    3.3095 H   0  0  0  0  0  0  0  0  0  0  0  0
   -0.5351    0.2449   -0.5000 H   0  0  0  0  0  0  0  0  0  0  0  0
    0.0500    0.3131   -2.8636 H   0  0  0  0  0  0  0  0  0  0  0  0
   -0.3718    2.1837   -4.8738 H   0  0  0  0  0  0  0  0  0  0  0  0
    0.3396    3.6670   -4.1349 H   0  0  0  0  0  0  0  0  0  0  0  0
    0.6841    3.2687   -5.8632 H   0  0  0  0  0  0  0  0  0  0  0  0
    2.9999    3.3387   -2.0792 H   0  0  0  0  0  0  0  0  0  0  0  0
    2.4933    3.2445    0.3052 H   0  0  0  0  0  0  0  0  0  0  0  0
   -0.7109   -4.2117    3.9395 H   0  0  0  0  0  0  0  0  0  0  0  0
   -1.9276   -4.6342    6.0331 H   0  0  0  0  0  0  0  0  0  0  0  0
   -5.2858   -2.6568    6.1172 H   0  0  0  0  0  0  0  0  0  0  0  0
   -3.9068   -2.8173    7.2790 H   0  0  0  0  0  0  0  0  0  0  0  0
   -5.5958   -3.0686    7.8463 H   0  0  0  0  0  0  0  0  0  0  0  0
   -5.6376   -4.7685    3.8612 H   0  0  0  0  0  0  0  0  0  0  0  0
   -4.4256   -4.3685    1.7503 H   0  0  0  0  0  0  0  0  0  0  0  0
   -2.2996   -6.5098    0.9309 H   0  0  0  0  0  0  0  0  0  0  0  0
   -2.7302   -7.4910   -1.2949 H   0  0  0  0  0  0  0  0  0  0  0  0
   -5.0956   -6.7455   -3.0782 H   0  0  0  0  0  0  0  0  0  0  0  0
   -4.9670   -5.0933   -3.8200 H   0  0  0  0  0  0  0  0  0  0  0  0
   -5.0915   -6.5512   -4.8724 H   0  0  0  0  0  0  0  0  0  0  0  0
   -2.5024   -3.5764   -3.0734 H   0  0  0  0  0  0  0  0  0  0  0  0
   -2.0693   -2.5920   -0.8587 H   0  0  0  0  0  0  0  0  0  0  0  0
    1.3841   -5.6154    4.1868 H   0  0  0  0  0  0  0  0  0  0  0  0
    2.2101   -4.0144    5.8541 H   0  0  0  0  0  0  0  0  0  0  0  0
    3.8669   -2.3371    6.5068 H   0  0  0  0  0  0  0  0  0  0  0  0
    3.3584   -1.0333    5.3605 H   0  0  0  0  0  0  0  0  0  0  0  0
    5.0397   -1.6956    5.3027 H   0  0  0  0  0  0  0  0  0  0  0  0
    4.6998   -2.1702    2.8541 H   0  0  0  0  0  0  0  0  0  0  0  0
    3.8936   -3.7951    1.1921 H   0  0  0  0  0  0  0  0  0  0  0  0
    3.7062   -7.2698    3.0070 H   0  0  0  0  0  0  0  0  0  0  0  0
    3.4998   -9.6882    3.4092 H   0  0  0  0  0  0  0  0  0  0  0  0
    0.8427  -11.5321    3.3779 H   0  0  0  0  0  0  0  0  0  0  0  0
    2.5143  -11.8289    2.7571 H   0  0  0  0  0  0  0  0  0  0  0  0
    1.1181  -11.8801    1.6249 H   0  0  0  0  0  0  0  0  0  0  0  0
   -0.1485   -9.7554    1.1080 H   0  0  0  0  0  0  0  0  0  0  0  0
    0.0598   -7.3430    0.7097 H   0  0  0  0  0  0  0  0  0  0  0  0
    2.9162   -6.6144   -5.6008 H   0  0  0  0  0  0  0  0  0  0  0  0
    1.3946   -7.0027   -7.4886 H   0  0  0  0  0  0  0  0  0  0  0  0
   -1.2453   -4.5880   -8.5814 H   0  0  0  0  0  0  0  0  0  0  0  0
    0.2228   -4.9733   -9.5589 H   0  0  0  0  0  0  0  0  0  0  0  0
   -0.6669   -6.2906   -8.6973 H   0  0  0  0  0  0  0  0  0  0  0  0
   -0.0530   -2.9549   -7.1560 H   0  0  0  0  0  0  0  0  0  0  0  0
    1.4548   -2.5733   -5.2512 H   0  0  0  0  0  0  0  0  0  0  0  0
    4.2722   -2.8915   -6.2350 H   0  0  0  0  0  0  0  0  0  0  0  0
    5.3004   -0.6644   -6.1145 H   0  0  0  0  0  0  0  0  0  0  0  0
    5.2982    1.4357   -3.0407 H   0  0  0  0  0  0  0  0  0  0  0  0
    6.8267    0.7597   -3.7312 H   0  0  0  0  0  0  0  0  0  0  0  0
    5.5433    1.4338   -4.8164 H   0  0  0  0  0  0  0  0  0  0  0  0
    4.8731   -0.6964   -1.8252 H   0  0  0  0  0  0  0  0  0  0  0  0
    3.8873   -2.9091   -1.9279 H   0  0  0  0  0  0  0  0  0  0  0  0
    4.5705   -7.7204   -4.1371 H   0  0  0  0  0  0  0  0  0  0  0  0
    8.9787   -3.4004   -2.9912 H   0  0  0  0  0  0  0  0  0  0  0  0
   11.2742   -3.7850   -3.8697 H   0  0  0  0  0  0  0  0  0  0  0  0
   10.1138   -7.6530   -5.3147 H   0  0  0  0  0  0  0  0  0  0  0  0
  1  2  2  3
  2  3  1  0
  3  4  2  0
  3  5  1  0
  5  6  2  0
  6  7  1  0
  7  8  2  0
  8  9  1  0
  8 10  1  0
 10 11  2  0
 11 12  1  0
 12 13  2  3
 13 14  1  0
 14 15  3  0
 13 16  1  0
 16 17  3  0
  1 18  1  0
 18 19  2  0
 19 20  1  0
 20 21  1  0
 21 22  2  0
 22 23  1  0
 23 24  2  0
 24 25  1  0
 25 26  1  0
 24 27  1  0
 27 28  2  0
 20 29  1  0
 29 30  2  0
 30 31  1  0
 31 32  2  0
 32 33  1  0
 33 34  1  0
 32 35  1  0
 35 36  2  0
 19 37  1  0
 37 38  1  0
 38 39  1  0
 39 40  2  0
 40 41  1  0
 41 42  1  0
 42 43  2  0
 43 44  1  0
 44 45  2  0
 45 46  1  0
 46 47  1  0
 45 48  1  0
 48 49  2  0
 41 50  1  0
 50 51  2  0
 51 52  1  0
 52 53  2  0
 53 54  1  0
 54 55  1  0
 53 56  1  0
 56 57  2  0
 40 58  1  0
 58 59  1  0
 39 60  1  0
 60 61  2  0
 61 62  1  0
 62 63  1  0
 63 64  2  0
 64 65  1  0
 65 66  2  0
 66 67  1  0
 67 68  1  0
 66 69  1  0
 69 70  2  0
 62 71  1  0
 71 72  2  0
 72 73  1  0
 73 74  2  0
 74 75  1  0
 75 76  1  0
 74 77  1  0
 77 78  2  0
 61 79  1  0
 79 80  1  0
 80 81  1  0
 81 82  2  0
 82 83  1  0
 83 84  1  0
 84 85  2  0
 85 86  1  0
 86 87  2  0
 87 88  1  0
 88 89  1  0
 87 90  1  0
 90 91  2  0
 83 92  1  0
 92 93  2  0
 93 94  1  0
 94 95  2  0
 95 96  1  0
 96 97  1  0
 95 98  1  0
 98 99  2  0
 82100  1  0
100101  1  0
 81102  1  0
102103  2  0
103104  1  0
104105  1  0
105106  2  0
106107  1  0
107108  2  0
108109  1  0
108110  1  0
110111  2  0
104112  1  0
112113  2  0
113114  1  0
114115  2  0
115116  1  0
115117  1  0
117118  2  0
103119  1  0
119120  1  0
120121  1  0
121122  2  0
122123  1  0
123124  1  0
124125  2  0
125126  1  0
126127  2  0
127128  1  0
127129  1  0
129130  2  0
123131  1  0
131132  2  0
132133  1  0
133134  2  0
134135  1  0
134136  1  0
136137  2  0
122138  1  0
138139  1  0
121140  1  0
140141  2  3
141142  1  0
142143  2  0
142144  1  0
144145  2  0
145146  1  0
146147  2  0
147148  1  0
147149  1  0
149150  2  0
150151  1  0
151152  2  3
152153  1  0
153154  3  0
152155  1  0
155156  3  0
 12  2  1  0
 59 18  1  0
101 60  1  0
139102  1  0
151141  1  0
 11  5  1  0
 28 21  1  0
 36 29  1  0
 58 37  2  0
 70 63  1  0
 78 71  1  0
100 79  2  0
111105  1  0
118112  1  0
138119  2  0
150144  1  0
 49 42  1  0
 57 50  1  0
 91 84  1  0
 99 92  1  0
130124  1  0
137131  1  0
  1157  1  0
  6158  1  0
  7159  1  0
 10160  1  0
 22161  1  0
 23162  1  0
 26163  1  0
 26164  1  0
 26165  1  0
 27166  1  0
 28167  1  0
 30168  1  0
 31169  1  0
 34170  1  0
 34171  1  0
 34172  1  0
 35173  1  0
 36174  1  0
 43175  1  0
 44176  1  0
 47177  1  0
 47178  1  0
 47179  1  0
 48180  1  0
 49181  1  0
 51182  1  0
 52183  1  0
 55184  1  0
 55185  1  0
 55186  1  0
 56187  1  0
 57188  1  0
 64189  1  0
 65190  1  0
 68191  1  0
 68192  1  0
 68193  1  0
 69194  1  0
 70195  1  0
 72196  1  0
 73197  1  0
 76198  1  0
 76199  1  0
 76200  1  0
 77201  1  0
 78202  1  0
 85203  1  0
 86204  1  0
 89205  1  0
 89206  1  0
 89207  1  0
 90208  1  0
 91209  1  0
 93210  1  0
 94211  1  0
 97212  1  0
 97213  1  0
 97214  1  0
 98215  1  0
 99216  1  0
106217  1  0
107218  1  0
109219  1  0
109220  1  0
109221  1  0
110222  1  0
111223  1  0
113224  1  0
114225  1  0
116226  1  0
116227  1  0
116228  1  0
117229  1  0
118230  1  0
125231  1  0
126232  1  0
128233  1  0
128234  1  0
128235  1  0
129236  1  0
130237  1  0
132238  1  0
133239  1  0
135240  1  0
135241  1  0
135242  1  0
136243  1  0
137244  1  0
140245  1  0
145246  1  0
146247  1  0
149248  1  0
M  END

