
     RDKit          3D

208225  0  0  0  0  0  0  0  0999 V2000
   -0.3537   -7.5240   -1.6088 C   0  0  0  0  0  0  0  0  0  0  0  0
   -0.3789   -8.1825   -0.4346 C   0  0  0  0  0  0  0  0  0  0  0  0
    0.7429   -8.2763    0.4901 C   0  0  0  0  0  0  0  0  0  0  0  0
    1.9071   -7.8480    0.2816 O   0  0  0  0  0  0  0  0  0  0  0  0
    0.3855   -9.1435    1.5810 C   0  0  0  0  0  0  0  0  0  0  0  0
    1.1725   -9.5082    2.6741 C   0  0  0  0  0  0  0  0  0  0  0  0
    0.6173  -10.3428    3.6470 C   0  0  0  0  0  0  0  0  0  0  0  0
   -0.7142  -10.7886    3.5190 C   0  0  0  0  0  0  0  0  0  0  0  0
   -1.4765  -11.8807    4.8868 Br  0  0  0  0  0  0  0  0  0  0  0  0
   -1.4788  -10.4321    2.3944 C   0  0  0  0  0  0  0  0  0  0  0  0
   -0.9058   -9.6101    1.4060 C   0  0  0  0  0  0  0  0  0  0  0  0
   -1.4684   -9.0464    0.1378 C   0  0  0  0  0  0  0  0  0  0  0  0
   -2.7518   -9.1449   -0.3007 C   0  0  0  0  0  0  0  0  0  0  0  0
   -3.7414   -9.9685    0.3445 C   0  0  0  0  0  0  0  0  0  0  0  0
   -4.5525  -10.6244    0.8481 N   0  0  0  0  0  0  0  0  0  0  0  0
   -3.2721   -8.3643   -1.3961 C   0  0  0  0  0  0  0  0  0  0  0  0
   -3.7073   -7.7370   -2.2640 N   0  0  0  0  0  0  0  0  0  0  0  0
    0.0163   -6.0972   -1.6529 C   0  0  0  0  0  0  0  0  0  0  0  0
    1.2893   -5.4786   -1.6957 C   0  0  0  0  0  0  0  0  0  0  0  0
    2.5342   -6.1570   -1.9579 N   0  0  0  0  0  0  0  0  0  0  0  0
    3.7212   -5.9021   -1.1577 C   0  0  0  0  0  0  0  0  0  0  0  0
    5.0094   -6.0913   -1.7030 C   0  0  0  0  0  0  0  0  0  0  0  0
    6.1386   -6.0991   -0.8770 C   0  0  0  0  0  0  0  0  0  0  0  0
    5.9966   -5.9141    0.5068 C   0  0  0  0  0  0  0  0  0  0  0  0
    7.4072   -6.1844    1.5939 S   0  0  0  0  0  0  0  0  0  0  0  0
    7.8572   -4.4283    1.7565 C   0  0  0  0  0  0  0  0  0  0  0  0
    4.7366   -5.6237    1.0402 C   0  0  0  0  0  0  0  0  0  0  0  0
    3.6106   -5.5866    0.2145 C   0  0  0  0  0  0  0  0  0  0  0  0
    2.5449   -7.1603   -2.9966 C   0  0  0  0  0  0  0  0  0  0  0  0
    3.1551   -8.4108   -2.7862 C   0  0  0  0  0  0  0  0  0  0  0  0
    3.1226   -9.3867   -3.7818 C   0  0  0  0  0  0  0  0  0  0  0  0
    2.4657   -9.1342   -4.9918 C   0  0  0  0  0  0  0  0  0  0  0  0
    2.4132  -10.3974   -6.2643 S   0  0  0  0  0  0  0  0  0  0  0  0
    0.9618  -11.2292   -5.5444 C   0  0  0  0  0  0  0  0  0  0  0  0
    1.8517   -7.9001   -5.2095 C   0  0  0  0  0  0  0  0  0  0  0  0
    1.8918   -6.9151   -4.2206 C   0  0  0  0  0  0  0  0  0  0  0  0
    1.1555   -4.0862   -1.6921 C   0  0  0  0  0  0  0  0  0  0  0  0
    2.2179   -2.7841   -1.7079 S   0  0  0  0  0  0  0  0  0  0  0  0
    0.9927   -1.5904   -1.6679 C   0  0  0  0  0  0  0  0  0  0  0  0
   -0.2627   -2.2328   -1.6639 C   0  0  0  0  0  0  0  0  0  0  0  0
   -1.5306   -1.5508   -1.6711 N   0  0  0  0  0  0  0  0  0  0  0  0
   -2.1121   -1.1317   -2.9253 C   0  0  0  0  0  0  0  0  0  0  0  0
   -2.9814   -0.0248   -2.9892 C   0  0  0  0  0  0  0  0  0  0  0  0
   -3.5211    0.3841   -4.2089 C   0  0  0  0  0  0  0  0  0  0  0  0
   -3.2113   -0.3072   -5.3826 C   0  0  0  0  0  0  0  0  0  0  0  0
   -3.8748    0.2474   -6.9521 S   0  0  0  0  0  0  0  0  0  0  0  0
   -2.3714    1.1737   -7.3879 C   0  0  0  0  0  0  0  0  0  0  0  0
   -2.3838   -1.4340   -5.3292 C   0  0  0  0  0  0  0  0  0  0  0  0
   -1.8275   -1.8371   -4.1133 C   0  0  0  0  0  0  0  0  0  0  0  0
   -2.2440   -1.3867   -0.4351 C   0  0  0  0  0  0  0  0  0  0  0  0
   -2.1322   -0.1926    0.2902 C   0  0  0  0  0  0  0  0  0  0  0  0
   -2.7738   -0.0506    1.5233 C   0  0  0  0  0  0  0  0  0  0  0  0
   -3.5352   -1.1049    2.0427 C   0  0  0  0  0  0  0  0  0  0  0  0
   -4.3437   -0.9292    3.6310 S   0  0  0  0  0  0  0  0  0  0  0  0
   -2.9290   -1.6150    4.5559 C   0  0  0  0  0  0  0  0  0  0  0  0
   -3.6918   -2.2818    1.2983 C   0  0  0  0  0  0  0  0  0  0  0  0
   -3.0501   -2.4204    0.0628 C   0  0  0  0  0  0  0  0  0  0  0  0
   -0.1220   -3.6202   -1.6734 C   0  0  0  0  0  0  0  0  0  0  0  0
   -1.1904   -4.8965   -1.6561 S   0  0  0  0  0  0  0  0  0  0  0  0
    1.1961   -0.2393   -1.1342 C   0  0  0  0  0  0  0  0  0  0  0  0
    1.3242   -0.0118    0.2438 C   0  0  0  0  0  0  0  0  0  0  0  0
    2.1416   -0.8146    1.1041 N   0  0  0  0  0  0  0  0  0  0  0  0
    3.5574   -0.8563    0.8364 C   0  0  0  0  0  0  0  0  0  0  0  0
    4.2255   -2.0866    0.8181 C   0  0  0  0  0  0  0  0  0  0  0  0
    5.5168   -2.1794    0.2979 C   0  0  0  0  0  0  0  0  0  0  0  0
    6.1875   -1.0317   -0.1329 C   0  0  0  0  0  0  0  0  0  0  0  0
    7.8201   -1.1780   -0.8521 S   0  0  0  0  0  0  0  0  0  0  0  0
    7.1752   -1.4741   -2.5300 C   0  0  0  0  0  0  0  0  0  0  0  0
    5.5588    0.2174   -0.0458 C   0  0  0  0  0  0  0  0  0  0  0  0
    4.2433    0.3056    0.4230 C   0  0  0  0  0  0  0  0  0  0  0  0
    1.5651   -1.5714    2.1858 C   0  0  0  0  0  0  0  0  0  0  0  0
    2.2004   -1.6337    3.4386 C   0  0  0  0  0  0  0  0  0  0  0  0
    1.6782   -2.4303    4.4597 C   0  0  0  0  0  0  0  0  0  0  0  0
    0.5205   -3.1840    4.2361 C   0  0  0  0  0  0  0  0  0  0  0  0
   -0.1144   -4.2613    5.5199 S   0  0  0  0  0  0  0  0  0  0  0  0
    0.8060   -5.7157    4.9099 C   0  0  0  0  0  0  0  0  0  0  0  0
   -0.1366   -3.1027    3.0041 C   0  0  0  0  0  0  0  0  0  0  0  0
    0.3858   -2.3018    1.9853 C   0  0  0  0  0  0  0  0  0  0  0  0
    1.0079    1.2983    0.5598 C   0  0  0  0  0  0  0  0  0  0  0  0
    0.8549    2.0974    2.0100 S   0  0  0  0  0  0  0  0  0  0  0  0
    0.4406    3.5692    1.2626 C   0  0  0  0  0  0  0  0  0  0  0  0
    0.4797    3.4444   -0.1408 C   0  0  0  0  0  0  0  0  0  0  0  0
    0.8666    4.5474   -0.9827 N   0  0  0  0  0  0  0  0  0  0  0  0
    0.0296    4.9388   -2.0787 C   0  0  0  0  0  0  0  0  0  0  0  0
    0.3609    4.5396   -3.3801 C   0  0  0  0  0  0  0  0  0  0  0  0
   -0.3003    5.0996   -4.4798 C   0  0  0  0  0  0  0  0  0  0  0  0
   -1.2675    6.0902   -4.2806 C   0  0  0  0  0  0  0  0  0  0  0  0
   -2.0746    6.8630   -5.6866 S   0  0  0  0  0  0  0  0  0  0  0  0
   -0.8458    8.2015   -5.8158 C   0  0  0  0  0  0  0  0  0  0  0  0
   -1.5927    6.5019   -2.9843 C   0  0  0  0  0  0  0  0  0  0  0  0
   -0.9448    5.9261   -1.8850 C   0  0  0  0  0  0  0  0  0  0  0  0
    2.1063    5.2669   -0.7316 C   0  0  0  0  0  0  0  0  0  0  0  0
    3.1111    4.7162    0.0990 C   0  0  0  0  0  0  0  0  0  0  0  0
    4.2728    5.4302    0.3902 C   0  0  0  0  0  0  0  0  0  0  0  0
    4.4850    6.6867   -0.1750 C   0  0  0  0  0  0  0  0  0  0  0  0
    5.9727    7.6093    0.2200 S   0  0  0  0  0  0  0  0  0  0  0  0
    7.0239    6.6668   -0.9344 C   0  0  0  0  0  0  0  0  0  0  0  0
    3.5285    7.2308   -1.0372 C   0  0  0  0  0  0  0  0  0  0  0  0
    2.3454    6.5369   -1.3061 C   0  0  0  0  0  0  0  0  0  0  0  0
    0.7381    2.1180   -0.4870 C   0  0  0  0  0  0  0  0  0  0  0  0
    0.7602    1.2209   -1.9141 S   0  0  0  0  0  0  0  0  0  0  0  0
   -0.2512    4.6300    2.0128 C   0  0  0  0  0  0  0  0  0  0  0  0
    0.3592    5.1658    3.1554 C   0  0  0  0  0  0  0  0  0  0  0  0
    1.6645    4.8906    3.4194 F   0  0  0  0  0  0  0  0  0  0  0  0
   -0.3944    5.8671    4.0968 C   0  0  0  0  0  0  0  0  0  0  0  0
    0.1891    6.1876    5.2798 F   0  0  0  0  0  0  0  0  0  0  0  0
   -1.7649    6.1223    3.8727 C   0  0  0  0  0  0  0  0  0  0  0  0
   -2.3637    5.6366    2.6923 C   0  0  0  0  0  0  0  0  0  0  0  0
   -3.6841    5.8433    2.4466 N   0  0  0  0  0  0  0  0  0  0  0  0
   -4.3219    5.2998    1.3738 C   0  0  0  0  0  0  0  0  0  0  0  0
   -5.7873    5.5943    1.1952 C   0  0  0  0  0  0  0  0  0  0  0  0
   -6.6387    4.6212    2.0081 C   0  0  0  0  0  0  0  0  0  0  0  0
   -3.5977    4.4281    0.5264 C   0  0  0  0  0  0  0  0  0  0  0  0
   -2.2676    4.2589    0.7471 N   0  0  0  0  0  0  0  0  0  0  0  0
   -1.6183    4.8664    1.7810 C   0  0  0  0  0  0  0  0  0  0  0  0
   -4.2430    3.6411   -0.5879 C   0  0  0  0  0  0  0  0  0  0  0  0
   -4.1159    4.3576   -1.9270 C   0  0  0  0  0  0  0  0  0  0  0  0
   -2.6257    6.6237    4.9746 C   0  0  0  0  0  0  0  0  0  0  0  0
   -2.2968    7.6163    5.8166 C   0  0  0  0  0  0  0  0  0  0  0  0
   -1.3078    8.6670    5.5537 C   0  0  0  0  0  0  0  0  0  0  0  0
   -0.6202    8.7990    4.5063 O   0  0  0  0  0  0  0  0  0  0  0  0
   -1.3512    9.6175    6.6445 C   0  0  0  0  0  0  0  0  0  0  0  0
   -0.6070   10.7899    6.7909 C   0  0  0  0  0  0  0  0  0  0  0  0
   -0.8429   11.5914    7.9141 C   0  0  0  0  0  0  0  0  0  0  0  0
   -1.8247   11.2245    8.8516 C   0  0  0  0  0  0  0  0  0  0  0  0
   -2.1506   12.3488   10.3596 Br  0  0  0  0  0  0  0  0  0  0  0  0
   -2.5785   10.0509    8.6734 C   0  0  0  0  0  0  0  0  0  0  0  0
   -2.3103    9.2304    7.5631 C   0  0  0  0  0  0  0  0  0  0  0  0
   -2.9183    7.9329    7.1453 C   0  0  0  0  0  0  0  0  0  0  0  0
   -3.6802    7.1046    7.9135 C   0  0  0  0  0  0  0  0  0  0  0  0
   -4.0553    5.7752    7.5028 C   0  0  0  0  0  0  0  0  0  0  0  0
   -4.3455    4.6995    7.1886 N   0  0  0  0  0  0  0  0  0  0  0  0
   -4.0446    7.4215    9.2733 C   0  0  0  0  0  0  0  0  0  0  0  0
   -4.3449    7.6422   10.3707 N   0  0  0  0  0  0  0  0  0  0  0  0
   -1.0678   -7.7982   -2.3644 H   0  0  0  0  0  0  0  0  0  0  0  0
    2.1877   -9.1467    2.7755 H   0  0  0  0  0  0  0  0  0  0  0  0
    1.2071  -10.6314    4.5105 H   0  0  0  0  0  0  0  0  0  0  0  0
   -2.4877  -10.7904    2.3357 H   0  0  0  0  0  0  0  0  0  0  0  0
    5.1344   -6.2861   -2.7597 H   0  0  0  0  0  0  0  0  0  0  0  0
    7.1149   -6.3096   -1.3020 H   0  0  0  0  0  0  0  0  0  0  0  0
    8.7142   -4.3425    2.4563 H   0  0  0  0  0  0  0  0  0  0  0  0
    7.0044   -3.8504    2.1679 H   0  0  0  0  0  0  0  0  0  0  0  0
    8.1608   -4.0289    0.7669 H   0  0  0  0  0  0  0  0  0  0  0  0
    4.6278   -5.4486    2.1020 H   0  0  0  0  0  0  0  0  0  0  0  0
    2.6439   -5.3929    0.6590 H   0  0  0  0  0  0  0  0  0  0  0  0
    3.6401   -8.6281   -1.8451 H   0  0  0  0  0  0  0  0  0  0  0  0
    3.5899  -10.3481   -3.6092 H   0  0  0  0  0  0  0  0  0  0  0  0
    0.1179  -10.5138   -5.4536 H   0  0  0  0  0  0  0  0  0  0  0  0
    1.2197  -11.6378   -4.5444 H   0  0  0  0  0  0  0  0  0  0  0  0
    0.6559  -12.0655   -6.2076 H   0  0  0  0  0  0  0  0  0  0  0  0
    1.3321   -7.6997   -6.1417 H   0  0  0  0  0  0  0  0  0  0  0  0
    1.4137   -5.9579   -4.4047 H   0  0  0  0  0  0  0  0  0  0  0  0
   -3.2367    0.5289   -2.0972 H   0  0  0  0  0  0  0  0  0  0  0  0
   -4.1702    1.2493   -4.2436 H   0  0  0  0  0  0  0  0  0  0  0  0
   -2.1137    1.8875   -6.5738 H   0  0  0  0  0  0  0  0  0  0  0  0
   -1.5328    0.4644   -7.5482 H   0  0  0  0  0  0  0  0  0  0  0  0
   -2.5469    1.7401   -8.3280 H   0  0  0  0  0  0  0  0  0  0  0  0
   -2.1501   -1.9846   -6.2338 H   0  0  0  0  0  0  0  0  0  0  0  0
   -1.1948   -2.7155   -4.1012 H   0  0  0  0  0  0  0  0  0  0  0  0
   -1.5773    0.6409   -0.1143 H   0  0  0  0  0  0  0  0  0  0  0  0
   -2.6679    0.8727    2.0800 H   0  0  0  0  0  0  0  0  0  0  0  0
   -2.8373   -2.7019    4.3465 H   0  0  0  0  0  0  0  0  0  0  0  0
   -1.9880   -1.0903    4.2751 H   0  0  0  0  0  0  0  0  0  0  0  0
   -3.1036   -1.4780    5.6424 H   0  0  0  0  0  0  0  0  0  0  0  0
   -4.3005   -3.0901    1.6788 H   0  0  0  0  0  0  0  0  0  0  0  0
   -3.1911   -3.3288   -0.5046 H   0  0  0  0  0  0  0  0  0  0  0  0
    3.7064   -2.9843    1.1169 H   0  0  0  0  0  0  0  0  0  0  0  0
    5.9780   -3.1450    0.1812 H   0  0  0  0  0  0  0  0  0  0  0  0
    6.5266   -2.3781   -2.5383 H   0  0  0  0  0  0  0  0  0  0  0  0
    6.5888   -0.5935   -2.8671 H   0  0  0  0  0  0  0  0  0  0  0  0
    8.0272   -1.6349   -3.2216 H   0  0  0  0  0  0  0  0  0  0  0  0
    6.0687    1.1120   -0.3778 H   0  0  0  0  0  0  0  0  0  0  0  0
    3.7588    1.2718    0.4295 H   0  0  0  0  0  0  0  0  0  0  0  0
    3.0976   -1.0578    3.6253 H   0  0  0  0  0  0  0  0  0  0  0  0
    2.1816   -2.4747    5.4178 H   0  0  0  0  0  0  0  0  0  0  0  0
    0.5321   -5.9319    3.8563 H   0  0  0  0  0  0  0  0  0  0  0  0
    0.5488   -6.5974    5.5297 H   0  0  0  0  0  0  0  0  0  0  0  0
    1.8982   -5.5263    4.9835 H   0  0  0  0  0  0  0  0  0  0  0  0
   -1.0388   -3.6750    2.8257 H   0  0  0  0  0  0  0  0  0  0  0  0
   -0.1129   -2.2833    1.0347 H   0  0  0  0  0  0  0  0  0  0  0  0
    1.1611    3.8298   -3.5463 H   0  0  0  0  0  0  0  0  0  0  0  0
   -0.0259    4.7969   -5.4836 H   0  0  0  0  0  0  0  0  0  0  0  0
    0.1612    7.7794   -6.0130 H   0  0  0  0  0  0  0  0  0  0  0  0
   -0.8240    8.7926   -4.8770 H   0  0  0  0  0  0  0  0  0  0  0  0
   -1.1241    8.8760   -6.6553 H   0  0  0  0  0  0  0  0  0  0  0  0
   -2.3258    7.2794   -2.8235 H   0  0  0  0  0  0  0  0  0  0  0  0
   -1.1694    6.2806   -0.8892 H   0  0  0  0  0  0  0  0  0  0  0  0
    3.0115    3.7290    0.5223 H   0  0  0  0  0  0  0  0  0  0  0  0
    5.0154    4.9983    1.0472 H   0  0  0  0  0  0  0  0  0  0  0  0
    6.6103    6.7358   -1.9644 H   0  0  0  0  0  0  0  0  0  0  0  0
    7.0770    5.6067   -0.6195 H   0  0  0  0  0  0  0  0  0  0  0  0
    8.0466    7.0926   -0.9323 H   0  0  0  0  0  0  0  0  0  0  0  0
    3.6879    8.2014   -1.4832 H   0  0  0  0  0  0  0  0  0  0  0  0
    1.6196    7.0057   -1.9591 H   0  0  0  0  0  0  0  0  0  0  0  0
   -6.0837    5.5486    0.1222 H   0  0  0  0  0  0  0  0  0  0  0  0
   -6.0065    6.6281    1.5398 H   0  0  0  0  0  0  0  0  0  0  0  0
   -6.4401    3.5762    1.7006 H   0  0  0  0  0  0  0  0  0  0  0  0
   -6.4127    4.7297    3.0858 H   0  0  0  0  0  0  0  0  0  0  0  0
   -7.7163    4.8357    1.8453 H   0  0  0  0  0  0  0  0  0  0  0  0
   -5.3125    3.4367   -0.3806 H   0  0  0  0  0  0  0  0  0  0  0  0
   -3.7385    2.6522   -0.6658 H   0  0  0  0  0  0  0  0  0  0  0  0
   -4.4716    5.4144   -1.8562 H   0  0  0  0  0  0  0  0  0  0  0  0
   -3.0606    4.3309   -2.2693 H   0  0  0  0  0  0  0  0  0  0  0  0
   -4.7312    3.8238   -2.6880 H   0  0  0  0  0  0  0  0  0  0  0  0
   -3.5523    6.0934    5.1114 H   0  0  0  0  0  0  0  0  0  0  0  0
    0.1266   11.0753    6.0528 H   0  0  0  0  0  0  0  0  0  0  0  0
   -0.2736   12.4982    8.0537 H   0  0  0  0  0  0  0  0  0  0  0  0
   -3.3577    9.8272    9.3833 H   0  0  0  0  0  0  0  0  0  0  0  0
  1  2  2  3
  2  3  1  0
  3  4  2  0
  3  5  1  0
  5  6  2  0
  6  7  1  0
  7  8  2  0
  8  9  1  0
  8 10  1  0
 10 11  2  0
 11 12  1  0
 12 13  2  3
 13 14  1  0
 14 15  3  0
 13 16  1  0
 16 17  3  0
  1 18  1  0
 18 19  2  0
 19 20  1  0
 20 21  1  0
 21 22  2  0
 22 23  1  0
 23 24  2  0
 24 25  1  0
 25 26  1  0
 24 27  1  0
 27 28  2  0
 20 29  1  0
 29 30  2  0
 30 31  1  0
 31 32  2  0
 32 33  1  0
 33 34  1  0
 32 35  1  0
 35 36  2  0
 19 37  1  0
 37 38  1  0
 38 39  1  0
 39 40  2  0
 40 41  1  0
 41 42  1  0
 42 43  2  0
 43 44  1  0
 44 45  2  0
 45 46  1  0
 46 47  1  0
 45 48  1  0
 48 49  2  0
 41 50  1  0
 50 51  2  0
 51 52  1  0
 52 53  2  0
 53 54  1  0
 54 55  1  0
 53 56  1  0
 56 57  2  0
 40 58  1  0
 58 59  1  0
 39 60  1  0
 60 61  2  0
 61 62  1  0
 62 63  1  0
 63 64  2  0
 64 65  1  0
 65 66  2  0
 66 67  1  0
 67 68  1  0
 66 69  1  0
 69 70  2  0
 62 71  1  0
 71 72  2  0
 72 73  1  0
 73 74  2  0
 74 75  1  0
 75 76  1  0
 74 77  1  0
 77 78  2  0
 61 79  1  0
 79 80  1  0
 80 81  1  0
 81 82  2  0
 82 83  1  0
 83 84  1  0
 84 85  2  0
 85 86  1  0
 86 87  2  0
 87 88  1  0
 88 89  1  0
 87 90  1  0
 90 91  2  0
 83 92  1  0
 92 93  2  0
 93 94  1  0
 94 95  2  0
 95 96  1  0
 96 97  1  0
 95 98  1  0
 98 99  2  0
 82100  1  0
100101  1  0
 81102  1  0
102103  2  0
103104  1  0
103105  1  0
105106  1  0
105107  2  0
107108  1  0
108109  2  0
109110  1  0
110111  1  0
111112  1  0
110113  2  0
113114  1  0
114115  2  0
113116  1  0
116117  1  0
107118  1  0
118119  2  3
119120  1  0
120121  2  0
120122  1  0
122123  2  0
123124  1  0
124125  2  0
125126  1  0
125127  1  0
127128  2  0
128129  1  0
129130  2  3
130131  1  0
131132  3  0
130133  1  0
133134  3  0
 12  2  1  0
 59 18  1  0
101 60  1  0
115102  1  0
129119  1  0
 11  5  1  0
 28 21  1  0
 36 29  1  0
 58 37  2  0
 70 63  1  0
 78 71  1  0
100 79  2  0
115108  1  0
128122  1  0
 49 42  1  0
 57 50  1  0
 91 84  1  0
 99 92  1  0
  1135  1  0
  6136  1  0
  7137  1  0
 10138  1  0
 22139  1  0
 23140  1  0
 26141  1  0
 26142  1  0
 26143  1  0
 27144  1  0
 28145  1  0
 30146  1  0
 31147  1  0
 34148  1  0
 34149  1  0
 34150  1  0
 35151  1  0
 36152  1  0
 43153  1  0
 44154  1  0
 47155  1  0
 47156  1  0
 47157  1  0
 48158  1  0
 49159  1  0
 51160  1  0
 52161  1  0
 55162  1  0
 55163  1  0
 55164  1  0
 56165  1  0
 57166  1  0
 64167  1  0
 65168  1  0
 68169  1  0
 68170  1  0
 68171  1  0
 69172  1  0
 70173  1  0
 72174  1  0
 73175  1  0
 76176  1  0
 76177  1  0
 76178  1  0
 77179  1  0
 78180  1  0
 85181  1  0
 86182  1  0
 89183  1  0
 89184  1  0
 89185  1  0
 90186  1  0
 91187  1  0
 93188  1  0
 94189  1  0
 97190  1  0
 97191  1  0
 97192  1  0
 98193  1  0
 99194  1  0
111195  1  0
111196  1  0
112197  1  0
112198  1  0
112199  1  0
116200  1  0
116201  1  0
117202  1  0
117203  1  0
117204  1  0
118205  1  0
123206  1  0
124207  1  0
127208  1  0
M  END

