
     RDKit          3D

248269  0  0  0  0  0  0  0  0999 V2000
   -5.5497   -1.8242    5.9633 C   0  0  0  0  0  0  0  0  0  0  0  0
   -6.3491   -2.7785    5.4412 C   0  0  0  0  0  0  0  0  0  0  0  0
   -6.6668   -4.0347    6.1556 C   0  0  0  0  0  0  0  0  0  0  0  0
   -6.4038   -4.2964    7.3657 O   0  0  0  0  0  0  0  0  0  0  0  0
   -7.3022   -4.9171    5.2192 C   0  0  0  0  0  0  0  0  0  0  0  0
   -7.8401   -6.1915    5.4387 C   0  0  0  0  0  0  0  0  0  0  0  0
   -8.5620   -6.7933    4.3948 C   0  0  0  0  0  0  0  0  0  0  0  0
   -8.7282   -6.1194    3.1586 C   0  0  0  0  0  0  0  0  0  0  0  0
   -9.7042   -6.9482    1.7475 Br  0  0  0  0  0  0  0  0  0  0  0  0
   -8.1890   -4.8318    2.9822 C   0  0  0  0  0  0  0  0  0  0  0  0
   -7.4678   -4.2430    4.0298 C   0  0  0  0  0  0  0  0  0  0  0  0
   -6.9737   -2.8316    4.0730 C   0  0  0  0  0  0  0  0  0  0  0  0
   -7.9123   -1.9203    3.7908 C   0  0  0  0  0  0  0  0  0  0  0  0
   -9.1178   -1.8783    4.6137 C   0  0  0  0  0  0  0  0  0  0  0  0
   -9.9734   -2.0244    5.3792 N   0  0  0  0  0  0  0  0  0  0  0  0
   -7.6878   -0.9423    2.7645 C   0  0  0  0  0  0  0  0  0  0  0  0
   -7.4934   -0.0335    2.0830 N   0  0  0  0  0  0  0  0  0  0  0  0
   -4.7255   -0.8882    5.1766 C   0  0  0  0  0  0  0  0  0  0  0  0
   -3.9131   -1.2261    4.0806 C   0  0  0  0  0  0  0  0  0  0  0  0
   -3.8143   -2.5450    3.5134 N   0  0  0  0  0  0  0  0  0  0  0  0
   -2.8898   -3.5030    4.0861 C   0  0  0  0  0  0  0  0  0  0  0  0
   -2.1180   -4.3452    3.2591 C   0  0  0  0  0  0  0  0  0  0  0  0
   -1.3031   -5.3454    3.7993 C   0  0  0  0  0  0  0  0  0  0  0  0
   -1.2170   -5.5062    5.1914 C   0  0  0  0  0  0  0  0  0  0  0  0
   -0.3490   -6.5787    5.7718 C   0  0  0  0  0  0  0  0  0  0  0  0
   -1.9104   -4.6268    6.0292 C   0  0  0  0  0  0  0  0  0  0  0  0
   -2.7244   -3.6195    5.4886 C   0  0  0  0  0  0  0  0  0  0  0  0
   -4.4125   -2.8040    2.2267 C   0  0  0  0  0  0  0  0  0  0  0  0
   -4.9144   -4.0783    1.9283 C   0  0  0  0  0  0  0  0  0  0  0  0
   -5.3430   -4.3995    0.6395 C   0  0  0  0  0  0  0  0  0  0  0  0
   -5.2736   -3.4387   -0.3872 C   0  0  0  0  0  0  0  0  0  0  0  0
   -5.6840   -3.7746   -1.7812 C   0  0  0  0  0  0  0  0  0  0  0  0
   -4.8297   -2.1445   -0.0853 C   0  0  0  0  0  0  0  0  0  0  0  0
   -4.4323   -1.8162    1.2149 C   0  0  0  0  0  0  0  0  0  0  0  0
   -2.9827   -0.2231    3.7938 C   0  0  0  0  0  0  0  0  0  0  0  0
   -1.7297   -0.1425    2.7101 S   0  0  0  0  0  0  0  0  0  0  0  0
   -1.2030    1.3934    3.2091 C   0  0  0  0  0  0  0  0  0  0  0  0
   -1.9644    1.8075    4.3220 C   0  0  0  0  0  0  0  0  0  0  0  0
   -1.5784    2.9097    5.1729 N   0  0  0  0  0  0  0  0  0  0  0  0
   -0.2000    3.0239    5.5888 C   0  0  0  0  0  0  0  0  0  0  0  0
    0.4860    4.2409    5.4705 C   0  0  0  0  0  0  0  0  0  0  0  0
    1.8155    4.3594    5.8925 C   0  0  0  0  0  0  0  0  0  0  0  0
    2.4671    3.2416    6.4609 C   0  0  0  0  0  0  0  0  0  0  0  0
    3.8718    3.3588    6.9778 C   0  0  0  0  0  0  0  0  0  0  0  0
    1.7813    2.0277    6.5903 C   0  0  0  0  0  0  0  0  0  0  0  0
    0.4588    1.9149    6.1547 C   0  0  0  0  0  0  0  0  0  0  0  0
   -2.5357    3.7844    5.7849 C   0  0  0  0  0  0  0  0  0  0  0  0
   -2.8407    5.0143    5.1866 C   0  0  0  0  0  0  0  0  0  0  0  0
   -3.6455    5.9511    5.8504 C   0  0  0  0  0  0  0  0  0  0  0  0
   -4.1668    5.6539    7.1223 C   0  0  0  0  0  0  0  0  0  0  0  0
   -5.0112    6.6697    7.8288 C   0  0  0  0  0  0  0  0  0  0  0  0
   -3.8556    4.4241    7.7297 C   0  0  0  0  0  0  0  0  0  0  0  0
   -3.0199    3.5115    7.0750 C   0  0  0  0  0  0  0  0  0  0  0  0
   -2.9955    0.8765    4.5922 C   0  0  0  0  0  0  0  0  0  0  0  0
   -4.1680    0.6272    5.7722 S   0  0  0  0  0  0  0  0  0  0  0  0
   -0.1088    2.0864    2.5099 C   0  0  0  0  0  0  0  0  0  0  0  0
   -0.2992    2.6289    1.2157 C   0  0  0  0  0  0  0  0  0  0  0  0
   -1.3328    3.5582    0.8435 N   0  0  0  0  0  0  0  0  0  0  0  0
   -0.9829    4.7423    0.0884 C   0  0  0  0  0  0  0  0  0  0  0  0
   -0.0180    5.6323    0.5949 C   0  0  0  0  0  0  0  0  0  0  0  0
    0.2697    6.8081   -0.1045 C   0  0  0  0  0  0  0  0  0  0  0  0
   -0.3814    7.0861   -1.3085 C   0  0  0  0  0  0  0  0  0  0  0  0
   -0.0635    8.6380   -2.1593 S   0  0  0  0  0  0  0  0  0  0  0  0
   -1.3139    9.5716   -1.1990 C   0  0  0  0  0  0  0  0  0  0  0  0
   -1.3132    6.1787   -1.8356 C   0  0  0  0  0  0  0  0  0  0  0  0
   -1.5917    4.9987   -1.1431 C   0  0  0  0  0  0  0  0  0  0  0  0
   -2.7042    3.4257    1.2605 C   0  0  0  0  0  0  0  0  0  0  0  0
   -3.4179    2.2553    0.9652 C   0  0  0  0  0  0  0  0  0  0  0  0
   -4.7934    2.1952    1.1991 C   0  0  0  0  0  0  0  0  0  0  0  0
   -5.4688    3.2987    1.7430 C   0  0  0  0  0  0  0  0  0  0  0  0
   -7.2445    3.2472    1.9964 S   0  0  0  0  0  0  0  0  0  0  0  0
   -7.1238    2.5280    3.6674 C   0  0  0  0  0  0  0  0  0  0  0  0
   -4.7585    4.4683    2.0494 C   0  0  0  0  0  0  0  0  0  0  0  0
   -3.3925    4.5317    1.7856 C   0  0  0  0  0  0  0  0  0  0  0  0
    0.7716    2.3425    0.3695 C   0  0  0  0  0  0  0  0  0  0  0  0
    0.9115    2.2743   -1.3010 S   0  0  0  0  0  0  0  0  0  0  0  0
    2.4056    1.4834   -1.3054 C   0  0  0  0  0  0  0  0  0  0  0  0
    2.8260    1.3168    0.0406 C   0  0  0  0  0  0  0  0  0  0  0  0
    4.1523    0.9082    0.4372 N   0  0  0  0  0  0  0  0  0  0  0  0
    5.0700    1.8246    1.1303 C   0  0  0  0  0  0  0  0  0  0  0  0
    4.6069    2.9786    1.8262 C   0  0  0  0  0  0  0  0  0  0  0  0
    5.4844    3.7934    2.5496 C   0  0  0  0  0  0  0  0  0  0  0  0
    6.8531    3.5269    2.5571 C   0  0  0  0  0  0  0  0  0  0  0  0
    7.9896    4.6100    3.4263 S   0  0  0  0  0  0  0  0  0  0  0  0
    8.0564    3.5939    4.9292 C   0  0  0  0  0  0  0  0  0  0  0  0
    7.3481    2.4319    1.8482 C   0  0  0  0  0  0  0  0  0  0  0  0
    6.4686    1.5852    1.1694 C   0  0  0  0  0  0  0  0  0  0  0  0
    4.5928   -0.4092    0.0405 C   0  0  0  0  0  0  0  0  0  0  0  0
    4.0962   -1.5347    0.7043 C   0  0  0  0  0  0  0  0  0  0  0  0
    4.6048   -2.8046    0.4040 C   0  0  0  0  0  0  0  0  0  0  0  0
    5.6096   -2.9408   -0.5599 C   0  0  0  0  0  0  0  0  0  0  0  0
    6.3088   -4.5623   -0.9008 S   0  0  0  0  0  0  0  0  0  0  0  0
    7.4829   -4.5357    0.4957 C   0  0  0  0  0  0  0  0  0  0  0  0
    6.0640   -1.8251   -1.2724 C   0  0  0  0  0  0  0  0  0  0  0  0
    5.5251   -0.5687   -0.9995 C   0  0  0  0  0  0  0  0  0  0  0  0
    1.8284    1.7264    0.9299 C   0  0  0  0  0  0  0  0  0  0  0  0
    1.4486    1.3679    2.5218 S   0  0  0  0  0  0  0  0  0  0  0  0
    2.7882    0.5710   -2.3905 C   0  0  0  0  0  0  0  0  0  0  0  0
    3.3023    0.9366   -3.6529 C   0  0  0  0  0  0  0  0  0  0  0  0
    2.9677    2.1899   -4.2692 N   0  0  0  0  0  0  0  0  0  0  0  0
    1.5981    2.4412   -4.6953 C   0  0  0  0  0  0  0  0  0  0  0  0
    0.8743    1.4662   -5.4033 C   0  0  0  0  0  0  0  0  0  0  0  0
   -0.4017    1.7399   -5.8896 C   0  0  0  0  0  0  0  0  0  0  0  0
   -0.9811    2.9934   -5.6666 C   0  0  0  0  0  0  0  0  0  0  0  0
   -2.5878    3.3593   -6.3966 S   0  0  0  0  0  0  0  0  0  0  0  0
   -3.5685    2.5882   -5.0752 C   0  0  0  0  0  0  0  0  0  0  0  0
   -0.2836    3.9715   -4.9443 C   0  0  0  0  0  0  0  0  0  0  0  0
    1.0044    3.6962   -4.4717 C   0  0  0  0  0  0  0  0  0  0  0  0
    3.9788    3.1272   -4.6974 C   0  0  0  0  0  0  0  0  0  0  0  0
    4.0995    3.4365   -6.0672 C   0  0  0  0  0  0  0  0  0  0  0  0
    4.8698    4.5241   -6.4823 C   0  0  0  0  0  0  0  0  0  0  0  0
    5.5215    5.3199   -5.5325 C   0  0  0  0  0  0  0  0  0  0  0  0
    6.4345    6.7665   -6.0807 S   0  0  0  0  0  0  0  0  0  0  0  0
    4.9756    7.8523   -6.1258 C   0  0  0  0  0  0  0  0  0  0  0  0
    5.4444    4.9954   -4.1690 C   0  0  0  0  0  0  0  0  0  0  0  0
    4.6789    3.8932   -3.7561 C   0  0  0  0  0  0  0  0  0  0  0  0
    3.5321   -0.2175   -4.4180 C   0  0  0  0  0  0  0  0  0  0  0  0
    3.9562   -0.4630   -6.0127 S   0  0  0  0  0  0  0  0  0  0  0  0
    3.5738   -2.1219   -6.0479 C   0  0  0  0  0  0  0  0  0  0  0  0
    2.9699   -2.4747   -4.8117 C   0  0  0  0  0  0  0  0  0  0  0  0
    2.0172   -3.5495   -4.6616 N   0  0  0  0  0  0  0  0  0  0  0  0
    0.9908   -3.6852   -5.6790 C   0  0  0  0  0  0  0  0  0  0  0  0
    0.7539   -4.9351   -6.2924 C   0  0  0  0  0  0  0  0  0  0  0  0
   -0.3410   -5.1022   -7.1536 C   0  0  0  0  0  0  0  0  0  0  0  0
   -1.1838   -4.0114   -7.4322 C   0  0  0  0  0  0  0  0  0  0  0  0
   -2.6290   -4.2433   -8.4655 S   0  0  0  0  0  0  0  0  0  0  0  0
   -3.6984   -4.7276   -7.0779 C   0  0  0  0  0  0  0  0  0  0  0  0
   -0.9029   -2.7480   -6.8849 C   0  0  0  0  0  0  0  0  0  0  0  0
    0.1822   -2.5916   -6.0187 C   0  0  0  0  0  0  0  0  0  0  0  0
    1.9366   -4.4244   -3.4993 C   0  0  0  0  0  0  0  0  0  0  0  0
    0.7208   -5.0978   -3.1901 C   0  0  0  0  0  0  0  0  0  0  0  0
    0.6729   -6.0921   -2.2195 C   0  0  0  0  0  0  0  0  0  0  0  0
    1.8131   -6.3739   -1.4503 C   0  0  0  0  0  0  0  0  0  0  0  0
    1.8231   -7.7103   -0.2357 S   0  0  0  0  0  0  0  0  0  0  0  0
    0.2533   -7.2593    0.6073 C   0  0  0  0  0  0  0  0  0  0  0  0
    3.0020   -5.6601   -1.6783 C   0  0  0  0  0  0  0  0  0  0  0  0
    3.0727   -4.7042   -2.7076 C   0  0  0  0  0  0  0  0  0  0  0  0
    3.0625   -1.3898   -3.9121 C   0  0  0  0  0  0  0  0  0  0  0  0
    2.4122   -1.0942   -2.3926 S   0  0  0  0  0  0  0  0  0  0  0  0
    3.6438   -2.9725   -7.2681 C   0  0  0  0  0  0  0  0  0  0  0  0
    4.6102   -2.9090   -8.1789 C   0  0  0  0  0  0  0  0  0  0  0  0
    5.8601   -2.1495   -8.0708 C   0  0  0  0  0  0  0  0  0  0  0  0
    6.4132   -1.7650   -7.0074 O   0  0  0  0  0  0  0  0  0  0  0  0
    6.4677   -2.0668   -9.3950 C   0  0  0  0  0  0  0  0  0  0  0  0
    7.6932   -1.4902   -9.7534 C   0  0  0  0  0  0  0  0  0  0  0  0
    8.1163   -1.6419  -11.0690 C   0  0  0  0  0  0  0  0  0  0  0  0
    7.3507   -2.3572  -11.9951 C   0  0  0  0  0  0  0  0  0  0  0  0
    7.9701   -2.5835  -13.7875 Br  0  0  0  0  0  0  0  0  0  0  0  0
    6.1270   -2.9343  -11.6178 C   0  0  0  0  0  0  0  0  0  0  0  0
    5.6783   -2.7661  -10.2935 C   0  0  0  0  0  0  0  0  0  0  0  0
    4.4935   -3.3520   -9.5789 C   0  0  0  0  0  0  0  0  0  0  0  0
    3.6394   -4.2902  -10.0667 C   0  0  0  0  0  0  0  0  0  0  0  0
    3.3324   -4.3505  -11.4937 C   0  0  0  0  0  0  0  0  0  0  0  0
    3.0872   -4.4532  -12.6255 N   0  0  0  0  0  0  0  0  0  0  0  0
    3.3563   -5.4787   -9.3032 C   0  0  0  0  0  0  0  0  0  0  0  0
    3.2079   -6.4984   -8.7398 N   0  0  0  0  0  0  0  0  0  0  0  0
   -5.3186   -1.8835    7.0202 H   0  0  0  0  0  0  0  0  0  0  0  0
   -7.7560   -6.6889    6.3969 H   0  0  0  0  0  0  0  0  0  0  0  0
   -9.0127   -7.7694    4.5545 H   0  0  0  0  0  0  0  0  0  0  0  0
   -8.3498   -4.3009    2.0719 H   0  0  0  0  0  0  0  0  0  0  0  0
   -2.1503   -4.2587    2.1772 H   0  0  0  0  0  0  0  0  0  0  0  0
   -0.7437   -5.9939    3.1379 H   0  0  0  0  0  0  0  0  0  0  0  0
    0.0192   -7.2799    4.9899 H   0  0  0  0  0  0  0  0  0  0  0  0
   -0.9334   -7.1632    6.5142 H   0  0  0  0  0  0  0  0  0  0  0  0
    0.5270   -6.1183    6.2809 H   0  0  0  0  0  0  0  0  0  0  0  0
   -1.8220   -4.7230    7.1079 H   0  0  0  0  0  0  0  0  0  0  0  0
   -3.2312   -2.9688    6.1707 H   0  0  0  0  0  0  0  0  0  0  0  0
   -4.9354   -4.8545    2.6930 H   0  0  0  0  0  0  0  0  0  0  0  0
   -5.7171   -5.4015    0.4436 H   0  0  0  0  0  0  0  0  0  0  0  0
   -4.8649   -3.5046   -2.4847 H   0  0  0  0  0  0  0  0  0  0  0  0
   -6.6004   -3.2068   -2.0450 H   0  0  0  0  0  0  0  0  0  0  0  0
   -5.8950   -4.8535   -1.8938 H   0  0  0  0  0  0  0  0  0  0  0  0
   -4.7826   -1.3828   -0.8579 H   0  0  0  0  0  0  0  0  0  0  0  0
   -4.0901   -0.8162    1.3956 H   0  0  0  0  0  0  0  0  0  0  0  0
    0.0072    5.1018    5.0301 H   0  0  0  0  0  0  0  0  0  0  0  0
    2.3314    5.3038    5.7930 H   0  0  0  0  0  0  0  0  0  0  0  0
    4.4942    2.5277    6.5785 H   0  0  0  0  0  0  0  0  0  0  0  0
    3.8540    3.3077    8.0889 H   0  0  0  0  0  0  0  0  0  0  0  0
    4.3402    4.3239    6.6749 H   0  0  0  0  0  0  0  0  0  0  0  0
    2.2659    1.1601    7.0350 H   0  0  0  0  0  0  0  0  0  0  0  0
   -0.0523    0.9737    6.2632 H   0  0  0  0  0  0  0  0  0  0  0  0
   -2.4064    5.2700    4.2366 H   0  0  0  0  0  0  0  0  0  0  0  0
   -3.8455    6.9056    5.3816 H   0  0  0  0  0  0  0  0  0  0  0  0
   -4.4375    7.6112    7.9663 H   0  0  0  0  0  0  0  0  0  0  0  0
   -5.9092    6.8864    7.2163 H   0  0  0  0  0  0  0  0  0  0  0  0
   -5.3380    6.3029    8.8257 H   0  0  0  0  0  0  0  0  0  0  0  0
   -4.2310    4.1813    8.7203 H   0  0  0  0  0  0  0  0  0  0  0  0
   -2.7316    2.5979    7.5797 H   0  0  0  0  0  0  0  0  0  0  0  0
    0.4595    5.4558    1.5524 H   0  0  0  0  0  0  0  0  0  0  0  0
    0.9867    7.5073    0.3080 H   0  0  0  0  0  0  0  0  0  0  0  0
   -2.3339    9.3354   -1.5718 H   0  0  0  0  0  0  0  0  0  0  0  0
   -1.2592    9.3136   -0.1145 H   0  0  0  0  0  0  0  0  0  0  0  0
   -1.1253   10.6595   -1.3114 H   0  0  0  0  0  0  0  0  0  0  0  0
   -1.8238    6.3765   -2.7648 H   0  0  0  0  0  0  0  0  0  0  0  0
   -2.3144    4.2975   -1.5414 H   0  0  0  0  0  0  0  0  0  0  0  0
   -2.9156    1.4143    0.5147 H   0  0  0  0  0  0  0  0  0  0  0  0
   -5.3375    1.2988    0.9378 H   0  0  0  0  0  0  0  0  0  0  0  0
   -6.9254    3.3308    4.4090 H   0  0  0  0  0  0  0  0  0  0  0  0
   -8.0885    2.0312    3.9077 H   0  0  0  0  0  0  0  0  0  0  0  0
   -6.3218    1.7578    3.7179 H   0  0  0  0  0  0  0  0  0  0  0  0
   -5.2637    5.3390    2.4483 H   0  0  0  0  0  0  0  0  0  0  0  0
   -2.8661    5.4549    1.9523 H   0  0  0  0  0  0  0  0  0  0  0  0
    3.5649    3.2633    1.8381 H   0  0  0  0  0  0  0  0  0  0  0  0
    5.0801    4.6485    3.0924 H   0  0  0  0  0  0  0  0  0  0  0  0
    8.7795    4.0566    5.6325 H   0  0  0  0  0  0  0  0  0  0  0  0
    8.4027    2.5680    4.6848 H   0  0  0  0  0  0  0  0  0  0  0  0
    7.0586    3.5650    5.4145 H   0  0  0  0  0  0  0  0  0  0  0  0
    8.4165    2.2380    1.8187 H   0  0  0  0  0  0  0  0  0  0  0  0
    6.9168    0.7423    0.6622 H   0  0  0  0  0  0  0  0  0  0  0  0
    3.3463   -1.4192    1.4763 H   0  0  0  0  0  0  0  0  0  0  0  0
    4.2127   -3.6747    0.9295 H   0  0  0  0  0  0  0  0  0  0  0  0
    8.4864   -4.2604    0.1148 H   0  0  0  0  0  0  0  0  0  0  0  0
    7.1802   -3.8214    1.2905 H   0  0  0  0  0  0  0  0  0  0  0  0
    7.5446   -5.5541    0.9357 H   0  0  0  0  0  0  0  0  0  0  0  0
    6.8170   -1.9290   -2.0358 H   0  0  0  0  0  0  0  0  0  0  0  0
    5.8833    0.2839   -1.5556 H   0  0  0  0  0  0  0  0  0  0  0  0
    1.3127    0.5148   -5.6383 H   0  0  0  0  0  0  0  0  0  0  0  0
   -0.9226    0.9809   -6.4667 H   0  0  0  0  0  0  0  0  0  0  0  0
   -3.1018    1.6448   -4.7239 H   0  0  0  0  0  0  0  0  0  0  0  0
   -4.5732    2.3617   -5.4811 H   0  0  0  0  0  0  0  0  0  0  0  0
   -3.6780    3.3005   -4.2334 H   0  0  0  0  0  0  0  0  0  0  0  0
   -0.7281    4.9513   -4.7877 H   0  0  0  0  0  0  0  0  0  0  0  0
    1.5414    4.4737   -3.9476 H   0  0  0  0  0  0  0  0  0  0  0  0
    3.5478    2.8736   -6.8051 H   0  0  0  0  0  0  0  0  0  0  0  0
    4.9154    4.7596   -7.5375 H   0  0  0  0  0  0  0  0  0  0  0  0
    4.5463    7.9569   -5.1087 H   0  0  0  0  0  0  0  0  0  0  0  0
    4.2152    7.4488   -6.8253 H   0  0  0  0  0  0  0  0  0  0  0  0
    5.2810    8.8575   -6.4866 H   0  0  0  0  0  0  0  0  0  0  0  0
    5.9535    5.6102   -3.4363 H   0  0  0  0  0  0  0  0  0  0  0  0
    4.5804    3.6903   -2.6954 H   0  0  0  0  0  0  0  0  0  0  0  0
    1.3848   -5.7827   -6.0660 H   0  0  0  0  0  0  0  0  0  0  0  0
   -0.5464   -6.0745   -7.5758 H   0  0  0  0  0  0  0  0  0  0  0  0
   -3.2112   -5.5315   -6.4851 H   0  0  0  0  0  0  0  0  0  0  0  0
   -4.6572   -5.1109   -7.4842 H   0  0  0  0  0  0  0  0  0  0  0  0
   -3.8954   -3.8459   -6.4343 H   0  0  0  0  0  0  0  0  0  0  0  0
   -1.5319   -1.8962   -7.1012 H   0  0  0  0  0  0  0  0  0  0  0  0
    0.3478   -1.6361   -5.5571 H   0  0  0  0  0  0  0  0  0  0  0  0
   -0.1873   -4.9038   -3.7435 H   0  0  0  0  0  0  0  0  0  0  0  0
   -0.2552   -6.6279   -2.0792 H   0  0  0  0  0  0  0  0  0  0  0  0
    0.1350   -6.1573    0.7046 H   0  0  0  0  0  0  0  0  0  0  0  0
    0.2384   -7.7055    1.6223 H   0  0  0  0  0  0  0  0  0  0  0  0
   -0.6235   -7.6671    0.0609 H   0  0  0  0  0  0  0  0  0  0  0  0
    3.8739   -5.8880   -1.0874 H   0  0  0  0  0  0  0  0  0  0  0  0
    4.0150   -4.2154   -2.9104 H   0  0  0  0  0  0  0  0  0  0  0  0
    2.7929   -3.5906   -7.4945 H   0  0  0  0  0  0  0  0  0  0  0  0
    8.2840   -0.9747   -9.0181 H   0  0  0  0  0  0  0  0  0  0  0  0
    9.0860   -1.2037  -11.3637 H   0  0  0  0  0  0  0  0  0  0  0  0
    5.6053   -3.5348  -12.3157 H   0  0  0  0  0  0  0  0  0  0  0  0
  1  2  2  3
  2  3  1  0
  3  4  2  0
  3  5  1  0
  5  6  2  0
  6  7  1  0
  7  8  2  0
  8  9  1  0
  8 10  1  0
 10 11  2  0
 11 12  1  0
 12 13  2  3
 13 14  1  0
 14 15  3  0
 13 16  1  0
 16 17  3  0
  1 18  1  0
 18 19  2  0
 19 20  1  0
 20 21  1  0
 21 22  2  0
 22 23  1  0
 23 24  2  0
 24 25  1  0
 24 26  1  0
 26 27  2  0
 20 28  1  0
 28 29  2  0
 29 30  1  0
 30 31  2  0
 31 32  1  0
 31 33  1  0
 33 34  2  0
 19 35  1  0
 35 36  1  0
 36 37  1  0
 37 38  2  0
 38 39  1  0
 39 40  1  0
 40 41  2  0
 41 42  1  0
 42 43  2  0
 43 44  1  0
 43 45  1  0
 45 46  2  0
 39 47  1  0
 47 48  2  0
 48 49  1  0
 49 50  2  0
 50 51  1  0
 50 52  1  0
 52 53  2  0
 38 54  1  0
 54 55  1  0
 37 56  1  0
 56 57  2  0
 57 58  1  0
 58 59  1  0
 59 60  2  0
 60 61  1  0
 61 62  2  0
 62 63  1  0
 63 64  1  0
 62 65  1  0
 65 66  2  0
 58 67  1  0
 67 68  2  0
 68 69  1  0
 69 70  2  0
 70 71  1  0
 71 72  1  0
 70 73  1  0
 73 74  2  0
 57 75  1  0
 75 76  1  0
 76 77  1  0
 77 78  2  0
 78 79  1  0
 79 80  1  0
 80 81  2  0
 81 82  1  0
 82 83  2  0
 83 84  1  0
 84 85  1  0
 83 86  1  0
 86 87  2  0
 79 88  1  0
 88 89  2  0
 89 90  1  0
 90 91  2  0
 91 92  1  0
 92 93  1  0
 91 94  1  0
 94 95  2  0
 78 96  1  0
 96 97  1  0
 77 98  1  0
 98 99  2  0
 99100  1  0
100101  1  0
101102  2  0
102103  1  0
103104  2  0
104105  1  0
105106  1  0
104107  1  0
107108  2  0
100109  1  0
109110  2  0
110111  1  0
111112  2  0
112113  1  0
113114  1  0
112115  1  0
115116  2  0
 99117  1  0
117118  1  0
118119  1  0
119120  2  0
120121  1  0
121122  1  0
122123  2  0
123124  1  0
124125  2  0
125126  1  0
126127  1  0
125128  1  0
128129  2  0
121130  1  0
130131  2  0
131132  1  0
132133  2  0
133134  1  0
134135  1  0
133136  1  0
136137  2  0
120138  1  0
138139  1  0
119140  1  0
140141  2  3
141142  1  0
142143  2  0
142144  1  0
144145  2  0
145146  1  0
146147  2  0
147148  1  0
147149  1  0
149150  2  0
150151  1  0
151152  2  3
152153  1  0
153154  3  0
152155  1  0
155156  3  0
 12  2  1  0
 55 18  1  0
 97 56  1  0
139 98  1  0
151141  1  0
 11  5  1  0
 27 21  1  0
 34 28  1  0
 54 35  2  0
 66 59  1  0
 74 67  1  0
 96 75  2  0
108101  1  0
116109  1  0
138117  2  0
150144  1  0
 46 40  1  0
 53 47  1  0
 87 80  1  0
 95 88  1  0
129122  1  0
137130  1  0
  1157  1  0
  6158  1  0
  7159  1  0
 10160  1  0
 22161  1  0
 23162  1  0
 25163  1  0
 25164  1  0
 25165  1  0
 26166  1  0
 27167  1  0
 29168  1  0
 30169  1  0
 32170  1  0
 32171  1  0
 32172  1  0
 33173  1  0
 34174  1  0
 41175  1  0
 42176  1  0
 44177  1  0
 44178  1  0
 44179  1  0
 45180  1  0
 46181  1  0
 48182  1  0
 49183  1  0
 51184  1  0
 51185  1  0
 51186  1  0
 52187  1  0
 53188  1  0
 60189  1  0
 61190  1  0
 64191  1  0
 64192  1  0
 64193  1  0
 65194  1  0
 66195  1  0
 68196  1  0
 69197  1  0
 72198  1  0
 72199  1  0
 72200  1  0
 73201  1  0
 74202  1  0
 81203  1  0
 82204  1  0
 85205  1  0
 85206  1  0
 85207  1  0
 86208  1  0
 87209  1  0
 89210  1  0
 90211  1  0
 93212  1  0
 93213  1  0
 93214  1  0
 94215  1  0
 95216  1  0
102217  1  0
103218  1  0
106219  1  0
106220  1  0
106221  1  0
107222  1  0
108223  1  0
110224  1  0
111225  1  0
114226  1  0
114227  1  0
114228  1  0
115229  1  0
116230  1  0
123231  1  0
124232  1  0
127233  1  0
127234  1  0
127235  1  0
128236  1  0
129237  1  0
131238  1  0
132239  1  0
135240  1  0
135241  1  0
135242  1  0
136243  1  0
137244  1  0
140245  1  0
145246  1  0
146247  1  0
149248  1  0
M  END

