
     RDKit          3D

226246  0  0  0  0  0  0  0  0999 V2000
   -4.4508   -0.6776    5.8369 C   0  0  0  0  0  0  0  0  0  0  0  0
   -4.8863    0.0005    4.7512 C   0  0  0  0  0  0  0  0  0  0  0  0
   -4.1100    0.1961    3.4965 C   0  0  0  0  0  0  0  0  0  0  0  0
   -3.0491   -0.3843    3.1549 O   0  0  0  0  0  0  0  0  0  0  0  0
   -4.8174    1.1537    2.6852 C   0  0  0  0  0  0  0  0  0  0  0  0
   -4.6129    1.6945    1.4203 C   0  0  0  0  0  0  0  0  0  0  0  0
   -5.6950    2.4947    1.0557 C   0  0  0  0  0  0  0  0  0  0  0  0
   -5.8553    3.3461   -0.4707 Cl  0  0  0  0  0  0  0  0  0  0  0  0
   -6.8684    2.4892    2.2871 S   0  0  0  0  0  0  0  0  0  0  0  0
   -5.9743    1.4863    3.2938 C   0  0  0  0  0  0  0  0  0  0  0  0
   -6.1384    0.8206    4.6002 C   0  0  0  0  0  0  0  0  0  0  0  0
   -7.1834    0.9941    5.4405 C   0  0  0  0  0  0  0  0  0  0  0  0
   -7.3084    0.3038    6.6972 C   0  0  0  0  0  0  0  0  0  0  0  0
   -7.4294   -0.2378    7.7154 N   0  0  0  0  0  0  0  0  0  0  0  0
   -8.2453    1.9200    5.1293 C   0  0  0  0  0  0  0  0  0  0  0  0
   -9.0984    2.6659    4.8837 N   0  0  0  0  0  0  0  0  0  0  0  0
   -3.0587   -1.1343    5.9441 C   0  0  0  0  0  0  0  0  0  0  0  0
   -1.9713   -0.2495    6.0100 C   0  0  0  0  0  0  0  0  0  0  0  0
   -2.0739    1.1084    6.4991 N   0  0  0  0  0  0  0  0  0  0  0  0
   -1.3591    2.1948    5.8813 C   0  0  0  0  0  0  0  0  0  0  0  0
   -1.5075    2.4665    4.5131 C   0  0  0  0  0  0  0  0  0  0  0  0
   -0.8412    3.5477    3.9278 C   0  0  0  0  0  0  0  0  0  0  0  0
   -0.0272    4.3728    4.7066 C   0  0  0  0  0  0  0  0  0  0  0  0
    0.8141    5.7657    3.9542 S   0  0  0  0  0  0  0  0  0  0  0  0
    2.2406    4.7765    3.4159 C   0  0  0  0  0  0  0  0  0  0  0  0
    0.1230    4.1134    6.0722 C   0  0  0  0  0  0  0  0  0  0  0  0
   -0.5414    3.0321    6.6598 C   0  0  0  0  0  0  0  0  0  0  0  0
   -2.8690    1.3657    7.6766 C   0  0  0  0  0  0  0  0  0  0  0  0
   -3.6975    2.5000    7.7459 C   0  0  0  0  0  0  0  0  0  0  0  0
   -4.4646    2.7451    8.8867 C   0  0  0  0  0  0  0  0  0  0  0  0
   -4.4146    1.8621    9.9706 C   0  0  0  0  0  0  0  0  0  0  0  0
   -5.3709    2.2035   11.4464 S   0  0  0  0  0  0  0  0  0  0  0  0
   -6.8226    1.2605   10.8902 C   0  0  0  0  0  0  0  0  0  0  0  0
   -3.5972    0.7291    9.9084 C   0  0  0  0  0  0  0  0  0  0  0  0
   -2.8260    0.4823    8.7717 C   0  0  0  0  0  0  0  0  0  0  0  0
   -0.8028   -0.8461    5.5274 C   0  0  0  0  0  0  0  0  0  0  0  0
    0.5075   -0.1745    4.7501 S   0  0  0  0  0  0  0  0  0  0  0  0
    0.9611   -1.5710    3.8881 C   0  0  0  0  0  0  0  0  0  0  0  0
    0.0933   -2.6259    4.2709 C   0  0  0  0  0  0  0  0  0  0  0  0
    0.1455   -3.9713    3.7192 N   0  0  0  0  0  0  0  0  0  0  0  0
    1.3485   -4.4874    3.1201 C   0  0  0  0  0  0  0  0  0  0  0  0
    2.5703   -4.4065    3.8051 C   0  0  0  0  0  0  0  0  0  0  0  0
    3.7554   -4.8219    3.1864 C   0  0  0  0  0  0  0  0  0  0  0  0
    3.7246   -5.3315    1.8814 C   0  0  0  0  0  0  0  0  0  0  0  0
    5.2469   -5.7900    1.0586 S   0  0  0  0  0  0  0  0  0  0  0  0
    5.4813   -4.1357    0.3360 C   0  0  0  0  0  0  0  0  0  0  0  0
    2.5004   -5.4674    1.2159 C   0  0  0  0  0  0  0  0  0  0  0  0
    1.3150   -5.0586    1.8368 C   0  0  0  0  0  0  0  0  0  0  0  0
   -0.8674   -4.9332    4.0472 C   0  0  0  0  0  0  0  0  0  0  0  0
   -1.9201   -5.1854    3.1549 C   0  0  0  0  0  0  0  0  0  0  0  0
   -2.9481   -6.0603    3.5167 C   0  0  0  0  0  0  0  0  0  0  0  0
   -2.9408   -6.6660    4.7799 C   0  0  0  0  0  0  0  0  0  0  0  0
   -4.3058   -7.7171    5.2827 S   0  0  0  0  0  0  0  0  0  0  0  0
   -3.4778   -9.2575    4.7860 C   0  0  0  0  0  0  0  0  0  0  0  0
   -1.8816   -6.4254    5.6671 C   0  0  0  0  0  0  0  0  0  0  0  0
   -0.8439   -5.5715    5.2969 C   0  0  0  0  0  0  0  0  0  0  0  0
   -0.9150   -2.1552    5.1405 C   0  0  0  0  0  0  0  0  0  0  0  0
   -2.5250   -2.6223    5.3360 S   0  0  0  0  0  0  0  0  0  0  0  0
    1.4653   -1.4124    2.5084 C   0  0  0  0  0  0  0  0  0  0  0  0
    2.3162   -0.3753    2.0303 C   0  0  0  0  0  0  0  0  0  0  0  0
    3.4145    0.2390    2.7557 N   0  0  0  0  0  0  0  0  0  0  0  0
    3.6844   -0.0833    4.1247 C   0  0  0  0  0  0  0  0  0  0  0  0
    4.1127   -1.3714    4.4700 C   0  0  0  0  0  0  0  0  0  0  0  0
    4.2958   -1.7145    5.8117 C   0  0  0  0  0  0  0  0  0  0  0  0
    4.0826   -0.7611    6.8105 C   0  0  0  0  0  0  0  0  0  0  0  0
    4.2345   -1.2268    8.5318 S   0  0  0  0  0  0  0  0  0  0  0  0
    2.4588   -1.5894    8.7100 C   0  0  0  0  0  0  0  0  0  0  0  0
    3.7486    0.5534    6.4646 C   0  0  0  0  0  0  0  0  0  0  0  0
    3.5505    0.8933    5.1244 C   0  0  0  0  0  0  0  0  0  0  0  0
    4.5065    0.8135    2.0212 C   0  0  0  0  0  0  0  0  0  0  0  0
    4.8202    2.1752    2.1587 C   0  0  0  0  0  0  0  0  0  0  0  0
    5.8166    2.7510    1.3620 C   0  0  0  0  0  0  0  0  0  0  0  0
    6.5061    1.9692    0.4258 C   0  0  0  0  0  0  0  0  0  0  0  0
    7.7159    2.7302   -0.6608 S   0  0  0  0  0  0  0  0  0  0  0  0
    6.4938    3.1174   -1.9583 C   0  0  0  0  0  0  0  0  0  0  0  0
    6.2270    0.6024    0.3159 C   0  0  0  0  0  0  0  0  0  0  0  0
    5.2354    0.0254    1.1139 C   0  0  0  0  0  0  0  0  0  0  0  0
    2.0320   -0.0951    0.6834 C   0  0  0  0  0  0  0  0  0  0  0  0
    2.4676    1.1031   -0.4112 S   0  0  0  0  0  0  0  0  0  0  0  0
    1.4864    0.5172   -1.6787 C   0  0  0  0  0  0  0  0  0  0  0  0
    0.8206   -0.6395   -1.2319 C   0  0  0  0  0  0  0  0  0  0  0  0
    0.0928   -1.5655   -2.0514 N   0  0  0  0  0  0  0  0  0  0  0  0
   -1.2968   -1.7807   -1.7473 C   0  0  0  0  0  0  0  0  0  0  0  0
   -2.1717   -0.6891   -1.6473 C   0  0  0  0  0  0  0  0  0  0  0  0
   -3.5199   -0.8915   -1.3368 C   0  0  0  0  0  0  0  0  0  0  0  0
   -3.9935   -2.1847   -1.0853 C   0  0  0  0  0  0  0  0  0  0  0  0
   -5.7200   -2.4531   -0.6813 S   0  0  0  0  0  0  0  0  0  0  0  0
   -5.4512   -2.2724    1.1089 C   0  0  0  0  0  0  0  0  0  0  0  0
   -3.1202   -3.2756   -1.1655 C   0  0  0  0  0  0  0  0  0  0  0  0
   -1.7751   -3.0753   -1.4876 C   0  0  0  0  0  0  0  0  0  0  0  0
    0.7802   -2.3609   -3.0517 C   0  0  0  0  0  0  0  0  0  0  0  0
    2.1838   -2.4993   -3.0251 C   0  0  0  0  0  0  0  0  0  0  0  0
    2.8510   -3.1860   -4.0416 C   0  0  0  0  0  0  0  0  0  0  0  0
    2.1322   -3.7466   -5.0992 C   0  0  0  0  0  0  0  0  0  0  0  0
    3.0003   -4.5749   -6.4330 S   0  0  0  0  0  0  0  0  0  0  0  0
    2.9636   -6.1981   -5.6119 C   0  0  0  0  0  0  0  0  0  0  0  0
    0.7404   -3.6299   -5.1347 C   0  0  0  0  0  0  0  0  0  0  0  0
    0.0696   -2.9370   -4.1255 C   0  0  0  0  0  0  0  0  0  0  0  0
    1.1236   -0.9052    0.0952 C   0  0  0  0  0  0  0  0  0  0  0  0
    0.5114   -1.9732    1.2040 S   0  0  0  0  0  0  0  0  0  0  0  0
    1.3823    1.1718   -2.9919 C   0  0  0  0  0  0  0  0  0  0  0  0
    0.6441    0.7328   -4.0887 C   0  0  0  0  0  0  0  0  0  0  0  0
    0.8735    1.4870   -5.2451 C   0  0  0  0  0  0  0  0  0  0  0  0
    0.3822    1.1797   -6.5344 C   0  0  0  0  0  0  0  0  0  0  0  0
   -0.5485    0.0474   -6.7633 C   0  0  0  0  0  0  0  0  0  0  0  0
   -0.2116   -0.9969   -7.6377 C   0  0  0  0  0  0  0  0  0  0  0  0
   -1.0878   -2.0704   -7.8260 C   0  0  0  0  0  0  0  0  0  0  0  0
   -2.3018   -2.1176   -7.1255 C   0  0  0  0  0  0  0  0  0  0  0  0
   -3.4164   -3.5095   -7.3522 S   0  0  0  0  0  0  0  0  0  0  0  0
   -4.4662   -2.6355   -8.5636 C   0  0  0  0  0  0  0  0  0  0  0  0
   -5.7721   -3.3898   -8.7708 C   0  0  0  0  0  0  0  0  0  0  0  0
   -2.6270   -1.0944   -6.2310 C   0  0  0  0  0  0  0  0  0  0  0  0
   -3.7975   -1.1332   -5.5385 F   0  0  0  0  0  0  0  0  0  0  0  0
   -1.7717   -0.0031   -6.0730 C   0  0  0  0  0  0  0  0  0  0  0  0
    0.8701    1.9695   -7.5897 C   0  0  0  0  0  0  0  0  0  0  0  0
    1.7178    3.0685   -7.3844 C   0  0  0  0  0  0  0  0  0  0  0  0
    2.1536    3.4121   -6.0883 C   0  0  0  0  0  0  0  0  0  0  0  0
    2.9831    4.6099   -5.8178 C   0  0  0  0  0  0  0  0  0  0  0  0
    4.1969    4.5043   -5.1168 C   0  0  0  0  0  0  0  0  0  0  0  0
    4.9136    5.6534   -4.7699 C   0  0  0  0  0  0  0  0  0  0  0  0
    4.4307    6.9179   -5.1337 C   0  0  0  0  0  0  0  0  0  0  0  0
    5.3464    8.3841   -4.6472 S   0  0  0  0  0  0  0  0  0  0  0  0
    4.6456    8.4637   -2.9578 C   0  0  0  0  0  0  0  0  0  0  0  0
    3.2534    9.0853   -2.9677 C   0  0  0  0  0  0  0  0  0  0  0  0
    3.2531    7.0248   -5.8751 C   0  0  0  0  0  0  0  0  0  0  0  0
    2.5297    5.8777   -6.2155 C   0  0  0  0  0  0  0  0  0  0  0  0
    2.7939    8.2427   -6.2626 F   0  0  0  0  0  0  0  0  0  0  0  0
    1.7474    2.5587   -5.0448 C   0  0  0  0  0  0  0  0  0  0  0  0
    2.2443    2.5514   -3.4377 S   0  0  0  0  0  0  0  0  0  0  0  0
    2.1765    3.6414   -8.5834 C   0  0  0  0  0  0  0  0  0  0  0  0
    1.7579    2.9365   -9.7053 C   0  0  0  0  0  0  0  0  0  0  0  0
    0.7124    1.6969   -9.2386 S   0  0  0  0  0  0  0  0  0  0  0  0
    2.3121    3.1099  -11.0503 C   0  0  0  0  0  0  0  0  0  0  0  0
    2.8786    2.1133  -11.7555 C   0  0  0  0  0  0  0  0  0  0  0  0
    3.0474    2.1674  -13.2159 C   0  0  0  0  0  0  0  0  0  0  0  0
    2.9662    3.1927  -13.9416 O   0  0  0  0  0  0  0  0  0  0  0  0
    3.2970    0.8188  -13.6760 C   0  0  0  0  0  0  0  0  0  0  0  0
    3.7823    0.3029  -14.8729 C   0  0  0  0  0  0  0  0  0  0  0  0
    4.2056   -1.0192  -14.7026 C   0  0  0  0  0  0  0  0  0  0  0  0
    4.9763   -1.9973  -15.9389 Cl  0  0  0  0  0  0  0  0  0  0  0  0
    4.0277   -1.4835  -13.0788 S   0  0  0  0  0  0  0  0  0  0  0  0
    3.3166   -0.0264  -12.6112 C   0  0  0  0  0  0  0  0  0  0  0  0
    3.1829    0.6994  -11.3375 C   0  0  0  0  0  0  0  0  0  0  0  0
    3.6378    0.2494  -10.1474 C   0  0  0  0  0  0  0  0  0  0  0  0
    3.8063   -1.1575   -9.8955 C   0  0  0  0  0  0  0  0  0  0  0  0
    3.9400   -2.2881   -9.6832 N   0  0  0  0  0  0  0  0  0  0  0  0
    4.1499    1.1364   -9.1384 C   0  0  0  0  0  0  0  0  0  0  0  0
    4.5856    1.8334   -8.3221 N   0  0  0  0  0  0  0  0  0  0  0  0
   -5.0587   -0.7957    6.7095 H   0  0  0  0  0  0  0  0  0  0  0  0
   -3.7447    1.5066    0.8058 H   0  0  0  0  0  0  0  0  0  0  0  0
   -2.1366    1.8552    3.8960 H   0  0  0  0  0  0  0  0  0  0  0  0
   -0.9664    3.7476    2.8711 H   0  0  0  0  0  0  0  0  0  0  0  0
    2.9536    5.4301    2.8755 H   0  0  0  0  0  0  0  0  0  0  0  0
    1.9071    3.9665    2.7344 H   0  0  0  0  0  0  0  0  0  0  0  0
    2.7526    4.3370    4.2965 H   0  0  0  0  0  0  0  0  0  0  0  0
    0.7467    4.7558    6.6829 H   0  0  0  0  0  0  0  0  0  0  0  0
   -0.4155    2.8453    7.7191 H   0  0  0  0  0  0  0  0  0  0  0  0
   -3.7550    3.1922    6.9135 H   0  0  0  0  0  0  0  0  0  0  0  0
   -5.0971    3.6215    8.9284 H   0  0  0  0  0  0  0  0  0  0  0  0
   -7.2326    1.6972    9.9530 H   0  0  0  0  0  0  0  0  0  0  0  0
   -7.6045    1.3062   11.6744 H   0  0  0  0  0  0  0  0  0  0  0  0
   -6.5396    0.1982   10.7269 H   0  0  0  0  0  0  0  0  0  0  0  0
   -3.5518    0.0399   10.7424 H   0  0  0  0  0  0  0  0  0  0  0  0
   -2.1829   -0.3882    8.7459 H   0  0  0  0  0  0  0  0  0  0  0  0
    2.6049   -4.0076    4.8094 H   0  0  0  0  0  0  0  0  0  0  0  0
    4.6989   -4.7210    3.7057 H   0  0  0  0  0  0  0  0  0  0  0  0
    5.5202   -3.3754    1.1439 H   0  0  0  0  0  0  0  0  0  0  0  0
    4.6468   -3.8965   -0.3600 H   0  0  0  0  0  0  0  0  0  0  0  0
    6.4381   -4.1141   -0.2266 H   0  0  0  0  0  0  0  0  0  0  0  0
    2.4720   -5.8641    0.2094 H   0  0  0  0  0  0  0  0  0  0  0  0
    0.3848   -5.1387    1.2974 H   0  0  0  0  0  0  0  0  0  0  0  0
   -1.9560   -4.6826    2.1972 H   0  0  0  0  0  0  0  0  0  0  0  0
   -3.7605   -6.2430    2.8280 H   0  0  0  0  0  0  0  0  0  0  0  0
   -2.5425   -9.3934    5.3697 H   0  0  0  0  0  0  0  0  0  0  0  0
   -3.2386   -9.2247    3.7032 H   0  0  0  0  0  0  0  0  0  0  0  0
   -4.1559  -10.1139    4.9756 H   0  0  0  0  0  0  0  0  0  0  0  0
   -1.8765   -6.8924    6.6415 H   0  0  0  0  0  0  0  0  0  0  0  0
   -0.0381   -5.3770    5.9931 H   0  0  0  0  0  0  0  0  0  0  0  0
    4.2784   -2.1087    3.6961 H   0  0  0  0  0  0  0  0  0  0  0  0
    4.5819   -2.7243    6.0733 H   0  0  0  0  0  0  0  0  0  0  0  0
    2.2574   -1.9135    9.7555 H   0  0  0  0  0  0  0  0  0  0  0  0
    1.8512   -0.6788    8.4972 H   0  0  0  0  0  0  0  0  0  0  0  0
    2.1448   -2.3964    8.0152 H   0  0  0  0  0  0  0  0  0  0  0  0
    3.6046    1.3038    7.2332 H   0  0  0  0  0  0  0  0  0  0  0  0
    3.2495    1.8991    4.8637 H   0  0  0  0  0  0  0  0  0  0  0  0
    4.2681    2.7930    2.8509 H   0  0  0  0  0  0  0  0  0  0  0  0
    6.0362    3.8055    1.4614 H   0  0  0  0  0  0  0  0  0  0  0  0
    6.0380    2.1843   -2.3510 H   0  0  0  0  0  0  0  0  0  0  0  0
    7.0076    3.6381   -2.7929 H   0  0  0  0  0  0  0  0  0  0  0  0
    5.6967    3.7805   -1.5575 H   0  0  0  0  0  0  0  0  0  0  0  0
    6.7463   -0.0043   -0.4119 H   0  0  0  0  0  0  0  0  0  0  0  0
    4.9918   -1.0190    0.9858 H   0  0  0  0  0  0  0  0  0  0  0  0
   -1.8114    0.3147   -1.8282 H   0  0  0  0  0  0  0  0  0  0  0  0
   -4.1867   -0.0394   -1.2880 H   0  0  0  0  0  0  0  0  0  0  0  0
   -5.2033   -1.2180    1.3312 H   0  0  0  0  0  0  0  0  0  0  0  0
   -4.6260   -2.9317    1.4568 H   0  0  0  0  0  0  0  0  0  0  0  0
   -6.3825   -2.5430    1.6485 H   0  0  0  0  0  0  0  0  0  0  0  0
   -3.4793   -4.2780   -0.9642 H   0  0  0  0  0  0  0  0  0  0  0  0
   -1.1075   -3.9253   -1.5290 H   0  0  0  0  0  0  0  0  0  0  0  0
    2.7709   -2.0681   -2.2258 H   0  0  0  0  0  0  0  0  0  0  0  0
    3.9320   -3.2689   -4.0140 H   0  0  0  0  0  0  0  0  0  0  0  0
    3.5709   -6.1689   -4.6817 H   0  0  0  0  0  0  0  0  0  0  0  0
    3.3905   -6.9582   -6.2976 H   0  0  0  0  0  0  0  0  0  0  0  0
    1.9171   -6.4783   -5.3643 H   0  0  0  0  0  0  0  0  0  0  0  0
    0.1793   -4.0557   -5.9570 H   0  0  0  0  0  0  0  0  0  0  0  0
   -1.0025   -2.8220   -4.2080 H   0  0  0  0  0  0  0  0  0  0  0  0
   -0.0083   -0.1191   -4.0750 H   0  0  0  0  0  0  0  0  0  0  0  0
    0.7356   -0.9890   -8.1636 H   0  0  0  0  0  0  0  0  0  0  0  0
   -0.8166   -2.8677   -8.5047 H   0  0  0  0  0  0  0  0  0  0  0  0
   -3.9221   -2.5575   -9.5315 H   0  0  0  0  0  0  0  0  0  0  0  0
   -4.7000   -1.6124   -8.1971 H   0  0  0  0  0  0  0  0  0  0  0  0
   -5.5760   -4.3975   -9.1871 H   0  0  0  0  0  0  0  0  0  0  0  0
   -6.4168   -2.8283   -9.4764 H   0  0  0  0  0  0  0  0  0  0  0  0
   -6.3102   -3.4958   -7.8011 H   0  0  0  0  0  0  0  0  0  0  0  0
   -2.0511    0.7913   -5.3911 H   0  0  0  0  0  0  0  0  0  0  0  0
    4.5848    3.5316   -4.8343 H   0  0  0  0  0  0  0  0  0  0  0  0
    5.8307    5.5576   -4.2039 H   0  0  0  0  0  0  0  0  0  0  0  0
    4.6175    7.4523   -2.4983 H   0  0  0  0  0  0  0  0  0  0  0  0
    5.3137    9.0931   -2.3351 H   0  0  0  0  0  0  0  0  0  0  0  0
    2.5315    8.4272   -3.4944 H   0  0  0  0  0  0  0  0  0  0  0  0
    3.2839   10.0823   -3.4586 H   0  0  0  0  0  0  0  0  0  0  0  0
    2.9035    9.2164   -1.9212 H   0  0  0  0  0  0  0  0  0  0  0  0
    1.5998    5.9854   -6.7588 H   0  0  0  0  0  0  0  0  0  0  0  0
    2.9010    4.4431   -8.6338 H   0  0  0  0  0  0  0  0  0  0  0  0
    2.1863    4.0781  -11.5136 H   0  0  0  0  0  0  0  0  0  0  0  0
    3.9088    0.8702  -15.7842 H   0  0  0  0  0  0  0  0  0  0  0  0
  1  2  2  3
  2  3  1  0
  3  4  2  0
  3  5  1  0
  5  6  1  0
  6  7  2  0
  7  8  1  0
  7  9  1  0
  9 10  1  0
 10 11  1  0
 11 12  2  3
 12 13  1  0
 13 14  3  0
 12 15  1  0
 15 16  3  0
  1 17  1  0
 17 18  2  0
 18 19  1  0
 19 20  1  0
 20 21  2  0
 21 22  1  0
 22 23  2  0
 23 24  1  0
 24 25  1  0
 23 26  1  0
 26 27  2  0
 19 28  1  0
 28 29  2  0
 29 30  1  0
 30 31  2  0
 31 32  1  0
 32 33  1  0
 31 34  1  0
 34 35  2  0
 18 36  1  0
 36 37  1  0
 37 38  1  0
 38 39  2  0
 39 40  1  0
 40 41  1  0
 41 42  2  0
 42 43  1  0
 43 44  2  0
 44 45  1  0
 45 46  1  0
 44 47  1  0
 47 48  2  0
 40 49  1  0
 49 50  2  0
 50 51  1  0
 51 52  2  0
 52 53  1  0
 53 54  1  0
 52 55  1  0
 55 56  2  0
 39 57  1  0
 57 58  1  0
 38 59  1  0
 59 60  2  0
 60 61  1  0
 61 62  1  0
 62 63  2  0
 63 64  1  0
 64 65  2  0
 65 66  1  0
 66 67  1  0
 65 68  1  0
 68 69  2  0
 61 70  1  0
 70 71  2  0
 71 72  1  0
 72 73  2  0
 73 74  1  0
 74 75  1  0
 73 76  1  0
 76 77  2  0
 60 78  1  0
 78 79  1  0
 79 80  1  0
 80 81  2  0
 81 82  1  0
 82 83  1  0
 83 84  2  0
 84 85  1  0
 85 86  2  0
 86 87  1  0
 87 88  1  0
 86 89  1  0
 89 90  2  0
 82 91  1  0
 91 92  2  0
 92 93  1  0
 93 94  2  0
 94 95  1  0
 95 96  1  0
 94 97  1  0
 97 98  2  0
 81 99  1  0
 99100  1  0
 80101  1  0
101102  2  0
102103  1  0
103104  2  0
104105  1  0
105106  2  0
106107  1  0
107108  2  0
108109  1  0
109110  1  0
110111  1  0
108112  1  0
112113  1  0
112114  2  0
104115  1  0
115116  2  0
116117  1  0
117118  1  0
118119  2  0
119120  1  0
120121  2  0
121122  1  0
122123  1  0
123124  1  0
121125  1  0
125126  2  0
125127  1  0
117128  2  0
128129  1  0
116130  1  0
130131  2  0
131132  1  0
131133  1  0
133134  2  3
134135  1  0
135136  2  0
135137  1  0
137138  1  0
138139  2  0
139140  1  0
139141  1  0
141142  1  0
142143  1  0
143144  2  3
144145  1  0
145146  3  0
144147  1  0
147148  3  0
 11  2  1  0
 58 17  1  0
100 59  1  0
129101  1  0
143134  1  0
 10  5  2  0
 27 20  1  0
 35 28  1  0
 57 36  2  0
 69 62  1  0
 77 70  1  0
 99 78  2  0
128103  1  0
142137  2  0
 48 41  1  0
 56 49  1  0
 90 83  1  0
 98 91  1  0
114105  1  0
132115  1  0
126118  1  0
  1149  1  0
  6150  1  0
 21151  1  0
 22152  1  0
 25153  1  0
 25154  1  0
 25155  1  0
 26156  1  0
 27157  1  0
 29158  1  0
 30159  1  0
 33160  1  0
 33161  1  0
 33162  1  0
 34163  1  0
 35164  1  0
 42165  1  0
 43166  1  0
 46167  1  0
 46168  1  0
 46169  1  0
 47170  1  0
 48171  1  0
 50172  1  0
 51173  1  0
 54174  1  0
 54175  1  0
 54176  1  0
 55177  1  0
 56178  1  0
 63179  1  0
 64180  1  0
 67181  1  0
 67182  1  0
 67183  1  0
 68184  1  0
 69185  1  0
 71186  1  0
 72187  1  0
 75188  1  0
 75189  1  0
 75190  1  0
 76191  1  0
 77192  1  0
 84193  1  0
 85194  1  0
 88195  1  0
 88196  1  0
 88197  1  0
 89198  1  0
 90199  1  0
 92200  1  0
 93201  1  0
 96202  1  0
 96203  1  0
 96204  1  0
 97205  1  0
 98206  1  0
102207  1  0
106208  1  0
107209  1  0
110210  1  0
110211  1  0
111212  1  0
111213  1  0
111214  1  0
114215  1  0
119216  1  0
120217  1  0
123218  1  0
123219  1  0
124220  1  0
124221  1  0
124222  1  0
126223  1  0
130224  1  0
133225  1  0
138226  1  0
M  END

