
     RDKit          3D

158172  0  0  0  0  0  0  0  0999 V2000
   -3.9181    2.4603    5.2705 C   0  0  0  0  0  0  0  0  0  0  0  0
   -4.1589    3.3203    6.2702 C   0  0  0  0  0  0  0  0  0  0  0  0
   -3.8084    4.7623    6.2698 C   0  0  0  0  0  0  0  0  0  0  0  0
   -3.0609    5.3644    5.4553 O   0  0  0  0  0  0  0  0  0  0  0  0
   -4.5707    5.3894    7.3224 C   0  0  0  0  0  0  0  0  0  0  0  0
   -4.7007    6.6902    7.7985 C   0  0  0  0  0  0  0  0  0  0  0  0
   -5.6037    6.7316    8.8641 C   0  0  0  0  0  0  0  0  0  0  0  0
   -6.0599    8.1721    9.7498 Cl  0  0  0  0  0  0  0  0  0  0  0  0
   -6.2105    5.1749    9.1883 S   0  0  0  0  0  0  0  0  0  0  0  0
   -5.3182    4.4583    7.9578 C   0  0  0  0  0  0  0  0  0  0  0  0
   -5.1094    3.1091    7.4143 C   0  0  0  0  0  0  0  0  0  0  0  0
   -5.5952    1.9591    7.9298 C   0  0  0  0  0  0  0  0  0  0  0  0
   -5.1759    0.6642    7.4668 C   0  0  0  0  0  0  0  0  0  0  0  0
   -4.8409   -0.3817    7.0970 N   0  0  0  0  0  0  0  0  0  0  0  0
   -6.5219    1.9682    9.0320 C   0  0  0  0  0  0  0  0  0  0  0  0
   -7.2701    1.9756    9.9141 N   0  0  0  0  0  0  0  0  0  0  0  0
   -3.0771    2.7577    4.1015 C   0  0  0  0  0  0  0  0  0  0  0  0
   -3.4783    2.5296    2.7803 C   0  0  0  0  0  0  0  0  0  0  0  0
   -4.8342    2.2874    2.3873 N   0  0  0  0  0  0  0  0  0  0  0  0
   -5.8136    3.2862    2.7210 C   0  0  0  0  0  0  0  0  0  0  0  0
   -5.6077    4.6230    2.3472 C   0  0  0  0  0  0  0  0  0  0  0  0
   -6.5064    5.6140    2.7462 C   0  0  0  0  0  0  0  0  0  0  0  0
   -7.6084    5.2797    3.5415 C   0  0  0  0  0  0  0  0  0  0  0  0
   -8.7200    6.5654    4.1162 S   0  0  0  0  0  0  0  0  0  0  0  0
   -7.7425    6.8980    5.6184 C   0  0  0  0  0  0  0  0  0  0  0  0
   -7.8310    3.9468    3.9037 C   0  0  0  0  0  0  0  0  0  0  0  0
   -6.9381    2.9516    3.4922 C   0  0  0  0  0  0  0  0  0  0  0  0
   -5.2186    1.0398    1.7776 C   0  0  0  0  0  0  0  0  0  0  0  0
   -4.5767   -0.1609    2.1348 C   0  0  0  0  0  0  0  0  0  0  0  0
   -4.9757   -1.3713    1.5632 C   0  0  0  0  0  0  0  0  0  0  0  0
   -6.0066   -1.3976    0.6175 C   0  0  0  0  0  0  0  0  0  0  0  0
   -6.5228   -2.9530   -0.1088 S   0  0  0  0  0  0  0  0  0  0  0  0
   -5.4775   -2.7645   -1.5876 C   0  0  0  0  0  0  0  0  0  0  0  0
   -6.6463   -0.2053    0.2555 C   0  0  0  0  0  0  0  0  0  0  0  0
   -6.2595    1.0050    0.8319 C   0  0  0  0  0  0  0  0  0  0  0  0
   -2.4231    2.6890    1.8919 C   0  0  0  0  0  0  0  0  0  0  0  0
   -2.2457    2.5123    0.2343 S   0  0  0  0  0  0  0  0  0  0  0  0
   -0.5836    2.9027    0.2435 C   0  0  0  0  0  0  0  0  0  0  0  0
   -0.1741    3.1467    1.5684 C   0  0  0  0  0  0  0  0  0  0  0  0
    1.1677    3.5002    1.9429 N   0  0  0  0  0  0  0  0  0  0  0  0
    1.9330    2.6747    2.8483 C   0  0  0  0  0  0  0  0  0  0  0  0
    2.9238    3.2468    3.6701 C   0  0  0  0  0  0  0  0  0  0  0  0
    3.6980    2.4445    4.5103 C   0  0  0  0  0  0  0  0  0  0  0  0
    3.4891    1.0621    4.5507 C   0  0  0  0  0  0  0  0  0  0  0  0
    4.4901    0.0367    5.6287 S   0  0  0  0  0  0  0  0  0  0  0  0
    3.3716    0.2324    7.0536 C   0  0  0  0  0  0  0  0  0  0  0  0
    2.4974    0.4848    3.7505 C   0  0  0  0  0  0  0  0  0  0  0  0
    1.7233    1.2831    2.9044 C   0  0  0  0  0  0  0  0  0  0  0  0
    1.7400    4.6855    1.3625 C   0  0  0  0  0  0  0  0  0  0  0  0
    2.9856    4.6287    0.7174 C   0  0  0  0  0  0  0  0  0  0  0  0
    3.5069    5.7689    0.0951 C   0  0  0  0  0  0  0  0  0  0  0  0
    2.7950    6.9739    0.1262 C   0  0  0  0  0  0  0  0  0  0  0  0
    3.4582    8.4257   -0.6891 S   0  0  0  0  0  0  0  0  0  0  0  0
    2.5616    8.1099   -2.2410 C   0  0  0  0  0  0  0  0  0  0  0  0
    1.5636    7.0412    0.7881 C   0  0  0  0  0  0  0  0  0  0  0  0
    1.0346    5.9001    1.3982 C   0  0  0  0  0  0  0  0  0  0  0  0
   -1.2351    3.0187    2.4627 C   0  0  0  0  0  0  0  0  0  0  0  0
   -1.4054    3.1187    4.1332 S   0  0  0  0  0  0  0  0  0  0  0  0
    0.3318    2.5112   -0.8379 C   0  0  0  0  0  0  0  0  0  0  0  0
    0.9146    3.4685   -1.6853 C   0  0  0  0  0  0  0  0  0  0  0  0
    0.6089    4.7824   -1.5455 F   0  0  0  0  0  0  0  0  0  0  0  0
    1.8101    3.0740   -2.6910 C   0  0  0  0  0  0  0  0  0  0  0  0
    2.3849    4.0161   -3.4813 F   0  0  0  0  0  0  0  0  0  0  0  0
    2.1152    1.7128   -2.8714 C   0  0  0  0  0  0  0  0  0  0  0  0
    1.4861    0.7525   -2.0553 C   0  0  0  0  0  0  0  0  0  0  0  0
    1.6745   -0.5802   -2.2725 N   0  0  0  0  0  0  0  0  0  0  0  0
    1.0761   -1.5394   -1.5206 C   0  0  0  0  0  0  0  0  0  0  0  0
    1.3056   -2.9748   -1.9023 C   0  0  0  0  0  0  0  0  0  0  0  0
    2.4981   -3.5551   -1.1492 C   0  0  0  0  0  0  0  0  0  0  0  0
    0.2583   -1.1332   -0.4403 C   0  0  0  0  0  0  0  0  0  0  0  0
    0.0428    0.1957   -0.2502 N   0  0  0  0  0  0  0  0  0  0  0  0
    0.6157    1.1506   -1.0319 C   0  0  0  0  0  0  0  0  0  0  0  0
   -0.4715   -2.1001    0.4511 C   0  0  0  0  0  0  0  0  0  0  0  0
   -1.9090   -2.2609   -0.0200 C   0  0  0  0  0  0  0  0  0  0  0  0
    3.0345    1.2483   -3.9350 C   0  0  0  0  0  0  0  0  0  0  0  0
    4.0982    0.3908   -3.5799 C   0  0  0  0  0  0  0  0  0  0  0  0
    4.6164   -0.4668   -4.5541 C   0  0  0  0  0  0  0  0  0  0  0  0
    5.3464   -1.5936   -4.3476 N   0  0  0  0  0  0  0  0  0  0  0  0
    5.9080   -2.0818   -3.0816 C   0  0  0  0  0  0  0  0  0  0  0  0
    7.3701   -1.6710   -2.9626 C   0  0  0  0  0  0  0  0  0  0  0  0
    5.3417   -2.2447   -5.5371 C   0  0  0  0  0  0  0  0  0  0  0  0
    4.6424   -1.5277   -6.4911 C   0  0  0  0  0  0  0  0  0  0  0  0
    4.1739   -0.3957   -5.8619 C   0  0  0  0  0  0  0  0  0  0  0  0
    3.2208    0.5389   -6.2693 C   0  0  0  0  0  0  0  0  0  0  0  0
    2.6397    1.3595   -5.2882 C   0  0  0  0  0  0  0  0  0  0  0  0
    4.3389   -2.0619   -7.7397 C   0  0  0  0  0  0  0  0  0  0  0  0
    4.7436   -3.3807   -8.0089 C   0  0  0  0  0  0  0  0  0  0  0  0
    5.4127   -4.1405   -7.0216 C   0  0  0  0  0  0  0  0  0  0  0  0
    5.7569   -3.5569   -5.7862 C   0  0  0  0  0  0  0  0  0  0  0  0
    5.6110   -5.5861   -7.2205 C   0  0  0  0  0  0  0  0  0  0  0  0
    4.7766   -6.5032   -6.6913 C   0  0  0  0  0  0  0  0  0  0  0  0
    3.5206   -6.1982   -5.9572 C   0  0  0  0  0  0  0  0  0  0  0  0
    3.0574   -5.0593   -5.6777 O   0  0  0  0  0  0  0  0  0  0  0  0
    2.8895   -7.4522   -5.6284 C   0  0  0  0  0  0  0  0  0  0  0  0
    1.7435   -7.8168   -4.9315 C   0  0  0  0  0  0  0  0  0  0  0  0
    1.6398   -9.2085   -4.8484 C   0  0  0  0  0  0  0  0  0  0  0  0
    0.3602  -10.0780   -4.0238 Cl  0  0  0  0  0  0  0  0  0  0  0  0
    2.9595   -9.9442   -5.6297 S   0  0  0  0  0  0  0  0  0  0  0  0
    3.6483   -8.4759   -6.0854 C   0  0  0  0  0  0  0  0  0  0  0  0
    4.8670   -8.0062   -6.7674 C   0  0  0  0  0  0  0  0  0  0  0  0
    5.8315   -8.8048   -7.2791 C   0  0  0  0  0  0  0  0  0  0  0  0
    7.0220   -8.2994   -7.9014 C   0  0  0  0  0  0  0  0  0  0  0  0
    7.9813   -7.9251   -8.4362 N   0  0  0  0  0  0  0  0  0  0  0  0
    5.7035  -10.2408   -7.2655 C   0  0  0  0  0  0  0  0  0  0  0  0
    5.6038  -11.3940   -7.2678 N   0  0  0  0  0  0  0  0  0  0  0  0
   -4.4690    1.5335    5.2213 H   0  0  0  0  0  0  0  0  0  0  0  0
   -4.1725    7.5484    7.4018 H   0  0  0  0  0  0  0  0  0  0  0  0
   -4.7405    4.8932    1.7540 H   0  0  0  0  0  0  0  0  0  0  0  0
   -6.3309    6.6445    2.4586 H   0  0  0  0  0  0  0  0  0  0  0  0
   -7.6463    5.9728    6.2263 H   0  0  0  0  0  0  0  0  0  0  0  0
   -8.2578    7.6712    6.2225 H   0  0  0  0  0  0  0  0  0  0  0  0
   -6.7326    7.2695    5.3409 H   0  0  0  0  0  0  0  0  0  0  0  0
   -8.6835    3.6846    4.5186 H   0  0  0  0  0  0  0  0  0  0  0  0
   -7.1010    1.9268    3.8028 H   0  0  0  0  0  0  0  0  0  0  0  0
   -3.7866   -0.1627    2.8740 H   0  0  0  0  0  0  0  0  0  0  0  0
   -4.4857   -2.2901    1.8634 H   0  0  0  0  0  0  0  0  0  0  0  0
   -4.4133   -2.6713   -1.2931 H   0  0  0  0  0  0  0  0  0  0  0  0
   -5.7840   -1.8642   -2.1624 H   0  0  0  0  0  0  0  0  0  0  0  0
   -5.5945   -3.6605   -2.2315 H   0  0  0  0  0  0  0  0  0  0  0  0
   -7.4460   -0.2175   -0.4742 H   0  0  0  0  0  0  0  0  0  0  0  0
   -6.7593    1.9165    0.5320 H   0  0  0  0  0  0  0  0  0  0  0  0
    3.1006    4.3147    3.6589 H   0  0  0  0  0  0  0  0  0  0  0  0
    4.4625    2.9001    5.1285 H   0  0  0  0  0  0  0  0  0  0  0  0
    3.7880   -0.3159    7.9226 H   0  0  0  0  0  0  0  0  0  0  0  0
    3.2760    1.3070    7.3185 H   0  0  0  0  0  0  0  0  0  0  0  0
    2.3709   -0.1832    6.8084 H   0  0  0  0  0  0  0  0  0  0  0  0
    2.3347   -0.5852    3.7715 H   0  0  0  0  0  0  0  0  0  0  0  0
    0.9777    0.8156    2.2767 H   0  0  0  0  0  0  0  0  0  0  0  0
    3.5301    3.6956    0.6680 H   0  0  0  0  0  0  0  0  0  0  0  0
    4.4590    5.7126   -0.4182 H   0  0  0  0  0  0  0  0  0  0  0  0
    1.4737    8.2513   -2.0800 H   0  0  0  0  0  0  0  0  0  0  0  0
    2.9076    8.8271   -3.0130 H   0  0  0  0  0  0  0  0  0  0  0  0
    2.7561    7.0772   -2.5965 H   0  0  0  0  0  0  0  0  0  0  0  0
    1.0076    7.9723    0.8142 H   0  0  0  0  0  0  0  0  0  0  0  0
    0.0735    5.9609    1.8957 H   0  0  0  0  0  0  0  0  0  0  0  0
    0.3998   -3.5907   -1.7258 H   0  0  0  0  0  0  0  0  0  0  0  0
    1.5241   -3.0278   -2.9927 H   0  0  0  0  0  0  0  0  0  0  0  0
    2.2967   -3.6062   -0.0608 H   0  0  0  0  0  0  0  0  0  0  0  0
    2.7065   -4.5804   -1.5240 H   0  0  0  0  0  0  0  0  0  0  0  0
    3.4037   -2.9349   -1.3207 H   0  0  0  0  0  0  0  0  0  0  0  0
   -0.4683   -1.7136    1.4936 H   0  0  0  0  0  0  0  0  0  0  0  0
    0.0253   -3.0905    0.4762 H   0  0  0  0  0  0  0  0  0  0  0  0
   -2.4525   -1.2980    0.0859 H   0  0  0  0  0  0  0  0  0  0  0  0
   -2.4212   -3.0286    0.5971 H   0  0  0  0  0  0  0  0  0  0  0  0
   -1.9380   -2.5757   -1.0823 H   0  0  0  0  0  0  0  0  0  0  0  0
    4.3827    0.2854   -2.5434 H   0  0  0  0  0  0  0  0  0  0  0  0
    5.8203   -3.1855   -3.0154 H   0  0  0  0  0  0  0  0  0  0  0  0
    5.3507   -1.6790   -2.2141 H   0  0  0  0  0  0  0  0  0  0  0  0
    7.4485   -0.5633   -2.9126 H   0  0  0  0  0  0  0  0  0  0  0  0
    7.9395   -2.0421   -3.8391 H   0  0  0  0  0  0  0  0  0  0  0  0
    7.8060   -2.0982   -2.0337 H   0  0  0  0  0  0  0  0  0  0  0  0
    2.8560    0.5573   -7.2894 H   0  0  0  0  0  0  0  0  0  0  0  0
    1.8024    1.9890   -5.5628 H   0  0  0  0  0  0  0  0  0  0  0  0
    3.7542   -1.5024   -8.4598 H   0  0  0  0  0  0  0  0  0  0  0  0
    4.4743   -3.8355   -8.9545 H   0  0  0  0  0  0  0  0  0  0  0  0
    6.2471   -4.1487   -5.0243 H   0  0  0  0  0  0  0  0  0  0  0  0
    6.4488   -5.8670   -7.8290 H   0  0  0  0  0  0  0  0  0  0  0  0
    1.0396   -7.1253   -4.4866 H   0  0  0  0  0  0  0  0  0  0  0  0
  1  2  2  3
  2  3  1  0
  3  4  2  0
  3  5  1  0
  5  6  1  0
  6  7  2  0
  7  8  1  0
  7  9  1  0
  9 10  1  0
 10 11  1  0
 11 12  2  3
 12 13  1  0
 13 14  3  0
 12 15  1  0
 15 16  3  0
  1 17  1  0
 17 18  2  0
 18 19  1  0
 19 20  1  0
 20 21  2  0
 21 22  1  0
 22 23  2  0
 23 24  1  0
 24 25  1  0
 23 26  1  0
 26 27  2  0
 19 28  1  0
 28 29  2  0
 29 30  1  0
 30 31  2  0
 31 32  1  0
 32 33  1  0
 31 34  1  0
 34 35  2  0
 18 36  1  0
 36 37  1  0
 37 38  1  0
 38 39  2  0
 39 40  1  0
 40 41  1  0
 41 42  2  0
 42 43  1  0
 43 44  2  0
 44 45  1  0
 45 46  1  0
 44 47  1  0
 47 48  2  0
 40 49  1  0
 49 50  2  0
 50 51  1  0
 51 52  2  0
 52 53  1  0
 53 54  1  0
 52 55  1  0
 55 56  2  0
 39 57  1  0
 57 58  1  0
 38 59  1  0
 59 60  2  0
 60 61  1  0
 60 62  1  0
 62 63  1  0
 62 64  2  0
 64 65  1  0
 65 66  2  0
 66 67  1  0
 67 68  1  0
 68 69  1  0
 67 70  2  0
 70 71  1  0
 71 72  2  0
 70 73  1  0
 73 74  1  0
 64 75  1  0
 75 76  2  0
 76 77  1  0
 77 78  1  0
 78 79  1  0
 79 80  1  0
 78 81  1  0
 81 82  2  0
 82 83  1  0
 83 84  1  0
 84 85  2  0
 82 86  1  0
 86 87  2  0
 87 88  1  0
 88 89  2  0
 88 90  1  0
 90 91  2  3
 91 92  1  0
 92 93  2  0
 92 94  1  0
 94 95  1  0
 95 96  2  0
 96 97  1  0
 96 98  1  0
 98 99  1  0
 99100  1  0
100101  2  3
101102  1  0
102103  3  0
101104  1  0
104105  3  0
 11  2  1  0
 58 17  1  0
 72 59  1  0
 85 75  1  0
100 91  1  0
 10  5  2  0
 27 20  1  0
 35 28  1  0
 57 36  2  0
 72 65  1  0
 83 77  2  0
 99 94  2  0
 48 41  1  0
 56 49  1  0
 89 81  1  0
  1106  1  0
  6107  1  0
 21108  1  0
 22109  1  0
 25110  1  0
 25111  1  0
 25112  1  0
 26113  1  0
 27114  1  0
 29115  1  0
 30116  1  0
 33117  1  0
 33118  1  0
 33119  1  0
 34120  1  0
 35121  1  0
 42122  1  0
 43123  1  0
 46124  1  0
 46125  1  0
 46126  1  0
 47127  1  0
 48128  1  0
 50129  1  0
 51130  1  0
 54131  1  0
 54132  1  0
 54133  1  0
 55134  1  0
 56135  1  0
 68136  1  0
 68137  1  0
 69138  1  0
 69139  1  0
 69140  1  0
 73141  1  0
 73142  1  0
 74143  1  0
 74144  1  0
 74145  1  0
 76146  1  0
 79147  1  0
 79148  1  0
 80149  1  0
 80150  1  0
 80151  1  0
 84152  1  0
 85153  1  0
 86154  1  0
 87155  1  0
 89156  1  0
 90157  1  0
 95158  1  0
M  END

