
     RDKit          3D

241262  0  0  0  0  0  0  0  0999 V2000
   -1.9023   -6.7475   -5.4914 C   0  0  0  0  0  0  0  0  0  0  0  0
   -1.5336   -6.0102   -6.5504 C   0  0  0  0  0  0  0  0  0  0  0  0
   -0.9442   -4.6530   -6.4941 C   0  0  0  0  0  0  0  0  0  0  0  0
   -0.9897   -3.8405   -5.5367 O   0  0  0  0  0  0  0  0  0  0  0  0
   -0.3307   -4.3998   -7.7776 C   0  0  0  0  0  0  0  0  0  0  0  0
    0.4498   -3.3796   -8.3128 C   0  0  0  0  0  0  0  0  0  0  0  0
    0.8007   -3.6699   -9.6317 C   0  0  0  0  0  0  0  0  0  0  0  0
    1.8272   -2.6745  -10.6422 Cl  0  0  0  0  0  0  0  0  0  0  0  0
    0.1253   -5.1630  -10.1122 S   0  0  0  0  0  0  0  0  0  0  0  0
   -0.5801   -5.4413   -8.6119 C   0  0  0  0  0  0  0  0  0  0  0  0
   -1.4096   -6.4763   -7.9713 C   0  0  0  0  0  0  0  0  0  0  0  0
   -2.0924   -7.4587   -8.6062 C   0  0  0  0  0  0  0  0  0  0  0  0
   -3.1240   -8.2222   -7.9517 C   0  0  0  0  0  0  0  0  0  0  0  0
   -3.9621   -8.8261   -7.4309 N   0  0  0  0  0  0  0  0  0  0  0  0
   -1.8930   -7.7094  -10.0111 C   0  0  0  0  0  0  0  0  0  0  0  0
   -1.7384   -7.9220  -11.1373 N   0  0  0  0  0  0  0  0  0  0  0  0
   -1.8810   -6.2213   -4.1227 C   0  0  0  0  0  0  0  0  0  0  0  0
   -0.7347   -6.0188   -3.3367 C   0  0  0  0  0  0  0  0  0  0  0  0
    0.5672   -6.5550   -3.6397 N   0  0  0  0  0  0  0  0  0  0  0  0
    1.4007   -5.8244   -4.5609 C   0  0  0  0  0  0  0  0  0  0  0  0
    1.8210   -6.4155   -5.7611 C   0  0  0  0  0  0  0  0  0  0  0  0
    2.6375   -5.7127   -6.6534 C   0  0  0  0  0  0  0  0  0  0  0  0
    3.0238   -4.3944   -6.3675 C   0  0  0  0  0  0  0  0  0  0  0  0
    3.9023   -3.6431   -7.3157 C   0  0  0  0  0  0  0  0  0  0  0  0
    2.6074   -3.8012   -5.1649 C   0  0  0  0  0  0  0  0  0  0  0  0
    1.8026   -4.5090   -4.2665 C   0  0  0  0  0  0  0  0  0  0  0  0
    0.9271   -7.8938   -3.2067 C   0  0  0  0  0  0  0  0  0  0  0  0
   -0.0454   -8.7741   -2.6808 C   0  0  0  0  0  0  0  0  0  0  0  0
    0.2975  -10.0713   -2.2955 C   0  0  0  0  0  0  0  0  0  0  0  0
    1.6164  -10.5256   -2.4362 C   0  0  0  0  0  0  0  0  0  0  0  0
    1.9912  -11.9020   -1.9774 C   0  0  0  0  0  0  0  0  0  0  0  0
    2.5968   -9.6543   -2.9225 C   0  0  0  0  0  0  0  0  0  0  0  0
    2.2582   -8.3523   -3.3012 C   0  0  0  0  0  0  0  0  0  0  0  0
   -1.0491   -5.3296   -2.1657 C   0  0  0  0  0  0  0  0  0  0  0  0
   -0.1407   -4.4931   -1.0491 S   0  0  0  0  0  0  0  0  0  0  0  0
   -1.4634   -3.7227   -0.2939 C   0  0  0  0  0  0  0  0  0  0  0  0
   -2.6471   -4.1589   -0.9309 C   0  0  0  0  0  0  0  0  0  0  0  0
   -3.9757   -3.7591   -0.5097 N   0  0  0  0  0  0  0  0  0  0  0  0
   -5.1121   -3.9681   -1.3623 C   0  0  0  0  0  0  0  0  0  0  0  0
   -5.9219   -5.1011   -1.1811 C   0  0  0  0  0  0  0  0  0  0  0  0
   -7.0438   -5.3008   -1.9925 C   0  0  0  0  0  0  0  0  0  0  0  0
   -7.3818   -4.3582   -2.9752 C   0  0  0  0  0  0  0  0  0  0  0  0
   -8.5749   -4.5730   -3.8553 C   0  0  0  0  0  0  0  0  0  0  0  0
   -6.5657   -3.2281   -3.1579 C   0  0  0  0  0  0  0  0  0  0  0  0
   -5.4341   -3.0358   -2.3564 C   0  0  0  0  0  0  0  0  0  0  0  0
   -4.2501   -3.5265    0.8846 C   0  0  0  0  0  0  0  0  0  0  0  0
   -5.0702   -2.4502    1.2686 C   0  0  0  0  0  0  0  0  0  0  0  0
   -5.4165   -2.2710    2.6100 C   0  0  0  0  0  0  0  0  0  0  0  0
   -4.9472   -3.1631    3.5880 C   0  0  0  0  0  0  0  0  0  0  0  0
   -5.3453   -3.0008    5.0193 C   0  0  0  0  0  0  0  0  0  0  0  0
   -4.1407   -4.2447    3.2043 C   0  0  0  0  0  0  0  0  0  0  0  0
   -3.7947   -4.4258    1.8605 C   0  0  0  0  0  0  0  0  0  0  0  0
   -2.3645   -5.0231   -1.9993 C   0  0  0  0  0  0  0  0  0  0  0  0
   -3.2351   -5.5777   -3.3251 S   0  0  0  0  0  0  0  0  0  0  0  0
   -1.3260   -2.3247    0.1387 C   0  0  0  0  0  0  0  0  0  0  0  0
   -1.0386   -1.7922    1.4173 C   0  0  0  0  0  0  0  0  0  0  0  0
   -0.7172   -2.5757    2.5895 N   0  0  0  0  0  0  0  0  0  0  0  0
   -1.0807   -2.1522    3.9282 C   0  0  0  0  0  0  0  0  0  0  0  0
   -2.2154   -1.3548    4.1546 C   0  0  0  0  0  0  0  0  0  0  0  0
   -2.5842   -0.9908    5.4568 C   0  0  0  0  0  0  0  0  0  0  0  0
   -1.8331   -1.4382    6.5529 C   0  0  0  0  0  0  0  0  0  0  0  0
   -2.3119   -1.0179    8.2305 S   0  0  0  0  0  0  0  0  0  0  0  0
   -3.3525   -2.4891    8.4434 C   0  0  0  0  0  0  0  0  0  0  0  0
   -0.6962   -2.2188    6.3381 C   0  0  0  0  0  0  0  0  0  0  0  0
   -0.3173   -2.5649    5.0409 C   0  0  0  0  0  0  0  0  0  0  0  0
    0.0874   -3.7582    2.4184 C   0  0  0  0  0  0  0  0  0  0  0  0
    1.3500   -3.6741    1.8072 C   0  0  0  0  0  0  0  0  0  0  0  0
    2.1170   -4.8282    1.6301 C   0  0  0  0  0  0  0  0  0  0  0  0
    1.6374   -6.0658    2.0733 C   0  0  0  0  0  0  0  0  0  0  0  0
    2.5935   -7.5567    1.8026 S   0  0  0  0  0  0  0  0  0  0  0  0
    1.7946   -7.9097    0.2074 C   0  0  0  0  0  0  0  0  0  0  0  0
    0.3908   -6.1480    2.7033 C   0  0  0  0  0  0  0  0  0  0  0  0
   -0.3776   -4.9975    2.8862 C   0  0  0  0  0  0  0  0  0  0  0  0
   -0.9207   -0.3981    1.3411 C   0  0  0  0  0  0  0  0  0  0  0  0
   -0.4076    0.8251    2.3767 S   0  0  0  0  0  0  0  0  0  0  0  0
   -0.4011    2.0519    1.1840 C   0  0  0  0  0  0  0  0  0  0  0  0
   -0.7369    1.4693   -0.0541 C   0  0  0  0  0  0  0  0  0  0  0  0
   -0.3447    2.0039   -1.3313 N   0  0  0  0  0  0  0  0  0  0  0  0
   -1.3205    2.5401   -2.2570 C   0  0  0  0  0  0  0  0  0  0  0  0
   -0.9065    3.4153   -3.2786 C   0  0  0  0  0  0  0  0  0  0  0  0
   -1.8262    3.9153   -4.2016 C   0  0  0  0  0  0  0  0  0  0  0  0
   -3.1709    3.5416   -4.1276 C   0  0  0  0  0  0  0  0  0  0  0  0
   -4.3422    4.1913   -5.3219 S   0  0  0  0  0  0  0  0  0  0  0  0
   -4.0690    2.8442   -6.5224 C   0  0  0  0  0  0  0  0  0  0  0  0
   -3.5952    2.6794   -3.1106 C   0  0  0  0  0  0  0  0  0  0  0  0
   -2.6774    2.1856   -2.1761 C   0  0  0  0  0  0  0  0  0  0  0  0
    0.9817    1.6695   -1.7975 C   0  0  0  0  0  0  0  0  0  0  0  0
    2.1163    2.2253   -1.1853 C   0  0  0  0  0  0  0  0  0  0  0  0
    3.3985    1.8385   -1.5945 C   0  0  0  0  0  0  0  0  0  0  0  0
    3.5525    0.8748   -2.5974 C   0  0  0  0  0  0  0  0  0  0  0  0
    5.1967    0.3198   -3.0484 S   0  0  0  0  0  0  0  0  0  0  0  0
    5.2549   -0.9444   -1.7391 C   0  0  0  0  0  0  0  0  0  0  0  0
    2.4278    0.3307   -3.2254 C   0  0  0  0  0  0  0  0  0  0  0  0
    1.1436    0.7338   -2.8339 C   0  0  0  0  0  0  0  0  0  0  0  0
   -1.0529    0.1253    0.0940 C   0  0  0  0  0  0  0  0  0  0  0  0
   -1.3484   -1.0797   -1.0106 S   0  0  0  0  0  0  0  0  0  0  0  0
    0.0465    3.4520    1.3700 C   0  0  0  0  0  0  0  0  0  0  0  0
    0.8747    3.9578    2.3931 C   0  0  0  0  0  0  0  0  0  0  0  0
    1.0739    3.3464    3.6809 N   0  0  0  0  0  0  0  0  0  0  0  0
    2.4305    3.2139    4.1503 C   0  0  0  0  0  0  0  0  0  0  0  0
    2.8215    3.7659    5.3806 C   0  0  0  0  0  0  0  0  0  0  0  0
    4.1522    3.6877    5.8033 C   0  0  0  0  0  0  0  0  0  0  0  0
    5.1156    3.0759    4.9897 C   0  0  0  0  0  0  0  0  0  0  0  0
    6.5373    2.9489    5.4689 C   0  0  0  0  0  0  0  0  0  0  0  0
    4.7296    2.5256    3.7594 C   0  0  0  0  0  0  0  0  0  0  0  0
    3.3964    2.5984    3.3410 C   0  0  0  0  0  0  0  0  0  0  0  0
   -0.0598    3.1604    4.5743 C   0  0  0  0  0  0  0  0  0  0  0  0
    0.0324    2.2893    5.6768 C   0  0  0  0  0  0  0  0  0  0  0  0
   -1.0518    2.1178    6.5403 C   0  0  0  0  0  0  0  0  0  0  0  0
   -2.2664    2.7628    6.2883 C   0  0  0  0  0  0  0  0  0  0  0  0
   -3.4209    2.5980    7.2281 C   0  0  0  0  0  0  0  0  0  0  0  0
   -2.3766    3.6133    5.1813 C   0  0  0  0  0  0  0  0  0  0  0  0
   -1.2838    3.8168    4.3376 C   0  0  0  0  0  0  0  0  0  0  0  0
    1.3133    5.2453    2.0927 C   0  0  0  0  0  0  0  0  0  0  0  0
    2.4580    6.2806    2.7445 S   0  0  0  0  0  0  0  0  0  0  0  0
    2.2797    7.4860    1.5430 C   0  0  0  0  0  0  0  0  0  0  0  0
    1.3029    7.0386    0.6294 C   0  0  0  0  0  0  0  0  0  0  0  0
    0.8914    7.7634   -0.5435 N   0  0  0  0  0  0  0  0  0  0  0  0
    1.1142    7.2045   -1.8601 C   0  0  0  0  0  0  0  0  0  0  0  0
    2.1488    6.2671   -2.0753 C   0  0  0  0  0  0  0  0  0  0  0  0
    2.3288    5.6779   -3.3272 C   0  0  0  0  0  0  0  0  0  0  0  0
    1.4799    6.0095   -4.3901 C   0  0  0  0  0  0  0  0  0  0  0  0
    1.6788    5.3681   -5.7313 C   0  0  0  0  0  0  0  0  0  0  0  0
    0.4774    6.9660   -4.2017 C   0  0  0  0  0  0  0  0  0  0  0  0
    0.2817    7.5447   -2.9447 C   0  0  0  0  0  0  0  0  0  0  0  0
    0.1051    8.9566   -0.3406 C   0  0  0  0  0  0  0  0  0  0  0  0
    0.4526   10.1613   -0.9752 C   0  0  0  0  0  0  0  0  0  0  0  0
   -0.3058   11.3159   -0.7567 C   0  0  0  0  0  0  0  0  0  0  0  0
   -1.4108   11.2839    0.1137 C   0  0  0  0  0  0  0  0  0  0  0  0
   -2.2264   12.5168    0.3655 C   0  0  0  0  0  0  0  0  0  0  0  0
   -1.7572   10.0799    0.7408 C   0  0  0  0  0  0  0  0  0  0  0  0
   -1.0021    8.9278    0.5238 C   0  0  0  0  0  0  0  0  0  0  0  0
    0.8087    5.7854    0.9629 C   0  0  0  0  0  0  0  0  0  0  0  0
   -0.1844    4.6818    0.2045 S   0  0  0  0  0  0  0  0  0  0  0  0
    3.2350    8.5714    1.2297 C   0  0  0  0  0  0  0  0  0  0  0  0
    4.3293    8.9012    1.9401 C   0  0  0  0  0  0  0  0  0  0  0  0
    4.5053    8.8299    3.4002 C   0  0  0  0  0  0  0  0  0  0  0  0
    3.6464    8.4376    4.2310 O   0  0  0  0  0  0  0  0  0  0  0  0
    5.7274    9.5389    3.7467 C   0  0  0  0  0  0  0  0  0  0  0  0
    6.2658    9.7874    5.0114 C   0  0  0  0  0  0  0  0  0  0  0  0
    5.5777    9.0340    6.4516 Cl  0  0  0  0  0  0  0  0  0  0  0  0
    7.3837   10.6427    5.1052 C   0  0  0  0  0  0  0  0  0  0  0  0
    8.1296   10.9287    6.6764 Cl  0  0  0  0  0  0  0  0  0  0  0  0
    7.8833   11.2934    3.9513 C   0  0  0  0  0  0  0  0  0  0  0  0
    9.1976   12.4683    4.1099 Cl  0  0  0  0  0  0  0  0  0  0  0  0
    7.2908   11.0597    2.6936 C   0  0  0  0  0  0  0  0  0  0  0  0
    7.6425   12.1563    1.3501 Cl  0  0  0  0  0  0  0  0  0  0  0  0
    6.2808   10.0814    2.5960 C   0  0  0  0  0  0  0  0  0  0  0  0
    5.5452    9.5819    1.4008 C   0  0  0  0  0  0  0  0  0  0  0  0
    6.1038    9.3010    0.1892 C   0  0  0  0  0  0  0  0  0  0  0  0
    5.3826    8.6168   -0.8585 C   0  0  0  0  0  0  0  0  0  0  0  0
    4.8161    8.0729   -1.7080 N   0  0  0  0  0  0  0  0  0  0  0  0
    7.5134    9.4712   -0.0646 C   0  0  0  0  0  0  0  0  0  0  0  0
    8.6424    9.6053   -0.2836 N   0  0  0  0  0  0  0  0  0  0  0  0
   -2.2205   -7.7750   -5.6103 H   0  0  0  0  0  0  0  0  0  0  0  0
    0.7605   -2.4893   -7.7810 H   0  0  0  0  0  0  0  0  0  0  0  0
    1.5027   -7.4201   -6.0117 H   0  0  0  0  0  0  0  0  0  0  0  0
    2.9504   -6.1926   -7.5728 H   0  0  0  0  0  0  0  0  0  0  0  0
    3.6826   -3.9359   -8.3644 H   0  0  0  0  0  0  0  0  0  0  0  0
    4.9664   -3.8637   -7.0922 H   0  0  0  0  0  0  0  0  0  0  0  0
    3.7342   -2.5483   -7.2219 H   0  0  0  0  0  0  0  0  0  0  0  0
    2.9006   -2.7868   -4.9258 H   0  0  0  0  0  0  0  0  0  0  0  0
    1.4974   -4.0322   -3.3482 H   0  0  0  0  0  0  0  0  0  0  0  0
   -1.0700   -8.4653   -2.5544 H   0  0  0  0  0  0  0  0  0  0  0  0
   -0.4640  -10.7208   -1.8835 H   0  0  0  0  0  0  0  0  0  0  0  0
    2.3502  -11.8564   -0.9257 H   0  0  0  0  0  0  0  0  0  0  0  0
    2.7959  -12.3247   -2.6206 H   0  0  0  0  0  0  0  0  0  0  0  0
    1.1172  -12.5904   -2.0284 H   0  0  0  0  0  0  0  0  0  0  0  0
    3.6294   -9.9793   -3.0022 H   0  0  0  0  0  0  0  0  0  0  0  0
    3.0465   -7.6982   -3.6519 H   0  0  0  0  0  0  0  0  0  0  0  0
   -5.6805   -5.8285   -0.4181 H   0  0  0  0  0  0  0  0  0  0  0  0
   -7.6528   -6.1875   -1.8452 H   0  0  0  0  0  0  0  0  0  0  0  0
   -9.2927   -5.2830   -3.3923 H   0  0  0  0  0  0  0  0  0  0  0  0
   -9.1082   -3.6150   -4.0282 H   0  0  0  0  0  0  0  0  0  0  0  0
   -8.2407   -4.9821   -4.8305 H   0  0  0  0  0  0  0  0  0  0  0  0
   -6.8079   -2.4982   -3.9224 H   0  0  0  0  0  0  0  0  0  0  0  0
   -4.8156   -2.1600   -2.4981 H   0  0  0  0  0  0  0  0  0  0  0  0
   -5.4431   -1.7615    0.5233 H   0  0  0  0  0  0  0  0  0  0  0  0
   -6.0558   -1.4464    2.8859 H   0  0  0  0  0  0  0  0  0  0  0  0
   -5.5313   -1.9338    5.2564 H   0  0  0  0  0  0  0  0  0  0  0  0
   -6.2674   -3.5864    5.2158 H   0  0  0  0  0  0  0  0  0  0  0  0
   -4.5334   -3.3655    5.6826 H   0  0  0  0  0  0  0  0  0  0  0  0
   -3.7945   -4.9566    3.9403 H   0  0  0  0  0  0  0  0  0  0  0  0
   -3.1975   -5.2862    1.5810 H   0  0  0  0  0  0  0  0  0  0  0  0
   -2.8357   -1.0254    3.3290 H   0  0  0  0  0  0  0  0  0  0  0  0
   -3.4593   -0.3759    5.6155 H   0  0  0  0  0  0  0  0  0  0  0  0
   -2.7937   -3.4131    8.1765 H   0  0  0  0  0  0  0  0  0  0  0  0
   -3.6694   -2.5601    9.5064 H   0  0  0  0  0  0  0  0  0  0  0  0
   -4.2594   -2.4016    7.8116 H   0  0  0  0  0  0  0  0  0  0  0  0
   -0.1088   -2.5646    7.1811 H   0  0  0  0  0  0  0  0  0  0  0  0
    0.5705   -3.1683    4.9168 H   0  0  0  0  0  0  0  0  0  0  0  0
    1.7227   -2.7215    1.4547 H   0  0  0  0  0  0  0  0  0  0  0  0
    3.0751   -4.7607    1.1338 H   0  0  0  0  0  0  0  0  0  0  0  0
    2.1219   -7.1646   -0.5478 H   0  0  0  0  0  0  0  0  0  0  0  0
    0.6868   -7.8760    0.3084 H   0  0  0  0  0  0  0  0  0  0  0  0
    2.0951   -8.9244   -0.1170 H   0  0  0  0  0  0  0  0  0  0  0  0
    0.0117   -7.1035    3.0412 H   0  0  0  0  0  0  0  0  0  0  0  0
   -1.3383   -5.0700    3.3810 H   0  0  0  0  0  0  0  0  0  0  0  0
    0.1317    3.7053   -3.3636 H   0  0  0  0  0  0  0  0  0  0  0  0
   -1.4897    4.5835   -4.9882 H   0  0  0  0  0  0  0  0  0  0  0  0
   -4.6141    3.0774   -7.4573 H   0  0  0  0  0  0  0  0  0  0  0  0
   -4.4511    1.8910   -6.1060 H   0  0  0  0  0  0  0  0  0  0  0  0
   -2.9890    2.7442   -6.7531 H   0  0  0  0  0  0  0  0  0  0  0  0
   -4.6373    2.3896   -3.0479 H   0  0  0  0  0  0  0  0  0  0  0  0
   -3.0378    1.5105   -1.4093 H   0  0  0  0  0  0  0  0  0  0  0  0
    2.0251    2.9476   -0.3886 H   0  0  0  0  0  0  0  0  0  0  0  0
    4.2648    2.2577   -1.1034 H   0  0  0  0  0  0  0  0  0  0  0  0
    5.1478   -0.4707   -0.7407 H   0  0  0  0  0  0  0  0  0  0  0  0
    6.2311   -1.4664   -1.7811 H   0  0  0  0  0  0  0  0  0  0  0  0
    4.4435   -1.6867   -1.8873 H   0  0  0  0  0  0  0  0  0  0  0  0
    2.5426   -0.4193   -3.9994 H   0  0  0  0  0  0  0  0  0  0  0  0
    0.2795    0.2860   -3.3057 H   0  0  0  0  0  0  0  0  0  0  0  0
    2.0981    4.2689    6.0100 H   0  0  0  0  0  0  0  0  0  0  0  0
    4.4322    4.1077    6.7617 H   0  0  0  0  0  0  0  0  0  0  0  0
    6.8342    3.8422    6.0604 H   0  0  0  0  0  0  0  0  0  0  0  0
    6.6337    2.0482    6.1061 H   0  0  0  0  0  0  0  0  0  0  0  0
    7.2405    2.8578    4.6136 H   0  0  0  0  0  0  0  0  0  0  0  0
    5.4587    2.0343    3.1231 H   0  0  0  0  0  0  0  0  0  0  0  0
    3.1175    2.1697    2.3830 H   0  0  0  0  0  0  0  0  0  0  0  0
    0.9462    1.7413    5.8728 H   0  0  0  0  0  0  0  0  0  0  0  0
   -0.9413    1.4722    7.4055 H   0  0  0  0  0  0  0  0  0  0  0  0
   -3.5439    1.5267    7.4942 H   0  0  0  0  0  0  0  0  0  0  0  0
   -4.3719    2.9450    6.7692 H   0  0  0  0  0  0  0  0  0  0  0  0
   -3.2341    3.1882    8.1522 H   0  0  0  0  0  0  0  0  0  0  0  0
   -3.3076    4.1256    4.9740 H   0  0  0  0  0  0  0  0  0  0  0  0
   -1.4052    4.4972    3.5027 H   0  0  0  0  0  0  0  0  0  0  0  0
    2.8106    5.9769   -1.2684 H   0  0  0  0  0  0  0  0  0  0  0  0
    3.1225    4.9555   -3.4669 H   0  0  0  0  0  0  0  0  0  0  0  0
    1.9008    4.2860   -5.6047 H   0  0  0  0  0  0  0  0  0  0  0  0
    0.7662    5.4581   -6.3569 H   0  0  0  0  0  0  0  0  0  0  0  0
    2.5272    5.8564   -6.2523 H   0  0  0  0  0  0  0  0  0  0  0  0
   -0.1814    7.2345   -5.0173 H   0  0  0  0  0  0  0  0  0  0  0  0
   -0.5318    8.2466   -2.8185 H   0  0  0  0  0  0  0  0  0  0  0  0
    1.3124   10.2012   -1.6312 H   0  0  0  0  0  0  0  0  0  0  0  0
   -0.0280   12.2351   -1.2591 H   0  0  0  0  0  0  0  0  0  0  0  0
   -3.2575   12.3636   -0.0214 H   0  0  0  0  0  0  0  0  0  0  0  0
   -2.2773   12.7073    1.4582 H   0  0  0  0  0  0  0  0  0  0  0  0
   -1.7877   13.4092   -0.1261 H   0  0  0  0  0  0  0  0  0  0  0  0
   -2.6150   10.0371    1.4040 H   0  0  0  0  0  0  0  0  0  0  0  0
   -1.2867    8.0086    1.0180 H   0  0  0  0  0  0  0  0  0  0  0  0
    3.1369    8.9964    0.2431 H   0  0  0  0  0  0  0  0  0  0  0  0
  1  2  2  3
  2  3  1  0
  3  4  2  0
  3  5  1  0
  5  6  1  0
  6  7  2  0
  7  8  1  0
  7  9  1  0
  9 10  1  0
 10 11  1  0
 11 12  2  3
 12 13  1  0
 13 14  3  0
 12 15  1  0
 15 16  3  0
  1 17  1  0
 17 18  2  0
 18 19  1  0
 19 20  1  0
 20 21  2  0
 21 22  1  0
 22 23  2  0
 23 24  1  0
 23 25  1  0
 25 26  2  0
 19 27  1  0
 27 28  2  0
 28 29  1  0
 29 30  2  0
 30 31  1  0
 30 32  1  0
 32 33  2  0
 18 34  1  0
 34 35  1  0
 35 36  1  0
 36 37  2  0
 37 38  1  0
 38 39  1  0
 39 40  2  0
 40 41  1  0
 41 42  2  0
 42 43  1  0
 42 44  1  0
 44 45  2  0
 38 46  1  0
 46 47  2  0
 47 48  1  0
 48 49  2  0
 49 50  1  0
 49 51  1  0
 51 52  2  0
 37 53  1  0
 53 54  1  0
 36 55  1  0
 55 56  2  0
 56 57  1  0
 57 58  1  0
 58 59  2  0
 59 60  1  0
 60 61  2  0
 61 62  1  0
 62 63  1  0
 61 64  1  0
 64 65  2  0
 57 66  1  0
 66 67  2  0
 67 68  1  0
 68 69  2  0
 69 70  1  0
 70 71  1  0
 69 72  1  0
 72 73  2  0
 56 74  1  0
 74 75  1  0
 75 76  1  0
 76 77  2  0
 77 78  1  0
 78 79  1  0
 79 80  2  0
 80 81  1  0
 81 82  2  0
 82 83  1  0
 83 84  1  0
 82 85  1  0
 85 86  2  0
 78 87  1  0
 87 88  2  0
 88 89  1  0
 89 90  2  0
 90 91  1  0
 91 92  1  0
 90 93  1  0
 93 94  2  0
 77 95  1  0
 95 96  1  0
 76 97  1  0
 97 98  2  0
 98 99  1  0
 99100  1  0
100101  2  0
101102  1  0
102103  2  0
103104  1  0
103105  1  0
105106  2  0
 99107  1  0
107108  2  0
108109  1  0
109110  2  0
110111  1  0
110112  1  0
112113  2  0
 98114  1  0
114115  1  0
115116  1  0
116117  2  0
117118  1  0
118119  1  0
119120  2  0
120121  1  0
121122  2  0
122123  1  0
122124  1  0
124125  2  0
118126  1  0
126127  2  0
127128  1  0
128129  2  0
129130  1  0
129131  1  0
131132  2  0
117133  1  0
133134  1  0
116135  1  0
135136  2  3
136137  1  0
137138  2  0
137139  1  0
139140  2  0
140141  1  0
140142  1  0
142143  1  0
142144  2  0
144145  1  0
144146  1  0
146147  1  0
146148  2  0
148149  1  0
149150  2  3
150151  1  0
151152  3  0
150153  1  0
153154  3  0
 11  2  1  0
 54 17  1  0
 96 55  1  0
134 97  1  0
149136  1  0
 10  5  2  0
 26 20  1  0
 33 27  1  0
 53 34  2  0
 65 58  1  0
 73 66  1  0
 95 74  2  0
106100  1  0
113107  1  0
133114  2  0
148139  1  0
 45 39  1  0
 52 46  1  0
 86 79  1  0
 94 87  1  0
125119  1  0
132126  1  0
  1155  1  0
  6156  1  0
 21157  1  0
 22158  1  0
 24159  1  0
 24160  1  0
 24161  1  0
 25162  1  0
 26163  1  0
 28164  1  0
 29165  1  0
 31166  1  0
 31167  1  0
 31168  1  0
 32169  1  0
 33170  1  0
 40171  1  0
 41172  1  0
 43173  1  0
 43174  1  0
 43175  1  0
 44176  1  0
 45177  1  0
 47178  1  0
 48179  1  0
 50180  1  0
 50181  1  0
 50182  1  0
 51183  1  0
 52184  1  0
 59185  1  0
 60186  1  0
 63187  1  0
 63188  1  0
 63189  1  0
 64190  1  0
 65191  1  0
 67192  1  0
 68193  1  0
 71194  1  0
 71195  1  0
 71196  1  0
 72197  1  0
 73198  1  0
 80199  1  0
 81200  1  0
 84201  1  0
 84202  1  0
 84203  1  0
 85204  1  0
 86205  1  0
 88206  1  0
 89207  1  0
 92208  1  0
 92209  1  0
 92210  1  0
 93211  1  0
 94212  1  0
101213  1  0
102214  1  0
104215  1  0
104216  1  0
104217  1  0
105218  1  0
106219  1  0
108220  1  0
109221  1  0
111222  1  0
111223  1  0
111224  1  0
112225  1  0
113226  1  0
120227  1  0
121228  1  0
123229  1  0
123230  1  0
123231  1  0
124232  1  0
125233  1  0
127234  1  0
128235  1  0
130236  1  0
130237  1  0
130238  1  0
131239  1  0
132240  1  0
135241  1  0
M  END

