
     RDKit          3D

209228  0  0  0  0  0  0  0  0999 V2000
   -8.1650    1.1253   -4.6416 C   0  0  0  0  0  0  0  0  0  0  0  0
   -7.5411    2.3143   -4.5015 C   0  0  0  0  0  0  0  0  0  0  0  0
   -6.1577    2.5321   -3.9998 C   0  0  0  0  0  0  0  0  0  0  0  0
   -5.2141    1.6964   -3.9763 O   0  0  0  0  0  0  0  0  0  0  0  0
   -6.0399    3.9185   -3.6294 C   0  0  0  0  0  0  0  0  0  0  0  0
   -4.9103    4.7323   -3.5206 C   0  0  0  0  0  0  0  0  0  0  0  0
   -5.2660    6.0691   -3.6324 C   0  0  0  0  0  0  0  0  0  0  0  0
   -4.1434    7.4147   -3.5844 Cl  0  0  0  0  0  0  0  0  0  0  0  0
   -6.9268    6.1970   -3.9851 S   0  0  0  0  0  0  0  0  0  0  0  0
   -7.2322    4.5495   -3.8576 C   0  0  0  0  0  0  0  0  0  0  0  0
   -8.2117    3.6414   -4.4978 C   0  0  0  0  0  0  0  0  0  0  0  0
   -9.2719    4.0278   -5.2330 C   0  0  0  0  0  0  0  0  0  0  0  0
   -9.8521    5.3325   -5.0535 C   0  0  0  0  0  0  0  0  0  0  0  0
  -10.3060    6.3863   -4.8936 N   0  0  0  0  0  0  0  0  0  0  0  0
   -9.5917    3.3185   -6.4512 C   0  0  0  0  0  0  0  0  0  0  0  0
   -9.7352    2.8494   -7.4943 N   0  0  0  0  0  0  0  0  0  0  0  0
   -7.5478   -0.1412   -4.2346 C   0  0  0  0  0  0  0  0  0  0  0  0
   -7.5776   -0.6189   -2.9285 C   0  0  0  0  0  0  0  0  0  0  0  0
   -6.5375   -1.5218   -2.6562 C   0  0  0  0  0  0  0  0  0  0  0  0
   -6.2069   -2.0433   -1.3910 C   0  0  0  0  0  0  0  0  0  0  0  0
   -7.1336   -1.9631   -0.2457 C   0  0  0  0  0  0  0  0  0  0  0  0
   -7.2181   -0.8074    0.5395 C   0  0  0  0  0  0  0  0  0  0  0  0
   -8.0799   -0.7603    1.6405 C   0  0  0  0  0  0  0  0  0  0  0  0
   -8.8576   -1.8738    1.9676 C   0  0  0  0  0  0  0  0  0  0  0  0
   -8.7885   -3.0283    1.1838 C   0  0  0  0  0  0  0  0  0  0  0  0
   -9.8221   -4.4444    1.5812 S   0  0  0  0  0  0  0  0  0  0  0  0
   -8.6391   -5.2105    2.7479 C   0  0  0  0  0  0  0  0  0  0  0  0
   -7.5565   -5.9786    2.0011 C   0  0  0  0  0  0  0  0  0  0  0  0
   -7.9296   -3.0749    0.0762 C   0  0  0  0  0  0  0  0  0  0  0  0
   -4.9607   -2.6720   -1.2805 C   0  0  0  0  0  0  0  0  0  0  0  0
   -4.1337   -2.8991   -2.3810 C   0  0  0  0  0  0  0  0  0  0  0  0
   -4.5422   -2.5303   -3.6834 C   0  0  0  0  0  0  0  0  0  0  0  0
   -3.8171   -2.9945   -4.8871 C   0  0  0  0  0  0  0  0  0  0  0  0
   -3.5933   -4.3710   -5.0466 C   0  0  0  0  0  0  0  0  0  0  0  0
   -3.0043   -4.8702   -6.2193 C   0  0  0  0  0  0  0  0  0  0  0  0
   -2.6482   -3.9975   -7.2467 C   0  0  0  0  0  0  0  0  0  0  0  0
   -2.8358   -2.6160   -7.0922 C   0  0  0  0  0  0  0  0  0  0  0  0
   -2.4382   -1.5274   -8.4652 S   0  0  0  0  0  0  0  0  0  0  0  0
   -0.6415   -1.5785   -8.1688 C   0  0  0  0  0  0  0  0  0  0  0  0
    0.1093   -0.7976   -9.2337 C   0  0  0  0  0  0  0  0  0  0  0  0
   -3.4032   -2.1162   -5.9054 C   0  0  0  0  0  0  0  0  0  0  0  0
   -5.7272   -1.7796   -3.7736 C   0  0  0  0  0  0  0  0  0  0  0  0
   -6.3089   -0.9019   -5.0876 S   0  0  0  0  0  0  0  0  0  0  0  0
   -2.8463   -3.3224   -2.0318 C   0  0  0  0  0  0  0  0  0  0  0  0
   -2.6390   -3.3742   -0.6565 C   0  0  0  0  0  0  0  0  0  0  0  0
   -4.0796   -2.9651    0.1224 S   0  0  0  0  0  0  0  0  0  0  0  0
   -1.3210   -3.0233   -0.0875 C   0  0  0  0  0  0  0  0  0  0  0  0
   -0.6950   -1.7940   -0.3371 C   0  0  0  0  0  0  0  0  0  0  0  0
   -1.3577   -0.6379   -0.8624 N   0  0  0  0  0  0  0  0  0  0  0  0
   -0.9828   -0.0716   -2.1497 C   0  0  0  0  0  0  0  0  0  0  0  0
   -1.2013    1.2942   -2.4286 C   0  0  0  0  0  0  0  0  0  0  0  0
   -0.9910    1.8099   -3.7080 C   0  0  0  0  0  0  0  0  0  0  0  0
   -0.4406    1.0007   -4.7053 C   0  0  0  0  0  0  0  0  0  0  0  0
   -0.1974    1.6880   -6.3532 S   0  0  0  0  0  0  0  0  0  0  0  0
    1.2944    2.6522   -5.9430 C   0  0  0  0  0  0  0  0  0  0  0  0
   -0.1132   -0.3268   -4.4166 C   0  0  0  0  0  0  0  0  0  0  0  0
   -0.4195   -0.8739   -3.1638 C   0  0  0  0  0  0  0  0  0  0  0  0
   -2.3410    0.0345   -0.0376 C   0  0  0  0  0  0  0  0  0  0  0  0
   -3.5396    0.5089   -0.6094 C   0  0  0  0  0  0  0  0  0  0  0  0
   -4.3841    1.3449    0.1286 C   0  0  0  0  0  0  0  0  0  0  0  0
   -4.0613    1.6622    1.4563 C   0  0  0  0  0  0  0  0  0  0  0  0
   -5.1588    2.7132    2.4068 S   0  0  0  0  0  0  0  0  0  0  0  0
   -4.4391    4.2513    1.7630 C   0  0  0  0  0  0  0  0  0  0  0  0
   -2.9156    1.1223    2.0497 C   0  0  0  0  0  0  0  0  0  0  0  0
   -2.0565    0.3092    1.3084 C   0  0  0  0  0  0  0  0  0  0  0  0
    0.5658   -1.7542    0.2421 C   0  0  0  0  0  0  0  0  0  0  0  0
    1.7191   -0.5565    0.4055 S   0  0  0  0  0  0  0  0  0  0  0  0
    2.7408   -1.4759    1.4050 C   0  0  0  0  0  0  0  0  0  0  0  0
    2.1692   -2.7422    1.6179 C   0  0  0  0  0  0  0  0  0  0  0  0
    2.6896   -3.7174    2.5367 N   0  0  0  0  0  0  0  0  0  0  0  0
    3.3111   -4.9328    2.0621 C   0  0  0  0  0  0  0  0  0  0  0  0
    3.1535   -6.1366    2.7759 C   0  0  0  0  0  0  0  0  0  0  0  0
    3.8035   -7.3016    2.3519 C   0  0  0  0  0  0  0  0  0  0  0  0
    4.6316   -7.2742    1.2244 C   0  0  0  0  0  0  0  0  0  0  0  0
    5.5081   -8.7483    0.7123 S   0  0  0  0  0  0  0  0  0  0  0  0
    6.9747   -8.3849    1.7247 C   0  0  0  0  0  0  0  0  0  0  0  0
    4.7722   -6.0840    0.4932 C   0  0  0  0  0  0  0  0  0  0  0  0
    4.1143   -4.9178    0.9095 C   0  0  0  0  0  0  0  0  0  0  0  0
    2.6123   -3.4417    3.9568 C   0  0  0  0  0  0  0  0  0  0  0  0
    1.4152   -2.9584    4.5146 C   0  0  0  0  0  0  0  0  0  0  0  0
    1.3166   -2.7166    5.8860 C   0  0  0  0  0  0  0  0  0  0  0  0
    2.4219   -2.9362    6.7128 C   0  0  0  0  0  0  0  0  0  0  0  0
    2.3053   -2.5865    8.4708 S   0  0  0  0  0  0  0  0  0  0  0  0
    1.7581   -4.2632    8.9179 C   0  0  0  0  0  0  0  0  0  0  0  0
    3.6213   -3.4094    6.1658 C   0  0  0  0  0  0  0  0  0  0  0  0
    3.7151   -3.6561    4.7999 C   0  0  0  0  0  0  0  0  0  0  0  0
    0.9418   -2.8587    0.9347 C   0  0  0  0  0  0  0  0  0  0  0  0
   -0.2912   -4.0010    0.8709 S   0  0  0  0  0  0  0  0  0  0  0  0
    4.0905   -0.9965    1.7636 C   0  0  0  0  0  0  0  0  0  0  0  0
    4.8472   -0.3821    0.7689 C   0  0  0  0  0  0  0  0  0  0  0  0
    5.4343    0.8263    1.1577 C   0  0  0  0  0  0  0  0  0  0  0  0
    5.8255    1.8718    0.2856 C   0  0  0  0  0  0  0  0  0  0  0  0
    5.8373    1.7130   -1.1906 C   0  0  0  0  0  0  0  0  0  0  0  0
    7.0181    1.9420   -1.9084 C   0  0  0  0  0  0  0  0  0  0  0  0
    7.0674    1.7032   -3.2912 C   0  0  0  0  0  0  0  0  0  0  0  0
    5.9349    1.2375   -3.9594 C   0  0  0  0  0  0  0  0  0  0  0  0
    4.7394    1.0255   -3.2513 C   0  0  0  0  0  0  0  0  0  0  0  0
    3.2972    0.4083   -4.1150 S   0  0  0  0  0  0  0  0  0  0  0  0
    3.7833   -1.3576   -4.1088 C   0  0  0  0  0  0  0  0  0  0  0  0
    3.2033   -2.0888   -2.9042 C   0  0  0  0  0  0  0  0  0  0  0  0
    4.6873    1.2936   -1.8828 C   0  0  0  0  0  0  0  0  0  0  0  0
    6.1133    3.1102    0.8726 C   0  0  0  0  0  0  0  0  0  0  0  0
    6.1372    3.2995    2.2549 C   0  0  0  0  0  0  0  0  0  0  0  0
    5.7830    2.2484    3.1227 C   0  0  0  0  0  0  0  0  0  0  0  0
    5.8831    2.4133    4.5860 C   0  0  0  0  0  0  0  0  0  0  0  0
    4.8340    2.9773    5.3188 C   0  0  0  0  0  0  0  0  0  0  0  0
    5.0268    3.3310    6.6569 C   0  0  0  0  0  0  0  0  0  0  0  0
    6.2776    3.1593    7.2578 C   0  0  0  0  0  0  0  0  0  0  0  0
    7.3412    2.6260    6.5209 C   0  0  0  0  0  0  0  0  0  0  0  0
    8.9773    2.4845    7.2551 S   0  0  0  0  0  0  0  0  0  0  0  0
    9.5176    4.1679    6.7849 C   0  0  0  0  0  0  0  0  0  0  0  0
   10.1946    4.1563    5.4144 C   0  0  0  0  0  0  0  0  0  0  0  0
    7.1379    2.2343    5.1911 C   0  0  0  0  0  0  0  0  0  0  0  0
    5.3484    1.0461    2.5279 C   0  0  0  0  0  0  0  0  0  0  0  0
    4.3853   -0.1591    3.2053 S   0  0  0  0  0  0  0  0  0  0  0  0
    6.2520    4.6565    2.6336 C   0  0  0  0  0  0  0  0  0  0  0  0
    6.1601    5.5332    1.5550 C   0  0  0  0  0  0  0  0  0  0  0  0
    6.1182    4.6307    0.1289 S   0  0  0  0  0  0  0  0  0  0  0  0
    5.6391    6.9098    1.6628 C   0  0  0  0  0  0  0  0  0  0  0  0
    4.4272    7.1960    2.2171 C   0  0  0  0  0  0  0  0  0  0  0  0
    3.4787    6.1979    2.7466 C   0  0  0  0  0  0  0  0  0  0  0  0
    3.5181    4.9611    2.5263 O   0  0  0  0  0  0  0  0  0  0  0  0
    2.3636    6.8775    3.3634 C   0  0  0  0  0  0  0  0  0  0  0  0
    1.2585    6.3027    3.9923 C   0  0  0  0  0  0  0  0  0  0  0  0
    1.2050    4.5642    4.3214 Cl  0  0  0  0  0  0  0  0  0  0  0  0
    0.1803    7.1287    4.3492 C   0  0  0  0  0  0  0  0  0  0  0  0
   -1.2061    6.4538    5.1637 Cl  0  0  0  0  0  0  0  0  0  0  0  0
    0.1936    8.4903    3.9693 C   0  0  0  0  0  0  0  0  0  0  0  0
   -1.2138    9.4952    4.2993 Cl  0  0  0  0  0  0  0  0  0  0  0  0
    1.3121    9.0425    3.2916 C   0  0  0  0  0  0  0  0  0  0  0  0
    1.0787   10.5626    2.4152 Cl  0  0  0  0  0  0  0  0  0  0  0  0
    2.4702    8.2382    3.1177 C   0  0  0  0  0  0  0  0  0  0  0  0
    3.7975    8.5411    2.4767 C   0  0  0  0  0  0  0  0  0  0  0  0
    4.3868    9.7538    2.4140 C   0  0  0  0  0  0  0  0  0  0  0  0
    5.5757   10.0301    1.6515 C   0  0  0  0  0  0  0  0  0  0  0  0
    6.5309   10.2643    1.0420 N   0  0  0  0  0  0  0  0  0  0  0  0
    3.9517   10.8339    3.2654 C   0  0  0  0  0  0  0  0  0  0  0  0
    3.5975   11.7131    3.9358 N   0  0  0  0  0  0  0  0  0  0  0  0
   -9.2309    1.0924   -4.8362 H   0  0  0  0  0  0  0  0  0  0  0  0
   -3.8920    4.3673   -3.5024 H   0  0  0  0  0  0  0  0  0  0  0  0
   -8.2463   -0.2216   -2.1658 H   0  0  0  0  0  0  0  0  0  0  0  0
   -6.6304    0.0585    0.2987 H   0  0  0  0  0  0  0  0  0  0  0  0
   -8.1311    0.1391    2.2498 H   0  0  0  0  0  0  0  0  0  0  0  0
   -9.5116   -1.8323    2.8270 H   0  0  0  0  0  0  0  0  0  0  0  0
   -9.1991   -5.9258    3.3904 H   0  0  0  0  0  0  0  0  0  0  0  0
   -8.1934   -4.4392    3.4074 H   0  0  0  0  0  0  0  0  0  0  0  0
   -6.8912   -5.2794    1.4511 H   0  0  0  0  0  0  0  0  0  0  0  0
   -8.0121   -6.6974    1.2885 H   0  0  0  0  0  0  0  0  0  0  0  0
   -6.9386   -6.5485    2.7272 H   0  0  0  0  0  0  0  0  0  0  0  0
   -7.8838   -3.9653   -0.5297 H   0  0  0  0  0  0  0  0  0  0  0  0
   -3.8937   -5.0756   -4.2797 H   0  0  0  0  0  0  0  0  0  0  0  0
   -2.8626   -5.9384   -6.3361 H   0  0  0  0  0  0  0  0  0  0  0  0
   -2.2174   -4.3995   -8.1547 H   0  0  0  0  0  0  0  0  0  0  0  0
   -0.2842   -2.6295   -8.1783 H   0  0  0  0  0  0  0  0  0  0  0  0
   -0.4325   -1.1371   -7.1785 H   0  0  0  0  0  0  0  0  0  0  0  0
   -0.1899    0.2721   -9.2117 H   0  0  0  0  0  0  0  0  0  0  0  0
    1.2035   -0.8641   -9.0504 H   0  0  0  0  0  0  0  0  0  0  0  0
   -0.1079   -1.2186  -10.2405 H   0  0  0  0  0  0  0  0  0  0  0  0
   -3.5512   -1.0545   -5.8015 H   0  0  0  0  0  0  0  0  0  0  0  0
   -2.0435   -3.4164   -2.7543 H   0  0  0  0  0  0  0  0  0  0  0  0
   -1.5492    1.9817   -1.6611 H   0  0  0  0  0  0  0  0  0  0  0  0
   -1.2402    2.8431   -3.9073 H   0  0  0  0  0  0  0  0  0  0  0  0
    2.1937    2.1249   -6.3145 H   0  0  0  0  0  0  0  0  0  0  0  0
    1.3819    2.8423   -4.8566 H   0  0  0  0  0  0  0  0  0  0  0  0
    1.2341    3.6359   -6.4461 H   0  0  0  0  0  0  0  0  0  0  0  0
    0.3733   -0.9572   -5.1484 H   0  0  0  0  0  0  0  0  0  0  0  0
   -0.2287   -1.9237   -2.9805 H   0  0  0  0  0  0  0  0  0  0  0  0
   -3.7867    0.2804   -1.6448 H   0  0  0  0  0  0  0  0  0  0  0  0
   -5.2671    1.7668   -0.3410 H   0  0  0  0  0  0  0  0  0  0  0  0
   -4.7303    4.3841    0.7011 H   0  0  0  0  0  0  0  0  0  0  0  0
   -4.8237    5.0982    2.3528 H   0  0  0  0  0  0  0  0  0  0  0  0
   -3.3325    4.2340    1.8394 H   0  0  0  0  0  0  0  0  0  0  0  0
   -2.6840    1.3413    3.0838 H   0  0  0  0  0  0  0  0  0  0  0  0
   -1.1471   -0.0409    1.7650 H   0  0  0  0  0  0  0  0  0  0  0  0
    2.5254   -6.1792    3.6576 H   0  0  0  0  0  0  0  0  0  0  0  0
    3.6794   -8.2217    2.9135 H   0  0  0  0  0  0  0  0  0  0  0  0
    6.6970   -8.3567    2.8005 H   0  0  0  0  0  0  0  0  0  0  0  0
    7.4092   -7.4058    1.4243 H   0  0  0  0  0  0  0  0  0  0  0  0
    7.7309   -9.1756    1.5671 H   0  0  0  0  0  0  0  0  0  0  0  0
    5.4052   -6.0544   -0.3816 H   0  0  0  0  0  0  0  0  0  0  0  0
    4.2607   -4.0069    0.3483 H   0  0  0  0  0  0  0  0  0  0  0  0
    0.5443   -2.8003    3.8909 H   0  0  0  0  0  0  0  0  0  0  0  0
    0.3872   -2.3550    6.3047 H   0  0  0  0  0  0  0  0  0  0  0  0
    2.6198   -4.9691    8.8605 H   0  0  0  0  0  0  0  0  0  0  0  0
    1.3666   -4.2527    9.9627 H   0  0  0  0  0  0  0  0  0  0  0  0
    0.9457   -4.6094    8.2395 H   0  0  0  0  0  0  0  0  0  0  0  0
    4.4864   -3.5822    6.8006 H   0  0  0  0  0  0  0  0  0  0  0  0
    4.6495   -4.0151    4.3876 H   0  0  0  0  0  0  0  0  0  0  0  0
    4.7614   -0.6924   -0.2544 H   0  0  0  0  0  0  0  0  0  0  0  0
    7.9190    2.2765   -1.4027 H   0  0  0  0  0  0  0  0  0  0  0  0
    7.9951    1.8538   -3.8357 H   0  0  0  0  0  0  0  0  0  0  0  0
    5.9806    1.0389   -5.0198 H   0  0  0  0  0  0  0  0  0  0  0  0
    4.8894   -1.4700   -4.1100 H   0  0  0  0  0  0  0  0  0  0  0  0
    3.3932   -1.8214   -5.0320 H   0  0  0  0  0  0  0  0  0  0  0  0
    3.4241   -3.1709   -2.9819 H   0  0  0  0  0  0  0  0  0  0  0  0
    2.1039   -1.9519   -2.8753 H   0  0  0  0  0  0  0  0  0  0  0  0
    3.6439   -1.6978   -1.9712 H   0  0  0  0  0  0  0  0  0  0  0  0
    3.7562    1.1498   -1.3522 H   0  0  0  0  0  0  0  0  0  0  0  0
    3.8852    3.1694    4.8448 H   0  0  0  0  0  0  0  0  0  0  0  0
    4.2191    3.7772    7.2210 H   0  0  0  0  0  0  0  0  0  0  0  0
    6.4328    3.4692    8.2799 H   0  0  0  0  0  0  0  0  0  0  0  0
    8.6612    4.8764    6.7827 H   0  0  0  0  0  0  0  0  0  0  0  0
   10.2363    4.5240    7.5441 H   0  0  0  0  0  0  0  0  0  0  0  0
   10.3377    5.2015    5.0605 H   0  0  0  0  0  0  0  0  0  0  0  0
    9.5719    3.6213    4.6698 H   0  0  0  0  0  0  0  0  0  0  0  0
   11.1829    3.6615    5.4784 H   0  0  0  0  0  0  0  0  0  0  0  0
    7.9650    1.8370    4.6165 H   0  0  0  0  0  0  0  0  0  0  0  0
    6.1595    4.9935    3.6513 H   0  0  0  0  0  0  0  0  0  0  0  0
    6.2547    7.6710    1.2505 H   0  0  0  0  0  0  0  0  0  0  0  0
  1  2  2  3
  2  3  1  0
  3  4  2  0
  3  5  1  0
  5  6  1  0
  6  7  2  0
  7  8  1  0
  7  9  1  0
  9 10  1  0
 10 11  1  0
 11 12  2  3
 12 13  1  0
 13 14  3  0
 12 15  1  0
 15 16  3  0
  1 17  1  0
 17 18  2  0
 18 19  1  0
 19 20  2  0
 20 21  1  0
 21 22  2  0
 22 23  1  0
 23 24  2  0
 24 25  1  0
 25 26  1  0
 26 27  1  0
 27 28  1  0
 25 29  2  0
 20 30  1  0
 30 31  2  0
 31 32  1  0
 32 33  1  0
 33 34  2  0
 34 35  1  0
 35 36  2  0
 36 37  1  0
 37 38  1  0
 38 39  1  0
 39 40  1  0
 37 41  2  0
 32 42  2  0
 42 43  1  0
 31 44  1  0
 44 45  2  0
 45 46  1  0
 45 47  1  0
 47 48  2  0
 48 49  1  0
 49 50  1  0
 50 51  2  0
 51 52  1  0
 52 53  2  0
 53 54  1  0
 54 55  1  0
 53 56  1  0
 56 57  2  0
 49 58  1  0
 58 59  2  0
 59 60  1  0
 60 61  2  0
 61 62  1  0
 62 63  1  0
 61 64  1  0
 64 65  2  0
 48 66  1  0
 66 67  1  0
 67 68  1  0
 68 69  2  0
 69 70  1  0
 70 71  1  0
 71 72  2  0
 72 73  1  0
 73 74  2  0
 74 75  1  0
 75 76  1  0
 74 77  1  0
 77 78  2  0
 70 79  1  0
 79 80  2  0
 80 81  1  0
 81 82  2  0
 82 83  1  0
 83 84  1  0
 82 85  1  0
 85 86  2  0
 69 87  1  0
 87 88  1  0
 68 89  1  0
 89 90  2  0
 90 91  1  0
 91 92  2  0
 92 93  1  0
 93 94  2  0
 94 95  1  0
 95 96  2  0
 96 97  1  0
 97 98  1  0
 98 99  1  0
 99100  1  0
 97101  2  0
 92102  1  0
102103  2  0
103104  1  0
104105  1  0
105106  2  0
106107  1  0
107108  2  0
108109  1  0
109110  1  0
110111  1  0
111112  1  0
109113  2  0
104114  2  0
114115  1  0
103116  1  0
116117  2  0
117118  1  0
117119  1  0
119120  2  3
120121  1  0
121122  2  0
121123  1  0
123124  2  0
124125  1  0
124126  1  0
126127  1  0
126128  2  0
128129  1  0
128130  1  0
130131  1  0
130132  2  0
132133  1  0
133134  2  3
134135  1  0
135136  3  0
134137  1  0
137138  3  0
 11  2  1  0
 43 17  1  0
 88 47  1  0
115 89  1  0
133120  1  0
 10  5  2  0
 42 19  1  0
 57 50  1  0
 65 58  1  0
 87 66  2  0
114 91  1  0
132123  1  0
 29 21  1  0
 46 30  1  0
 78 71  1  0
 86 79  1  0
101 93  1  0
118102  1  0
 41 33  1  0
113105  1  0
  1139  1  0
  6140  1  0
 18141  1  0
 22142  1  0
 23143  1  0
 24144  1  0
 27145  1  0
 27146  1  0
 28147  1  0
 28148  1  0
 28149  1  0
 29150  1  0
 34151  1  0
 35152  1  0
 36153  1  0
 39154  1  0
 39155  1  0
 40156  1  0
 40157  1  0
 40158  1  0
 41159  1  0
 44160  1  0
 51161  1  0
 52162  1  0
 55163  1  0
 55164  1  0
 55165  1  0
 56166  1  0
 57167  1  0
 59168  1  0
 60169  1  0
 63170  1  0
 63171  1  0
 63172  1  0
 64173  1  0
 65174  1  0
 72175  1  0
 73176  1  0
 76177  1  0
 76178  1  0
 76179  1  0
 77180  1  0
 78181  1  0
 80182  1  0
 81183  1  0
 84184  1  0
 84185  1  0
 84186  1  0
 85187  1  0
 86188  1  0
 90189  1  0
 94190  1  0
 95191  1  0
 96192  1  0
 99193  1  0
 99194  1  0
100195  1  0
100196  1  0
100197  1  0
101198  1  0
106199  1  0
107200  1  0
108201  1  0
111202  1  0
111203  1  0
112204  1  0
112205  1  0
112206  1  0
113207  1  0
116208  1  0
119209  1  0
M  END

