
     RDKit          3D

170185  0  0  0  0  0  0  0  0999 V2000
    6.0643    3.5694    3.1267 C   0  0  0  0  0  0  0  0  0  0  0  0
    5.8883    4.9031    3.0635 C   0  0  0  0  0  0  0  0  0  0  0  0
    4.8876    5.6039    2.2173 C   0  0  0  0  0  0  0  0  0  0  0  0
    3.9407    5.0876    1.5662 O   0  0  0  0  0  0  0  0  0  0  0  0
    5.2486    7.0031    2.1917 C   0  0  0  0  0  0  0  0  0  0  0  0
    4.7231    8.1456    1.5921 C   0  0  0  0  0  0  0  0  0  0  0  0
    5.4803    9.2710    1.9371 C   0  0  0  0  0  0  0  0  0  0  0  0
    5.1537   10.9065    1.3952 Cl  0  0  0  0  0  0  0  0  0  0  0  0
    6.7624    8.8342    2.9669 S   0  0  0  0  0  0  0  0  0  0  0  0
    6.3538    7.1989    2.9499 C   0  0  0  0  0  0  0  0  0  0  0  0
    6.8158    5.9578    3.5894 C   0  0  0  0  0  0  0  0  0  0  0  0
    7.7682    5.8607    4.5440 C   0  0  0  0  0  0  0  0  0  0  0  0
    7.9780    4.6611    5.3100 C   0  0  0  0  0  0  0  0  0  0  0  0
    8.1487    3.7031    5.9384 N   0  0  0  0  0  0  0  0  0  0  0  0
    8.5709    6.9956    4.9115 C   0  0  0  0  0  0  0  0  0  0  0  0
    9.2228    7.9041    5.2060 N   0  0  0  0  0  0  0  0  0  0  0  0
    5.1365    2.6150    2.5106 C   0  0  0  0  0  0  0  0  0  0  0  0
    5.4205    1.8501    1.3857 C   0  0  0  0  0  0  0  0  0  0  0  0
    4.3028    1.1433    0.9130 C   0  0  0  0  0  0  0  0  0  0  0  0
    4.2385    0.4104   -0.2946 C   0  0  0  0  0  0  0  0  0  0  0  0
    5.4526    0.1033   -1.0846 C   0  0  0  0  0  0  0  0  0  0  0  0
    6.5040   -0.6064   -0.4813 C   0  0  0  0  0  0  0  0  0  0  0  0
    7.6517   -0.9223   -1.2080 C   0  0  0  0  0  0  0  0  0  0  0  0
    7.7591   -0.5395   -2.5470 C   0  0  0  0  0  0  0  0  0  0  0  0
    6.7159    0.1636   -3.1628 C   0  0  0  0  0  0  0  0  0  0  0  0
    6.8585    0.6381   -4.8897 S   0  0  0  0  0  0  0  0  0  0  0  0
    6.2413   -0.9523   -5.5486 C   0  0  0  0  0  0  0  0  0  0  0  0
    4.7289   -0.9037   -5.7311 C   0  0  0  0  0  0  0  0  0  0  0  0
    5.5674    0.4950   -2.4303 C   0  0  0  0  0  0  0  0  0  0  0  0
    2.9631   -0.0329   -0.6944 C   0  0  0  0  0  0  0  0  0  0  0  0
    1.8242    0.1419    0.1045 C   0  0  0  0  0  0  0  0  0  0  0  0
    1.8996    0.8157    1.3477 C   0  0  0  0  0  0  0  0  0  0  0  0
    0.7028    1.0782    2.1910 C   0  0  0  0  0  0  0  0  0  0  0  0
   -0.4224    1.7260    1.6523 C   0  0  0  0  0  0  0  0  0  0  0  0
   -1.5541    1.9500    2.4403 C   0  0  0  0  0  0  0  0  0  0  0  0
   -1.5577    1.5749    3.7847 C   0  0  0  0  0  0  0  0  0  0  0  0
   -0.4224    0.9865    4.3514 C   0  0  0  0  0  0  0  0  0  0  0  0
   -0.3992    0.5820    6.1018 S   0  0  0  0  0  0  0  0  0  0  0  0
    0.3694    2.1513    6.6375 C   0  0  0  0  0  0  0  0  0  0  0  0
   -0.6750    3.2513    6.7927 C   0  0  0  0  0  0  0  0  0  0  0  0
    0.6979    0.7150    3.5509 C   0  0  0  0  0  0  0  0  0  0  0  0
    3.1590    1.3283    1.7029 C   0  0  0  0  0  0  0  0  0  0  0  0
    3.5283    2.3811    2.9634 S   0  0  0  0  0  0  0  0  0  0  0  0
    0.6575   -0.3257   -0.5080 C   0  0  0  0  0  0  0  0  0  0  0  0
    0.8560   -0.7945   -1.8026 C   0  0  0  0  0  0  0  0  0  0  0  0
    2.4954   -0.6951   -2.1768 S   0  0  0  0  0  0  0  0  0  0  0  0
   -0.2403   -0.8405   -2.7686 C   0  0  0  0  0  0  0  0  0  0  0  0
   -1.0821   -1.9469   -2.9381 C   0  0  0  0  0  0  0  0  0  0  0  0
   -0.6885   -3.3150   -2.7459 N   0  0  0  0  0  0  0  0  0  0  0  0
   -0.7618   -4.1866   -3.8897 C   0  0  0  0  0  0  0  0  0  0  0  0
   -0.1487   -3.8159   -5.0990 C   0  0  0  0  0  0  0  0  0  0  0  0
   -0.2596   -4.6361   -6.2244 C   0  0  0  0  0  0  0  0  0  0  0  0
   -1.0002   -5.8215   -6.1588 C   0  0  0  0  0  0  0  0  0  0  0  0
   -1.1566   -6.8608   -7.6120 S   0  0  0  0  0  0  0  0  0  0  0  0
   -2.5671   -5.9274   -8.2831 C   0  0  0  0  0  0  0  0  0  0  0  0
   -1.6051   -6.1998   -4.9532 C   0  0  0  0  0  0  0  0  0  0  0  0
   -1.4835   -5.3877   -3.8211 C   0  0  0  0  0  0  0  0  0  0  0  0
   -0.2579   -3.8038   -1.4584 C   0  0  0  0  0  0  0  0  0  0  0  0
   -0.7999   -3.2764   -0.2706 C   0  0  0  0  0  0  0  0  0  0  0  0
   -0.3754   -3.7498    0.9742 C   0  0  0  0  0  0  0  0  0  0  0  0
    0.5863   -4.7648    1.0467 C   0  0  0  0  0  0  0  0  0  0  0  0
    1.1192   -5.3755    2.6475 S   0  0  0  0  0  0  0  0  0  0  0  0
   -0.1314   -6.6956    2.6894 C   0  0  0  0  0  0  0  0  0  0  0  0
    1.1277   -5.3003   -0.1265 C   0  0  0  0  0  0  0  0  0  0  0  0
    0.7107   -4.8225   -1.3717 C   0  0  0  0  0  0  0  0  0  0  0  0
   -2.3934   -1.5738   -3.2466 C   0  0  0  0  0  0  0  0  0  0  0  0
   -3.8300   -2.3465   -2.8789 S   0  0  0  0  0  0  0  0  0  0  0  0
   -4.7660   -0.9272   -2.8111 C   0  0  0  0  0  0  0  0  0  0  0  0
   -3.9437    0.1729   -3.1352 C   0  0  0  0  0  0  0  0  0  0  0  0
   -4.4071    1.5463   -3.1531 N   0  0  0  0  0  0  0  0  0  0  0  0
   -3.5215    2.6189   -2.7990 C   0  0  0  0  0  0  0  0  0  0  0  0
   -3.1118    2.7899   -1.4676 C   0  0  0  0  0  0  0  0  0  0  0  0
   -2.1570    3.7607   -1.1492 C   0  0  0  0  0  0  0  0  0  0  0  0
   -1.5882    4.5426   -2.1629 C   0  0  0  0  0  0  0  0  0  0  0  0
   -0.2702    5.6955   -1.7704 S   0  0  0  0  0  0  0  0  0  0  0  0
    1.0381    4.4413   -1.9480 C   0  0  0  0  0  0  0  0  0  0  0  0
   -2.0263    4.4000   -3.4861 C   0  0  0  0  0  0  0  0  0  0  0  0
   -2.9996    3.4477   -3.8017 C   0  0  0  0  0  0  0  0  0  0  0  0
   -5.7426    1.8576   -3.6055 C   0  0  0  0  0  0  0  0  0  0  0  0
   -6.3377    1.1121   -4.6434 C   0  0  0  0  0  0  0  0  0  0  0  0
   -7.6837    1.2914   -4.9632 C   0  0  0  0  0  0  0  0  0  0  0  0
   -8.4542    2.2175   -4.2540 C   0  0  0  0  0  0  0  0  0  0  0  0
  -10.2161    2.3266   -4.5427 S   0  0  0  0  0  0  0  0  0  0  0  0
  -10.5892    0.8460   -3.5489 C   0  0  0  0  0  0  0  0  0  0  0  0
   -7.8580    3.0159   -3.2685 C   0  0  0  0  0  0  0  0  0  0  0  0
   -6.5070    2.8419   -2.9500 C   0  0  0  0  0  0  0  0  0  0  0  0
   -2.6156   -0.2327   -3.3376 C   0  0  0  0  0  0  0  0  0  0  0  0
   -1.1645    0.5561   -3.0480 S   0  0  0  0  0  0  0  0  0  0  0  0
   -5.9259   -0.8364   -1.9108 C   0  0  0  0  0  0  0  0  0  0  0  0
   -6.7451   -1.9068   -1.5583 C   0  0  0  0  0  0  0  0  0  0  0  0
   -7.3798   -1.7414   -0.3169 C   0  0  0  0  0  0  0  0  0  0  0  0
   -8.3864   -3.0272    0.4344 S   0  0  0  0  0  0  0  0  0  0  0  0
   -6.9813   -3.8055    1.2961 C   0  0  0  0  0  0  0  0  0  0  0  0
   -7.4539   -5.0346    2.0579 C   0  0  0  0  0  0  0  0  0  0  0  0
   -7.0592   -0.5446    0.3172 C   0  0  0  0  0  0  0  0  0  0  0  0
   -6.0074    0.3010   -0.6723 S   0  0  0  0  0  0  0  0  0  0  0  0
   -7.2637   -0.2403    1.7393 C   0  0  0  0  0  0  0  0  0  0  0  0
   -6.2582   -0.2885    2.6398 C   0  0  0  0  0  0  0  0  0  0  0  0
   -4.9015   -0.8540    2.3920 C   0  0  0  0  0  0  0  0  0  0  0  0
   -4.4184   -1.2437    1.3011 O   0  0  0  0  0  0  0  0  0  0  0  0
   -4.2570   -1.0116    3.6709 C   0  0  0  0  0  0  0  0  0  0  0  0
   -3.1285   -1.6999    4.0972 C   0  0  0  0  0  0  0  0  0  0  0  0
   -3.0909   -1.7641    5.4907 C   0  0  0  0  0  0  0  0  0  0  0  0
   -1.8902   -2.6355    6.4203 Cl  0  0  0  0  0  0  0  0  0  0  0  0
   -4.4636   -1.0077    6.1541 S   0  0  0  0  0  0  0  0  0  0  0  0
   -5.0781   -0.5665    4.6486 C   0  0  0  0  0  0  0  0  0  0  0  0
   -6.3481   -0.0440    4.1175 C   0  0  0  0  0  0  0  0  0  0  0  0
   -7.2980    0.6022    4.8281 C   0  0  0  0  0  0  0  0  0  0  0  0
   -7.1647    0.7820    6.2519 C   0  0  0  0  0  0  0  0  0  0  0  0
   -7.0529    0.9306    7.3964 N   0  0  0  0  0  0  0  0  0  0  0  0
   -8.4327    1.2343    4.2113 C   0  0  0  0  0  0  0  0  0  0  0  0
   -9.3576    1.7408    3.7313 N   0  0  0  0  0  0  0  0  0  0  0  0
    6.9751    3.1573    3.5270 H   0  0  0  0  0  0  0  0  0  0  0  0
    3.8488    8.1572    0.9585 H   0  0  0  0  0  0  0  0  0  0  0  0
    6.3786    1.8747    0.8822 H   0  0  0  0  0  0  0  0  0  0  0  0
    6.4270   -0.9228    0.5511 H   0  0  0  0  0  0  0  0  0  0  0  0
    8.4550   -1.4707   -0.7378 H   0  0  0  0  0  0  0  0  0  0  0  0
    8.6452   -0.7999   -3.1083 H   0  0  0  0  0  0  0  0  0  0  0  0
    6.7151   -1.1233   -6.5382 H   0  0  0  0  0  0  0  0  0  0  0  0
    6.5151   -1.8014   -4.8873 H   0  0  0  0  0  0  0  0  0  0  0  0
    4.3722   -1.8664   -6.1554 H   0  0  0  0  0  0  0  0  0  0  0  0
    4.4577   -0.0874   -6.4309 H   0  0  0  0  0  0  0  0  0  0  0  0
    4.2274   -0.7371   -4.7546 H   0  0  0  0  0  0  0  0  0  0  0  0
    4.7708    1.0555   -2.9080 H   0  0  0  0  0  0  0  0  0  0  0  0
   -0.4216    2.0542    0.6195 H   0  0  0  0  0  0  0  0  0  0  0  0
   -2.4273    2.4252    2.0132 H   0  0  0  0  0  0  0  0  0  0  0  0
   -2.4361    1.7544    4.3904 H   0  0  0  0  0  0  0  0  0  0  0  0
    1.1545    2.4719    5.9192 H   0  0  0  0  0  0  0  0  0  0  0  0
    0.8534    1.9764    7.6185 H   0  0  0  0  0  0  0  0  0  0  0  0
   -1.4632    2.9328    7.5078 H   0  0  0  0  0  0  0  0  0  0  0  0
   -1.1423    3.4863    5.8144 H   0  0  0  0  0  0  0  0  0  0  0  0
   -0.1861    4.1658    7.1861 H   0  0  0  0  0  0  0  0  0  0  0  0
    1.5639    0.2319    3.9913 H   0  0  0  0  0  0  0  0  0  0  0  0
   -0.3302   -0.2506   -0.0741 H   0  0  0  0  0  0  0  0  0  0  0  0
    0.4152   -2.8911   -5.1644 H   0  0  0  0  0  0  0  0  0  0  0  0
    0.2158   -4.3399   -7.1512 H   0  0  0  0  0  0  0  0  0  0  0  0
   -2.2719   -4.8742   -8.4732 H   0  0  0  0  0  0  0  0  0  0  0  0
   -3.4178   -5.9554   -7.5702 H   0  0  0  0  0  0  0  0  0  0  0  0
   -2.8851   -6.3894   -9.2402 H   0  0  0  0  0  0  0  0  0  0  0  0
   -2.1800   -7.1169   -4.8956 H   0  0  0  0  0  0  0  0  0  0  0  0
   -1.9707   -5.6776   -2.8981 H   0  0  0  0  0  0  0  0  0  0  0  0
   -1.5574   -2.5044   -0.3086 H   0  0  0  0  0  0  0  0  0  0  0  0
   -0.7938   -3.3298    1.8762 H   0  0  0  0  0  0  0  0  0  0  0  0
    0.1235   -7.4732    1.9393 H   0  0  0  0  0  0  0  0  0  0  0  0
   -0.1323   -7.1625    3.6957 H   0  0  0  0  0  0  0  0  0  0  0  0
   -1.1428   -6.2864    2.4805 H   0  0  0  0  0  0  0  0  0  0  0  0
    1.8692   -6.0911   -0.0792 H   0  0  0  0  0  0  0  0  0  0  0  0
    1.1491   -5.2392   -2.2722 H   0  0  0  0  0  0  0  0  0  0  0  0
   -3.5159    2.1572   -0.6886 H   0  0  0  0  0  0  0  0  0  0  0  0
   -1.8376    3.8847   -0.1233 H   0  0  0  0  0  0  0  0  0  0  0  0
    0.9273    3.6581   -1.1673 H   0  0  0  0  0  0  0  0  0  0  0  0
    0.9907    3.9721   -2.9504 H   0  0  0  0  0  0  0  0  0  0  0  0
    2.0267    4.9277   -1.8220 H   0  0  0  0  0  0  0  0  0  0  0  0
   -1.5981    5.0090   -4.2728 H   0  0  0  0  0  0  0  0  0  0  0  0
   -3.3138    3.3258   -4.8313 H   0  0  0  0  0  0  0  0  0  0  0  0
   -5.7655    0.3629   -5.1757 H   0  0  0  0  0  0  0  0  0  0  0  0
   -8.1329    0.6855   -5.7376 H   0  0  0  0  0  0  0  0  0  0  0  0
  -10.2748   -0.0571   -4.1093 H   0  0  0  0  0  0  0  0  0  0  0  0
  -10.0597    0.8764   -2.5741 H   0  0  0  0  0  0  0  0  0  0  0  0
  -11.6796    0.7896   -3.3679 H   0  0  0  0  0  0  0  0  0  0  0  0
   -8.4530    3.7378   -2.7198 H   0  0  0  0  0  0  0  0  0  0  0  0
   -6.0792    3.4229   -2.1420 H   0  0  0  0  0  0  0  0  0  0  0  0
   -6.7954   -2.8255   -2.1268 H   0  0  0  0  0  0  0  0  0  0  0  0
   -6.5379   -3.0907    2.0171 H   0  0  0  0  0  0  0  0  0  0  0  0
   -6.2078   -4.1040    0.5557 H   0  0  0  0  0  0  0  0  0  0  0  0
   -6.5985   -5.4794    2.6091 H   0  0  0  0  0  0  0  0  0  0  0  0
   -8.2364   -4.7469    2.7947 H   0  0  0  0  0  0  0  0  0  0  0  0
   -7.8613   -5.7886    1.3544 H   0  0  0  0  0  0  0  0  0  0  0  0
   -8.2795   -0.0665    2.0532 H   0  0  0  0  0  0  0  0  0  0  0  0
   -2.4125   -2.1660    3.4404 H   0  0  0  0  0  0  0  0  0  0  0  0
  1  2  2  3
  2  3  1  0
  3  4  2  0
  3  5  1  0
  5  6  1  0
  6  7  2  0
  7  8  1  0
  7  9  1  0
  9 10  1  0
 10 11  1  0
 11 12  2  3
 12 13  1  0
 13 14  3  0
 12 15  1  0
 15 16  3  0
  1 17  1  0
 17 18  2  0
 18 19  1  0
 19 20  2  0
 20 21  1  0
 21 22  2  0
 22 23  1  0
 23 24  2  0
 24 25  1  0
 25 26  1  0
 26 27  1  0
 27 28  1  0
 25 29  2  0
 20 30  1  0
 30 31  2  0
 31 32  1  0
 32 33  1  0
 33 34  2  0
 34 35  1  0
 35 36  2  0
 36 37  1  0
 37 38  1  0
 38 39  1  0
 39 40  1  0
 37 41  2  0
 32 42  2  0
 42 43  1  0
 31 44  1  0
 44 45  2  0
 45 46  1  0
 45 47  1  0
 47 48  2  0
 48 49  1  0
 49 50  1  0
 50 51  2  0
 51 52  1  0
 52 53  2  0
 53 54  1  0
 54 55  1  0
 53 56  1  0
 56 57  2  0
 49 58  1  0
 58 59  2  0
 59 60  1  0
 60 61  2  0
 61 62  1  0
 62 63  1  0
 61 64  1  0
 64 65  2  0
 48 66  1  0
 66 67  1  0
 67 68  1  0
 68 69  2  0
 69 70  1  0
 70 71  1  0
 71 72  2  0
 72 73  1  0
 73 74  2  0
 74 75  1  0
 75 76  1  0
 74 77  1  0
 77 78  2  0
 70 79  1  0
 79 80  2  0
 80 81  1  0
 81 82  2  0
 82 83  1  0
 83 84  1  0
 82 85  1  0
 85 86  2  0
 69 87  1  0
 87 88  1  0
 68 89  1  0
 89 90  2  0
 90 91  1  0
 91 92  1  0
 92 93  1  0
 93 94  1  0
 91 95  2  0
 95 96  1  0
 95 97  1  0
 97 98  2  3
 98 99  1  0
 99100  2  0
 99101  1  0
101102  1  0
102103  2  0
103104  1  0
103105  1  0
105106  1  0
106107  1  0
107108  2  3
108109  1  0
109110  3  0
108111  1  0
111112  3  0
 11  2  1  0
 43 17  1  0
 88 47  1  0
 96 89  1  0
107 98  1  0
 10  5  2  0
 42 19  1  0
 57 50  1  0
 65 58  1  0
 87 66  2  0
106101  2  0
 29 21  1  0
 46 30  1  0
 78 71  1  0
 86 79  1  0
 41 33  1  0
  1113  1  0
  6114  1  0
 18115  1  0
 22116  1  0
 23117  1  0
 24118  1  0
 27119  1  0
 27120  1  0
 28121  1  0
 28122  1  0
 28123  1  0
 29124  1  0
 34125  1  0
 35126  1  0
 36127  1  0
 39128  1  0
 39129  1  0
 40130  1  0
 40131  1  0
 40132  1  0
 41133  1  0
 44134  1  0
 51135  1  0
 52136  1  0
 55137  1  0
 55138  1  0
 55139  1  0
 56140  1  0
 57141  1  0
 59142  1  0
 60143  1  0
 63144  1  0
 63145  1  0
 63146  1  0
 64147  1  0
 65148  1  0
 72149  1  0
 73150  1  0
 76151  1  0
 76152  1  0
 76153  1  0
 77154  1  0
 78155  1  0
 80156  1  0
 81157  1  0
 84158  1  0
 84159  1  0
 84160  1  0
 85161  1  0
 86162  1  0
 90163  1  0
 93164  1  0
 93165  1  0
 94166  1  0
 94167  1  0
 94168  1  0
 97169  1  0
102170  1  0
M  END

