
     RDKit          3D

111121  0  0  0  0  0  0  0  0999 V2000
    0.9859   -3.7868   -6.6256 C   0  0  0  0  0  0  0  0  0  0  0  0
   -0.1000   -3.5918   -7.3966 C   0  0  0  0  0  0  0  0  0  0  0  0
   -1.0414   -2.4500   -7.2878 C   0  0  0  0  0  0  0  0  0  0  0  0
   -1.0824   -1.5805   -6.3780 O   0  0  0  0  0  0  0  0  0  0  0  0
   -1.8859   -2.4709   -8.4590 C   0  0  0  0  0  0  0  0  0  0  0  0
   -2.9410   -1.6923   -8.9232 C   0  0  0  0  0  0  0  0  0  0  0  0
   -3.4300   -2.2001  -10.1291 C   0  0  0  0  0  0  0  0  0  0  0  0
   -4.7517   -1.5136  -11.0483 Cl  0  0  0  0  0  0  0  0  0  0  0  0
   -2.5661   -3.5955  -10.5781 S   0  0  0  0  0  0  0  0  0  0  0  0
   -1.5584   -3.5346   -9.2320 C   0  0  0  0  0  0  0  0  0  0  0  0
   -0.4683   -4.3338   -8.6496 C   0  0  0  0  0  0  0  0  0  0  0  0
   -0.0463   -5.5390   -9.1000 C   0  0  0  0  0  0  0  0  0  0  0  0
    0.8898   -6.3563   -8.3730 C   0  0  0  0  0  0  0  0  0  0  0  0
    1.6390   -7.0249   -7.7964 N   0  0  0  0  0  0  0  0  0  0  0  0
   -0.5574   -6.0979  -10.3288 C   0  0  0  0  0  0  0  0  0  0  0  0
   -0.9606   -6.5495  -11.3156 N   0  0  0  0  0  0  0  0  0  0  0  0
    1.2699   -2.9781   -5.4345 C   0  0  0  0  0  0  0  0  0  0  0  0
    0.5491   -3.0059   -4.2441 C   0  0  0  0  0  0  0  0  0  0  0  0
    1.0434   -2.1006   -3.2912 C   0  0  0  0  0  0  0  0  0  0  0  0
    0.5160   -1.8720   -2.0035 C   0  0  0  0  0  0  0  0  0  0  0  0
   -0.6496   -2.6148   -1.4847 C   0  0  0  0  0  0  0  0  0  0  0  0
   -0.7395   -3.9963   -1.3452 C   0  0  0  0  0  0  0  0  0  0  0  0
   -1.9485   -4.4205   -0.7664 C   0  0  0  0  0  0  0  0  0  0  0  0
   -2.2652   -5.8659   -0.4946 C   0  0  0  0  0  0  0  0  0  0  0  0
   -1.2802   -6.4748    0.5010 C   0  0  0  0  0  0  0  0  0  0  0  0
   -2.8086   -3.3592   -0.4684 C   0  0  0  0  0  0  0  0  0  0  0  0
   -4.4005   -3.4585    0.2678 Cl  0  0  0  0  0  0  0  0  0  0  0  0
   -2.0700   -1.9191   -0.9088 S   0  0  0  0  0  0  0  0  0  0  0  0
    1.1223   -0.8555   -1.2436 C   0  0  0  0  0  0  0  0  0  0  0  0
    2.2035   -0.1003   -1.7109 C   0  0  0  0  0  0  0  0  0  0  0  0
    2.7474   -0.3438   -2.9890 C   0  0  0  0  0  0  0  0  0  0  0  0
    3.8718    0.4528   -3.5190 C   0  0  0  0  0  0  0  0  0  0  0  0
    5.0811    0.6854   -2.8709 C   0  0  0  0  0  0  0  0  0  0  0  0
    5.9234    1.5662   -3.5644 C   0  0  0  0  0  0  0  0  0  0  0  0
    7.2868    1.9489   -3.0595 C   0  0  0  0  0  0  0  0  0  0  0  0
    8.3123    0.8777   -3.4103 C   0  0  0  0  0  0  0  0  0  0  0  0
    5.3798    2.0006   -4.7730 C   0  0  0  0  0  0  0  0  0  0  0  0
    3.8523    1.3268   -4.9575 S   0  0  0  0  0  0  0  0  0  0  0  0
    6.1336    3.0760   -5.9376 Cl  0  0  0  0  0  0  0  0  0  0  0  0
    2.1362   -1.3552   -3.7547 C   0  0  0  0  0  0  0  0  0  0  0  0
    2.5167   -1.8506   -5.3170 S   0  0  0  0  0  0  0  0  0  0  0  0
    2.5872    0.9203   -0.8202 C   0  0  0  0  0  0  0  0  0  0  0  0
    1.8262    0.9403    0.3470 C   0  0  0  0  0  0  0  0  0  0  0  0
    0.6798   -0.2942    0.2783 S   0  0  0  0  0  0  0  0  0  0  0  0
    1.8821    1.9636    1.4037 C   0  0  0  0  0  0  0  0  0  0  0  0
    2.7037    3.0874    1.4304 C   0  0  0  0  0  0  0  0  0  0  0  0
    2.4130    3.9609    2.4971 C   0  0  0  0  0  0  0  0  0  0  0  0
    3.0957    5.1585    2.7436 O   0  0  0  0  0  0  0  0  0  0  0  0
    4.1554    5.6438    1.9289 C   0  0  0  0  0  0  0  0  0  0  0  0
    1.3636    3.5187    3.3053 C   0  0  0  0  0  0  0  0  0  0  0  0
    0.8166    2.0497    2.7024 S   0  0  0  0  0  0  0  0  0  0  0  0
    0.7182    4.2254    4.4248 C   0  0  0  0  0  0  0  0  0  0  0  0
    0.5742    5.6168    4.4301 C   0  0  0  0  0  0  0  0  0  0  0  0
   -0.1758    6.2251    5.4375 C   0  0  0  0  0  0  0  0  0  0  0  0
   -0.8014    5.4539    6.4319 C   0  0  0  0  0  0  0  0  0  0  0  0
   -0.5775    4.0631    6.4145 C   0  0  0  0  0  0  0  0  0  0  0  0
    0.1474    3.4950    5.4171 N   0  0  0  0  0  0  0  0  0  0  0  0
   -1.7243    6.1341    7.4457 C   0  0  0  0  0  0  0  0  0  0  0  0
   -2.3118    5.1816    8.4603 C   0  0  0  0  0  0  0  0  0  0  0  0
   -3.3839    4.4408    8.1572 C   0  0  0  0  0  0  0  0  0  0  0  0
   -4.0369    4.5618    6.8225 C   0  0  0  0  0  0  0  0  0  0  0  0
   -4.7368    3.5467    6.2563 C   0  0  0  0  0  0  0  0  0  0  0  0
   -5.5060    3.6356    4.7639 S   0  0  0  0  0  0  0  0  0  0  0  0
   -6.0462    2.0385    4.7307 C   0  0  0  0  0  0  0  0  0  0  0  0
   -6.7846    1.5394    3.7037 C   0  0  0  0  0  0  0  0  0  0  0  0
   -7.1183    2.3765    2.5772 C   0  0  0  0  0  0  0  0  0  0  0  0
   -7.3880    3.0471    1.6716 N   0  0  0  0  0  0  0  0  0  0  0  0
   -7.3088    0.2017    3.6406 C   0  0  0  0  0  0  0  0  0  0  0  0
   -7.7356   -0.8738    3.5703 N   0  0  0  0  0  0  0  0  0  0  0  0
   -5.6198    1.3937    5.8683 N   0  0  0  0  0  0  0  0  0  0  0  0
   -5.8243   -0.0261    6.2148 C   0  0  0  0  0  0  0  0  0  0  0  0
   -7.1679   -0.2254    6.9124 C   0  0  0  0  0  0  0  0  0  0  0  0
   -4.9173    2.2289    6.7077 C   0  0  0  0  0  0  0  0  0  0  0  0
   -4.4434    1.8121    7.7996 O   0  0  0  0  0  0  0  0  0  0  0  0
   -3.8239    5.8493    6.0363 C   0  0  0  0  0  0  0  0  0  0  0  0
   -2.9017    6.8530    6.7528 C   0  0  0  0  0  0  0  0  0  0  0  0
    1.7482   -4.4901   -6.9129 H   0  0  0  0  0  0  0  0  0  0  0  0
   -3.3263   -0.8163   -8.4189 H   0  0  0  0  0  0  0  0  0  0  0  0
   -0.3079   -3.6468   -4.0894 H   0  0  0  0  0  0  0  0  0  0  0  0
    0.0541   -4.6724   -1.6311 H   0  0  0  0  0  0  0  0  0  0  0  0
   -3.2916   -5.9738   -0.0797 H   0  0  0  0  0  0  0  0  0  0  0  0
   -2.2279   -6.4351   -1.4485 H   0  0  0  0  0  0  0  0  0  0  0  0
   -0.2702   -6.5498    0.0401 H   0  0  0  0  0  0  0  0  0  0  0  0
   -1.2206   -5.8550    1.4228 H   0  0  0  0  0  0  0  0  0  0  0  0
   -1.6150   -7.4948    0.7772 H   0  0  0  0  0  0  0  0  0  0  0  0
    5.3433    0.2347   -1.9224 H   0  0  0  0  0  0  0  0  0  0  0  0
    7.6027    2.9216   -3.4970 H   0  0  0  0  0  0  0  0  0  0  0  0
    7.2514    2.0743   -1.9550 H   0  0  0  0  0  0  0  0  0  0  0  0
    8.0296   -0.0886   -2.9382 H   0  0  0  0  0  0  0  0  0  0  0  0
    8.3718    0.7451   -4.5125 H   0  0  0  0  0  0  0  0  0  0  0  0
    9.3115    1.1810   -3.0283 H   0  0  0  0  0  0  0  0  0  0  0  0
    3.3578    1.6484   -1.0341 H   0  0  0  0  0  0  0  0  0  0  0  0
    3.4695    3.2825    0.6918 H   0  0  0  0  0  0  0  0  0  0  0  0
    4.5031    6.6170    2.3280 H   0  0  0  0  0  0  0  0  0  0  0  0
    3.7975    5.7906    0.8884 H   0  0  0  0  0  0  0  0  0  0  0  0
    5.0028    4.9276    1.9414 H   0  0  0  0  0  0  0  0  0  0  0  0
    0.9916    6.2281    3.6426 H   0  0  0  0  0  0  0  0  0  0  0  0
   -0.2946    7.3013    5.4178 H   0  0  0  0  0  0  0  0  0  0  0  0
   -0.9922    3.4148    7.1688 H   0  0  0  0  0  0  0  0  0  0  0  0
   -1.1239    6.8925    7.9956 H   0  0  0  0  0  0  0  0  0  0  0  0
   -1.8623    5.1025    9.4412 H   0  0  0  0  0  0  0  0  0  0  0  0
   -3.7819    3.7868    8.9175 H   0  0  0  0  0  0  0  0  0  0  0  0
   -5.7188   -0.6791    5.3296 H   0  0  0  0  0  0  0  0  0  0  0  0
   -5.0237   -0.3801    6.9001 H   0  0  0  0  0  0  0  0  0  0  0  0
   -8.0020    0.1792    6.3013 H   0  0  0  0  0  0  0  0  0  0  0  0
   -7.3400   -1.3092    7.0849 H   0  0  0  0  0  0  0  0  0  0  0  0
   -7.1658    0.2997    7.8910 H   0  0  0  0  0  0  0  0  0  0  0  0
   -3.3653    5.6018    5.0531 H   0  0  0  0  0  0  0  0  0  0  0  0
   -4.8055    6.3351    5.8467 H   0  0  0  0  0  0  0  0  0  0  0  0
   -2.5398    7.6152    6.0299 H   0  0  0  0  0  0  0  0  0  0  0  0
   -3.4920    7.4001    7.5235 H   0  0  0  0  0  0  0  0  0  0  0  0
  1  2  2  3
  2  3  1  0
  3  4  2  0
  3  5  1  0
  5  6  1  0
  6  7  2  0
  7  8  1  0
  7  9  1  0
  9 10  1  0
 10 11  1  0
 11 12  2  3
 12 13  1  0
 13 14  3  0
 12 15  1  0
 15 16  3  0
  1 17  1  0
 17 18  2  0
 18 19  1  0
 19 20  2  0
 20 21  1  0
 21 22  2  0
 22 23  1  0
 23 24  1  0
 24 25  1  0
 23 26  2  0
 26 27  1  0
 26 28  1  0
 20 29  1  0
 29 30  2  0
 30 31  1  0
 31 32  1  0
 32 33  2  0
 33 34  1  0
 34 35  1  0
 35 36  1  0
 34 37  2  0
 37 38  1  0
 37 39  1  0
 31 40  2  0
 40 41  1  0
 30 42  1  0
 42 43  2  0
 43 44  1  0
 43 45  1  0
 45 46  2  0
 46 47  1  0
 47 48  1  0
 48 49  1  0
 47 50  2  0
 50 51  1  0
 50 52  1  0
 52 53  2  0
 53 54  1  0
 54 55  2  0
 55 56  1  0
 56 57  2  0
 55 58  1  0
 58 59  1  0
 59 60  2  0
 60 61  1  0
 61 62  2  3
 62 63  1  0
 63 64  1  0
 64 65  2  3
 65 66  1  0
 66 67  3  0
 65 68  1  0
 68 69  3  0
 64 70  1  0
 70 71  1  0
 71 72  1  0
 70 73  1  0
 73 74  2  0
 61 75  1  0
 75 76  1  0
 11  2  1  0
 41 17  1  0
 51 45  1  0
 57 52  1  0
 76 58  1  0
 10  5  2  0
 40 19  1  0
 73 62  1  0
 28 21  1  0
 44 29  1  0
 38 32  1  0
  1 77  1  0
  6 78  1  0
 18 79  1  0
 22 80  1  0
 24 81  1  0
 24 82  1  0
 25 83  1  0
 25 84  1  0
 25 85  1  0
 33 86  1  0
 35 87  1  0
 35 88  1  0
 36 89  1  0
 36 90  1  0
 36 91  1  0
 42 92  1  0
 46 93  1  0
 49 94  1  0
 49 95  1  0
 49 96  1  0
 53 97  1  0
 54 98  1  0
 56 99  1  0
 58100  1  0
 59101  1  0
 60102  1  0
 71103  1  0
 71104  1  0
 72105  1  0
 72106  1  0
 72107  1  0
 75108  1  0
 75109  1  0
 76110  1  0
 76111  1  0
M  END

