
     RDKit          3D

179193  0  0  0  0  0  0  0  0999 V2000
    3.1928   -4.6417    4.9934 C   0  0  0  0  0  0  0  0  0  0  0  0
    4.4667   -5.0735    5.0425 C   0  0  0  0  0  0  0  0  0  0  0  0
    5.8147   -4.4905    3.9945 S   0  0  0  0  0  0  0  0  0  0  0  0
    6.8764   -5.7052    4.7814 C   0  0  0  0  0  0  0  0  0  0  0  0
    8.0668   -5.8897    4.4123 O   0  0  0  0  0  0  0  0  0  0  0  0
    6.2792   -6.4675    5.8256 N   0  0  0  0  0  0  0  0  0  0  0  0
    6.9907   -7.4427    6.6557 C   0  0  0  0  0  0  0  0  0  0  0  0
    7.7348   -6.7394    7.7857 C   0  0  0  0  0  0  0  0  0  0  0  0
    4.9220   -6.0895    5.9948 C   0  0  0  0  0  0  0  0  0  0  0  0
    4.1757   -6.6123    6.8650 O   0  0  0  0  0  0  0  0  0  0  0  0
    2.6339   -3.7398    3.9568 C   0  0  0  0  0  0  0  0  0  0  0  0
    1.4649   -2.9442    4.0741 C   0  0  0  0  0  0  0  0  0  0  0  0
    0.5852   -2.9002    5.2196 N   0  0  0  0  0  0  0  0  0  0  0  0
    0.0660   -1.6332    5.6917 C   0  0  0  0  0  0  0  0  0  0  0  0
    0.8918   -0.4971    5.7317 C   0  0  0  0  0  0  0  0  0  0  0  0
    0.4085    0.7129    6.2398 C   0  0  0  0  0  0  0  0  0  0  0  0
   -0.9088    0.8044    6.6997 C   0  0  0  0  0  0  0  0  0  0  0  0
   -1.5021    2.3279    7.4385 S   0  0  0  0  0  0  0  0  0  0  0  0
   -2.4141    2.8770    5.9599 C   0  0  0  0  0  0  0  0  0  0  0  0
   -1.7433   -0.3169    6.6539 C   0  0  0  0  0  0  0  0  0  0  0  0
   -1.2622   -1.5245    6.1447 C   0  0  0  0  0  0  0  0  0  0  0  0
    0.1266   -4.1317    5.8155 C   0  0  0  0  0  0  0  0  0  0  0  0
   -0.2711   -5.2114    5.0100 C   0  0  0  0  0  0  0  0  0  0  0  0
   -0.6790   -6.4150    5.5930 C   0  0  0  0  0  0  0  0  0  0  0  0
   -0.6775   -6.5535    6.9860 C   0  0  0  0  0  0  0  0  0  0  0  0
   -1.1775   -8.1036    7.7363 S   0  0  0  0  0  0  0  0  0  0  0  0
    0.4872   -8.8360    7.6205 C   0  0  0  0  0  0  0  0  0  0  0  0
   -0.3060   -5.4756    7.7969 C   0  0  0  0  0  0  0  0  0  0  0  0
    0.0970   -4.2723    7.2143 C   0  0  0  0  0  0  0  0  0  0  0  0
    1.1913   -2.2802    2.8785 C   0  0  0  0  0  0  0  0  0  0  0  0
   -0.0876   -1.3617    2.3121 S   0  0  0  0  0  0  0  0  0  0  0  0
    0.4818   -1.2610    0.7048 C   0  0  0  0  0  0  0  0  0  0  0  0
    1.6770   -2.0039    0.6167 C   0  0  0  0  0  0  0  0  0  0  0  0
    2.3254   -2.3934   -0.6016 N   0  0  0  0  0  0  0  0  0  0  0  0
    3.6506   -1.8826   -0.8306 C   0  0  0  0  0  0  0  0  0  0  0  0
    3.8472   -0.5096   -1.0307 C   0  0  0  0  0  0  0  0  0  0  0  0
    5.1324   -0.0160   -1.2870 C   0  0  0  0  0  0  0  0  0  0  0  0
    6.2274   -0.8877   -1.3269 C   0  0  0  0  0  0  0  0  0  0  0  0
    7.8700   -0.2572   -1.6834 S   0  0  0  0  0  0  0  0  0  0  0  0
    8.2949   -0.0171    0.0700 C   0  0  0  0  0  0  0  0  0  0  0  0
    6.0359   -2.2582   -1.1125 C   0  0  0  0  0  0  0  0  0  0  0  0
    4.7550   -2.7546   -0.8596 C   0  0  0  0  0  0  0  0  0  0  0  0
    1.8066   -3.4930   -1.3951 C   0  0  0  0  0  0  0  0  0  0  0  0
    2.3192   -3.7574   -2.6835 C   0  0  0  0  0  0  0  0  0  0  0  0
    1.8482   -4.8352   -3.4342 C   0  0  0  0  0  0  0  0  0  0  0  0
    0.8372   -5.6574   -2.9225 C   0  0  0  0  0  0  0  0  0  0  0  0
    0.2431   -7.0509   -3.8767 S   0  0  0  0  0  0  0  0  0  0  0  0
   -1.0140   -6.0663   -4.7482 C   0  0  0  0  0  0  0  0  0  0  0  0
    0.2989   -5.3956   -1.6563 C   0  0  0  0  0  0  0  0  0  0  0  0
    0.7723   -4.3199   -0.9018 C   0  0  0  0  0  0  0  0  0  0  0  0
    2.0362   -2.5383    1.8517 C   0  0  0  0  0  0  0  0  0  0  0  0
    3.2021   -3.6259    2.3488 S   0  0  0  0  0  0  0  0  0  0  0  0
   -0.2287   -0.5704   -0.3945 C   0  0  0  0  0  0  0  0  0  0  0  0
   -1.3086    0.3248   -0.2444 C   0  0  0  0  0  0  0  0  0  0  0  0
   -1.6514    0.9771    0.9861 N   0  0  0  0  0  0  0  0  0  0  0  0
   -0.7448    1.9760    1.5018 C   0  0  0  0  0  0  0  0  0  0  0  0
   -0.1530    2.9169    0.6374 C   0  0  0  0  0  0  0  0  0  0  0  0
    0.7394    3.8700    1.1320 C   0  0  0  0  0  0  0  0  0  0  0  0
    1.0517    3.8992    2.4930 C   0  0  0  0  0  0  0  0  0  0  0  0
    2.1832    5.1326    3.1331 S   0  0  0  0  0  0  0  0  0  0  0  0
    0.8643    6.3370    3.4889 C   0  0  0  0  0  0  0  0  0  0  0  0
    0.4782    2.9599    3.3578 C   0  0  0  0  0  0  0  0  0  0  0  0
   -0.4202    2.0069    2.8671 C   0  0  0  0  0  0  0  0  0  0  0  0
   -2.9127    0.6821    1.6260 C   0  0  0  0  0  0  0  0  0  0  0  0
   -3.6062    1.6748    2.3457 C   0  0  0  0  0  0  0  0  0  0  0  0
   -4.8352    1.3873    2.9484 C   0  0  0  0  0  0  0  0  0  0  0  0
   -5.3896    0.1105    2.8378 C   0  0  0  0  0  0  0  0  0  0  0  0
   -6.9620   -0.2582    3.6168 S   0  0  0  0  0  0  0  0  0  0  0  0
   -7.9397    0.1871    2.1447 C   0  0  0  0  0  0  0  0  0  0  0  0
   -4.7100   -0.8831    2.1311 C   0  0  0  0  0  0  0  0  0  0  0  0
   -3.4831   -0.6039    1.5233 C   0  0  0  0  0  0  0  0  0  0  0  0
   -1.7757    0.7689   -1.4742 C   0  0  0  0  0  0  0  0  0  0  0  0
   -2.8467    1.9683   -1.9383 S   0  0  0  0  0  0  0  0  0  0  0  0
   -2.4184    1.9087   -3.5872 C   0  0  0  0  0  0  0  0  0  0  0  0
   -1.4003    0.9484   -3.7569 C   0  0  0  0  0  0  0  0  0  0  0  0
   -0.5860    0.7998   -4.9284 N   0  0  0  0  0  0  0  0  0  0  0  0
    0.3404    1.8457   -5.3097 C   0  0  0  0  0  0  0  0  0  0  0  0
    0.8857    2.7182   -4.3445 C   0  0  0  0  0  0  0  0  0  0  0  0
    1.7568    3.7414   -4.7296 C   0  0  0  0  0  0  0  0  0  0  0  0
    2.1081    3.9006   -6.0731 C   0  0  0  0  0  0  0  0  0  0  0  0
    3.2030    5.2369   -6.5633 S   0  0  0  0  0  0  0  0  0  0  0  0
    4.7294    4.2744   -6.2818 C   0  0  0  0  0  0  0  0  0  0  0  0
    1.5788    3.0351   -7.0367 C   0  0  0  0  0  0  0  0  0  0  0  0
    0.6974    2.0226   -6.6617 C   0  0  0  0  0  0  0  0  0  0  0  0
   -0.6115   -0.4615   -5.6216 C   0  0  0  0  0  0  0  0  0  0  0  0
    0.5859   -1.1263   -5.9336 C   0  0  0  0  0  0  0  0  0  0  0  0
    0.5607   -2.3130   -6.6732 C   0  0  0  0  0  0  0  0  0  0  0  0
   -0.6608   -2.8322   -7.1201 C   0  0  0  0  0  0  0  0  0  0  0  0
   -0.6851   -4.2887   -8.1618 S   0  0  0  0  0  0  0  0  0  0  0  0
   -0.5099   -3.3320   -9.7020 C   0  0  0  0  0  0  0  0  0  0  0  0
   -1.8572   -2.1977   -6.7735 C   0  0  0  0  0  0  0  0  0  0  0  0
   -1.8338   -1.0209   -6.0252 C   0  0  0  0  0  0  0  0  0  0  0  0
   -1.0886    0.3249   -2.5510 C   0  0  0  0  0  0  0  0  0  0  0  0
    0.1403   -0.6990   -2.0560 S   0  0  0  0  0  0  0  0  0  0  0  0
   -3.0500    2.7495   -4.6199 C   0  0  0  0  0  0  0  0  0  0  0  0
   -2.8780    2.6804   -6.0008 C   0  0  0  0  0  0  0  0  0  0  0  0
   -3.6775    3.5855   -6.7100 C   0  0  0  0  0  0  0  0  0  0  0  0
   -3.6280    3.6959   -8.4606 Cl  0  0  0  0  0  0  0  0  0  0  0  0
   -4.5173    4.3523   -5.9047 C   0  0  0  0  0  0  0  0  0  0  0  0
   -4.2146    3.9256   -4.3047 S   0  0  0  0  0  0  0  0  0  0  0  0
   -5.4344    5.4069   -6.3892 C   0  0  0  0  0  0  0  0  0  0  0  0
   -6.6005    5.7329   -5.8095 C   0  0  0  0  0  0  0  0  0  0  0  0
   -7.3419    4.8720   -4.4072 S   0  0  0  0  0  0  0  0  0  0  0  0
   -8.8348    5.8309   -4.6752 C   0  0  0  0  0  0  0  0  0  0  0  0
   -9.8591    5.6859   -3.9548 O   0  0  0  0  0  0  0  0  0  0  0  0
   -8.7853    6.7658   -5.7478 N   0  0  0  0  0  0  0  0  0  0  0  0
   -9.8625    7.6920   -6.1015 C   0  0  0  0  0  0  0  0  0  0  0  0
   -9.6843    9.0159   -5.3716 C   0  0  0  0  0  0  0  0  0  0  0  0
   -7.5105    6.7322   -6.3704 C   0  0  0  0  0  0  0  0  0  0  0  0
   -7.2040    7.4987   -7.3237 O   0  0  0  0  0  0  0  0  0  0  0  0
    2.5168   -5.0049    5.7522 H   0  0  0  0  0  0  0  0  0  0  0  0
    7.7193   -8.0071    6.0324 H   0  0  0  0  0  0  0  0  0  0  0  0
    6.2765   -8.1771    7.0863 H   0  0  0  0  0  0  0  0  0  0  0  0
    7.0137   -6.1899    8.4269 H   0  0  0  0  0  0  0  0  0  0  0  0
    8.2683   -7.4892    8.4055 H   0  0  0  0  0  0  0  0  0  0  0  0
    8.4789   -6.0250    7.3722 H   0  0  0  0  0  0  0  0  0  0  0  0
    1.9211   -0.5532    5.3948 H   0  0  0  0  0  0  0  0  0  0  0  0
    1.0654    1.5702    6.2958 H   0  0  0  0  0  0  0  0  0  0  0  0
   -2.9343    3.8292    6.1903 H   0  0  0  0  0  0  0  0  0  0  0  0
   -3.1677    2.1199    5.6640 H   0  0  0  0  0  0  0  0  0  0  0  0
   -1.7151    3.0516    5.1222 H   0  0  0  0  0  0  0  0  0  0  0  0
   -2.7590   -0.2484    7.0192 H   0  0  0  0  0  0  0  0  0  0  0  0
   -1.9286   -2.3793    6.1108 H   0  0  0  0  0  0  0  0  0  0  0  0
   -0.2660   -5.1208    3.9321 H   0  0  0  0  0  0  0  0  0  0  0  0
   -0.9726   -7.2463    4.9633 H   0  0  0  0  0  0  0  0  0  0  0  0
    1.2311   -8.2080    8.1601 H   0  0  0  0  0  0  0  0  0  0  0  0
    0.4721   -9.8465    8.0774 H   0  0  0  0  0  0  0  0  0  0  0  0
    0.7845   -8.9282    6.5567 H   0  0  0  0  0  0  0  0  0  0  0  0
   -0.3151   -5.5731    8.8709 H   0  0  0  0  0  0  0  0  0  0  0  0
    0.4092   -3.4544    7.8521 H   0  0  0  0  0  0  0  0  0  0  0  0
    3.0091    0.1737   -1.0070 H   0  0  0  0  0  0  0  0  0  0  0  0
    5.2738    1.0468   -1.4631 H   0  0  0  0  0  0  0  0  0  0  0  0
    9.3447    0.3366    0.1393 H   0  0  0  0  0  0  0  0  0  0  0  0
    7.6235    0.7446    0.5224 H   0  0  0  0  0  0  0  0  0  0  0  0
    8.2043   -0.9766    0.6215 H   0  0  0  0  0  0  0  0  0  0  0  0
    6.8810   -2.9378   -1.1367 H   0  0  0  0  0  0  0  0  0  0  0  0
    4.6161   -3.8169   -0.6851 H   0  0  0  0  0  0  0  0  0  0  0  0
    3.0870   -3.1236   -3.1164 H   0  0  0  0  0  0  0  0  0  0  0  0
    2.2616   -5.0334   -4.4161 H   0  0  0  0  0  0  0  0  0  0  0  0
   -0.5269   -5.2282   -5.2891 H   0  0  0  0  0  0  0  0  0  0  0  0
   -1.7554   -5.6627   -4.0251 H   0  0  0  0  0  0  0  0  0  0  0  0
   -1.5364   -6.7166   -5.4823 H   0  0  0  0  0  0  0  0  0  0  0  0
   -0.4884   -6.0274   -1.2600 H   0  0  0  0  0  0  0  0  0  0  0  0
    0.3355   -4.1528    0.0758 H   0  0  0  0  0  0  0  0  0  0  0  0
   -0.3856    2.9253   -0.4183 H   0  0  0  0  0  0  0  0  0  0  0  0
    1.1806    4.5918    0.4574 H   0  0  0  0  0  0  0  0  0  0  0  0
    0.1616    5.9203    4.2412 H   0  0  0  0  0  0  0  0  0  0  0  0
    0.3116    6.5853    2.5584 H   0  0  0  0  0  0  0  0  0  0  0  0
    1.3204    7.2646    3.8967 H   0  0  0  0  0  0  0  0  0  0  0  0
    0.7188    2.9789    4.4076 H   0  0  0  0  0  0  0  0  0  0  0  0
   -0.8540    1.2838    3.5448 H   0  0  0  0  0  0  0  0  0  0  0  0
   -3.2041    2.6768    2.4276 H   0  0  0  0  0  0  0  0  0  0  0  0
   -5.3563    2.1642    3.4983 H   0  0  0  0  0  0  0  0  0  0  0  0
   -7.7732    1.2538    1.8895 H   0  0  0  0  0  0  0  0  0  0  0  0
   -9.0175    0.0370    2.3644 H   0  0  0  0  0  0  0  0  0  0  0  0
   -7.6533   -0.4547    1.2860 H   0  0  0  0  0  0  0  0  0  0  0  0
   -5.1337   -1.8785    2.0481 H   0  0  0  0  0  0  0  0  0  0  0  0
   -2.9763   -1.3916    0.9813 H   0  0  0  0  0  0  0  0  0  0  0  0
    0.6393    2.6111   -3.2968 H   0  0  0  0  0  0  0  0  0  0  0  0
    2.1570    4.4115   -3.9789 H   0  0  0  0  0  0  0  0  0  0  0  0
    4.8013    3.4616   -7.0351 H   0  0  0  0  0  0  0  0  0  0  0  0
    4.7385    3.8342   -5.2637 H   0  0  0  0  0  0  0  0  0  0  0  0
    5.6047    4.9450   -6.3919 H   0  0  0  0  0  0  0  0  0  0  0  0
    1.8419    3.1595   -8.0784 H   0  0  0  0  0  0  0  0  0  0  0  0
    0.2748    1.3836   -7.4279 H   0  0  0  0  0  0  0  0  0  0  0  0
    1.5381   -0.7249   -5.6087 H   0  0  0  0  0  0  0  0  0  0  0  0
    1.4889   -2.8080   -6.9225 H   0  0  0  0  0  0  0  0  0  0  0  0
    0.4808   -2.8284   -9.7196 H   0  0  0  0  0  0  0  0  0  0  0  0
   -0.5803   -4.0208  -10.5693 H   0  0  0  0  0  0  0  0  0  0  0  0
   -1.3169   -2.5721   -9.7783 H   0  0  0  0  0  0  0  0  0  0  0  0
   -2.8016   -2.5998   -7.1095 H   0  0  0  0  0  0  0  0  0  0  0  0
   -2.7650   -0.5211   -5.7870 H   0  0  0  0  0  0  0  0  0  0  0  0
   -2.2144    1.9911   -6.4973 H   0  0  0  0  0  0  0  0  0  0  0  0
   -5.1573    5.9103   -7.3074 H   0  0  0  0  0  0  0  0  0  0  0  0
   -9.8572    7.8797   -7.1972 H   0  0  0  0  0  0  0  0  0  0  0  0
  -10.8477    7.2542   -5.8386 H   0  0  0  0  0  0  0  0  0  0  0  0
  -10.5037    9.7107   -5.6537 H   0  0  0  0  0  0  0  0  0  0  0  0
   -8.7129    9.4754   -5.6532 H   0  0  0  0  0  0  0  0  0  0  0  0
   -9.7083    8.8520   -4.2726 H   0  0  0  0  0  0  0  0  0  0  0  0
  1  2  2  3
  2  3  1  0
  3  4  1  0
  4  5  2  0
  4  6  1  0
  6  7  1  0
  7  8  1  0
  6  9  1  0
  9 10  2  0
  1 11  1  0
 11 12  2  0
 12 13  1  0
 13 14  1  0
 14 15  2  0
 15 16  1  0
 16 17  2  0
 17 18  1  0
 18 19  1  0
 17 20  1  0
 20 21  2  0
 13 22  1  0
 22 23  2  0
 23 24  1  0
 24 25  2  0
 25 26  1  0
 26 27  1  0
 25 28  1  0
 28 29  2  0
 12 30  1  0
 30 31  1  0
 31 32  1  0
 32 33  2  0
 33 34  1  0
 34 35  1  0
 35 36  2  0
 36 37  1  0
 37 38  2  0
 38 39  1  0
 39 40  1  0
 38 41  1  0
 41 42  2  0
 34 43  1  0
 43 44  2  0
 44 45  1  0
 45 46  2  0
 46 47  1  0
 47 48  1  0
 46 49  1  0
 49 50  2  0
 33 51  1  0
 51 52  1  0
 32 53  1  0
 53 54  2  0
 54 55  1  0
 55 56  1  0
 56 57  2  0
 57 58  1  0
 58 59  2  0
 59 60  1  0
 60 61  1  0
 59 62  1  0
 62 63  2  0
 55 64  1  0
 64 65  2  0
 65 66  1  0
 66 67  2  0
 67 68  1  0
 68 69  1  0
 67 70  1  0
 70 71  2  0
 54 72  1  0
 72 73  1  0
 73 74  1  0
 74 75  2  0
 75 76  1  0
 76 77  1  0
 77 78  2  0
 78 79  1  0
 79 80  2  0
 80 81  1  0
 81 82  1  0
 80 83  1  0
 83 84  2  0
 76 85  1  0
 85 86  2  0
 86 87  1  0
 87 88  2  0
 88 89  1  0
 89 90  1  0
 88 91  1  0
 91 92  2  0
 75 93  1  0
 93 94  1  0
 74 95  1  0
 95 96  2  0
 96 97  1  0
 97 98  1  0
 97 99  2  0
 99100  1  0
 99101  1  0
101102  2  3
102103  1  0
103104  1  0
104105  2  0
104106  1  0
106107  1  0
107108  1  0
106109  1  0
109110  2  0
  9  2  1  0
 52 11  1  0
 94 53  1  0
100 95  1  0
109102  1  0
 21 14  1  0
 29 22  1  0
 51 30  2  0
 63 56  1  0
 71 64  1  0
 93 72  2  0
 42 35  1  0
 50 43  1  0
 84 77  1  0
 92 85  1  0
  1111  1  0
  7112  1  0
  7113  1  0
  8114  1  0
  8115  1  0
  8116  1  0
 15117  1  0
 16118  1  0
 19119  1  0
 19120  1  0
 19121  1  0
 20122  1  0
 21123  1  0
 23124  1  0
 24125  1  0
 27126  1  0
 27127  1  0
 27128  1  0
 28129  1  0
 29130  1  0
 36131  1  0
 37132  1  0
 40133  1  0
 40134  1  0
 40135  1  0
 41136  1  0
 42137  1  0
 44138  1  0
 45139  1  0
 48140  1  0
 48141  1  0
 48142  1  0
 49143  1  0
 50144  1  0
 57145  1  0
 58146  1  0
 61147  1  0
 61148  1  0
 61149  1  0
 62150  1  0
 63151  1  0
 65152  1  0
 66153  1  0
 69154  1  0
 69155  1  0
 69156  1  0
 70157  1  0
 71158  1  0
 78159  1  0
 79160  1  0
 82161  1  0
 82162  1  0
 82163  1  0
 83164  1  0
 84165  1  0
 86166  1  0
 87167  1  0
 90168  1  0
 90169  1  0
 90170  1  0
 91171  1  0
 92172  1  0
 96173  1  0
101174  1  0
107175  1  0
107176  1  0
108177  1  0
108178  1  0
108179  1  0
M  END

