
     RDKit          3D

190207  0  0  0  0  0  0  0  0999 V2000
    8.0429   -6.8189    5.5837 C   0  0  0  0  0  0  0  0  0  0  0  0
    9.3230   -6.8170    5.5575 C   0  0  0  0  0  0  0  0  0  0  0  0
   10.3064   -7.5335    6.9214 S   0  0  0  0  0  0  0  0  0  0  0  0
   11.7749   -6.5245    6.5518 C   0  0  0  0  0  0  0  0  0  0  0  0
   12.6637   -6.1885    7.3594 O   0  0  0  0  0  0  0  0  0  0  0  0
   11.6344   -6.2421    5.1676 N   0  0  0  0  0  0  0  0  0  0  0  0
   12.7916   -5.8260    4.3526 C   0  0  0  0  0  0  0  0  0  0  0  0
   12.9660   -4.3385    4.3124 C   0  0  0  0  0  0  0  0  0  0  0  0
   10.3426   -6.3992    4.6502 C   0  0  0  0  0  0  0  0  0  0  0  0
   10.0848   -6.1775    3.4071 O   0  0  0  0  0  0  0  0  0  0  0  0
    7.2007   -6.2463    4.5135 C   0  0  0  0  0  0  0  0  0  0  0  0
    5.9277   -5.7875    4.6998 C   0  0  0  0  0  0  0  0  0  0  0  0
    5.2821   -5.2512    3.6235 C   0  0  0  0  0  0  0  0  0  0  0  0
    3.9868   -4.7344    3.5884 C   0  0  0  0  0  0  0  0  0  0  0  0
    3.1514   -4.4824    4.7417 C   0  0  0  0  0  0  0  0  0  0  0  0
    1.8578   -4.2127    4.9505 C   0  0  0  0  0  0  0  0  0  0  0  0
    1.3518   -3.8342    6.1164 C   0  0  0  0  0  0  0  0  0  0  0  0
    2.0607   -3.6715    7.2364 C   0  0  0  0  0  0  0  0  0  0  0  0
    1.8008   -3.1416    8.8865 S   0  0  0  0  0  0  0  0  0  0  0  0
    0.0638   -2.6846    9.0712 C   0  0  0  0  0  0  0  0  0  0  0  0
   -0.8648   -3.8499    9.0587 C   0  0  0  0  0  0  0  0  0  0  0  0
    3.8585   -4.1583    6.5329 Se  0  0  0  0  0  2  0  0  0  0  0  0
    3.5083   -4.2397    2.3718 C   0  0  0  0  0  0  0  0  0  0  0  0
    4.1895   -4.1956    1.1862 C   0  0  0  0  0  0  0  0  0  0  0  0
    5.4783   -4.7173    1.2398 C   0  0  0  0  0  0  0  0  0  0  0  0
    6.3246   -4.8763    0.0711 C   0  0  0  0  0  0  0  0  0  0  0  0
    7.6477   -5.0799   -0.0675 C   0  0  0  0  0  0  0  0  0  0  0  0
    8.2213   -5.3110   -1.2387 C   0  0  0  0  0  0  0  0  0  0  0  0
    7.5594   -5.3641   -2.3971 C   0  0  0  0  0  0  0  0  0  0  0  0
    7.9642   -5.6134   -4.0999 S   0  0  0  0  0  0  0  0  0  0  0  0
    8.0999   -7.4129   -4.4558 C   0  0  0  0  0  0  0  0  0  0  0  0
    6.7903   -8.1123   -4.2461 C   0  0  0  0  0  0  0  0  0  0  0  0
    5.7340   -5.0195   -1.7362 Se  0  0  0  0  0  2  0  0  0  0  0  0
    5.9757   -5.2244    2.4502 C   0  0  0  0  0  0  0  0  0  0  0  0
    7.4654   -5.9295    2.8796 S   0  0  0  0  0  0  0  0  0  0  0  0
    3.5485   -3.5915    0.1493 C   0  0  0  0  0  0  0  0  0  0  0  0
    2.3346   -3.0926    0.3266 C   0  0  0  0  0  0  0  0  0  0  0  0
    2.0350   -3.4731    2.0183 S   0  0  0  0  0  0  0  0  0  0  0  0
    1.4094   -2.1563   -0.3519 C   0  0  0  0  0  0  0  0  0  0  0  0
    0.0672   -2.1329   -0.2912 C   0  0  0  0  0  0  0  0  0  0  0  0
   -0.6736   -3.2327    0.3368 N   0  0  0  0  0  0  0  0  0  0  0  0
   -0.4253   -4.5341   -0.1739 C   0  0  0  0  0  0  0  0  0  0  0  0
   -0.2271   -5.6205    0.6430 C   0  0  0  0  0  0  0  0  0  0  0  0
    0.0752   -6.8910    0.1425 C   0  0  0  0  0  0  0  0  0  0  0  0
    0.1801   -7.0710   -1.2167 C   0  0  0  0  0  0  0  0  0  0  0  0
    0.6189   -8.6681   -1.8478 S   0  0  0  0  0  0  0  0  0  0  0  0
   -0.7822   -9.7356   -2.1875 C   0  0  0  0  0  0  0  0  0  0  0  0
   -0.0170   -5.9968   -2.0558 C   0  0  0  0  0  0  0  0  0  0  0  0
   -0.3203   -4.7258   -1.5470 C   0  0  0  0  0  0  0  0  0  0  0  0
   -1.5852   -3.0051    1.3746 C   0  0  0  0  0  0  0  0  0  0  0  0
   -2.8277   -3.6212    1.2802 C   0  0  0  0  0  0  0  0  0  0  0  0
   -3.8035   -3.4699    2.2382 C   0  0  0  0  0  0  0  0  0  0  0  0
   -3.5879   -2.6876    3.3494 C   0  0  0  0  0  0  0  0  0  0  0  0
   -4.8499   -2.4584    4.6006 S   0  0  0  0  0  0  0  0  0  0  0  0
   -4.7931   -3.6952    5.8861 C   0  0  0  0  0  0  0  0  0  0  0  0
   -2.3496   -2.0590    3.4685 C   0  0  0  0  0  0  0  0  0  0  0  0
   -1.3784   -2.2301    2.4825 C   0  0  0  0  0  0  0  0  0  0  0  0
   -0.5561   -1.0939   -0.9017 C   0  0  0  0  0  0  0  0  0  0  0  0
   -2.1649   -0.4629   -1.0594 S   0  0  0  0  0  0  0  0  0  0  0  0
   -1.7986    0.9940   -1.9280 C   0  0  0  0  0  0  0  0  0  0  0  0
   -0.4680    0.9259   -2.0657 C   0  0  0  0  0  0  0  0  0  0  0  0
    0.3101    1.9428   -2.7527 N   0  0  0  0  0  0  0  0  0  0  0  0
    0.2976    2.0370   -4.1557 C   0  0  0  0  0  0  0  0  0  0  0  0
    0.3882    0.8749   -4.8938 C   0  0  0  0  0  0  0  0  0  0  0  0
    0.3964    0.9537   -6.2656 C   0  0  0  0  0  0  0  0  0  0  0  0
    0.3181    2.1549   -6.9314 C   0  0  0  0  0  0  0  0  0  0  0  0
    0.3063    2.2573   -8.7252 S   0  0  0  0  0  0  0  0  0  0  0  0
    0.3817    0.5488   -9.3763 C   0  0  0  0  0  0  0  0  0  0  0  0
    0.2287    3.3064   -6.1599 C   0  0  0  0  0  0  0  0  0  0  0  0
    0.2158    3.2795   -4.7938 C   0  0  0  0  0  0  0  0  0  0  0  0
    1.0990    2.8318   -1.9859 C   0  0  0  0  0  0  0  0  0  0  0  0
    2.4143    3.0937   -2.4096 C   0  0  0  0  0  0  0  0  0  0  0  0
    3.2337    3.9478   -1.7161 C   0  0  0  0  0  0  0  0  0  0  0  0
    2.7424    4.5548   -0.5772 C   0  0  0  0  0  0  0  0  0  0  0  0
    3.7945    5.6739    0.3320 S   0  0  0  0  0  0  0  0  0  0  0  0
    3.6049    7.3690   -0.2544 C   0  0  0  0  0  0  0  0  0  0  0  0
    1.4500    4.3064   -0.1501 C   0  0  0  0  0  0  0  0  0  0  0  0
    0.6169    3.4427   -0.8546 C   0  0  0  0  0  0  0  0  0  0  0  0
    0.1562   -0.1629   -1.5249 C   0  0  0  0  0  0  0  0  0  0  0  0
    1.7759   -0.7531   -1.2679 S   0  0  0  0  0  0  0  0  0  0  0  0
   -2.7799    2.0684   -2.2265 C   0  0  0  0  0  0  0  0  0  0  0  0
   -4.1323    1.9938   -2.0179 C   0  0  0  0  0  0  0  0  0  0  0  0
   -4.8653    3.0867   -2.2572 C   0  0  0  0  0  0  0  0  0  0  0  0
   -6.2411    3.2535   -2.0468 C   0  0  0  0  0  0  0  0  0  0  0  0
   -7.1347    2.1644   -1.6925 C   0  0  0  0  0  0  0  0  0  0  0  0
   -8.3536    2.1341   -1.1448 C   0  0  0  0  0  0  0  0  0  0  0  0
   -9.0578    1.0119   -1.0118 C   0  0  0  0  0  0  0  0  0  0  0  0
   -8.6438   -0.1841   -1.3982 C   0  0  0  0  0  0  0  0  0  0  0  0
   -9.2470   -1.8385   -1.4053 S   0  0  0  0  0  0  0  0  0  0  0  0
  -10.2394   -2.1903   -2.8975 C   0  0  0  0  0  0  0  0  0  0  0  0
   -9.4285   -2.1381   -4.1522 C   0  0  0  0  0  0  0  0  0  0  0  0
   -6.8663    0.3292   -2.1204 Se  0  0  0  0  0  2  0  0  0  0  0  0
   -6.8095    4.4859   -2.2861 C   0  0  0  0  0  0  0  0  0  0  0  0
   -6.1630    5.6114   -2.7228 C   0  0  0  0  0  0  0  0  0  0  0  0
   -4.7913    5.4542   -2.9364 C   0  0  0  0  0  0  0  0  0  0  0  0
   -3.8627    6.5175   -3.2826 C   0  0  0  0  0  0  0  0  0  0  0  0
   -3.8394    7.8504   -3.3191 C   0  0  0  0  0  0  0  0  0  0  0  0
   -2.7993    8.5595   -3.7816 C   0  0  0  0  0  0  0  0  0  0  0  0
   -1.6877    8.0089   -4.2478 C   0  0  0  0  0  0  0  0  0  0  0  0
   -0.1759    8.6144   -4.9441 S   0  0  0  0  0  0  0  0  0  0  0  0
    1.0167    7.2991   -5.2307 C   0  0  0  0  0  0  0  0  0  0  0  0
    1.5456    6.7137   -3.9347 C   0  0  0  0  0  0  0  0  0  0  0  0
   -2.1195    6.1152   -4.0247 Se  0  0  0  0  0  2  0  0  0  0  0  0
   -4.2122    4.2063   -2.6946 C   0  0  0  0  0  0  0  0  0  0  0  0
   -2.5714    3.6612   -2.7547 S   0  0  0  0  0  0  0  0  0  0  0  0
   -6.9129    6.7052   -2.9056 C   0  0  0  0  0  0  0  0  0  0  0  0
   -8.2658    6.6318   -2.6446 C   0  0  0  0  0  0  0  0  0  0  0  0
   -8.4303    5.0133   -2.1528 S   0  0  0  0  0  0  0  0  0  0  0  0
   -9.2608    7.6964   -2.7816 C   0  0  0  0  0  0  0  0  0  0  0  0
  -10.0959    7.9302   -1.8059 C   0  0  0  0  0  0  0  0  0  0  0  0
  -11.3958    9.2122   -1.8082 S   0  0  0  0  0  0  0  0  0  0  0  0
  -11.4496    9.3551   -0.0000 C   0  0  0  0  0  0  0  0  0  0  0  0
  -11.8427   10.3276    0.6889 O   0  0  0  0  0  0  0  0  0  0  0  0
  -10.9443    8.1083    0.4403 N   0  0  0  0  0  0  0  0  0  0  0  0
  -11.1568    7.6863    1.8457 C   0  0  0  0  0  0  0  0  0  0  0  0
   -9.9517    8.2271    2.5873 C   0  0  0  0  0  0  0  0  0  0  0  0
  -10.2429    7.3523   -0.4780 C   0  0  0  0  0  0  0  0  0  0  0  0
   -9.7382    6.2010   -0.1868 O   0  0  0  0  0  0  0  0  0  0  0  0
    7.5309   -7.2780    6.4534 H   0  0  0  0  0  0  0  0  0  0  0  0
   13.7184   -6.2749    4.7414 H   0  0  0  0  0  0  0  0  0  0  0  0
   12.6725   -6.1815    3.3112 H   0  0  0  0  0  0  0  0  0  0  0  0
   14.0565   -4.1785    4.0500 H   0  0  0  0  0  0  0  0  0  0  0  0
   12.3548   -3.8779    3.4974 H   0  0  0  0  0  0  0  0  0  0  0  0
   12.8105   -3.8435    5.2896 H   0  0  0  0  0  0  0  0  0  0  0  0
    5.4650   -5.8716    5.7170 H   0  0  0  0  0  0  0  0  0  0  0  0
    1.1622   -4.3499    4.0346 H   0  0  0  0  0  0  0  0  0  0  0  0
    0.2244   -3.6312    6.2025 H   0  0  0  0  0  0  0  0  0  0  0  0
   -0.1246   -2.0371    9.9394 H   0  0  0  0  0  0  0  0  0  0  0  0
   -0.2248   -2.0618    8.1677 H   0  0  0  0  0  0  0  0  0  0  0  0
   -0.3769   -4.8084    8.7963 H   0  0  0  0  0  0  0  0  0  0  0  0
   -1.8088   -3.6971    8.5047 H   0  0  0  0  0  0  0  0  0  0  0  0
   -1.1767   -4.0033   10.1416 H   0  0  0  0  0  0  0  0  0  0  0  0
    8.2881   -5.0337    0.8683 H   0  0  0  0  0  0  0  0  0  0  0  0
    9.3598   -5.4921   -1.3184 H   0  0  0  0  0  0  0  0  0  0  0  0
    8.4019   -7.5836   -5.5026 H   0  0  0  0  0  0  0  0  0  0  0  0
    8.9044   -7.8590   -3.8051 H   0  0  0  0  0  0  0  0  0  0  0  0
    6.4437   -8.6782   -5.1272 H   0  0  0  0  0  0  0  0  0  0  0  0
    5.9643   -7.4061   -3.9723 H   0  0  0  0  0  0  0  0  0  0  0  0
    6.9000   -8.8960   -3.4393 H   0  0  0  0  0  0  0  0  0  0  0  0
    4.0172   -3.4940   -0.8685 H   0  0  0  0  0  0  0  0  0  0  0  0
   -0.2989   -5.5324    1.7175 H   0  0  0  0  0  0  0  0  0  0  0  0
    0.2224   -7.7071    0.8351 H   0  0  0  0  0  0  0  0  0  0  0  0
   -0.3792  -10.7847   -2.2544 H   0  0  0  0  0  0  0  0  0  0  0  0
   -1.1260   -9.5168   -3.2397 H   0  0  0  0  0  0  0  0  0  0  0  0
   -1.5763   -9.7103   -1.4447 H   0  0  0  0  0  0  0  0  0  0  0  0
    0.0663   -6.1210   -3.1338 H   0  0  0  0  0  0  0  0  0  0  0  0
   -0.4828   -3.8766   -2.1835 H   0  0  0  0  0  0  0  0  0  0  0  0
   -3.0397   -4.2432    0.4355 H   0  0  0  0  0  0  0  0  0  0  0  0
   -4.7792   -3.9759    2.1159 H   0  0  0  0  0  0  0  0  0  0  0  0
   -3.8360   -4.2563    5.9551 H   0  0  0  0  0  0  0  0  0  0  0  0
   -5.6065   -4.4571    5.7956 H   0  0  0  0  0  0  0  0  0  0  0  0
   -4.9666   -3.2067    6.8639 H   0  0  0  0  0  0  0  0  0  0  0  0
   -2.2125   -1.4534    4.3400 H   0  0  0  0  0  0  0  0  0  0  0  0
   -0.4479   -1.7256    2.6303 H   0  0  0  0  0  0  0  0  0  0  0  0
    0.4464   -0.0849   -4.4069 H   0  0  0  0  0  0  0  0  0  0  0  0
    0.4759    0.0111   -6.8254 H   0  0  0  0  0  0  0  0  0  0  0  0
   -0.4232   -0.0424   -8.8349 H   0  0  0  0  0  0  0  0  0  0  0  0
    1.3330    0.1348   -9.0157 H   0  0  0  0  0  0  0  0  0  0  0  0
    0.2637    0.5255  -10.4645 H   0  0  0  0  0  0  0  0  0  0  0  0
    0.1721    4.2707   -6.6802 H   0  0  0  0  0  0  0  0  0  0  0  0
    0.1569    4.1395   -4.1530 H   0  0  0  0  0  0  0  0  0  0  0  0
    2.7926    2.5926   -3.3083 H   0  0  0  0  0  0  0  0  0  0  0  0
    4.2406    4.1343   -2.0639 H   0  0  0  0  0  0  0  0  0  0  0  0
    2.7065    7.8637    0.1622 H   0  0  0  0  0  0  0  0  0  0  0  0
    3.5571    7.4348   -1.3478 H   0  0  0  0  0  0  0  0  0  0  0  0
    4.4735    7.9809    0.1288 H   0  0  0  0  0  0  0  0  0  0  0  0
    1.0808    4.8028    0.7615 H   0  0  0  0  0  0  0  0  0  0  0  0
   -0.4017    3.2760   -0.4775 H   0  0  0  0  0  0  0  0  0  0  0  0
   -4.5426    1.0288   -1.6426 H   0  0  0  0  0  0  0  0  0  0  0  0
   -8.7690    3.1324   -0.7568 H   0  0  0  0  0  0  0  0  0  0  0  0
  -10.1037    1.0664   -0.5318 H   0  0  0  0  0  0  0  0  0  0  0  0
  -10.6453   -3.2243   -2.7868 H   0  0  0  0  0  0  0  0  0  0  0  0
  -11.1288   -1.5359   -2.9776 H   0  0  0  0  0  0  0  0  0  0  0  0
   -9.5415   -1.1126   -4.5809 H   0  0  0  0  0  0  0  0  0  0  0  0
   -9.8489   -2.8342   -4.8984 H   0  0  0  0  0  0  0  0  0  0  0  0
   -8.3876   -2.4014   -3.9585 H   0  0  0  0  0  0  0  0  0  0  0  0
   -4.7271    8.4124   -2.8928 H   0  0  0  0  0  0  0  0  0  0  0  0
   -2.8318    9.7091   -3.7838 H   0  0  0  0  0  0  0  0  0  0  0  0
    0.4749    6.4574   -5.7487 H   0  0  0  0  0  0  0  0  0  0  0  0
    1.8192    7.6951   -5.8530 H   0  0  0  0  0  0  0  0  0  0  0  0
    1.9779    5.7070   -4.1328 H   0  0  0  0  0  0  0  0  0  0  0  0
    0.7559    6.5571   -3.1796 H   0  0  0  0  0  0  0  0  0  0  0  0
    2.3853    7.3296   -3.5366 H   0  0  0  0  0  0  0  0  0  0  0  0
   -6.5566    7.6909   -3.2899 H   0  0  0  0  0  0  0  0  0  0  0  0
   -9.2824    8.2611   -3.6721 H   0  0  0  0  0  0  0  0  0  0  0  0
  -12.1147    8.0439    2.2251 H   0  0  0  0  0  0  0  0  0  0  0  0
  -11.1128    6.5932    1.9415 H   0  0  0  0  0  0  0  0  0  0  0  0
  -10.0890    8.3339    3.6658 H   0  0  0  0  0  0  0  0  0  0  0  0
   -9.1115    7.5307    2.3686 H   0  0  0  0  0  0  0  0  0  0  0  0
   -9.6585    9.1999    2.1217 H   0  0  0  0  0  0  0  0  0  0  0  0
  1  2  2  3
  2  3  1  0
  3  4  1  0
  4  5  2  0
  4  6  1  0
  6  7  1  0
  7  8  1  0
  6  9  1  0
  9 10  2  0
  1 11  1  0
 11 12  2  0
 12 13  1  0
 13 14  2  0
 14 15  1  0
 15 16  2  0
 16 17  1  0
 17 18  2  0
 18 19  1  0
 19 20  1  0
 20 21  1  0
 18 22  1  0
 14 23  1  0
 23 24  2  0
 24 25  1  0
 25 26  1  0
 26 27  2  0
 27 28  1  0
 28 29  2  0
 29 30  1  0
 30 31  1  0
 31 32  1  0
 29 33  1  0
 25 34  2  0
 34 35  1  0
 24 36  1  0
 36 37  2  0
 37 38  1  0
 37 39  1  0
 39 40  2  0
 40 41  1  0
 41 42  1  0
 42 43  2  0
 43 44  1  0
 44 45  2  0
 45 46  1  0
 46 47  1  0
 45 48  1  0
 48 49  2  0
 41 50  1  0
 50 51  2  0
 51 52  1  0
 52 53  2  0
 53 54  1  0
 54 55  1  0
 53 56  1  0
 56 57  2  0
 40 58  1  0
 58 59  1  0
 59 60  1  0
 60 61  2  0
 61 62  1  0
 62 63  1  0
 63 64  2  0
 64 65  1  0
 65 66  2  0
 66 67  1  0
 67 68  1  0
 66 69  1  0
 69 70  2  0
 62 71  1  0
 71 72  2  0
 72 73  1  0
 73 74  2  0
 74 75  1  0
 75 76  1  0
 74 77  1  0
 77 78  2  0
 61 79  1  0
 79 80  1  0
 60 81  1  0
 81 82  2  0
 82 83  1  0
 83 84  2  0
 84 85  1  0
 85 86  2  0
 86 87  1  0
 87 88  2  0
 88 89  1  0
 89 90  1  0
 90 91  1  0
 88 92  1  0
 84 93  1  0
 93 94  2  0
 94 95  1  0
 95 96  1  0
 96 97  2  0
 97 98  1  0
 98 99  2  0
 99100  1  0
100101  1  0
101102  1  0
 99103  1  0
 95104  2  0
104105  1  0
 94106  1  0
106107  2  0
107108  1  0
107109  1  0
109110  2  3
110111  1  0
111112  1  0
112113  2  0
112114  1  0
114115  1  0
115116  1  0
114117  1  0
117118  2  0
  9  2  1  0
 35 11  1  0
 80 39  1  0
105 81  1  0
117110  1  0
 34 13  1  0
 49 42  1  0
 57 50  1  0
 79 58  2  0
104 83  1  0
 22 15  1  0
 38 23  1  0
 70 63  1  0
 78 71  1  0
 92 85  1  0
108 93  1  0
 33 26  1  0
103 96  1  0
  1119  1  0
  7120  1  0
  7121  1  0
  8122  1  0
  8123  1  0
  8124  1  0
 12125  1  0
 16126  1  0
 17127  1  0
 20128  1  0
 20129  1  0
 21130  1  0
 21131  1  0
 21132  1  0
 27133  1  0
 28134  1  0
 31135  1  0
 31136  1  0
 32137  1  0
 32138  1  0
 32139  1  0
 36140  1  0
 43141  1  0
 44142  1  0
 47143  1  0
 47144  1  0
 47145  1  0
 48146  1  0
 49147  1  0
 51148  1  0
 52149  1  0
 55150  1  0
 55151  1  0
 55152  1  0
 56153  1  0
 57154  1  0
 64155  1  0
 65156  1  0
 68157  1  0
 68158  1  0
 68159  1  0
 69160  1  0
 70161  1  0
 72162  1  0
 73163  1  0
 76164  1  0
 76165  1  0
 76166  1  0
 77167  1  0
 78168  1  0
 82169  1  0
 86170  1  0
 87171  1  0
 90172  1  0
 90173  1  0
 91174  1  0
 91175  1  0
 91176  1  0
 97177  1  0
 98178  1  0
101179  1  0
101180  1  0
102181  1  0
102182  1  0
102183  1  0
106184  1  0
109185  1  0
115186  1  0
115187  1  0
116188  1  0
116189  1  0
116190  1  0
M  END

