
     RDKit          3D

220237  0  0  0  0  0  0  0  0999 V2000
   -2.8753   -5.4752    5.5114 C   0  0  0  0  0  0  0  0  0  0  0  0
   -1.9315   -6.2165    6.1071 C   0  0  0  0  0  0  0  0  0  0  0  0
   -2.1248   -6.7671    7.8072 S   0  0  0  0  0  0  0  0  0  0  0  0
   -0.3531   -7.0861    7.8153 C   0  0  0  0  0  0  0  0  0  0  0  0
    0.2981   -7.1865    8.8882 O   0  0  0  0  0  0  0  0  0  0  0  0
    0.2775   -7.0808    6.5386 N   0  0  0  0  0  0  0  0  0  0  0  0
    1.6701   -7.4609    6.2878 C   0  0  0  0  0  0  0  0  0  0  0  0
    1.7403   -8.8307    5.6288 C   0  0  0  0  0  0  0  0  0  0  0  0
   -0.6303   -6.6140    5.5495 C   0  0  0  0  0  0  0  0  0  0  0  0
   -0.3525   -6.6226    4.3215 O   0  0  0  0  0  0  0  0  0  0  0  0
   -2.7284   -4.7985    4.2108 C   0  0  0  0  0  0  0  0  0  0  0  0
   -3.7799   -4.5763    3.3034 C   0  0  0  0  0  0  0  0  0  0  0  0
   -5.1479   -4.9289    3.5725 N   0  0  0  0  0  0  0  0  0  0  0  0
   -6.0346   -3.9435    4.1587 C   0  0  0  0  0  0  0  0  0  0  0  0
   -5.5240   -2.9009    4.9637 C   0  0  0  0  0  0  0  0  0  0  0  0
   -6.3871   -1.9919    5.5807 C   0  0  0  0  0  0  0  0  0  0  0  0
   -7.7688   -2.0966    5.3970 C   0  0  0  0  0  0  0  0  0  0  0  0
   -8.8852   -0.9862    6.2592 S   0  0  0  0  0  0  0  0  0  0  0  0
   -8.5897    0.4146    5.1331 C   0  0  0  0  0  0  0  0  0  0  0  0
   -8.2844   -3.1041    4.5731 C   0  0  0  0  0  0  0  0  0  0  0  0
   -7.4246   -4.0297    3.9697 C   0  0  0  0  0  0  0  0  0  0  0  0
   -5.5147   -6.3148    3.4883 C   0  0  0  0  0  0  0  0  0  0  0  0
   -6.1790   -6.9498    4.5580 C   0  0  0  0  0  0  0  0  0  0  0  0
   -6.4776   -8.3132    4.4993 C   0  0  0  0  0  0  0  0  0  0  0  0
   -6.1213   -9.0618    3.3665 C   0  0  0  0  0  0  0  0  0  0  0  0
   -6.4923  -10.8139    3.2873 S   0  0  0  0  0  0  0  0  0  0  0  0
   -8.1152  -10.5621    2.5096 C   0  0  0  0  0  0  0  0  0  0  0  0
   -5.4567   -8.4399    2.3045 C   0  0  0  0  0  0  0  0  0  0  0  0
   -5.1545   -7.0748    2.3658 C   0  0  0  0  0  0  0  0  0  0  0  0
   -3.3754   -3.7775    2.2335 C   0  0  0  0  0  0  0  0  0  0  0  0
   -4.0992   -3.1805    0.8304 S   0  0  0  0  0  0  0  0  0  0  0  0
   -2.7257   -2.2726    0.3651 C   0  0  0  0  0  0  0  0  0  0  0  0
   -1.7040   -2.4543    1.3153 C   0  0  0  0  0  0  0  0  0  0  0  0
   -0.4954   -1.6776    1.3889 N   0  0  0  0  0  0  0  0  0  0  0  0
    0.7825   -2.3504    1.4040 C   0  0  0  0  0  0  0  0  0  0  0  0
    1.6767   -2.1536    2.4737 C   0  0  0  0  0  0  0  0  0  0  0  0
    2.9456   -2.7384    2.4546 C   0  0  0  0  0  0  0  0  0  0  0  0
    3.3395   -3.5171    1.3643 C   0  0  0  0  0  0  0  0  0  0  0  0
    5.0053   -4.1732    1.2918 S   0  0  0  0  0  0  0  0  0  0  0  0
    5.6859   -2.6299    0.5990 C   0  0  0  0  0  0  0  0  0  0  0  0
    2.4455   -3.7449    0.3105 C   0  0  0  0  0  0  0  0  0  0  0  0
    1.1701   -3.1773    0.3372 C   0  0  0  0  0  0  0  0  0  0  0  0
   -0.5553   -0.3362    1.9150 C   0  0  0  0  0  0  0  0  0  0  0  0
    0.3350    0.6472    1.4530 C   0  0  0  0  0  0  0  0  0  0  0  0
    0.4294    1.8823    2.1000 C   0  0  0  0  0  0  0  0  0  0  0  0
   -0.3575    2.1449    3.2274 C   0  0  0  0  0  0  0  0  0  0  0  0
   -0.1194    3.6628    4.1567 S   0  0  0  0  0  0  0  0  0  0  0  0
   -1.4828    4.5272    3.3249 C   0  0  0  0  0  0  0  0  0  0  0  0
   -1.2641    1.1813    3.6806 C   0  0  0  0  0  0  0  0  0  0  0  0
   -1.3665   -0.0480    3.0306 C   0  0  0  0  0  0  0  0  0  0  0  0
   -2.1018   -3.3204    2.3222 C   0  0  0  0  0  0  0  0  0  0  0  0
   -1.3730   -3.8886    3.7234 S   0  0  0  0  0  0  0  0  0  0  0  0
   -2.5075   -1.6899   -0.9661 C   0  0  0  0  0  0  0  0  0  0  0  0
   -2.2238   -0.3282   -1.1615 C   0  0  0  0  0  0  0  0  0  0  0  0
   -2.9802    0.7585   -0.5717 N   0  0  0  0  0  0  0  0  0  0  0  0
   -4.3129    0.4853   -0.1087 C   0  0  0  0  0  0  0  0  0  0  0  0
   -5.3731    0.4455   -1.0320 C   0  0  0  0  0  0  0  0  0  0  0  0
   -6.6735    0.1598   -0.5993 C   0  0  0  0  0  0  0  0  0  0  0  0
   -6.9199   -0.0939    0.7530 C   0  0  0  0  0  0  0  0  0  0  0  0
   -8.5738   -0.5345    1.2902 S   0  0  0  0  0  0  0  0  0  0  0  0
   -8.3014   -2.3137    1.0249 C   0  0  0  0  0  0  0  0  0  0  0  0
   -5.8719   -0.0326    1.6786 C   0  0  0  0  0  0  0  0  0  0  0  0
   -4.5736    0.2687    1.2487 C   0  0  0  0  0  0  0  0  0  0  0  0
   -2.7663    2.1166   -1.0001 C   0  0  0  0  0  0  0  0  0  0  0  0
   -2.8621    2.4555   -2.3643 C   0  0  0  0  0  0  0  0  0  0  0  0
   -2.7502    3.7853   -2.7724 C   0  0  0  0  0  0  0  0  0  0  0  0
   -2.5811    4.7957   -1.8237 C   0  0  0  0  0  0  0  0  0  0  0  0
   -2.5193    6.5088   -2.3408 S   0  0  0  0  0  0  0  0  0  0  0  0
   -4.3241    6.7033   -2.2999 C   0  0  0  0  0  0  0  0  0  0  0  0
   -2.5033    4.4715   -0.4660 C   0  0  0  0  0  0  0  0  0  0  0  0
   -2.5912    3.1358   -0.0538 C   0  0  0  0  0  0  0  0  0  0  0  0
   -1.2008   -0.1593   -2.1036 C   0  0  0  0  0  0  0  0  0  0  0  0
    0.0749    0.9062   -2.0482 S   0  0  0  0  0  0  0  0  0  0  0  0
    1.1713   -0.0341   -2.9500 C   0  0  0  0  0  0  0  0  0  0  0  0
    0.4918   -1.2098   -3.3670 C   0  0  0  0  0  0  0  0  0  0  0  0
    0.9034   -2.0340   -4.4934 N   0  0  0  0  0  0  0  0  0  0  0  0
    0.9202   -1.4702   -5.8298 C   0  0  0  0  0  0  0  0  0  0  0  0
    1.6317   -0.2861   -6.1220 C   0  0  0  0  0  0  0  0  0  0  0  0
    1.6575    0.2278   -7.4223 C   0  0  0  0  0  0  0  0  0  0  0  0
    0.9796   -0.4266   -8.4534 C   0  0  0  0  0  0  0  0  0  0  0  0
    1.0268    0.2301  -10.1214 S   0  0  0  0  0  0  0  0  0  0  0  0
   -0.4904    1.2149   -9.9074 C   0  0  0  0  0  0  0  0  0  0  0  0
    0.2793   -1.6067   -8.1837 C   0  0  0  0  0  0  0  0  0  0  0  0
    0.2458   -2.1203   -6.8853 C   0  0  0  0  0  0  0  0  0  0  0  0
    1.0041   -3.4732   -4.3831 C   0  0  0  0  0  0  0  0  0  0  0  0
   -0.1474   -4.2771   -4.3346 C   0  0  0  0  0  0  0  0  0  0  0  0
   -0.0401   -5.6699   -4.2755 C   0  0  0  0  0  0  0  0  0  0  0  0
    1.2169   -6.2755   -4.2933 C   0  0  0  0  0  0  0  0  0  0  0  0
    1.3642   -8.0616   -4.1837 S   0  0  0  0  0  0  0  0  0  0  0  0
    1.3182   -8.3022   -5.9849 C   0  0  0  0  0  0  0  0  0  0  0  0
    2.3650   -5.4876   -4.4283 C   0  0  0  0  0  0  0  0  0  0  0  0
    2.2540   -4.0965   -4.5199 C   0  0  0  0  0  0  0  0  0  0  0  0
   -0.8017   -1.2677   -2.7982 C   0  0  0  0  0  0  0  0  0  0  0  0
   -1.5958   -2.5635   -2.0931 S   0  0  0  0  0  0  0  0  0  0  0  0
    2.6534    0.1698   -2.8408 C   0  0  0  0  0  0  0  0  0  0  0  0
    3.5173   -0.9469   -2.7915 C   0  0  0  0  0  0  0  0  0  0  0  0
    3.0214   -2.1945   -2.6801 F   0  0  0  0  0  0  0  0  0  0  0  0
    4.8979   -0.7910   -2.6292 C   0  0  0  0  0  0  0  0  0  0  0  0
    5.6890   -1.8905   -2.6421 F   0  0  0  0  0  0  0  0  0  0  0  0
    5.4395    0.4595   -2.3190 C   0  0  0  0  0  0  0  0  0  0  0  0
    4.5758    1.5608   -2.2117 C   0  0  0  0  0  0  0  0  0  0  0  0
    5.0290    2.7274   -1.6844 N   0  0  0  0  0  0  0  0  0  0  0  0
    4.2238    3.8067   -1.5329 C   0  0  0  0  0  0  0  0  0  0  0  0
    4.6374    4.8721   -0.5987 C   0  0  0  0  0  0  0  0  0  0  0  0
    4.3497    4.7105    0.7602 C   0  0  0  0  0  0  0  0  0  0  0  0
    4.5998    5.7429    1.6617 C   0  0  0  0  0  0  0  0  0  0  0  0
    5.1529    6.9566    1.2154 C   0  0  0  0  0  0  0  0  0  0  0  0
    5.4057    8.0233    2.0909 O   0  0  0  0  0  0  0  0  0  0  0  0
    5.0025    8.0413    3.4595 C   0  0  0  0  0  0  0  0  0  0  0  0
    5.4610    9.3339    4.1106 C   0  0  0  0  0  0  0  0  0  0  0  0
    5.4561    7.1088   -0.1479 C   0  0  0  0  0  0  0  0  0  0  0  0
    5.1976    6.0723   -1.0543 C   0  0  0  0  0  0  0  0  0  0  0  0
    5.9889    8.2730   -0.5949 F   0  0  0  0  0  0  0  0  0  0  0  0
    2.8986    3.7473   -2.0020 C   0  0  0  0  0  0  0  0  0  0  0  0
    2.4262    2.5646   -2.4819 N   0  0  0  0  0  0  0  0  0  0  0  0
    3.2070    1.4485   -2.5547 C   0  0  0  0  0  0  0  0  0  0  0  0
    2.0075    4.9099   -1.8600 C   0  0  0  0  0  0  0  0  0  0  0  0
    2.1783    6.0113   -2.7018 C   0  0  0  0  0  0  0  0  0  0  0  0
    1.5789    7.2358   -2.3954 C   0  0  0  0  0  0  0  0  0  0  0  0
    0.7997    7.3706   -1.2340 C   0  0  0  0  0  0  0  0  0  0  0  0
    0.2055    8.5801   -0.8420 O   0  0  0  0  0  0  0  0  0  0  0  0
    0.3942    9.8536   -1.4615 C   0  0  0  0  0  0  0  0  0  0  0  0
   -0.4421    9.9780   -2.7292 C   0  0  0  0  0  0  0  0  0  0  0  0
    0.6084    6.2549   -0.4075 C   0  0  0  0  0  0  0  0  0  0  0  0
   -0.0721    6.3859    0.7538 F   0  0  0  0  0  0  0  0  0  0  0  0
    1.1982    5.0272   -0.7245 C   0  0  0  0  0  0  0  0  0  0  0  0
    6.8512    0.5895   -1.8994 C   0  0  0  0  0  0  0  0  0  0  0  0
    7.9125    0.4035   -2.6990 C   0  0  0  0  0  0  0  0  0  0  0  0
    9.5669    0.8065   -2.1256 S   0  0  0  0  0  0  0  0  0  0  0  0
   10.0311    0.9715   -3.8512 C   0  0  0  0  0  0  0  0  0  0  0  0
   11.0388    1.6282   -4.2115 O   0  0  0  0  0  0  0  0  0  0  0  0
    9.1006    0.4420   -4.7937 N   0  0  0  0  0  0  0  0  0  0  0  0
    9.4124    0.1145   -6.1834 C   0  0  0  0  0  0  0  0  0  0  0  0
    9.7217   -1.3763   -6.3095 C   0  0  0  0  0  0  0  0  0  0  0  0
    7.8820    0.1284   -4.1413 C   0  0  0  0  0  0  0  0  0  0  0  0
    6.8878   -0.3349   -4.7597 O   0  0  0  0  0  0  0  0  0  0  0  0
   -3.8155   -5.3343    6.0310 H   0  0  0  0  0  0  0  0  0  0  0  0
    2.1547   -6.7014    5.6325 H   0  0  0  0  0  0  0  0  0  0  0  0
    2.2430   -7.4871    7.2427 H   0  0  0  0  0  0  0  0  0  0  0  0
    1.2738   -8.7952    4.6203 H   0  0  0  0  0  0  0  0  0  0  0  0
    1.2080   -9.5820    6.2533 H   0  0  0  0  0  0  0  0  0  0  0  0
    2.7995   -9.1360    5.5208 H   0  0  0  0  0  0  0  0  0  0  0  0
   -4.4624   -2.7986    5.1414 H   0  0  0  0  0  0  0  0  0  0  0  0
   -5.9838   -1.2131    6.2167 H   0  0  0  0  0  0  0  0  0  0  0  0
   -8.7560    0.1124    4.0777 H   0  0  0  0  0  0  0  0  0  0  0  0
   -7.5438    0.7771    5.2453 H   0  0  0  0  0  0  0  0  0  0  0  0
   -9.2821    1.2436    5.3892 H   0  0  0  0  0  0  0  0  0  0  0  0
   -9.3504   -3.1952    4.4267 H   0  0  0  0  0  0  0  0  0  0  0  0
   -7.8413   -4.8141    3.3495 H   0  0  0  0  0  0  0  0  0  0  0  0
   -6.4453   -6.3925    5.4465 H   0  0  0  0  0  0  0  0  0  0  0  0
   -6.9747   -8.7925    5.3303 H   0  0  0  0  0  0  0  0  0  0  0  0
   -8.8020  -10.0628    3.2225 H   0  0  0  0  0  0  0  0  0  0  0  0
   -8.0115   -9.9445    1.5946 H   0  0  0  0  0  0  0  0  0  0  0  0
   -8.5431  -11.5454    2.2261 H   0  0  0  0  0  0  0  0  0  0  0  0
   -5.1738   -9.0109    1.4294 H   0  0  0  0  0  0  0  0  0  0  0  0
   -4.6371   -6.6091    1.5363 H   0  0  0  0  0  0  0  0  0  0  0  0
    1.3999   -1.5310    3.3153 H   0  0  0  0  0  0  0  0  0  0  0  0
    3.6318   -2.5570    3.2723 H   0  0  0  0  0  0  0  0  0  0  0  0
    5.0719   -2.3035   -0.2623 H   0  0  0  0  0  0  0  0  0  0  0  0
    6.7281   -2.7946    0.2553 H   0  0  0  0  0  0  0  0  0  0  0  0
    5.6831   -1.8271    1.3672 H   0  0  0  0  0  0  0  0  0  0  0  0
    2.7462   -4.3449   -0.5337 H   0  0  0  0  0  0  0  0  0  0  0  0
    0.5022   -3.3498   -0.4925 H   0  0  0  0  0  0  0  0  0  0  0  0
    1.0031    0.4201    0.6334 H   0  0  0  0  0  0  0  0  0  0  0  0
    1.1489    2.6076    1.7545 H   0  0  0  0  0  0  0  0  0  0  0  0
   -1.6212    5.5255    3.7899 H   0  0  0  0  0  0  0  0  0  0  0  0
   -1.2315    4.6617    2.2552 H   0  0  0  0  0  0  0  0  0  0  0  0
   -2.4285    3.9465    3.4204 H   0  0  0  0  0  0  0  0  0  0  0  0
   -1.8703    1.3747    4.5599 H   0  0  0  0  0  0  0  0  0  0  0  0
   -2.0393   -0.7920    3.4387 H   0  0  0  0  0  0  0  0  0  0  0  0
   -5.1868    0.6330   -2.0810 H   0  0  0  0  0  0  0  0  0  0  0  0
   -7.4771    0.1199   -1.3241 H   0  0  0  0  0  0  0  0  0  0  0  0
   -8.2449   -2.5251   -0.0645 H   0  0  0  0  0  0  0  0  0  0  0  0
   -9.1518   -2.8803    1.4576 H   0  0  0  0  0  0  0  0  0  0  0  0
   -7.3576   -2.6436    1.5107 H   0  0  0  0  0  0  0  0  0  0  0  0
   -6.0595   -0.2239    2.7261 H   0  0  0  0  0  0  0  0  0  0  0  0
   -3.7768    0.3107    1.9702 H   0  0  0  0  0  0  0  0  0  0  0  0
   -3.0330    1.6889   -3.1087 H   0  0  0  0  0  0  0  0  0  0  0  0
   -2.8397    4.0260   -3.8218 H   0  0  0  0  0  0  0  0  0  0  0  0
   -4.8000    6.0199   -3.0312 H   0  0  0  0  0  0  0  0  0  0  0  0
   -4.6999    6.4908   -1.2751 H   0  0  0  0  0  0  0  0  0  0  0  0
   -4.5783    7.7489   -2.5665 H   0  0  0  0  0  0  0  0  0  0  0  0
   -2.3978    5.2539    0.2751 H   0  0  0  0  0  0  0  0  0  0  0  0
   -2.5541    2.8903    0.9999 H   0  0  0  0  0  0  0  0  0  0  0  0
    2.1909    0.2311   -5.3661 H   0  0  0  0  0  0  0  0  0  0  0  0
    2.2186    1.1291   -7.6259 H   0  0  0  0  0  0  0  0  0  0  0  0
   -1.3411    0.5573   -9.6245 H   0  0  0  0  0  0  0  0  0  0  0  0
   -0.3381    1.9858   -9.1229 H   0  0  0  0  0  0  0  0  0  0  0  0
   -0.7391    1.7211  -10.8654 H   0  0  0  0  0  0  0  0  0  0  0  0
   -0.2378   -2.1220   -8.9822 H   0  0  0  0  0  0  0  0  0  0  0  0
   -0.3123   -3.0285   -6.7141 H   0  0  0  0  0  0  0  0  0  0  0  0
   -1.1314   -3.8348   -4.3894 H   0  0  0  0  0  0  0  0  0  0  0  0
   -0.9344   -6.2777   -4.2355 H   0  0  0  0  0  0  0  0  0  0  0  0
    1.4550   -9.3793   -6.2134 H   0  0  0  0  0  0  0  0  0  0  0  0
    0.3344   -7.9716   -6.3855 H   0  0  0  0  0  0  0  0  0  0  0  0
    2.1318   -7.7213   -6.4676 H   0  0  0  0  0  0  0  0  0  0  0  0
    3.3428   -5.9484   -4.4911 H   0  0  0  0  0  0  0  0  0  0  0  0
    3.1399   -3.5026   -4.6968 H   0  0  0  0  0  0  0  0  0  0  0  0
    3.8997    3.7920    1.1213 H   0  0  0  0  0  0  0  0  0  0  0  0
    4.3522    5.5867    2.7010 H   0  0  0  0  0  0  0  0  0  0  0  0
    5.4531    7.1840    4.0067 H   0  0  0  0  0  0  0  0  0  0  0  0
    3.8943    7.9753    3.5199 H   0  0  0  0  0  0  0  0  0  0  0  0
    5.0149   10.2026    3.5832 H   0  0  0  0  0  0  0  0  0  0  0  0
    5.1408    9.3545    5.1753 H   0  0  0  0  0  0  0  0  0  0  0  0
    6.5670    9.4030    4.0665 H   0  0  0  0  0  0  0  0  0  0  0  0
    5.4058    6.2140   -2.1046 H   0  0  0  0  0  0  0  0  0  0  0  0
    2.8408    5.9446   -3.5600 H   0  0  0  0  0  0  0  0  0  0  0  0
    1.7666    8.0754   -3.0480 H   0  0  0  0  0  0  0  0  0  0  0  0
    0.0519   10.6320   -0.7479 H   0  0  0  0  0  0  0  0  0  0  0  0
    1.4702   10.0443   -1.6631 H   0  0  0  0  0  0  0  0  0  0  0  0
   -1.4311    9.4815   -2.5986 H   0  0  0  0  0  0  0  0  0  0  0  0
    0.0815    9.5173   -3.5946 H   0  0  0  0  0  0  0  0  0  0  0  0
   -0.6145   11.0535   -2.9631 H   0  0  0  0  0  0  0  0  0  0  0  0
    1.0945    4.1965   -0.0387 H   0  0  0  0  0  0  0  0  0  0  0  0
    7.0238    0.9432   -0.8877 H   0  0  0  0  0  0  0  0  0  0  0  0
    8.5508    0.3736   -6.8333 H   0  0  0  0  0  0  0  0  0  0  0  0
   10.2925    0.6982   -6.5262 H   0  0  0  0  0  0  0  0  0  0  0  0
    9.9569   -1.6265   -7.3648 H   0  0  0  0  0  0  0  0  0  0  0  0
   10.6053   -1.6292   -5.6869 H   0  0  0  0  0  0  0  0  0  0  0  0
    8.8504   -1.9815   -5.9723 H   0  0  0  0  0  0  0  0  0  0  0  0
  1  2  2  3
  2  3  1  0
  3  4  1  0
  4  5  2  0
  4  6  1  0
  6  7  1  0
  7  8  1  0
  6  9  1  0
  9 10  2  0
  1 11  1  0
 11 12  2  0
 12 13  1  0
 13 14  1  0
 14 15  2  0
 15 16  1  0
 16 17  2  0
 17 18  1  0
 18 19  1  0
 17 20  1  0
 20 21  2  0
 13 22  1  0
 22 23  2  0
 23 24  1  0
 24 25  2  0
 25 26  1  0
 26 27  1  0
 25 28  1  0
 28 29  2  0
 12 30  1  0
 30 31  1  0
 31 32  1  0
 32 33  2  0
 33 34  1  0
 34 35  1  0
 35 36  2  0
 36 37  1  0
 37 38  2  0
 38 39  1  0
 39 40  1  0
 38 41  1  0
 41 42  2  0
 34 43  1  0
 43 44  2  0
 44 45  1  0
 45 46  2  0
 46 47  1  0
 47 48  1  0
 46 49  1  0
 49 50  2  0
 33 51  1  0
 51 52  1  0
 32 53  1  0
 53 54  2  0
 54 55  1  0
 55 56  1  0
 56 57  2  0
 57 58  1  0
 58 59  2  0
 59 60  1  0
 60 61  1  0
 59 62  1  0
 62 63  2  0
 55 64  1  0
 64 65  2  0
 65 66  1  0
 66 67  2  0
 67 68  1  0
 68 69  1  0
 67 70  1  0
 70 71  2  0
 54 72  1  0
 72 73  1  0
 73 74  1  0
 74 75  2  0
 75 76  1  0
 76 77  1  0
 77 78  2  0
 78 79  1  0
 79 80  2  0
 80 81  1  0
 81 82  1  0
 80 83  1  0
 83 84  2  0
 76 85  1  0
 85 86  2  0
 86 87  1  0
 87 88  2  0
 88 89  1  0
 89 90  1  0
 88 91  1  0
 91 92  2  0
 75 93  1  0
 93 94  1  0
 74 95  1  0
 95 96  2  0
 96 97  1  0
 96 98  1  0
 98 99  1  0
 98100  2  0
100101  1  0
101102  2  0
102103  1  0
103104  1  0
104105  2  0
105106  1  0
106107  2  0
107108  1  0
108109  1  0
109110  1  0
107111  1  0
111112  2  0
111113  1  0
103114  2  0
114115  1  0
115116  2  0
114117  1  0
117118  2  0
118119  1  0
119120  2  0
120121  1  0
121122  1  0
122123  1  0
120124  1  0
124125  1  0
124126  2  0
100127  1  0
127128  2  3
128129  1  0
129130  1  0
130131  2  0
130132  1  0
132133  1  0
133134  1  0
132135  1  0
135136  2  0
  9  2  1  0
 52 11  1  0
 94 53  1  0
116 95  1  0
126117  1  0
135128  1  0
 21 14  1  0
 29 22  1  0
 51 30  2  0
 63 56  1  0
 71 64  1  0
 93 72  2  0
116101  1  0
 42 35  1  0
 50 43  1  0
 84 77  1  0
 92 85  1  0
112104  1  0
  1137  1  0
  7138  1  0
  7139  1  0
  8140  1  0
  8141  1  0
  8142  1  0
 15143  1  0
 16144  1  0
 19145  1  0
 19146  1  0
 19147  1  0
 20148  1  0
 21149  1  0
 23150  1  0
 24151  1  0
 27152  1  0
 27153  1  0
 27154  1  0
 28155  1  0
 29156  1  0
 36157  1  0
 37158  1  0
 40159  1  0
 40160  1  0
 40161  1  0
 41162  1  0
 42163  1  0
 44164  1  0
 45165  1  0
 48166  1  0
 48167  1  0
 48168  1  0
 49169  1  0
 50170  1  0
 57171  1  0
 58172  1  0
 61173  1  0
 61174  1  0
 61175  1  0
 62176  1  0
 63177  1  0
 65178  1  0
 66179  1  0
 69180  1  0
 69181  1  0
 69182  1  0
 70183  1  0
 71184  1  0
 78185  1  0
 79186  1  0
 82187  1  0
 82188  1  0
 82189  1  0
 83190  1  0
 84191  1  0
 86192  1  0
 87193  1  0
 90194  1  0
 90195  1  0
 90196  1  0
 91197  1  0
 92198  1  0
105199  1  0
106200  1  0
109201  1  0
109202  1  0
110203  1  0
110204  1  0
110205  1  0
112206  1  0
118207  1  0
119208  1  0
122209  1  0
122210  1  0
123211  1  0
123212  1  0
123213  1  0
126214  1  0
127215  1  0
133216  1  0
133217  1  0
134218  1  0
134219  1  0
134220  1  0
M  END

