
     RDKit          3D

170184  0  0  0  0  0  0  0  0999 V2000
   -0.7587    4.4581   -6.6467 C   0  0  0  0  0  0  0  0  0  0  0  0
   -1.1953    3.9480   -7.8108 C   0  0  0  0  0  0  0  0  0  0  0  0
   -1.1111    4.7479   -9.0044 C   0  0  0  0  0  0  0  0  0  0  0  0
   -1.0455    5.3836   -9.9692 N   0  0  0  0  0  0  0  0  0  0  0  0
   -1.6789    2.5954   -7.9437 C   0  0  0  0  0  0  0  0  0  0  0  0
   -2.0606    1.5061   -8.0545 N   0  0  0  0  0  0  0  0  0  0  0  0
   -0.7987    3.7437   -5.3486 C   0  0  0  0  0  0  0  0  0  0  0  0
    0.1709    3.8330   -4.3294 C   0  0  0  0  0  0  0  0  0  0  0  0
    1.3092    4.7152   -4.3411 N   0  0  0  0  0  0  0  0  0  0  0  0
    1.1007    6.1373   -4.4825 C   0  0  0  0  0  0  0  0  0  0  0  0
    1.9654    6.9116   -5.2724 C   0  0  0  0  0  0  0  0  0  0  0  0
    1.7318    8.2795   -5.4528 C   0  0  0  0  0  0  0  0  0  0  0  0
    0.6288    8.8951   -4.8426 C   0  0  0  0  0  0  0  0  0  0  0  0
    0.3628   10.3586   -5.0393 C   0  0  0  0  0  0  0  0  0  0  0  0
   -0.2297    8.1317   -4.0393 C   0  0  0  0  0  0  0  0  0  0  0  0
    0.0028    6.7612   -3.8607 C   0  0  0  0  0  0  0  0  0  0  0  0
    2.6314    4.1856   -4.1092 C   0  0  0  0  0  0  0  0  0  0  0  0
    3.0206    2.9614   -4.6774 C   0  0  0  0  0  0  0  0  0  0  0  0
    4.3147    2.4653   -4.4799 C   0  0  0  0  0  0  0  0  0  0  0  0
    5.2367    3.1816   -3.7026 C   0  0  0  0  0  0  0  0  0  0  0  0
    6.6234    2.6443   -3.5039 C   0  0  0  0  0  0  0  0  0  0  0  0
    4.8434    4.3905   -3.1099 C   0  0  0  0  0  0  0  0  0  0  0  0
    3.5523    4.8892   -3.3101 C   0  0  0  0  0  0  0  0  0  0  0  0
   -0.1473    2.9984   -3.2579 C   0  0  0  0  0  0  0  0  0  0  0  0
    0.6145    2.5687   -1.8307 S   0  0  0  0  0  0  0  0  0  0  0  0
   -0.6056    1.4749   -1.3504 C   0  0  0  0  0  0  0  0  0  0  0  0
   -1.6156    1.4463   -2.3358 C   0  0  0  0  0  0  0  0  0  0  0  0
   -2.8746    0.7496   -2.2442 N   0  0  0  0  0  0  0  0  0  0  0  0
   -2.9717   -0.6734   -2.5209 C   0  0  0  0  0  0  0  0  0  0  0  0
   -1.9868   -1.3348   -3.2804 C   0  0  0  0  0  0  0  0  0  0  0  0
   -2.1547   -2.6793   -3.6440 C   0  0  0  0  0  0  0  0  0  0  0  0
   -3.2953   -3.3866   -3.2374 C   0  0  0  0  0  0  0  0  0  0  0  0
   -3.5124   -4.8087   -3.6645 C   0  0  0  0  0  0  0  0  0  0  0  0
   -4.2564   -2.7483   -2.4464 C   0  0  0  0  0  0  0  0  0  0  0  0
   -4.0981   -1.4072   -2.0907 C   0  0  0  0  0  0  0  0  0  0  0  0
   -4.0612    1.5746   -2.1785 C   0  0  0  0  0  0  0  0  0  0  0  0
   -4.1080    2.6570   -1.2915 C   0  0  0  0  0  0  0  0  0  0  0  0
   -5.2330    3.4866   -1.2316 C   0  0  0  0  0  0  0  0  0  0  0  0
   -6.3290    3.2496   -2.0718 C   0  0  0  0  0  0  0  0  0  0  0  0
   -7.5151    4.1712   -2.0445 C   0  0  0  0  0  0  0  0  0  0  0  0
   -6.2700    2.1986   -2.9994 C   0  0  0  0  0  0  0  0  0  0  0  0
   -5.1429    1.3667   -3.0544 C   0  0  0  0  0  0  0  0  0  0  0  0
   -1.3102    2.3126   -3.3795 C   0  0  0  0  0  0  0  0  0  0  0  0
   -2.0397    2.6791   -4.8403 S   0  0  0  0  0  0  0  0  0  0  0  0
   -0.3747    0.5014   -0.2805 C   0  0  0  0  0  0  0  0  0  0  0  0
   -0.9856    0.4468    0.9881 C   0  0  0  0  0  0  0  0  0  0  0  0
   -1.9429    1.3931    1.4957 N   0  0  0  0  0  0  0  0  0  0  0  0
   -3.1710    0.8700    2.0403 C   0  0  0  0  0  0  0  0  0  0  0  0
   -3.8892   -0.0960    1.3232 C   0  0  0  0  0  0  0  0  0  0  0  0
   -5.0356   -0.6821    1.8678 C   0  0  0  0  0  0  0  0  0  0  0  0
   -5.4623   -0.3148    3.1491 C   0  0  0  0  0  0  0  0  0  0  0  0
   -6.9021   -1.1034    3.8687 S   0  0  0  0  0  0  0  0  0  0  0  0
   -5.9538   -2.5197    4.5111 C   0  0  0  0  0  0  0  0  0  0  0  0
   -4.7493    0.6457    3.8746 C   0  0  0  0  0  0  0  0  0  0  0  0
   -3.6139    1.2401    3.3209 C   0  0  0  0  0  0  0  0  0  0  0  0
   -1.5752    2.7850    1.6627 C   0  0  0  0  0  0  0  0  0  0  0  0
   -0.2275    3.1611    1.8146 C   0  0  0  0  0  0  0  0  0  0  0  0
    0.1294    4.5083    1.9270 C   0  0  0  0  0  0  0  0  0  0  0  0
   -0.8515    5.4996    1.8770 C   0  0  0  0  0  0  0  0  0  0  0  0
   -0.3926    7.2330    1.9375 S   0  0  0  0  0  0  0  0  0  0  0  0
   -0.0369    7.3220    0.1492 C   0  0  0  0  0  0  0  0  0  0  0  0
   -2.1985    5.1419    1.7699 C   0  0  0  0  0  0  0  0  0  0  0  0
   -2.5602    3.7931    1.6767 C   0  0  0  0  0  0  0  0  0  0  0  0
   -0.3404   -0.4782    1.8139 C   0  0  0  0  0  0  0  0  0  0  0  0
   -0.4441   -0.8450    3.4438 S   0  0  0  0  0  0  0  0  0  0  0  0
    0.9497   -1.8287    3.4521 C   0  0  0  0  0  0  0  0  0  0  0  0
    1.5387   -1.8234    2.1697 C   0  0  0  0  0  0  0  0  0  0  0  0
    2.8866   -2.2639    1.8752 N   0  0  0  0  0  0  0  0  0  0  0  0
    3.2108   -2.7796    0.5655 C   0  0  0  0  0  0  0  0  0  0  0  0
    4.3757   -2.3453   -0.1018 C   0  0  0  0  0  0  0  0  0  0  0  0
    4.6713   -2.8185   -1.3830 C   0  0  0  0  0  0  0  0  0  0  0  0
    3.8205   -3.7434   -2.0007 C   0  0  0  0  0  0  0  0  0  0  0  0
    4.2080   -4.3379   -3.6489 S   0  0  0  0  0  0  0  0  0  0  0  0
    5.2809   -5.6806   -3.0523 C   0  0  0  0  0  0  0  0  0  0  0  0
    2.6680   -4.1859   -1.3390 C   0  0  0  0  0  0  0  0  0  0  0  0
    2.3642   -3.7074   -0.0649 C   0  0  0  0  0  0  0  0  0  0  0  0
    3.9524   -2.0003    2.8138 C   0  0  0  0  0  0  0  0  0  0  0  0
    4.9368   -2.9744    3.0458 C   0  0  0  0  0  0  0  0  0  0  0  0
    6.0057   -2.7030    3.9034 C   0  0  0  0  0  0  0  0  0  0  0  0
    6.1063   -1.4550    4.5265 C   0  0  0  0  0  0  0  0  0  0  0  0
    7.5099   -1.0812    5.5782 S   0  0  0  0  0  0  0  0  0  0  0  0
    8.5370   -0.4744    4.1974 C   0  0  0  0  0  0  0  0  0  0  0  0
    5.1198   -0.4864    4.3157 C   0  0  0  0  0  0  0  0  0  0  0  0
    4.0464   -0.7566    3.4613 C   0  0  0  0  0  0  0  0  0  0  0  0
    0.7571   -1.0781    1.2814 C   0  0  0  0  0  0  0  0  0  0  0  0
    0.9890   -0.5175   -0.2804 S   0  0  0  0  0  0  0  0  0  0  0  0
    1.4393   -2.5544    4.6301 C   0  0  0  0  0  0  0  0  0  0  0  0
    1.1008   -2.1302    6.2548 S   0  0  0  0  0  0  0  0  0  0  0  0
    1.9153   -3.4615    6.8593 C   0  0  0  0  0  0  0  0  0  0  0  0
    1.8466   -4.2418    7.9809 C   0  0  0  0  0  0  0  0  0  0  0  0
    2.2475   -5.4877    7.6070 C   0  0  0  0  0  0  0  0  0  0  0  0
    2.5901   -5.5372    6.2917 N   0  0  0  0  0  0  0  0  0  0  0  0
    2.7400   -6.7267    5.4573 C   0  0  0  0  0  0  0  0  0  0  0  0
    1.3793   -7.2287    4.9754 C   0  0  0  0  0  0  0  0  0  0  0  0
    2.3540   -4.2688    5.8598 C   0  0  0  0  0  0  0  0  0  0  0  0
    2.1045   -3.7908    4.5786 C   0  0  0  0  0  0  0  0  0  0  0  0
    1.8788   -6.5061    8.4795 C   0  0  0  0  0  0  0  0  0  0  0  0
    1.1787   -5.9777    9.5815 C   0  0  0  0  0  0  0  0  0  0  0  0
    0.9290   -4.2965    9.3773 S   0  0  0  0  0  0  0  0  0  0  0  0
    0.5446   -6.7412   10.6762 C   0  0  0  0  0  0  0  0  0  0  0  0
    0.9889   -7.9085   11.1714 C   0  0  0  0  0  0  0  0  0  0  0  0
    2.1969   -8.5517   10.7178 C   0  0  0  0  0  0  0  0  0  0  0  0
    3.1669   -9.0704   10.3628 N   0  0  0  0  0  0  0  0  0  0  0  0
    0.2646   -8.5319   12.2466 C   0  0  0  0  0  0  0  0  0  0  0  0
   -0.3191   -9.0275   13.1156 N   0  0  0  0  0  0  0  0  0  0  0  0
   -0.3097    5.4413   -6.6536 H   0  0  0  0  0  0  0  0  0  0  0  0
    2.7994    6.4459   -5.7793 H   0  0  0  0  0  0  0  0  0  0  0  0
    2.4100    8.8549   -6.0692 H   0  0  0  0  0  0  0  0  0  0  0  0
    1.0069   10.7878   -5.8354 H   0  0  0  0  0  0  0  0  0  0  0  0
   -0.7005   10.5096   -5.3338 H   0  0  0  0  0  0  0  0  0  0  0  0
    0.5565   10.9007   -4.0943 H   0  0  0  0  0  0  0  0  0  0  0  0
   -1.0894    8.5928   -3.5628 H   0  0  0  0  0  0  0  0  0  0  0  0
   -0.6866    6.1857   -3.2520 H   0  0  0  0  0  0  0  0  0  0  0  0
    2.3330    2.4033   -5.3022 H   0  0  0  0  0  0  0  0  0  0  0  0
    4.6033    1.5239   -4.9399 H   0  0  0  0  0  0  0  0  0  0  0  0
    6.5864    1.7627   -2.8341 H   0  0  0  0  0  0  0  0  0  0  0  0
    7.0583    2.3423   -4.4822 H   0  0  0  0  0  0  0  0  0  0  0  0
    7.2909    3.4103   -3.0533 H   0  0  0  0  0  0  0  0  0  0  0  0
    5.5433    4.9522   -2.5006 H   0  0  0  0  0  0  0  0  0  0  0  0
    3.2725    5.8209   -2.8345 H   0  0  0  0  0  0  0  0  0  0  0  0
   -1.1112   -0.8034   -3.6403 H   0  0  0  0  0  0  0  0  0  0  0  0
   -1.3999   -3.1591   -4.2611 H   0  0  0  0  0  0  0  0  0  0  0  0
   -2.6369   -5.2096   -4.2209 H   0  0  0  0  0  0  0  0  0  0  0  0
   -4.4053   -4.8638   -4.3242 H   0  0  0  0  0  0  0  0  0  0  0  0
   -3.6877   -5.4485   -2.7733 H   0  0  0  0  0  0  0  0  0  0  0  0
   -5.1395   -3.2814   -2.1204 H   0  0  0  0  0  0  0  0  0  0  0  0
   -4.8718   -0.9388   -1.4990 H   0  0  0  0  0  0  0  0  0  0  0  0
   -3.2574    2.8645   -0.6692 H   0  0  0  0  0  0  0  0  0  0  0  0
   -5.2384    4.3215   -0.5406 H   0  0  0  0  0  0  0  0  0  0  0  0
   -7.6734    4.5778   -1.0196 H   0  0  0  0  0  0  0  0  0  0  0  0
   -7.3424    5.0163   -2.7417 H   0  0  0  0  0  0  0  0  0  0  0  0
   -8.4430    3.6339   -2.3449 H   0  0  0  0  0  0  0  0  0  0  0  0
   -7.0873    2.0299   -3.6919 H   0  0  0  0  0  0  0  0  0  0  0  0
   -5.1092    0.5805   -3.8010 H   0  0  0  0  0  0  0  0  0  0  0  0
   -3.5434   -0.4107    0.3540 H   0  0  0  0  0  0  0  0  0  0  0  0
   -5.5755   -1.4314    1.3051 H   0  0  0  0  0  0  0  0  0  0  0  0
   -5.4702   -3.0644    3.6745 H   0  0  0  0  0  0  0  0  0  0  0  0
   -5.1791   -2.1700    5.2243 H   0  0  0  0  0  0  0  0  0  0  0  0
   -6.6378   -3.2124    5.0383 H   0  0  0  0  0  0  0  0  0  0  0  0
   -5.0692    0.9259    4.8694 H   0  0  0  0  0  0  0  0  0  0  0  0
   -3.0536    1.9605    3.9029 H   0  0  0  0  0  0  0  0  0  0  0  0
    0.5552    2.4142    1.8454 H   0  0  0  0  0  0  0  0  0  0  0  0
    1.1669    4.7852    2.0326 H   0  0  0  0  0  0  0  0  0  0  0  0
    0.2493    8.3609   -0.1099 H   0  0  0  0  0  0  0  0  0  0  0  0
   -0.9356    7.0391   -0.4412 H   0  0  0  0  0  0  0  0  0  0  0  0
    0.8081    6.6436   -0.0979 H   0  0  0  0  0  0  0  0  0  0  0  0
   -2.9673    5.9059    1.7428 H   0  0  0  0  0  0  0  0  0  0  0  0
   -3.6089    3.5429    1.5857 H   0  0  0  0  0  0  0  0  0  0  0  0
    5.0393   -1.6249    0.3600 H   0  0  0  0  0  0  0  0  0  0  0  0
    5.5668   -2.4699   -1.8914 H   0  0  0  0  0  0  0  0  0  0  0  0
    6.0931   -5.2651   -2.4151 H   0  0  0  0  0  0  0  0  0  0  0  0
    5.7392   -6.1900   -3.9245 H   0  0  0  0  0  0  0  0  0  0  0  0
    4.6804   -6.4168   -2.4778 H   0  0  0  0  0  0  0  0  0  0  0  0
    2.0088   -4.8990   -1.8156 H   0  0  0  0  0  0  0  0  0  0  0  0
    1.4709   -4.0504    0.4387 H   0  0  0  0  0  0  0  0  0  0  0  0
    4.8736   -3.9389    2.5597 H   0  0  0  0  0  0  0  0  0  0  0  0
    6.7639   -3.4575    4.0671 H   0  0  0  0  0  0  0  0  0  0  0  0
    7.9550    0.2035    3.5347 H   0  0  0  0  0  0  0  0  0  0  0  0
    9.3954    0.0939    4.6046 H   0  0  0  0  0  0  0  0  0  0  0  0
    8.9111   -1.3398    3.6073 H   0  0  0  0  0  0  0  0  0  0  0  0
    5.1965    0.4853    4.7927 H   0  0  0  0  0  0  0  0  0  0  0  0
    3.3048    0.0114    3.2831 H   0  0  0  0  0  0  0  0  0  0  0  0
    3.3733   -6.4866    4.5743 H   0  0  0  0  0  0  0  0  0  0  0  0
    3.2481   -7.5293    6.0299 H   0  0  0  0  0  0  0  0  0  0  0  0
    0.8525   -6.4364    4.3971 H   0  0  0  0  0  0  0  0  0  0  0  0
    1.5175   -8.1142    4.3178 H   0  0  0  0  0  0  0  0  0  0  0  0
    0.7442   -7.5269    5.8418 H   0  0  0  0  0  0  0  0  0  0  0  0
    2.2862   -4.3476    3.6709 H   0  0  0  0  0  0  0  0  0  0  0  0
    1.9941   -7.5527    8.2617 H   0  0  0  0  0  0  0  0  0  0  0  0
   -0.3181   -6.2733   11.1448 H   0  0  0  0  0  0  0  0  0  0  0  0
  1  2  2  3
  2  3  1  0
  3  4  3  0
  2  5  1  0
  5  6  3  0
  1  7  1  0
  7  8  2  0
  8  9  1  0
  9 10  1  0
 10 11  2  0
 11 12  1  0
 12 13  2  0
 13 14  1  0
 13 15  1  0
 15 16  2  0
  9 17  1  0
 17 18  2  0
 18 19  1  0
 19 20  2  0
 20 21  1  0
 20 22  1  0
 22 23  2  0
  8 24  1  0
 24 25  1  0
 25 26  1  0
 26 27  2  0
 27 28  1  0
 28 29  1  0
 29 30  2  0
 30 31  1  0
 31 32  2  0
 32 33  1  0
 32 34  1  0
 34 35  2  0
 28 36  1  0
 36 37  2  0
 37 38  1  0
 38 39  2  0
 39 40  1  0
 39 41  1  0
 41 42  2  0
 27 43  1  0
 43 44  1  0
 26 45  1  0
 45 46  2  0
 46 47  1  0
 47 48  1  0
 48 49  2  0
 49 50  1  0
 50 51  2  0
 51 52  1  0
 52 53  1  0
 51 54  1  0
 54 55  2  0
 47 56  1  0
 56 57  2  0
 57 58  1  0
 58 59  2  0
 59 60  1  0
 60 61  1  0
 59 62  1  0
 62 63  2  0
 46 64  1  0
 64 65  1  0
 65 66  1  0
 66 67  2  0
 67 68  1  0
 68 69  1  0
 69 70  2  0
 70 71  1  0
 71 72  2  0
 72 73  1  0
 73 74  1  0
 72 75  1  0
 75 76  2  0
 68 77  1  0
 77 78  2  0
 78 79  1  0
 79 80  2  0
 80 81  1  0
 81 82  1  0
 80 83  1  0
 83 84  2  0
 67 85  1  0
 85 86  1  0
 66 87  1  0
 87 88  1  0
 88 89  1  0
 89 90  1  0
 90 91  2  0
 91 92  1  0
 92 93  1  0
 93 94  1  0
 92 95  1  0
 95 96  1  0
 91 97  1  0
 97 98  2  0
 98 99  1  0
 98100  1  0
100101  2  3
101102  1  0
102103  3  0
101104  1  0
104105  3  0
 44  7  1  0
 86 45  1  0
 96 87  2  0
 16 10  1  0
 23 17  1  0
 43 24  2  0
 55 48  1  0
 63 56  1  0
 85 64  2  0
 95 89  2  0
 35 29  1  0
 42 36  1  0
 76 69  1  0
 84 77  1  0
 99 90  1  0
  1106  1  0
 11107  1  0
 12108  1  0
 14109  1  0
 14110  1  0
 14111  1  0
 15112  1  0
 16113  1  0
 18114  1  0
 19115  1  0
 21116  1  0
 21117  1  0
 21118  1  0
 22119  1  0
 23120  1  0
 30121  1  0
 31122  1  0
 33123  1  0
 33124  1  0
 33125  1  0
 34126  1  0
 35127  1  0
 37128  1  0
 38129  1  0
 40130  1  0
 40131  1  0
 40132  1  0
 41133  1  0
 42134  1  0
 49135  1  0
 50136  1  0
 53137  1  0
 53138  1  0
 53139  1  0
 54140  1  0
 55141  1  0
 57142  1  0
 58143  1  0
 61144  1  0
 61145  1  0
 61146  1  0
 62147  1  0
 63148  1  0
 70149  1  0
 71150  1  0
 74151  1  0
 74152  1  0
 74153  1  0
 75154  1  0
 76155  1  0
 78156  1  0
 79157  1  0
 82158  1  0
 82159  1  0
 82160  1  0
 83161  1  0
 84162  1  0
 93163  1  0
 93164  1  0
 94165  1  0
 94166  1  0
 94167  1  0
 96168  1  0
 97169  1  0
100170  1  0
M  END

