
     RDKit          3D

137151  0  0  0  0  0  0  0  0999 V2000
    6.0565   -7.4537   -2.5561 C   0  0  0  0  0  0  0  0  0  0  0  0
    6.5633   -7.6917   -3.7783 C   0  0  0  0  0  0  0  0  0  0  0  0
    6.6123   -6.6951   -4.8178 C   0  0  0  0  0  0  0  0  0  0  0  0
    6.6518   -5.8987   -5.6573 N   0  0  0  0  0  0  0  0  0  0  0  0
    6.9943   -9.0256   -4.1160 C   0  0  0  0  0  0  0  0  0  0  0  0
    7.3415  -10.0962   -4.3854 N   0  0  0  0  0  0  0  0  0  0  0  0
    5.5438   -6.1532   -2.0779 C   0  0  0  0  0  0  0  0  0  0  0  0
    5.9691   -4.8741   -2.4309 C   0  0  0  0  0  0  0  0  0  0  0  0
    5.2765   -3.8536   -1.7694 C   0  0  0  0  0  0  0  0  0  0  0  0
    5.5790   -2.1257   -2.1380 S   0  0  0  0  0  0  0  0  0  0  0  0
    4.1781   -1.9762   -3.2942 C   0  0  0  0  0  0  0  0  0  0  0  0
    4.1313   -0.5649   -3.8657 C   0  0  0  0  0  0  0  0  0  0  0  0
    4.3278   -4.3238   -0.8594 C   0  0  0  0  0  0  0  0  0  0  0  0
    4.3341   -6.0042   -0.9203 S   0  0  0  0  0  0  0  0  0  0  0  0
    3.3145   -3.5382   -0.1444 C   0  0  0  0  0  0  0  0  0  0  0  0
    3.5263   -2.3942    0.6489 C   0  0  0  0  0  0  0  0  0  0  0  0
    4.8010   -2.0073    1.1871 N   0  0  0  0  0  0  0  0  0  0  0  0
    5.3259   -2.8535    2.2233 C   0  0  0  0  0  0  0  0  0  0  0  0
    6.2455   -3.8678    1.9141 C   0  0  0  0  0  0  0  0  0  0  0  0
    6.7059   -4.7275    2.9174 C   0  0  0  0  0  0  0  0  0  0  0  0
    6.2555   -4.5754    4.2343 C   0  0  0  0  0  0  0  0  0  0  0  0
    6.8507   -5.6712    5.5240 S   0  0  0  0  0  0  0  0  0  0  0  0
    5.4834   -6.8604    5.3246 C   0  0  0  0  0  0  0  0  0  0  0  0
    5.3466   -3.5548    4.5478 C   0  0  0  0  0  0  0  0  0  0  0  0
    4.8792   -2.7034    3.5429 C   0  0  0  0  0  0  0  0  0  0  0  0
    5.3937   -0.7140    0.9010 C   0  0  0  0  0  0  0  0  0  0  0  0
    6.6679   -0.3792    1.4072 C   0  0  0  0  0  0  0  0  0  0  0  0
    7.2789    0.8316    1.0660 C   0  0  0  0  0  0  0  0  0  0  0  0
    6.6254    1.7321    0.2242 C   0  0  0  0  0  0  0  0  0  0  0  0
    7.4288    3.2649   -0.2510 S   0  0  0  0  0  0  0  0  0  0  0  0
    8.3032    2.5106   -1.6594 C   0  0  0  0  0  0  0  0  0  0  0  0
    5.3502    1.4317   -0.2655 C   0  0  0  0  0  0  0  0  0  0  0  0
    4.7399    0.2199    0.0668 C   0  0  0  0  0  0  0  0  0  0  0  0
    2.3170   -1.8876    1.1166 C   0  0  0  0  0  0  0  0  0  0  0  0
    1.8541   -0.5538    2.0328 S   0  0  0  0  0  0  0  0  0  0  0  0
    0.1881   -0.9152    1.9410 C   0  0  0  0  0  0  0  0  0  0  0  0
    0.0126   -2.0829    1.1834 C   0  0  0  0  0  0  0  0  0  0  0  0
   -1.2613   -2.6717    0.8729 N   0  0  0  0  0  0  0  0  0  0  0  0
   -1.6950   -2.7671   -0.5103 C   0  0  0  0  0  0  0  0  0  0  0  0
   -2.5773   -3.7834   -0.9291 C   0  0  0  0  0  0  0  0  0  0  0  0
   -3.0429   -3.8232   -2.2495 C   0  0  0  0  0  0  0  0  0  0  0  0
   -2.6309   -2.8541   -3.1698 C   0  0  0  0  0  0  0  0  0  0  0  0
   -3.2631   -2.8590   -4.8463 S   0  0  0  0  0  0  0  0  0  0  0  0
   -4.6349   -1.7266   -4.4592 C   0  0  0  0  0  0  0  0  0  0  0  0
   -1.7082   -1.8802   -2.7830 C   0  0  0  0  0  0  0  0  0  0  0  0
   -1.2387   -1.8412   -1.4696 C   0  0  0  0  0  0  0  0  0  0  0  0
   -2.0451   -3.2117    1.9617 C   0  0  0  0  0  0  0  0  0  0  0  0
   -1.4155   -3.9081    3.0122 C   0  0  0  0  0  0  0  0  0  0  0  0
   -2.1678   -4.4510    4.0570 C   0  0  0  0  0  0  0  0  0  0  0  0
   -3.5577   -4.3114    4.0648 C   0  0  0  0  0  0  0  0  0  0  0  0
   -4.5223   -5.0901    5.3613 S   0  0  0  0  0  0  0  0  0  0  0  0
   -4.5598   -3.6099    6.4180 C   0  0  0  0  0  0  0  0  0  0  0  0
   -4.1930   -3.6048    3.0371 C   0  0  0  0  0  0  0  0  0  0  0  0
   -3.4414   -3.0451    1.9989 C   0  0  0  0  0  0  0  0  0  0  0  0
    1.2208   -2.5839    0.7334 C   0  0  0  0  0  0  0  0  0  0  0  0
    1.6493   -3.8856   -0.2234 S   0  0  0  0  0  0  0  0  0  0  0  0
   -0.8971    0.0483    2.1710 C   0  0  0  0  0  0  0  0  0  0  0  0
   -1.2618    0.9205    1.1368 C   0  0  0  0  0  0  0  0  0  0  0  0
   -2.5456    1.5156    1.0990 C   0  0  0  0  0  0  0  0  0  0  0  0
   -2.8507    2.1689   -0.1412 N   0  0  0  0  0  0  0  0  0  0  0  0
   -1.4881    1.9640   -0.9376 S   0  0  0  0  0  4  0  0  0  0  0  0
   -0.4671    1.1370   -0.0348 N   0  0  0  0  0  0  0  0  0  0  0  0
   -3.4653    1.3471    2.1551 C   0  0  0  0  0  0  0  0  0  0  0  0
   -3.0573    0.5570    3.2470 C   0  0  0  0  0  0  0  0  0  0  0  0
   -3.8533    0.3268    4.3213 N   0  0  0  0  0  0  0  0  0  0  0  0
   -2.8854   -0.6782    5.2045 S   0  0  0  0  0  0  0  0  0  0  0  0
   -1.5014   -0.8778    4.3240 N   0  0  0  0  0  0  0  0  0  0  0  0
   -1.7792   -0.0948    3.2497 C   0  0  0  0  0  0  0  0  0  0  0  0
   -4.8783    1.7902    2.0476 C   0  0  0  0  0  0  0  0  0  0  0  0
   -5.2939    2.9455    1.4981 C   0  0  0  0  0  0  0  0  0  0  0  0
   -6.5339    3.0117    0.7233 C   0  0  0  0  0  0  0  0  0  0  0  0
   -7.5139    2.2227    0.8240 O   0  0  0  0  0  0  0  0  0  0  0  0
   -6.3876    4.0346   -0.2933 C   0  0  0  0  0  0  0  0  0  0  0  0
   -7.2159    4.2307   -1.4227 C   0  0  0  0  0  0  0  0  0  0  0  0
   -6.7061    5.1284   -2.3392 C   0  0  0  0  0  0  0  0  0  0  0  0
   -5.4495    5.7945   -2.1677 C   0  0  0  0  0  0  0  0  0  0  0  0
   -4.6270    5.5989   -1.0699 C   0  0  0  0  0  0  0  0  0  0  0  0
   -5.1453    4.6937   -0.1040 C   0  0  0  0  0  0  0  0  0  0  0  0
   -4.4844    4.1359    1.1054 C   0  0  0  0  0  0  0  0  0  0  0  0
   -3.5047    4.7148    1.8411 C   0  0  0  0  0  0  0  0  0  0  0  0
   -2.8795    5.9582    1.4637 C   0  0  0  0  0  0  0  0  0  0  0  0
   -2.3697    6.9599    1.1772 N   0  0  0  0  0  0  0  0  0  0  0  0
   -3.1245    4.1983    3.1296 C   0  0  0  0  0  0  0  0  0  0  0  0
   -2.8099    3.7912    4.1658 N   0  0  0  0  0  0  0  0  0  0  0  0
   -5.6194    6.4898   -3.4840 C   0  0  0  0  0  0  0  0  0  0  0  0
   -6.0075    7.9995   -3.4655 C   0  0  0  0  0  0  0  0  0  0  0  0
   -6.8404    8.3083   -2.2416 C   0  0  0  0  0  0  0  0  0  0  0  0
   -8.0065    7.6791   -2.4067 C   0  0  0  0  0  0  0  0  0  0  0  0
   -7.9320    6.9696   -3.7385 C   0  0  0  0  0  0  0  0  0  0  0  0
   -7.1123    7.9944   -4.5046 C   0  0  0  0  0  0  0  0  0  0  0  0
   -6.9052    5.8018   -3.6624 C   0  0  0  0  0  0  0  0  0  0  0  0
    5.9494   -8.2867   -1.8709 H   0  0  0  0  0  0  0  0  0  0  0  0
    6.7644   -4.6726   -3.1373 H   0  0  0  0  0  0  0  0  0  0  0  0
    3.2265   -2.1814   -2.7581 H   0  0  0  0  0  0  0  0  0  0  0  0
    4.2936   -2.7089   -4.1211 H   0  0  0  0  0  0  0  0  0  0  0  0
    5.0573   -0.3562   -4.4405 H   0  0  0  0  0  0  0  0  0  0  0  0
    3.2593   -0.4609   -4.5442 H   0  0  0  0  0  0  0  0  0  0  0  0
    4.0348    0.1759   -3.0457 H   0  0  0  0  0  0  0  0  0  0  0  0
    6.6024   -3.9969    0.9008 H   0  0  0  0  0  0  0  0  0  0  0  0
    7.4141   -5.5123    2.6731 H   0  0  0  0  0  0  0  0  0  0  0  0
    5.6106   -7.6855    6.0549 H   0  0  0  0  0  0  0  0  0  0  0  0
    5.4935   -7.2857    4.2984 H   0  0  0  0  0  0  0  0  0  0  0  0
    4.5120   -6.3586    5.5130 H   0  0  0  0  0  0  0  0  0  0  0  0
    4.9918   -3.4288    5.5627 H   0  0  0  0  0  0  0  0  0  0  0  0
    4.1600   -1.9309    3.7875 H   0  0  0  0  0  0  0  0  0  0  0  0
    7.2148   -1.0694    2.0335 H   0  0  0  0  0  0  0  0  0  0  0  0
    8.2697    1.0555    1.4401 H   0  0  0  0  0  0  0  0  0  0  0  0
    9.0540    1.7861   -1.2868 H   0  0  0  0  0  0  0  0  0  0  0  0
    7.5863    1.9925   -2.3323 H   0  0  0  0  0  0  0  0  0  0  0  0
    8.8232    3.3037   -2.2307 H   0  0  0  0  0  0  0  0  0  0  0  0
    4.8428    2.1277   -0.9219 H   0  0  0  0  0  0  0  0  0  0  0  0
    3.7690    0.0067   -0.3598 H   0  0  0  0  0  0  0  0  0  0  0  0
   -2.9065   -4.5521   -0.2404 H   0  0  0  0  0  0  0  0  0  0  0  0
   -3.7328   -4.6017   -2.5503 H   0  0  0  0  0  0  0  0  0  0  0  0
   -4.2679   -0.8411   -3.8963 H   0  0  0  0  0  0  0  0  0  0  0  0
   -5.4021   -2.2584   -3.8592 H   0  0  0  0  0  0  0  0  0  0  0  0
   -5.0925   -1.3777   -5.4071 H   0  0  0  0  0  0  0  0  0  0  0  0
   -1.3647   -1.1415   -3.4954 H   0  0  0  0  0  0  0  0  0  0  0  0
   -0.5144   -1.0856   -1.2105 H   0  0  0  0  0  0  0  0  0  0  0  0
   -0.3421   -4.0422    3.0166 H   0  0  0  0  0  0  0  0  0  0  0  0
   -1.6662   -4.9942    4.8529 H   0  0  0  0  0  0  0  0  0  0  0  0
   -5.0434   -3.8649    7.3814 H   0  0  0  0  0  0  0  0  0  0  0  0
   -5.1479   -2.8085    5.9206 H   0  0  0  0  0  0  0  0  0  0  0  0
   -3.5319   -3.2501    6.6231 H   0  0  0  0  0  0  0  0  0  0  0  0
   -5.2682   -3.4923    3.0372 H   0  0  0  0  0  0  0  0  0  0  0  0
   -3.9477   -2.4844    1.2226 H   0  0  0  0  0  0  0  0  0  0  0  0
   -5.6196    1.0213    2.2405 H   0  0  0  0  0  0  0  0  0  0  0  0
   -8.1390    3.6875   -1.5866 H   0  0  0  0  0  0  0  0  0  0  0  0
   -3.6549    6.0655   -1.0204 H   0  0  0  0  0  0  0  0  0  0  0  0
   -4.8546    6.2064   -4.2430 H   0  0  0  0  0  0  0  0  0  0  0  0
   -5.1719    8.7005   -3.6610 H   0  0  0  0  0  0  0  0  0  0  0  0
   -6.5816    8.9624   -1.4169 H   0  0  0  0  0  0  0  0  0  0  0  0
   -8.8602    7.7354   -1.7394 H   0  0  0  0  0  0  0  0  0  0  0  0
   -8.9124    6.7058   -4.1856 H   0  0  0  0  0  0  0  0  0  0  0  0
   -7.6271    8.9788   -4.6169 H   0  0  0  0  0  0  0  0  0  0  0  0
   -6.7824    7.6340   -5.5076 H   0  0  0  0  0  0  0  0  0  0  0  0
   -6.9204    5.0986   -4.5262 H   0  0  0  0  0  0  0  0  0  0  0  0
  1  2  2  3
  2  3  1  0
  3  4  3  0
  2  5  1  0
  5  6  3  0
  1  7  1  0
  7  8  2  0
  8  9  1  0
  9 10  1  0
 10 11  1  0
 11 12  1  0
  9 13  2  0
 13 14  1  0
 13 15  1  0
 15 16  2  0
 16 17  1  0
 17 18  1  0
 18 19  2  0
 19 20  1  0
 20 21  2  0
 21 22  1  0
 22 23  1  0
 21 24  1  0
 24 25  2  0
 17 26  1  0
 26 27  2  0
 27 28  1  0
 28 29  2  0
 29 30  1  0
 30 31  1  0
 29 32  1  0
 32 33  2  0
 16 34  1  0
 34 35  1  0
 35 36  1  0
 36 37  2  0
 37 38  1  0
 38 39  1  0
 39 40  2  0
 40 41  1  0
 41 42  2  0
 42 43  1  0
 43 44  1  0
 42 45  1  0
 45 46  2  0
 38 47  1  0
 47 48  2  0
 48 49  1  0
 49 50  2  0
 50 51  1  0
 51 52  1  0
 50 53  1  0
 53 54  2  0
 37 55  1  0
 55 56  1  0
 36 57  1  0
 57 58  2  0
 58 59  1  0
 59 60  1  0
 60 61  2  0
 61 62  2  0
 59 63  2  0
 63 64  1  0
 64 65  2  0
 65 66  1  0
 66 67  1  0
 67 68  2  0
 63 69  1  0
 69 70  2  3
 70 71  1  0
 71 72  2  0
 71 73  1  0
 73 74  2  0
 74 75  1  0
 75 76  2  0
 76 77  1  0
 77 78  2  0
 78 79  1  0
 79 80  2  3
 80 81  1  0
 81 82  3  0
 80 83  1  0
 83 84  3  0
 76 85  1  0
 85 86  1  0
 86 87  1  0
 87 88  2  0
 88 89  1  0
 89 90  1  0
 89 91  1  0
 14  7  1  0
 56 15  1  0
 68 57  1  0
 79 70  1  0
 91 85  1  0
 25 18  1  0
 33 26  1  0
 55 34  2  0
 62 58  1  0
 68 64  1  0
 78 73  1  0
 90 86  1  0
 46 39  1  0
 54 47  1  0
 91 75  1  0
  1 92  1  0
  8 93  1  0
 11 94  1  0
 11 95  1  0
 12 96  1  0
 12 97  1  0
 12 98  1  0
 19 99  1  0
 20100  1  0
 23101  1  0
 23102  1  0
 23103  1  0
 24104  1  0
 25105  1  0
 27106  1  0
 28107  1  0
 31108  1  0
 31109  1  0
 31110  1  0
 32111  1  0
 33112  1  0
 40113  1  0
 41114  1  0
 44115  1  0
 44116  1  0
 44117  1  0
 45118  1  0
 46119  1  0
 48120  1  0
 49121  1  0
 52122  1  0
 52123  1  0
 52124  1  0
 53125  1  0
 54126  1  0
 69127  1  0
 74128  1  0
 77129  1  0
 85130  1  0
 86131  1  0
 87132  1  0
 88133  1  0
 89134  1  0
 90135  1  0
 90136  1  0
 91137  1  0
M  END

