
     RDKit          3D

254275  0  0  0  0  0  0  0  0999 V2000
   -1.8547   -6.9530   -0.8156 C   0  0  0  0  0  0  0  0  0  0  0  0
   -0.6760   -7.5933   -0.9363 C   0  0  0  0  0  0  0  0  0  0  0  0
    0.5108   -7.3584   -2.1031 S   0  0  0  0  0  0  0  0  0  0  0  0
    1.6395   -8.4066   -1.4158 C   0  0  0  0  0  0  0  0  0  0  0  0
    2.8465   -8.6751   -1.9754 C   0  0  0  0  0  0  0  0  0  0  0  0
    3.8149   -9.5755   -1.4012 C   0  0  0  0  0  0  0  0  0  0  0  0
    4.6053  -10.2837   -0.9401 N   0  0  0  0  0  0  0  0  0  0  0  0
    3.1825   -8.1201   -3.2624 C   0  0  0  0  0  0  0  0  0  0  0  0
    3.4213   -7.6937   -4.3099 N   0  0  0  0  0  0  0  0  0  0  0  0
    1.1216   -8.9363   -0.2628 N   0  0  0  0  0  0  0  0  0  0  0  0
    1.8432   -9.7056    0.7097 C   0  0  0  0  0  0  0  0  0  0  0  0
    2.8106   -9.0868    1.5151 C   0  0  0  0  0  0  0  0  0  0  0  0
    3.5091   -9.8313    2.4706 C   0  0  0  0  0  0  0  0  0  0  0  0
    3.2177  -11.1871    2.6476 C   0  0  0  0  0  0  0  0  0  0  0  0
    2.2375  -11.8024    1.8629 C   0  0  0  0  0  0  0  0  0  0  0  0
    1.5457  -11.0622    0.8985 C   0  0  0  0  0  0  0  0  0  0  0  0
   -0.1628   -8.5209   -0.0249 C   0  0  0  0  0  0  0  0  0  0  0  0
   -0.8058   -8.8914    0.9960 O   0  0  0  0  0  0  0  0  0  0  0  0
   -2.1695   -5.6279   -1.4106 C   0  0  0  0  0  0  0  0  0  0  0  0
   -3.0823   -4.7172   -0.8410 C   0  0  0  0  0  0  0  0  0  0  0  0
   -3.9370   -5.0266    0.2663 N   0  0  0  0  0  0  0  0  0  0  0  0
   -5.1204   -5.8126    0.0351 C   0  0  0  0  0  0  0  0  0  0  0  0
   -5.9630   -5.5290   -1.0531 C   0  0  0  0  0  0  0  0  0  0  0  0
   -7.1059   -6.3012   -1.2800 C   0  0  0  0  0  0  0  0  0  0  0  0
   -7.4095   -7.3706   -0.4331 C   0  0  0  0  0  0  0  0  0  0  0  0
   -8.8798   -8.3547   -0.7187 S   0  0  0  0  0  0  0  0  0  0  0  0
   -9.9074   -7.3369    0.3874 C   0  0  0  0  0  0  0  0  0  0  0  0
   -6.5678   -7.6699    0.6425 C   0  0  0  0  0  0  0  0  0  0  0  0
   -5.4300   -6.8947    0.8790 C   0  0  0  0  0  0  0  0  0  0  0  0
   -3.5485   -4.6889    1.6117 C   0  0  0  0  0  0  0  0  0  0  0  0
   -2.3262   -5.1399    2.1442 C   0  0  0  0  0  0  0  0  0  0  0  0
   -2.0607   -5.0096    3.5108 C   0  0  0  0  0  0  0  0  0  0  0  0
   -2.9807   -4.3688    4.3489 C   0  0  0  0  0  0  0  0  0  0  0  0
   -2.7086   -4.3010    6.1225 S   0  0  0  0  0  0  0  0  0  0  0  0
   -1.2534   -3.2089    6.0417 C   0  0  0  0  0  0  0  0  0  0  0  0
   -4.1641   -3.8490    3.8113 C   0  0  0  0  0  0  0  0  0  0  0  0
   -4.4570   -4.0308    2.4559 C   0  0  0  0  0  0  0  0  0  0  0  0
   -2.9384   -3.4314   -1.3637 C   0  0  0  0  0  0  0  0  0  0  0  0
   -3.4380   -1.9252   -0.8410 S   0  0  0  0  0  0  0  0  0  0  0  0
   -2.3480   -1.0681   -1.8346 C   0  0  0  0  0  0  0  0  0  0  0  0
   -1.5583   -1.9771   -2.5637 C   0  0  0  0  0  0  0  0  0  0  0  0
   -0.2319   -1.6722   -3.0357 N   0  0  0  0  0  0  0  0  0  0  0  0
    0.8717   -2.2180   -2.2899 C   0  0  0  0  0  0  0  0  0  0  0  0
    1.1647   -1.7527   -1.0037 C   0  0  0  0  0  0  0  0  0  0  0  0
    2.2775   -2.2535   -0.3140 C   0  0  0  0  0  0  0  0  0  0  0  0
    3.0740   -3.2476   -0.8989 C   0  0  0  0  0  0  0  0  0  0  0  0
    4.5448   -3.8472   -0.0639 S   0  0  0  0  0  0  0  0  0  0  0  0
    5.6750   -2.8682   -1.1087 C   0  0  0  0  0  0  0  0  0  0  0  0
    2.7470   -3.7524   -2.1588 C   0  0  0  0  0  0  0  0  0  0  0  0
    1.6677   -3.2228   -2.8629 C   0  0  0  0  0  0  0  0  0  0  0  0
    0.0230   -1.1670   -4.3661 C   0  0  0  0  0  0  0  0  0  0  0  0
   -0.8803   -1.3823   -5.4234 C   0  0  0  0  0  0  0  0  0  0  0  0
   -0.5156   -1.0654   -6.7396 C   0  0  0  0  0  0  0  0  0  0  0  0
    0.7662   -0.5705   -7.0134 C   0  0  0  0  0  0  0  0  0  0  0  0
    1.3089   -0.3504   -8.7109 S   0  0  0  0  0  0  0  0  0  0  0  0
    1.3452    1.4630   -8.5973 C   0  0  0  0  0  0  0  0  0  0  0  0
    1.6526   -0.3208   -5.9664 C   0  0  0  0  0  0  0  0  0  0  0  0
    1.2720   -0.5796   -4.6529 C   0  0  0  0  0  0  0  0  0  0  0  0
   -1.9618   -3.2883   -2.2955 C   0  0  0  0  0  0  0  0  0  0  0  0
   -1.2227   -4.7694   -2.5390 S   0  0  0  0  0  0  0  0  0  0  0  0
   -2.0879    0.3703   -1.6944 C   0  0  0  0  0  0  0  0  0  0  0  0
   -1.7481    1.2654   -2.7302 C   0  0  0  0  0  0  0  0  0  0  0  0
   -2.5546    1.2093   -3.9460 N   0  0  0  0  0  0  0  0  0  0  0  0
   -3.9674    0.9780   -3.7584 C   0  0  0  0  0  0  0  0  0  0  0  0
   -4.5189   -0.2988   -3.9486 C   0  0  0  0  0  0  0  0  0  0  0  0
   -5.8842   -0.5147   -3.7343 C   0  0  0  0  0  0  0  0  0  0  0  0
   -6.7097    0.5495   -3.3530 C   0  0  0  0  0  0  0  0  0  0  0  0
   -8.4494    0.2727   -3.0353 S   0  0  0  0  0  0  0  0  0  0  0  0
   -8.1926   -0.0404   -1.2591 C   0  0  0  0  0  0  0  0  0  0  0  0
   -6.1680    1.8306   -3.1988 C   0  0  0  0  0  0  0  0  0  0  0  0
   -4.8009    2.0420   -3.3895 C   0  0  0  0  0  0  0  0  0  0  0  0
   -2.1889    1.7572   -5.2474 C   0  0  0  0  0  0  0  0  0  0  0  0
   -1.3645    2.8914   -5.3855 C   0  0  0  0  0  0  0  0  0  0  0  0
   -1.3278    3.6096   -6.5893 C   0  0  0  0  0  0  0  0  0  0  0  0
   -2.1091    3.2052   -7.6764 C   0  0  0  0  0  0  0  0  0  0  0  0
   -2.3300    4.2923   -9.0912 S   0  0  0  0  0  0  0  0  0  0  0  0
   -1.0565    3.4959  -10.1117 C   0  0  0  0  0  0  0  0  0  0  0  0
   -2.8355    2.0168   -7.5948 C   0  0  0  0  0  0  0  0  0  0  0  0
   -2.8613    1.2928   -6.4012 C   0  0  0  0  0  0  0  0  0  0  0  0
   -1.4527    2.5151   -2.1460 C   0  0  0  0  0  0  0  0  0  0  0  0
    0.0701    3.2227   -2.0904 S   0  0  0  0  0  0  0  0  0  0  0  0
   -0.0378    4.0115   -0.5881 C   0  0  0  0  0  0  0  0  0  0  0  0
   -1.3232    3.7082   -0.0828 C   0  0  0  0  0  0  0  0  0  0  0  0
   -2.1864    4.6760    0.5829 N   0  0  0  0  0  0  0  0  0  0  0  0
   -3.5507    4.2785    0.8568 C   0  0  0  0  0  0  0  0  0  0  0  0
   -3.9459    3.8990    2.1438 C   0  0  0  0  0  0  0  0  0  0  0  0
   -5.2230    3.3793    2.3750 C   0  0  0  0  0  0  0  0  0  0  0  0
   -6.1391    3.2825    1.3244 C   0  0  0  0  0  0  0  0  0  0  0  0
   -7.7532    2.5512    1.6031 S   0  0  0  0  0  0  0  0  0  0  0  0
   -8.4928    4.0840    2.2406 C   0  0  0  0  0  0  0  0  0  0  0  0
   -5.7816    3.7323    0.0493 C   0  0  0  0  0  0  0  0  0  0  0  0
   -4.4954    4.2299   -0.1836 C   0  0  0  0  0  0  0  0  0  0  0  0
   -2.0131    6.0924    0.3688 C   0  0  0  0  0  0  0  0  0  0  0  0
   -2.3320    6.9992    1.3943 C   0  0  0  0  0  0  0  0  0  0  0  0
   -2.3032    8.3778    1.1574 C   0  0  0  0  0  0  0  0  0  0  0  0
   -1.9914    8.8643   -0.1178 C   0  0  0  0  0  0  0  0  0  0  0  0
   -2.0099   10.6289   -0.4413 S   0  0  0  0  0  0  0  0  0  0  0  0
   -0.2171   10.8242   -0.1874 C   0  0  0  0  0  0  0  0  0  0  0  0
   -1.7096    7.9691   -1.1522 C   0  0  0  0  0  0  0  0  0  0  0  0
   -1.7253    6.5933   -0.9130 C   0  0  0  0  0  0  0  0  0  0  0  0
   -1.9270    2.7114   -0.8657 C   0  0  0  0  0  0  0  0  0  0  0  0
   -2.3733    1.2166   -0.2609 S   0  0  0  0  0  0  0  0  0  0  0  0
    1.2035    4.3530    0.1689 C   0  0  0  0  0  0  0  0  0  0  0  0
    1.3998    4.5910    1.5576 C   0  0  0  0  0  0  0  0  0  0  0  0
    0.3929    4.7435    2.5686 N   0  0  0  0  0  0  0  0  0  0  0  0
    0.4956    5.9851    3.3123 C   0  0  0  0  0  0  0  0  0  0  0  0
    0.7583    5.9934    4.6981 C   0  0  0  0  0  0  0  0  0  0  0  0
    0.9640    7.1981    5.3787 C   0  0  0  0  0  0  0  0  0  0  0  0
    0.9350    8.4150    4.6865 C   0  0  0  0  0  0  0  0  0  0  0  0
    1.2266    9.7006    5.4009 C   0  0  0  0  0  0  0  0  0  0  0  0
    0.7506    8.4110    3.2995 C   0  0  0  0  0  0  0  0  0  0  0  0
    0.5417    7.2083    2.6191 C   0  0  0  0  0  0  0  0  0  0  0  0
   -0.2461    3.5570    3.1248 C   0  0  0  0  0  0  0  0  0  0  0  0
    0.0310    2.2673    2.6130 C   0  0  0  0  0  0  0  0  0  0  0  0
   -0.6117    1.1373    3.1255 C   0  0  0  0  0  0  0  0  0  0  0  0
   -1.5456    1.2653    4.1589 C   0  0  0  0  0  0  0  0  0  0  0  0
   -2.2327    0.0584    4.7196 C   0  0  0  0  0  0  0  0  0  0  0  0
   -1.7946    2.5263    4.7078 C   0  0  0  0  0  0  0  0  0  0  0  0
   -1.1644    3.6576    4.1889 C   0  0  0  0  0  0  0  0  0  0  0  0
    2.7461    4.5154    1.9152 C   0  0  0  0  0  0  0  0  0  0  0  0
    3.4990    4.3524    3.4105 S   0  0  0  0  0  0  0  0  0  0  0  0
    4.9865    3.8711    2.7429 C   0  0  0  0  0  0  0  0  0  0  0  0
    4.8918    3.8568    1.3442 C   0  0  0  0  0  0  0  0  0  0  0  0
    5.9021    3.3068    0.4838 N   0  0  0  0  0  0  0  0  0  0  0  0
    6.6986    4.1961   -0.3287 C   0  0  0  0  0  0  0  0  0  0  0  0
    6.9958    5.4977    0.1143 C   0  0  0  0  0  0  0  0  0  0  0  0
    7.8454    6.3232   -0.6262 C   0  0  0  0  0  0  0  0  0  0  0  0
    8.3991    5.8708   -1.8313 C   0  0  0  0  0  0  0  0  0  0  0  0
    9.3679    6.7321   -2.5858 C   0  0  0  0  0  0  0  0  0  0  0  0
    8.1022    4.5749   -2.2802 C   0  0  0  0  0  0  0  0  0  0  0  0
    7.2519    3.7470   -1.5399 C   0  0  0  0  0  0  0  0  0  0  0  0
    6.3210    1.9444    0.7153 C   0  0  0  0  0  0  0  0  0  0  0  0
    7.6828    1.6387    0.8833 C   0  0  0  0  0  0  0  0  0  0  0  0
    8.0773    0.3547    1.2681 C   0  0  0  0  0  0  0  0  0  0  0  0
    7.1212   -0.6462    1.4808 C   0  0  0  0  0  0  0  0  0  0  0  0
    7.5556   -1.9912    1.9817 C   0  0  0  0  0  0  0  0  0  0  0  0
    5.7623   -0.3500    1.3047 C   0  0  0  0  0  0  0  0  0  0  0  0
    5.3649    0.9335    0.9155 C   0  0  0  0  0  0  0  0  0  0  0  0
    3.6156    4.2278    0.9210 C   0  0  0  0  0  0  0  0  0  0  0  0
    2.7605    4.0585   -0.5038 S   0  0  0  0  0  0  0  0  0  0  0  0
    6.1320    3.3667    3.5191 C   0  0  0  0  0  0  0  0  0  0  0  0
    6.1178    2.2051    4.1955 C   0  0  0  0  0  0  0  0  0  0  0  0
    7.4650    1.5673    4.9626 S   0  0  0  0  0  0  0  0  0  0  0  0
    6.7065    0.1367    5.4608 C   0  0  0  0  0  0  0  0  0  0  0  0
    7.3329   -0.8337    6.1694 C   0  0  0  0  0  0  0  0  0  0  0  0
    8.7204   -0.6962    6.5322 C   0  0  0  0  0  0  0  0  0  0  0  0
    9.8348   -0.5907    6.8253 N   0  0  0  0  0  0  0  0  0  0  0  0
    6.6922   -2.0402    6.6298 C   0  0  0  0  0  0  0  0  0  0  0  0
    6.1866   -3.0122    7.0051 N   0  0  0  0  0  0  0  0  0  0  0  0
    5.4031    0.1409    5.0389 N   0  0  0  0  0  0  0  0  0  0  0  0
    4.4506   -0.9226    5.2123 C   0  0  0  0  0  0  0  0  0  0  0  0
    3.4483   -0.8258    6.1904 C   0  0  0  0  0  0  0  0  0  0  0  0
    2.5334   -1.8719    6.3618 C   0  0  0  0  0  0  0  0  0  0  0  0
    2.6117   -3.0111    5.5495 C   0  0  0  0  0  0  0  0  0  0  0  0
    3.5876   -3.0944    4.5554 C   0  0  0  0  0  0  0  0  0  0  0  0
    4.5098   -2.0584    4.3923 C   0  0  0  0  0  0  0  0  0  0  0  0
    5.0804    1.2718    4.3388 C   0  0  0  0  0  0  0  0  0  0  0  0
    3.9358    1.4281    3.8349 O   0  0  0  0  0  0  0  0  0  0  0  0
   -2.5274   -7.2941   -0.0375 H   0  0  0  0  0  0  0  0  0  0  0  0
    3.0272   -8.0318    1.3891 H   0  0  0  0  0  0  0  0  0  0  0  0
    4.2749   -9.3573    3.0705 H   0  0  0  0  0  0  0  0  0  0  0  0
    3.7511  -11.7595    3.3963 H   0  0  0  0  0  0  0  0  0  0  0  0
    2.0121  -12.8514    2.0030 H   0  0  0  0  0  0  0  0  0  0  0  0
    0.7774  -11.5403    0.3028 H   0  0  0  0  0  0  0  0  0  0  0  0
   -5.7422   -4.7023   -1.7156 H   0  0  0  0  0  0  0  0  0  0  0  0
   -7.7577   -6.0666   -2.1114 H   0  0  0  0  0  0  0  0  0  0  0  0
   -9.9310   -6.2868    0.0253 H   0  0  0  0  0  0  0  0  0  0  0  0
   -9.4998   -7.3670    1.4207 H   0  0  0  0  0  0  0  0  0  0  0  0
  -10.9422   -7.7429    0.3978 H   0  0  0  0  0  0  0  0  0  0  0  0
   -6.7938   -8.5028    1.2962 H   0  0  0  0  0  0  0  0  0  0  0  0
   -4.7806   -7.1498    1.7069 H   0  0  0  0  0  0  0  0  0  0  0  0
   -1.6034   -5.6454    1.5217 H   0  0  0  0  0  0  0  0  0  0  0  0
   -1.1455   -5.4181    3.9182 H   0  0  0  0  0  0  0  0  0  0  0  0
   -0.3490   -3.8439    6.0841 H   0  0  0  0  0  0  0  0  0  0  0  0
   -1.2265   -2.6127    5.1101 H   0  0  0  0  0  0  0  0  0  0  0  0
   -1.2568   -2.5267    6.9173 H   0  0  0  0  0  0  0  0  0  0  0  0
   -4.8877   -3.3661    4.4547 H   0  0  0  0  0  0  0  0  0  0  0  0
   -5.4106   -3.6922    2.0673 H   0  0  0  0  0  0  0  0  0  0  0  0
    0.5511   -0.9833   -0.5465 H   0  0  0  0  0  0  0  0  0  0  0  0
    2.5217   -1.8640    0.6669 H   0  0  0  0  0  0  0  0  0  0  0  0
    6.7100   -2.9602   -0.7208 H   0  0  0  0  0  0  0  0  0  0  0  0
    5.6589   -3.2520   -2.1490 H   0  0  0  0  0  0  0  0  0  0  0  0
    5.3787   -1.7998   -1.1068 H   0  0  0  0  0  0  0  0  0  0  0  0
    3.3512   -4.5304   -2.6111 H   0  0  0  0  0  0  0  0  0  0  0  0
    1.4429   -3.6022   -3.8527 H   0  0  0  0  0  0  0  0  0  0  0  0
   -1.8401   -1.8476   -5.2452 H   0  0  0  0  0  0  0  0  0  0  0  0
   -1.2064   -1.2623   -7.5500 H   0  0  0  0  0  0  0  0  0  0  0  0
    1.5491    1.8845   -9.6039 H   0  0  0  0  0  0  0  0  0  0  0  0
    2.1493    1.7912   -7.9051 H   0  0  0  0  0  0  0  0  0  0  0  0
    0.3707    1.8322   -8.2248 H   0  0  0  0  0  0  0  0  0  0  0  0
    2.6445    0.0572   -6.1681 H   0  0  0  0  0  0  0  0  0  0  0  0
    1.9836   -0.3856   -3.8618 H   0  0  0  0  0  0  0  0  0  0  0  0
   -3.8918   -1.1234   -4.2531 H   0  0  0  0  0  0  0  0  0  0  0  0
   -6.2950   -1.5086   -3.8579 H   0  0  0  0  0  0  0  0  0  0  0  0
   -9.1781   -0.1678   -0.7654 H   0  0  0  0  0  0  0  0  0  0  0  0
   -7.6665    0.8193   -0.7950 H   0  0  0  0  0  0  0  0  0  0  0  0
   -7.5930   -0.9643   -1.1163 H   0  0  0  0  0  0  0  0  0  0  0  0
   -6.8071    2.6603   -2.9219 H   0  0  0  0  0  0  0  0  0  0  0  0
   -4.3894    3.0343   -3.2550 H   0  0  0  0  0  0  0  0  0  0  0  0
   -0.8137    3.2927   -4.5637 H   0  0  0  0  0  0  0  0  0  0  0  0
   -0.7527    4.5231   -6.6529 H   0  0  0  0  0  0  0  0  0  0  0  0
   -0.0574    3.6881   -9.6725 H   0  0  0  0  0  0  0  0  0  0  0  0
   -1.2474    2.4009  -10.1844 H   0  0  0  0  0  0  0  0  0  0  0  0
   -1.0835    3.9341  -11.1317 H   0  0  0  0  0  0  0  0  0  0  0  0
   -3.4313    1.6869   -8.4352 H   0  0  0  0  0  0  0  0  0  0  0  0
   -3.4778    0.4054   -6.3579 H   0  0  0  0  0  0  0  0  0  0  0  0
   -3.2750    4.0070    2.9657 H   0  0  0  0  0  0  0  0  0  0  0  0
   -5.4949    3.0565    3.3733 H   0  0  0  0  0  0  0  0  0  0  0  0
   -9.5771    3.9193    2.3932 H   0  0  0  0  0  0  0  0  0  0  0  0
   -8.0286    4.3433    3.2149 H   0  0  0  0  0  0  0  0  0  0  0  0
   -8.3528    4.9164    1.5210 H   0  0  0  0  0  0  0  0  0  0  0  0
   -6.4912    3.6778   -0.7635 H   0  0  0  0  0  0  0  0  0  0  0  0
   -4.2176    4.5495   -1.1793 H   0  0  0  0  0  0  0  0  0  0  0  0
   -2.5965    6.6338    2.3805 H   0  0  0  0  0  0  0  0  0  0  0  0
   -2.5376    9.0655    1.9623 H   0  0  0  0  0  0  0  0  0  0  0  0
    0.0635   11.8801   -0.3810 H   0  0  0  0  0  0  0  0  0  0  0  0
    0.0492   10.5682    0.8576 H   0  0  0  0  0  0  0  0  0  0  0  0
    0.3411   10.1706   -0.8909 H   0  0  0  0  0  0  0  0  0  0  0  0
   -1.4990    8.3354   -2.1485 H   0  0  0  0  0  0  0  0  0  0  0  0
   -1.5637    5.9223   -1.7459 H   0  0  0  0  0  0  0  0  0  0  0  0
    0.8457    5.0681    5.2507 H   0  0  0  0  0  0  0  0  0  0  0  0
    1.1710    7.1796    6.4407 H   0  0  0  0  0  0  0  0  0  0  0  0
    0.9690    9.6250    6.4796 H   0  0  0  0  0  0  0  0  0  0  0  0
    0.6385   10.5367    4.9625 H   0  0  0  0  0  0  0  0  0  0  0  0
    2.3086    9.9320    5.3060 H   0  0  0  0  0  0  0  0  0  0  0  0
    0.7896    9.3357    2.7424 H   0  0  0  0  0  0  0  0  0  0  0  0
    0.4369    7.2261    1.5422 H   0  0  0  0  0  0  0  0  0  0  0  0
    0.7394    2.1206    1.8076 H   0  0  0  0  0  0  0  0  0  0  0  0
   -0.3839    0.1633    2.7095 H   0  0  0  0  0  0  0  0  0  0  0  0
   -2.3015   -0.7468    3.9564 H   0  0  0  0  0  0  0  0  0  0  0  0
   -1.6603   -0.3078    5.5954 H   0  0  0  0  0  0  0  0  0  0  0  0
   -3.2640    0.3139    5.0417 H   0  0  0  0  0  0  0  0  0  0  0  0
   -2.5070    2.6382    5.5149 H   0  0  0  0  0  0  0  0  0  0  0  0
   -1.4538    4.6188    4.5886 H   0  0  0  0  0  0  0  0  0  0  0  0
    6.6047    5.8639    1.0548 H   0  0  0  0  0  0  0  0  0  0  0  0
    8.0829    7.3117   -0.2494 H   0  0  0  0  0  0  0  0  0  0  0  0
   10.4008    6.5052   -2.2489 H   0  0  0  0  0  0  0  0  0  0  0  0
    9.1606    7.8091   -2.4042 H   0  0  0  0  0  0  0  0  0  0  0  0
    9.2915    6.5435   -3.6777 H   0  0  0  0  0  0  0  0  0  0  0  0
    8.5397    4.2017   -3.1986 H   0  0  0  0  0  0  0  0  0  0  0  0
    7.0422    2.7485   -1.8989 H   0  0  0  0  0  0  0  0  0  0  0  0
    8.4371    2.4059    0.7701 H   0  0  0  0  0  0  0  0  0  0  0  0
    9.1303    0.1504    1.4285 H   0  0  0  0  0  0  0  0  0  0  0  0
    8.4893   -2.3082    1.4686 H   0  0  0  0  0  0  0  0  0  0  0  0
    7.7415   -1.9319    3.0739 H   0  0  0  0  0  0  0  0  0  0  0  0
    6.7801   -2.7634    1.7915 H   0  0  0  0  0  0  0  0  0  0  0  0
    5.0081   -1.1035    1.4835 H   0  0  0  0  0  0  0  0  0  0  0  0
    4.3102    1.1502    0.8085 H   0  0  0  0  0  0  0  0  0  0  0  0
    7.0689    3.9056    3.4299 H   0  0  0  0  0  0  0  0  0  0  0  0
    3.3835    0.0552    6.8170 H   0  0  0  0  0  0  0  0  0  0  0  0
    1.7664   -1.8089    7.1239 H   0  0  0  0  0  0  0  0  0  0  0  0
    1.9172   -3.8278    5.6833 H   0  0  0  0  0  0  0  0  0  0  0  0
    3.6442   -3.9721    3.9241 H   0  0  0  0  0  0  0  0  0  0  0  0
    5.2790   -2.1429    3.6448 H   0  0  0  0  0  0  0  0  0  0  0  0
  1  2  2  3
  2  3  1  0
  3  4  1  0
  4  5  2  3
  5  6  1  0
  6  7  3  0
  5  8  1  0
  8  9  3  0
  4 10  1  0
 10 11  1  0
 11 12  2  0
 12 13  1  0
 13 14  2  0
 14 15  1  0
 15 16  2  0
 10 17  1  0
 17 18  2  0
  1 19  1  0
 19 20  2  0
 20 21  1  0
 21 22  1  0
 22 23  2  0
 23 24  1  0
 24 25  2  0
 25 26  1  0
 26 27  1  0
 25 28  1  0
 28 29  2  0
 21 30  1  0
 30 31  2  0
 31 32  1  0
 32 33  2  0
 33 34  1  0
 34 35  1  0
 33 36  1  0
 36 37  2  0
 20 38  1  0
 38 39  1  0
 39 40  1  0
 40 41  2  0
 41 42  1  0
 42 43  1  0
 43 44  2  0
 44 45  1  0
 45 46  2  0
 46 47  1  0
 47 48  1  0
 46 49  1  0
 49 50  2  0
 42 51  1  0
 51 52  2  0
 52 53  1  0
 53 54  2  0
 54 55  1  0
 55 56  1  0
 54 57  1  0
 57 58  2  0
 41 59  1  0
 59 60  1  0
 40 61  1  0
 61 62  2  0
 62 63  1  0
 63 64  1  0
 64 65  2  0
 65 66  1  0
 66 67  2  0
 67 68  1  0
 68 69  1  0
 67 70  1  0
 70 71  2  0
 63 72  1  0
 72 73  2  0
 73 74  1  0
 74 75  2  0
 75 76  1  0
 76 77  1  0
 75 78  1  0
 78 79  2  0
 62 80  1  0
 80 81  1  0
 81 82  1  0
 82 83  2  0
 83 84  1  0
 84 85  1  0
 85 86  2  0
 86 87  1  0
 87 88  2  0
 88 89  1  0
 89 90  1  0
 88 91  1  0
 91 92  2  0
 84 93  1  0
 93 94  2  0
 94 95  1  0
 95 96  2  0
 96 97  1  0
 97 98  1  0
 96 99  1  0
 99100  2  0
 83101  1  0
101102  1  0
 82103  1  0
103104  2  0
104105  1  0
105106  1  0
106107  2  0
107108  1  0
108109  2  0
109110  1  0
109111  1  0
111112  2  0
105113  1  0
113114  2  0
114115  1  0
115116  2  0
116117  1  0
116118  1  0
118119  2  0
104120  1  0
120121  1  0
121122  1  0
122123  2  0
123124  1  0
124125  1  0
125126  2  0
126127  1  0
127128  2  0
128129  1  0
128130  1  0
130131  2  0
124132  1  0
132133  2  0
133134  1  0
134135  2  0
135136  1  0
135137  1  0
137138  2  0
123139  1  0
139140  1  0
122141  1  0
141142  2  3
142143  1  0
143144  1  0
144145  2  3
145146  1  0
146147  3  0
145148  1  0
148149  3  0
144150  1  0
150151  1  0
151152  2  0
152153  1  0
153154  2  0
154155  1  0
155156  2  0
150157  1  0
157158  2  0
 17  2  1  0
 60 19  1  0
102 61  1  0
140103  1  0
157142  1  0
 16 11  1  0
 29 22  1  0
 37 30  1  0
 59 38  2  0
 71 64  1  0
 79 72  1  0
101 80  2  0
112106  1  0
119113  1  0
139120  2  0
156151  1  0
 50 43  1  0
 58 51  1  0
 92 85  1  0
100 93  1  0
131125  1  0
138132  1  0
  1159  1  0
 12160  1  0
 13161  1  0
 14162  1  0
 15163  1  0
 16164  1  0
 23165  1  0
 24166  1  0
 27167  1  0
 27168  1  0
 27169  1  0
 28170  1  0
 29171  1  0
 31172  1  0
 32173  1  0
 35174  1  0
 35175  1  0
 35176  1  0
 36177  1  0
 37178  1  0
 44179  1  0
 45180  1  0
 48181  1  0
 48182  1  0
 48183  1  0
 49184  1  0
 50185  1  0
 52186  1  0
 53187  1  0
 56188  1  0
 56189  1  0
 56190  1  0
 57191  1  0
 58192  1  0
 65193  1  0
 66194  1  0
 69195  1  0
 69196  1  0
 69197  1  0
 70198  1  0
 71199  1  0
 73200  1  0
 74201  1  0
 77202  1  0
 77203  1  0
 77204  1  0
 78205  1  0
 79206  1  0
 86207  1  0
 87208  1  0
 90209  1  0
 90210  1  0
 90211  1  0
 91212  1  0
 92213  1  0
 94214  1  0
 95215  1  0
 98216  1  0
 98217  1  0
 98218  1  0
 99219  1  0
100220  1  0
107221  1  0
108222  1  0
110223  1  0
110224  1  0
110225  1  0
111226  1  0
112227  1  0
114228  1  0
115229  1  0
117230  1  0
117231  1  0
117232  1  0
118233  1  0
119234  1  0
126235  1  0
127236  1  0
129237  1  0
129238  1  0
129239  1  0
130240  1  0
131241  1  0
133242  1  0
134243  1  0
136244  1  0
136245  1  0
136246  1  0
137247  1  0
138248  1  0
141249  1  0
152250  1  0
153251  1  0
154252  1  0
155253  1  0
156254  1  0
M  END

