
     RDKit          3D

157170  0  0  0  0  0  0  0  0999 V2000
   -4.3059    0.3332   -4.5493 C   0  0  0  0  0  0  0  0  0  0  0  0
   -5.3694    1.1466   -4.4375 C   0  0  0  0  0  0  0  0  0  0  0  0
   -6.8811    0.7544   -5.0513 S   0  0  0  0  0  0  0  0  0  0  0  0
   -7.6329    2.1853   -4.5710 C   0  0  0  0  0  0  0  0  0  0  0  0
   -8.9324    2.4672   -4.8415 C   0  0  0  0  0  0  0  0  0  0  0  0
   -9.5739    3.7078   -4.4796 C   0  0  0  0  0  0  0  0  0  0  0  0
  -10.0941    4.7052   -4.2016 N   0  0  0  0  0  0  0  0  0  0  0  0
   -9.7490    1.5308   -5.5740 C   0  0  0  0  0  0  0  0  0  0  0  0
  -10.4040    0.7779   -6.1641 N   0  0  0  0  0  0  0  0  0  0  0  0
   -6.7269    2.9839   -3.9241 N   0  0  0  0  0  0  0  0  0  0  0  0
   -6.9797    4.2957   -3.3978 C   0  0  0  0  0  0  0  0  0  0  0  0
   -6.6619    5.4285   -4.1618 C   0  0  0  0  0  0  0  0  0  0  0  0
   -6.9202    6.7074   -3.6598 C   0  0  0  0  0  0  0  0  0  0  0  0
   -7.4915    6.8595   -2.3898 C   0  0  0  0  0  0  0  0  0  0  0  0
   -7.7894    5.7319   -1.6189 C   0  0  0  0  0  0  0  0  0  0  0  0
   -7.5307    4.4509   -2.1180 C   0  0  0  0  0  0  0  0  0  0  0  0
   -5.4754    2.4250   -3.8705 C   0  0  0  0  0  0  0  0  0  0  0  0
   -4.4956    3.0511   -3.3835 O   0  0  0  0  0  0  0  0  0  0  0  0
   -2.9766    0.5151   -3.9244 C   0  0  0  0  0  0  0  0  0  0  0  0
   -1.8032   -0.0897   -4.4030 C   0  0  0  0  0  0  0  0  0  0  0  0
   -1.7438   -0.9018   -5.5814 N   0  0  0  0  0  0  0  0  0  0  0  0
   -1.4630   -0.2585   -6.8323 C   0  0  0  0  0  0  0  0  0  0  0  0
   -0.1664    0.2008   -7.1133 C   0  0  0  0  0  0  0  0  0  0  0  0
    0.1072    0.8381   -8.3223 C   0  0  0  0  0  0  0  0  0  0  0  0
   -0.9205    1.0520   -9.2505 C   0  0  0  0  0  0  0  0  0  0  0  0
   -0.5724    1.9020  -10.7966 S   0  0  0  0  0  0  0  0  0  0  0  0
   -0.7796    3.5623  -10.0769 C   0  0  0  0  0  0  0  0  0  0  0  0
   -2.2182    0.6017   -8.9735 C   0  0  0  0  0  0  0  0  0  0  0  0
   -2.4879   -0.0617   -7.7705 C   0  0  0  0  0  0  0  0  0  0  0  0
   -1.6665   -2.3351   -5.4403 C   0  0  0  0  0  0  0  0  0  0  0  0
   -0.7438   -3.0907   -6.1905 C   0  0  0  0  0  0  0  0  0  0  0  0
   -0.5870   -4.4593   -5.9481 C   0  0  0  0  0  0  0  0  0  0  0  0
   -1.3625   -5.0909   -4.9681 C   0  0  0  0  0  0  0  0  0  0  0  0
   -1.1139   -6.8271   -4.6038 S   0  0  0  0  0  0  0  0  0  0  0  0
    0.0828   -6.4937   -3.2711 C   0  0  0  0  0  0  0  0  0  0  0  0
   -2.3149   -4.3589   -4.2501 C   0  0  0  0  0  0  0  0  0  0  0  0
   -2.4572   -2.9889   -4.4755 C   0  0  0  0  0  0  0  0  0  0  0  0
   -0.7768   -0.0399   -3.4627 C   0  0  0  0  0  0  0  0  0  0  0  0
    0.7363   -0.7270   -3.3480 S   0  0  0  0  0  0  0  0  0  0  0  0
    1.0261   -0.2886   -1.7155 C   0  0  0  0  0  0  0  0  0  0  0  0
   -0.1300    0.4249   -1.2801 C   0  0  0  0  0  0  0  0  0  0  0  0
   -0.3934    0.9341    0.0318 N   0  0  0  0  0  0  0  0  0  0  0  0
   -1.1816    0.0911    0.8933 C   0  0  0  0  0  0  0  0  0  0  0  0
   -0.7120   -1.1859    1.2544 C   0  0  0  0  0  0  0  0  0  0  0  0
   -1.5120   -2.0372    2.0216 C   0  0  0  0  0  0  0  0  0  0  0  0
   -2.7830   -1.6279    2.4331 C   0  0  0  0  0  0  0  0  0  0  0  0
   -3.8110   -2.7226    3.4137 S   0  0  0  0  0  0  0  0  0  0  0  0
   -3.1151   -2.1564    4.9948 C   0  0  0  0  0  0  0  0  0  0  0  0
   -3.2580   -0.3626    2.0742 C   0  0  0  0  0  0  0  0  0  0  0  0
   -2.4677    0.4873    1.2979 C   0  0  0  0  0  0  0  0  0  0  0  0
   -0.2604    2.3620    0.2865 C   0  0  0  0  0  0  0  0  0  0  0  0
   -0.4226    2.8807    1.5908 C   0  0  0  0  0  0  0  0  0  0  0  0
   -0.2810    4.2498    1.8399 C   0  0  0  0  0  0  0  0  0  0  0  0
    0.0333    5.1260    0.8014 C   0  0  0  0  0  0  0  0  0  0  0  0
    0.1453    6.8890    1.1077 S   0  0  0  0  0  0  0  0  0  0  0  0
    1.9250    6.8356    1.5025 C   0  0  0  0  0  0  0  0  0  0  0  0
    0.2156    4.6288   -0.4948 C   0  0  0  0  0  0  0  0  0  0  0  0
    0.0907    3.2623   -0.7460 C   0  0  0  0  0  0  0  0  0  0  0  0
   -1.0925    0.5308   -2.2855 C   0  0  0  0  0  0  0  0  0  0  0  0
   -2.6980    1.0225   -2.3173 S   0  0  0  0  0  0  0  0  0  0  0  0
    2.2361   -0.7579   -0.9491 C   0  0  0  0  0  0  0  0  0  0  0  0
    2.6485   -0.2201    0.2860 C   0  0  0  0  0  0  0  0  0  0  0  0
    2.1085    0.7690    1.0141 N   0  0  0  0  0  0  0  0  0  0  0  0
    2.8099    0.8018    2.1446 N   0  0  0  0  0  0  0  0  0  0  0  0
    2.5522    1.7267    3.2399 C   0  0  0  0  0  0  0  0  0  0  0  0
    3.1726    3.0887    2.9382 C   0  0  0  0  0  0  0  0  0  0  0  0
    3.7801   -0.1015    2.1759 N   0  0  0  0  0  0  0  0  0  0  0  0
    3.6917   -0.7425    1.0027 C   0  0  0  0  0  0  0  0  0  0  0  0
    4.4602   -1.8162    0.5590 C   0  0  0  0  0  0  0  0  0  0  0  0
    4.1285   -2.3554   -0.6965 C   0  0  0  0  0  0  0  0  0  0  0  0
    3.0370   -1.8428   -1.4389 C   0  0  0  0  0  0  0  0  0  0  0  0
    2.7474   -2.4665   -2.6051 F   0  0  0  0  0  0  0  0  0  0  0  0
    4.8440   -3.3937   -1.1992 F   0  0  0  0  0  0  0  0  0  0  0  0
    5.4559   -2.4377    1.4647 C   0  0  0  0  0  0  0  0  0  0  0  0
    5.2507   -3.7447    1.9545 C   0  0  0  0  0  0  0  0  0  0  0  0
    4.3586   -4.5868    1.3665 N   0  0  0  0  0  0  0  0  0  0  0  0
    4.1318   -5.8367    1.8505 C   0  0  0  0  0  0  0  0  0  0  0  0
    4.7904   -6.2573    3.0058 C   0  0  0  0  0  0  0  0  0  0  0  0
    4.5648   -7.5454    3.5049 O   0  0  0  0  0  0  0  0  0  0  0  0
    5.0096   -7.9803    4.7878 C   0  0  0  0  0  0  0  0  0  0  0  0
    4.0110   -7.5462    5.8621 C   0  0  0  0  0  0  0  0  0  0  0  0
    5.6551   -5.4080    3.6220 N   0  0  0  0  0  0  0  0  0  0  0  0
    5.9209   -4.1729    3.1188 C   0  0  0  0  0  0  0  0  0  0  0  0
    6.7893   -3.3007    3.7927 C   0  0  0  0  0  0  0  0  0  0  0  0
    7.1361   -2.0772    3.1964 C   0  0  0  0  0  0  0  0  0  0  0  0
    6.4606   -1.6409    2.0489 C   0  0  0  0  0  0  0  0  0  0  0  0
    6.7183   -0.4046    1.5581 F   0  0  0  0  0  0  0  0  0  0  0  0
    8.0175   -1.2461    3.8054 F   0  0  0  0  0  0  0  0  0  0  0  0
    7.1788   -3.6048    5.1825 C   0  0  0  0  0  0  0  0  0  0  0  0
    6.6039   -2.9933    6.2356 C   0  0  0  0  0  0  0  0  0  0  0  0
    6.7609   -3.5197    7.8202 S   0  0  0  0  0  0  0  0  0  0  0  0
    5.7577   -2.3206    8.4811 C   0  0  0  0  0  0  0  0  0  0  0  0
    5.5418   -2.1870    9.8116 C   0  0  0  0  0  0  0  0  0  0  0  0
    6.0078   -3.1934   10.7414 C   0  0  0  0  0  0  0  0  0  0  0  0
    6.3909   -4.0015   11.4714 N   0  0  0  0  0  0  0  0  0  0  0  0
    4.9546   -1.0059   10.3934 C   0  0  0  0  0  0  0  0  0  0  0  0
    4.5100   -0.0462   10.8658 N   0  0  0  0  0  0  0  0  0  0  0  0
    5.2822   -1.5089    7.4838 N   0  0  0  0  0  0  0  0  0  0  0  0
    4.3304   -0.4417    7.6243 C   0  0  0  0  0  0  0  0  0  0  0  0
    4.7003    0.8793    7.3086 C   0  0  0  0  0  0  0  0  0  0  0  0
    3.7524    1.9062    7.3699 C   0  0  0  0  0  0  0  0  0  0  0  0
    2.4373    1.6266    7.7427 C   0  0  0  0  0  0  0  0  0  0  0  0
    2.0629    0.3183    8.0589 C   0  0  0  0  0  0  0  0  0  0  0  0
    3.0064   -0.7140    7.9999 C   0  0  0  0  0  0  0  0  0  0  0  0
    5.7379   -1.8909    6.2518 C   0  0  0  0  0  0  0  0  0  0  0  0
    5.3741   -1.2868    5.2119 O   0  0  0  0  0  0  0  0  0  0  0  0
   -4.4365   -0.5705   -5.1361 H   0  0  0  0  0  0  0  0  0  0  0  0
   -6.2261    5.3130   -5.1457 H   0  0  0  0  0  0  0  0  0  0  0  0
   -6.6872    7.5784   -4.2566 H   0  0  0  0  0  0  0  0  0  0  0  0
   -7.6951    7.8499   -2.0073 H   0  0  0  0  0  0  0  0  0  0  0  0
   -8.2330    5.8513   -0.6377 H   0  0  0  0  0  0  0  0  0  0  0  0
   -7.7697    3.5824   -1.5188 H   0  0  0  0  0  0  0  0  0  0  0  0
    0.6319    0.0463   -6.3997 H   0  0  0  0  0  0  0  0  0  0  0  0
    1.1113    1.1717   -8.5403 H   0  0  0  0  0  0  0  0  0  0  0  0
   -0.6291    4.3207  -10.8755 H   0  0  0  0  0  0  0  0  0  0  0  0
   -0.0229    3.7300   -9.2827 H   0  0  0  0  0  0  0  0  0  0  0  0
   -1.7993    3.6783   -9.6591 H   0  0  0  0  0  0  0  0  0  0  0  0
   -3.0156    0.7630   -9.6906 H   0  0  0  0  0  0  0  0  0  0  0  0
   -3.4905   -0.4136   -7.5654 H   0  0  0  0  0  0  0  0  0  0  0  0
   -0.1166   -2.6206   -6.9341 H   0  0  0  0  0  0  0  0  0  0  0  0
    0.1543   -5.0215   -6.5021 H   0  0  0  0  0  0  0  0  0  0  0  0
    0.9840   -5.9944   -3.6895 H   0  0  0  0  0  0  0  0  0  0  0  0
   -0.3789   -5.8434   -2.4990 H   0  0  0  0  0  0  0  0  0  0  0  0
    0.3845   -7.4515   -2.8031 H   0  0  0  0  0  0  0  0  0  0  0  0
   -2.9144   -4.8416   -3.4919 H   0  0  0  0  0  0  0  0  0  0  0  0
   -3.1698   -2.4353   -3.8825 H   0  0  0  0  0  0  0  0  0  0  0  0
    0.2601   -1.5260    0.9367 H   0  0  0  0  0  0  0  0  0  0  0  0
   -1.1408   -3.0199    2.2918 H   0  0  0  0  0  0  0  0  0  0  0  0
   -3.6882   -2.6134    5.8282 H   0  0  0  0  0  0  0  0  0  0  0  0
   -2.0524   -2.4765    5.0690 H   0  0  0  0  0  0  0  0  0  0  0  0
   -3.1822   -1.0492    5.0775 H   0  0  0  0  0  0  0  0  0  0  0  0
   -4.2464   -0.0450    2.3779 H   0  0  0  0  0  0  0  0  0  0  0  0
   -2.8651    1.4485    0.9966 H   0  0  0  0  0  0  0  0  0  0  0  0
   -0.6568    2.2331    2.4186 H   0  0  0  0  0  0  0  0  0  0  0  0
   -0.3978    4.6248    2.8503 H   0  0  0  0  0  0  0  0  0  0  0  0
    2.2740    7.8628    1.7251 H   0  0  0  0  0  0  0  0  0  0  0  0
    2.4938    6.4397    0.6366 H   0  0  0  0  0  0  0  0  0  0  0  0
    2.0883    6.1942    2.3930 H   0  0  0  0  0  0  0  0  0  0  0  0
    0.4438    5.3041   -1.3107 H   0  0  0  0  0  0  0  0  0  0  0  0
    0.2425    2.9217   -1.7606 H   0  0  0  0  0  0  0  0  0  0  0  0
    2.9847    1.3224    4.1807 H   0  0  0  0  0  0  0  0  0  0  0  0
    1.4606    1.8402    3.3886 H   0  0  0  0  0  0  0  0  0  0  0  0
    4.2737    2.9842    2.8345 H   0  0  0  0  0  0  0  0  0  0  0  0
    2.7487    3.5002    2.0017 H   0  0  0  0  0  0  0  0  0  0  0  0
    2.9517    3.7896    3.7702 H   0  0  0  0  0  0  0  0  0  0  0  0
    3.4322   -6.4902    1.3407 H   0  0  0  0  0  0  0  0  0  0  0  0
    5.0803   -9.0877    4.7824 H   0  0  0  0  0  0  0  0  0  0  0  0
    6.0201   -7.5691    5.0155 H   0  0  0  0  0  0  0  0  0  0  0  0
    4.3959   -7.8405    6.8623 H   0  0  0  0  0  0  0  0  0  0  0  0
    3.0306   -8.0404    5.6908 H   0  0  0  0  0  0  0  0  0  0  0  0
    3.8701   -6.4420    5.8388 H   0  0  0  0  0  0  0  0  0  0  0  0
    7.7790   -4.4893    5.3545 H   0  0  0  0  0  0  0  0  0  0  0  0
    5.7170    1.1057    7.0083 H   0  0  0  0  0  0  0  0  0  0  0  0
    4.0414    2.9250    7.1306 H   0  0  0  0  0  0  0  0  0  0  0  0
    1.7110    2.4270    7.7904 H   0  0  0  0  0  0  0  0  0  0  0  0
    1.0363    0.0977    8.3252 H   0  0  0  0  0  0  0  0  0  0  0  0
    2.6984   -1.7281    8.2148 H   0  0  0  0  0  0  0  0  0  0  0  0
  1  2  2  3
  2  3  1  0
  3  4  1  0
  4  5  2  3
  5  6  1  0
  6  7  3  0
  5  8  1  0
  8  9  3  0
  4 10  1  0
 10 11  1  0
 11 12  2  0
 12 13  1  0
 13 14  2  0
 14 15  1  0
 15 16  2  0
 10 17  1  0
 17 18  2  0
  1 19  1  0
 19 20  2  0
 20 21  1  0
 21 22  1  0
 22 23  2  0
 23 24  1  0
 24 25  2  0
 25 26  1  0
 26 27  1  0
 25 28  1  0
 28 29  2  0
 21 30  1  0
 30 31  2  0
 31 32  1  0
 32 33  2  0
 33 34  1  0
 34 35  1  0
 33 36  1  0
 36 37  2  0
 20 38  1  0
 38 39  1  0
 39 40  1  0
 40 41  2  0
 41 42  1  0
 42 43  1  0
 43 44  2  0
 44 45  1  0
 45 46  2  0
 46 47  1  0
 47 48  1  0
 46 49  1  0
 49 50  2  0
 42 51  1  0
 51 52  2  0
 52 53  1  0
 53 54  2  0
 54 55  1  0
 55 56  1  0
 54 57  1  0
 57 58  2  0
 41 59  1  0
 59 60  1  0
 40 61  1  0
 61 62  1  0
 62 63  2  0
 63 64  1  0
 64 65  1  0
 65 66  1  0
 64 67  1  0
 67 68  2  0
 68 69  1  0
 69 70  2  0
 70 71  1  0
 71 72  1  0
 70 73  1  0
 69 74  1  0
 74 75  1  0
 75 76  2  0
 76 77  1  0
 77 78  2  0
 78 79  1  0
 79 80  1  0
 80 81  1  0
 78 82  1  0
 82 83  2  0
 83 84  1  0
 84 85  2  0
 85 86  1  0
 86 87  1  0
 85 88  1  0
 84 89  1  0
 89 90  2  3
 90 91  1  0
 91 92  1  0
 92 93  2  3
 93 94  1  0
 94 95  3  0
 93 96  1  0
 96 97  3  0
 92 98  1  0
 98 99  1  0
 99100  2  0
100101  1  0
101102  2  0
102103  1  0
103104  2  0
 98105  1  0
105106  2  0
 17  2  1  0
 60 19  1  0
 71 61  2  0
 86 74  2  0
105 90  1  0
 16 11  1  0
 29 22  1  0
 37 30  1  0
 59 38  2  0
 68 62  1  0
 83 75  1  0
104 99  1  0
 50 43  1  0
 58 51  1  0
  1107  1  0
 12108  1  0
 13109  1  0
 14110  1  0
 15111  1  0
 16112  1  0
 23113  1  0
 24114  1  0
 27115  1  0
 27116  1  0
 27117  1  0
 28118  1  0
 29119  1  0
 31120  1  0
 32121  1  0
 35122  1  0
 35123  1  0
 35124  1  0
 36125  1  0
 37126  1  0
 44127  1  0
 45128  1  0
 48129  1  0
 48130  1  0
 48131  1  0
 49132  1  0
 50133  1  0
 52134  1  0
 53135  1  0
 56136  1  0
 56137  1  0
 56138  1  0
 57139  1  0
 58140  1  0
 65141  1  0
 65142  1  0
 66143  1  0
 66144  1  0
 66145  1  0
 77146  1  0
 80147  1  0
 80148  1  0
 81149  1  0
 81150  1  0
 81151  1  0
 89152  1  0
100153  1  0
101154  1  0
102155  1  0
103156  1  0
104157  1  0
M  END

