
     RDKit          3D

202218  0  0  0  0  0  0  0  0999 V2000
   -1.6804    6.5261    5.2157 C   0  0  0  0  0  0  0  0  0  0  0  0
   -1.6743    7.5727    4.3805 C   0  0  0  0  0  0  0  0  0  0  0  0
   -0.5542    7.8708    3.1710 S   0  0  0  0  0  0  0  0  0  0  0  0
   -1.4058    9.1480    2.4700 C   0  0  0  0  0  0  0  0  0  0  0  0
   -0.9136    9.9005    1.4566 C   0  0  0  0  0  0  0  0  0  0  0  0
   -1.6266   10.9937    0.8449 C   0  0  0  0  0  0  0  0  0  0  0  0
   -2.1929   11.8649    0.3372 N   0  0  0  0  0  0  0  0  0  0  0  0
    0.4803    9.7980    1.0943 C   0  0  0  0  0  0  0  0  0  0  0  0
    1.6106    9.7679    0.8708 N   0  0  0  0  0  0  0  0  0  0  0  0
   -2.5871    9.3344    3.1412 N   0  0  0  0  0  0  0  0  0  0  0  0
   -3.6744   10.1703    2.7113 C   0  0  0  0  0  0  0  0  0  0  0  0
   -4.4066    9.8354    1.5592 C   0  0  0  0  0  0  0  0  0  0  0  0
   -5.4432   10.6620    1.1205 C   0  0  0  0  0  0  0  0  0  0  0  0
   -5.7673   11.8135    1.8412 C   0  0  0  0  0  0  0  0  0  0  0  0
   -5.0676   12.1354    3.0054 C   0  0  0  0  0  0  0  0  0  0  0  0
   -4.0261   11.3148    3.4472 C   0  0  0  0  0  0  0  0  0  0  0  0
   -2.7053    8.5009    4.2219 C   0  0  0  0  0  0  0  0  0  0  0  0
   -3.7221    8.5169    4.9706 O   0  0  0  0  0  0  0  0  0  0  0  0
   -1.3105    5.1941    4.7066 C   0  0  0  0  0  0  0  0  0  0  0  0
   -0.0627    4.7495    4.2228 C   0  0  0  0  0  0  0  0  0  0  0  0
    1.2131    5.2841    4.6248 N   0  0  0  0  0  0  0  0  0  0  0  0
    1.4761    5.3711    6.0376 C   0  0  0  0  0  0  0  0  0  0  0  0
    2.0297    6.5376    6.5834 C   0  0  0  0  0  0  0  0  0  0  0  0
    2.3802    6.5861    7.9335 C   0  0  0  0  0  0  0  0  0  0  0  0
    2.1610    5.4728    8.7555 C   0  0  0  0  0  0  0  0  0  0  0  0
    2.6122    5.5369   10.4883 S   0  0  0  0  0  0  0  0  0  0  0  0
    4.2593    4.8213   10.2087 C   0  0  0  0  0  0  0  0  0  0  0  0
    1.5781    4.3207    8.2261 C   0  0  0  0  0  0  0  0  0  0  0  0
    1.2418    4.2662    6.8693 C   0  0  0  0  0  0  0  0  0  0  0  0
    2.2790    5.4818    3.6608 C   0  0  0  0  0  0  0  0  0  0  0  0
    3.6320    5.4103    4.0507 C   0  0  0  0  0  0  0  0  0  0  0  0
    4.6587    5.6714    3.1389 C   0  0  0  0  0  0  0  0  0  0  0  0
    4.3555    6.0004    1.8172 C   0  0  0  0  0  0  0  0  0  0  0  0
    5.6809    6.4009    0.6714 S   0  0  0  0  0  0  0  0  0  0  0  0
    6.0559    4.6675    0.2683 C   0  0  0  0  0  0  0  0  0  0  0  0
    3.0178    6.0679    1.4077 C   0  0  0  0  0  0  0  0  0  0  0  0
    1.9901    5.7924    2.3123 C   0  0  0  0  0  0  0  0  0  0  0  0
   -0.2155    3.5565    3.5078 C   0  0  0  0  0  0  0  0  0  0  0  0
    0.7965    2.5015    2.6831 S   0  0  0  0  0  0  0  0  0  0  0  0
   -0.4593    1.4392    2.1987 C   0  0  0  0  0  0  0  0  0  0  0  0
   -1.6664    1.9102    2.7404 C   0  0  0  0  0  0  0  0  0  0  0  0
   -2.9363    1.2473    2.6820 N   0  0  0  0  0  0  0  0  0  0  0  0
   -3.3788    0.5695    3.8741 C   0  0  0  0  0  0  0  0  0  0  0  0
   -4.6524    0.8256    4.4096 C   0  0  0  0  0  0  0  0  0  0  0  0
   -5.0461    0.2362    5.6154 C   0  0  0  0  0  0  0  0  0  0  0  0
   -4.1700   -0.6079    6.3039 C   0  0  0  0  0  0  0  0  0  0  0  0
   -4.6694   -1.3446    7.8629 S   0  0  0  0  0  0  0  0  0  0  0  0
   -5.2985   -2.8552    7.0760 C   0  0  0  0  0  0  0  0  0  0  0  0
   -2.8970   -0.8602    5.7882 C   0  0  0  0  0  0  0  0  0  0  0  0
   -2.4991   -0.2762    4.5823 C   0  0  0  0  0  0  0  0  0  0  0  0
   -3.8316    1.4963    1.5769 C   0  0  0  0  0  0  0  0  0  0  0  0
   -4.8125    0.5510    1.2283 C   0  0  0  0  0  0  0  0  0  0  0  0
   -5.6972    0.8027    0.1714 C   0  0  0  0  0  0  0  0  0  0  0  0
   -5.5973    1.9836   -0.5615 C   0  0  0  0  0  0  0  0  0  0  0  0
   -6.7060    2.2882   -1.9404 S   0  0  0  0  0  0  0  0  0  0  0  0
   -5.5861    1.5211   -3.1524 C   0  0  0  0  0  0  0  0  0  0  0  0
   -4.6206    2.9305   -0.2293 C   0  0  0  0  0  0  0  0  0  0  0  0
   -3.7379    2.6857    0.8230 C   0  0  0  0  0  0  0  0  0  0  0  0
   -1.4804    3.0826    3.4498 C   0  0  0  0  0  0  0  0  0  0  0  0
   -2.5281    4.0907    4.2656 S   0  0  0  0  0  0  0  0  0  0  0  0
   -0.2827    0.2218    1.3730 C   0  0  0  0  0  0  0  0  0  0  0  0
    0.9063   -0.2063    0.7625 C   0  0  0  0  0  0  0  0  0  0  0  0
    2.0092    0.6606    0.4607 N   0  0  0  0  0  0  0  0  0  0  0  0
    3.3351    0.2032    0.7898 C   0  0  0  0  0  0  0  0  0  0  0  0
    4.3162    0.0769   -0.2083 C   0  0  0  0  0  0  0  0  0  0  0  0
    5.5540   -0.5045    0.0906 C   0  0  0  0  0  0  0  0  0  0  0  0
    5.8189   -0.9635    1.3837 C   0  0  0  0  0  0  0  0  0  0  0  0
    7.3672   -1.7937    1.7459 S   0  0  0  0  0  0  0  0  0  0  0  0
    6.7301   -3.4312    1.2683 C   0  0  0  0  0  0  0  0  0  0  0  0
    4.8620   -0.7973    2.3919 C   0  0  0  0  0  0  0  0  0  0  0  0
    3.6249   -0.2225    2.0947 C   0  0  0  0  0  0  0  0  0  0  0  0
    1.8145    1.7245   -0.5002 C   0  0  0  0  0  0  0  0  0  0  0  0
    0.8481    1.6117   -1.5200 C   0  0  0  0  0  0  0  0  0  0  0  0
    0.6743    2.6422   -2.4474 C   0  0  0  0  0  0  0  0  0  0  0  0
    1.4624    3.7899   -2.3768 C   0  0  0  0  0  0  0  0  0  0  0  0
    1.2285    5.1156   -3.5672 S   0  0  0  0  0  0  0  0  0  0  0  0
    2.4554    4.4498   -4.7308 C   0  0  0  0  0  0  0  0  0  0  0  0
    2.4295    3.9133   -1.3719 C   0  0  0  0  0  0  0  0  0  0  0  0
    2.6033    2.8900   -0.4350 C   0  0  0  0  0  0  0  0  0  0  0  0
    0.7241   -1.3997    0.0761 C   0  0  0  0  0  0  0  0  0  0  0  0
    1.6699   -2.2000   -1.0410 S   0  0  0  0  0  0  0  0  0  0  0  0
    0.3996   -3.1796   -1.6219 C   0  0  0  0  0  0  0  0  0  0  0  0
   -0.7957   -2.8385   -0.9537 C   0  0  0  0  0  0  0  0  0  0  0  0
   -2.1086   -3.1178   -1.4727 N   0  0  0  0  0  0  0  0  0  0  0  0
   -2.4665   -2.6546   -2.7944 C   0  0  0  0  0  0  0  0  0  0  0  0
   -3.2481   -3.4646   -3.6380 C   0  0  0  0  0  0  0  0  0  0  0  0
   -3.6336   -3.0011   -4.9010 C   0  0  0  0  0  0  0  0  0  0  0  0
   -3.2640   -1.7201   -5.3218 C   0  0  0  0  0  0  0  0  0  0  0  0
   -3.7922   -1.1226   -6.9240 S   0  0  0  0  0  0  0  0  0  0  0  0
   -2.2361   -1.5963   -7.7450 C   0  0  0  0  0  0  0  0  0  0  0  0
   -2.5051   -0.8990   -4.4797 C   0  0  0  0  0  0  0  0  0  0  0  0
   -2.0998   -1.3670   -3.2237 C   0  0  0  0  0  0  0  0  0  0  0  0
   -3.1442   -3.5596   -0.5826 C   0  0  0  0  0  0  0  0  0  0  0  0
   -3.0213   -4.7876    0.0916 C   0  0  0  0  0  0  0  0  0  0  0  0
   -4.0534   -5.2386    0.9165 C   0  0  0  0  0  0  0  0  0  0  0  0
   -5.2088   -4.4626    1.0947 C   0  0  0  0  0  0  0  0  0  0  0  0
   -6.5305   -5.0484    2.1593 S   0  0  0  0  0  0  0  0  0  0  0  0
   -7.4966   -5.7626    0.7898 C   0  0  0  0  0  0  0  0  0  0  0  0
   -5.3166   -3.2233    0.4536 C   0  0  0  0  0  0  0  0  0  0  0  0
   -4.2975   -2.7822   -0.4009 C   0  0  0  0  0  0  0  0  0  0  0  0
   -0.5527   -1.8644    0.0208 C   0  0  0  0  0  0  0  0  0  0  0  0
   -1.5324   -0.8495    0.9154 S   0  0  0  0  0  0  0  0  0  0  0  0
    0.5947   -4.2111   -2.6563 C   0  0  0  0  0  0  0  0  0  0  0  0
    1.7911   -4.4051   -3.3369 C   0  0  0  0  0  0  0  0  0  0  0  0
    1.8042   -5.5666   -4.1082 C   0  0  0  0  0  0  0  0  0  0  0  0
    3.2447   -6.0844   -5.0530 S   0  0  0  0  0  0  0  0  0  0  0  0
    4.1687   -6.7467   -3.6199 C   0  0  0  0  0  0  0  0  0  0  0  0
    3.5388   -8.0240   -3.0779 C   0  0  0  0  0  0  0  0  0  0  0  0
    0.6126   -6.2752   -4.0632 C   0  0  0  0  0  0  0  0  0  0  0  0
   -0.4585   -5.4752   -3.0343 S   0  0  0  0  0  0  0  0  0  0  0  0
    0.3611   -7.5236   -4.7811 C   0  0  0  0  0  0  0  0  0  0  0  0
   -0.2442   -7.5366   -5.9762 C   0  0  0  0  0  0  0  0  0  0  0  0
   -1.1788   -6.3107   -6.6541 S   0  0  0  0  0  0  0  0  0  0  0  0
   -1.3804   -7.0861   -8.1479 C   0  0  0  0  0  0  0  0  0  0  0  0
   -2.1588   -6.6156   -9.1455 C   0  0  0  0  0  0  0  0  0  0  0  0
   -2.9109   -5.3994   -8.9880 C   0  0  0  0  0  0  0  0  0  0  0  0
   -3.5353   -4.4308   -8.8625 N   0  0  0  0  0  0  0  0  0  0  0  0
   -2.4325   -7.3656  -10.3427 C   0  0  0  0  0  0  0  0  0  0  0  0
   -2.6568   -7.9641  -11.3137 N   0  0  0  0  0  0  0  0  0  0  0  0
   -0.6820   -8.2640   -8.1499 N   0  0  0  0  0  0  0  0  0  0  0  0
   -0.3264   -9.0333   -9.3121 C   0  0  0  0  0  0  0  0  0  0  0  0
    0.5945   -8.5189  -10.2342 C   0  0  0  0  0  0  0  0  0  0  0  0
    0.9733   -9.2800  -11.3435 C   0  0  0  0  0  0  0  0  0  0  0  0
    0.4349  -10.5508  -11.5385 C   0  0  0  0  0  0  0  0  0  0  0  0
   -0.4865  -11.0706  -10.6255 C   0  0  0  0  0  0  0  0  0  0  0  0
   -0.8660  -10.3154   -9.5089 C   0  0  0  0  0  0  0  0  0  0  0  0
   -0.0923   -8.5251   -6.9441 C   0  0  0  0  0  0  0  0  0  0  0  0
    0.6032   -9.5664   -6.7457 O   0  0  0  0  0  0  0  0  0  0  0  0
   -2.4458    6.5120    5.9823 H   0  0  0  0  0  0  0  0  0  0  0  0
   -4.1550    8.9447    0.9953 H   0  0  0  0  0  0  0  0  0  0  0  0
   -5.9894   10.4155    0.2168 H   0  0  0  0  0  0  0  0  0  0  0  0
   -6.5713   12.4512    1.4950 H   0  0  0  0  0  0  0  0  0  0  0  0
   -5.3393   13.0187    3.5683 H   0  0  0  0  0  0  0  0  0  0  0  0
   -3.4883   11.5681    4.3484 H   0  0  0  0  0  0  0  0  0  0  0  0
    2.2253    7.4000    5.9542 H   0  0  0  0  0  0  0  0  0  0  0  0
    2.8257    7.4868    8.3426 H   0  0  0  0  0  0  0  0  0  0  0  0
    4.8025    4.7551   11.1734 H   0  0  0  0  0  0  0  0  0  0  0  0
    4.1640    3.8066    9.7747 H   0  0  0  0  0  0  0  0  0  0  0  0
    4.8440    5.4683    9.5234 H   0  0  0  0  0  0  0  0  0  0  0  0
    1.4103    3.4522    8.8515 H   0  0  0  0  0  0  0  0  0  0  0  0
    0.8284    3.3534    6.4590 H   0  0  0  0  0  0  0  0  0  0  0  0
    3.9077    5.1431    5.0620 H   0  0  0  0  0  0  0  0  0  0  0  0
    5.6893    5.6189    3.4652 H   0  0  0  0  0  0  0  0  0  0  0  0
    7.0109    4.6325   -0.2951 H   0  0  0  0  0  0  0  0  0  0  0  0
    6.1745    4.0636    1.1905 H   0  0  0  0  0  0  0  0  0  0  0  0
    5.2554    4.2436   -0.3709 H   0  0  0  0  0  0  0  0  0  0  0  0
    2.7733    6.3538    0.3950 H   0  0  0  0  0  0  0  0  0  0  0  0
    0.9691    5.8274    1.9612 H   0  0  0  0  0  0  0  0  0  0  0  0
   -5.3299    1.5079    3.9131 H   0  0  0  0  0  0  0  0  0  0  0  0
   -6.0271    0.4454    6.0230 H   0  0  0  0  0  0  0  0  0  0  0  0
   -6.1359   -2.6081    6.3903 H   0  0  0  0  0  0  0  0  0  0  0  0
   -4.4838   -3.3486    6.4998 H   0  0  0  0  0  0  0  0  0  0  0  0
   -5.6519   -3.5539    7.8649 H   0  0  0  0  0  0  0  0  0  0  0  0
   -2.2125   -1.5027    6.3282 H   0  0  0  0  0  0  0  0  0  0  0  0
   -1.5081   -0.4802    4.1990 H   0  0  0  0  0  0  0  0  0  0  0  0
   -4.9008   -0.3812    1.7736 H   0  0  0  0  0  0  0  0  0  0  0  0
   -6.4490    0.0621   -0.0785 H   0  0  0  0  0  0  0  0  0  0  0  0
   -6.0599    1.5684   -4.1518 H   0  0  0  0  0  0  0  0  0  0  0  0
   -5.4030    0.4579   -2.8892 H   0  0  0  0  0  0  0  0  0  0  0  0
   -4.6214    2.0712   -3.1844 H   0  0  0  0  0  0  0  0  0  0  0  0
   -4.5320    3.8484   -0.7880 H   0  0  0  0  0  0  0  0  0  0  0  0
   -2.9968    3.4387    1.0621 H   0  0  0  0  0  0  0  0  0  0  0  0
    4.1080    0.3852   -1.2233 H   0  0  0  0  0  0  0  0  0  0  0  0
    6.2941   -0.6148   -0.6914 H   0  0  0  0  0  0  0  0  0  0  0  0
    6.5088   -3.4435    0.1824 H   0  0  0  0  0  0  0  0  0  0  0  0
    5.8100   -3.6562    1.8449 H   0  0  0  0  0  0  0  0  0  0  0  0
    7.4970   -4.2050    1.4944 H   0  0  0  0  0  0  0  0  0  0  0  0
    5.0670   -1.1279    3.3994 H   0  0  0  0  0  0  0  0  0  0  0  0
    2.8771   -0.1361    2.8694 H   0  0  0  0  0  0  0  0  0  0  0  0
    0.2358    0.7243   -1.6200 H   0  0  0  0  0  0  0  0  0  0  0  0
   -0.0718    2.5402   -3.2266 H   0  0  0  0  0  0  0  0  0  0  0  0
    3.4311    4.2950   -4.2223 H   0  0  0  0  0  0  0  0  0  0  0  0
    2.5827    5.1639   -5.5674 H   0  0  0  0  0  0  0  0  0  0  0  0
    2.0980    3.4763   -5.1354 H   0  0  0  0  0  0  0  0  0  0  0  0
    3.0582    4.7946   -1.3329 H   0  0  0  0  0  0  0  0  0  0  0  0
    3.3356    3.0055    0.3577 H   0  0  0  0  0  0  0  0  0  0  0  0
   -3.5545   -4.4526   -3.3213 H   0  0  0  0  0  0  0  0  0  0  0  0
   -4.2349   -3.6296   -5.5453 H   0  0  0  0  0  0  0  0  0  0  0  0
   -2.3270   -1.3901   -8.8332 H   0  0  0  0  0  0  0  0  0  0  0  0
   -2.0177   -2.6746   -7.5906 H   0  0  0  0  0  0  0  0  0  0  0  0
   -1.3928   -1.0022   -7.3345 H   0  0  0  0  0  0  0  0  0  0  0  0
   -2.2321    0.1035   -4.7943 H   0  0  0  0  0  0  0  0  0  0  0  0
   -1.5261   -0.7135   -2.5799 H   0  0  0  0  0  0  0  0  0  0  0  0
   -2.1322   -5.3971   -0.0458 H   0  0  0  0  0  0  0  0  0  0  0  0
   -3.9541   -6.1905    1.4259 H   0  0  0  0  0  0  0  0  0  0  0  0
   -6.9018   -6.5287    0.2485 H   0  0  0  0  0  0  0  0  0  0  0  0
   -7.8087   -4.9676    0.0815 H   0  0  0  0  0  0  0  0  0  0  0  0
   -8.4059   -6.2463    1.2037 H   0  0  0  0  0  0  0  0  0  0  0  0
   -6.1953   -2.6004    0.6005 H   0  0  0  0  0  0  0  0  0  0  0  0
   -4.3980   -1.8221   -0.9004 H   0  0  0  0  0  0  0  0  0  0  0  0
    2.6529   -3.7511   -3.2511 H   0  0  0  0  0  0  0  0  0  0  0  0
    4.2359   -5.9845   -2.8123 H   0  0  0  0  0  0  0  0  0  0  0  0
    5.1958   -6.9746   -3.9536 H   0  0  0  0  0  0  0  0  0  0  0  0
    2.5749   -7.8016   -2.5852 H   0  0  0  0  0  0  0  0  0  0  0  0
    3.3862   -8.7508   -3.9062 H   0  0  0  0  0  0  0  0  0  0  0  0
    4.2107   -8.4863   -2.3233 H   0  0  0  0  0  0  0  0  0  0  0  0
    0.9442   -8.3812   -4.4791 H   0  0  0  0  0  0  0  0  0  0  0  0
    1.0302   -7.5360  -10.0893 H   0  0  0  0  0  0  0  0  0  0  0  0
    1.6849   -8.8800  -12.0555 H   0  0  0  0  0  0  0  0  0  0  0  0
    0.7381  -11.1336  -12.4039 H   0  0  0  0  0  0  0  0  0  0  0  0
   -0.9047  -12.0620  -10.7734 H   0  0  0  0  0  0  0  0  0  0  0  0
   -1.5695  -10.7177   -8.7962 H   0  0  0  0  0  0  0  0  0  0  0  0
  1  2  2  3
  2  3  1  0
  3  4  1  0
  4  5  2  3
  5  6  1  0
  6  7  3  0
  5  8  1  0
  8  9  3  0
  4 10  1  0
 10 11  1  0
 11 12  2  0
 12 13  1  0
 13 14  2  0
 14 15  1  0
 15 16  2  0
 10 17  1  0
 17 18  2  0
  1 19  1  0
 19 20  2  0
 20 21  1  0
 21 22  1  0
 22 23  2  0
 23 24  1  0
 24 25  2  0
 25 26  1  0
 26 27  1  0
 25 28  1  0
 28 29  2  0
 21 30  1  0
 30 31  2  0
 31 32  1  0
 32 33  2  0
 33 34  1  0
 34 35  1  0
 33 36  1  0
 36 37  2  0
 20 38  1  0
 38 39  1  0
 39 40  1  0
 40 41  2  0
 41 42  1  0
 42 43  1  0
 43 44  2  0
 44 45  1  0
 45 46  2  0
 46 47  1  0
 47 48  1  0
 46 49  1  0
 49 50  2  0
 42 51  1  0
 51 52  2  0
 52 53  1  0
 53 54  2  0
 54 55  1  0
 55 56  1  0
 54 57  1  0
 57 58  2  0
 41 59  1  0
 59 60  1  0
 40 61  1  0
 61 62  2  0
 62 63  1  0
 63 64  1  0
 64 65  2  0
 65 66  1  0
 66 67  2  0
 67 68  1  0
 68 69  1  0
 67 70  1  0
 70 71  2  0
 63 72  1  0
 72 73  2  0
 73 74  1  0
 74 75  2  0
 75 76  1  0
 76 77  1  0
 75 78  1  0
 78 79  2  0
 62 80  1  0
 80 81  1  0
 81 82  1  0
 82 83  2  0
 83 84  1  0
 84 85  1  0
 85 86  2  0
 86 87  1  0
 87 88  2  0
 88 89  1  0
 89 90  1  0
 88 91  1  0
 91 92  2  0
 84 93  1  0
 93 94  2  0
 94 95  1  0
 95 96  2  0
 96 97  1  0
 97 98  1  0
 96 99  1  0
 99100  2  0
 83101  1  0
101102  1  0
 82103  1  0
103104  2  0
104105  1  0
105106  1  0
106107  1  0
107108  1  0
105109  2  0
109110  1  0
109111  1  0
111112  2  3
112113  1  0
113114  1  0
114115  2  3
115116  1  0
116117  3  0
115118  1  0
118119  3  0
114120  1  0
120121  1  0
121122  2  0
122123  1  0
123124  2  0
124125  1  0
125126  2  0
120127  1  0
127128  2  0
 17  2  1  0
 60 19  1  0
102 61  1  0
110103  1  0
127112  1  0
 16 11  1  0
 29 22  1  0
 37 30  1  0
 59 38  2  0
 71 64  1  0
 79 72  1  0
101 80  2  0
126121  1  0
 50 43  1  0
 58 51  1  0
 92 85  1  0
100 93  1  0
  1129  1  0
 12130  1  0
 13131  1  0
 14132  1  0
 15133  1  0
 16134  1  0
 23135  1  0
 24136  1  0
 27137  1  0
 27138  1  0
 27139  1  0
 28140  1  0
 29141  1  0
 31142  1  0
 32143  1  0
 35144  1  0
 35145  1  0
 35146  1  0
 36147  1  0
 37148  1  0
 44149  1  0
 45150  1  0
 48151  1  0
 48152  1  0
 48153  1  0
 49154  1  0
 50155  1  0
 52156  1  0
 53157  1  0
 56158  1  0
 56159  1  0
 56160  1  0
 57161  1  0
 58162  1  0
 65163  1  0
 66164  1  0
 69165  1  0
 69166  1  0
 69167  1  0
 70168  1  0
 71169  1  0
 73170  1  0
 74171  1  0
 77172  1  0
 77173  1  0
 77174  1  0
 78175  1  0
 79176  1  0
 86177  1  0
 87178  1  0
 90179  1  0
 90180  1  0
 90181  1  0
 91182  1  0
 92183  1  0
 94184  1  0
 95185  1  0
 98186  1  0
 98187  1  0
 98188  1  0
 99189  1  0
100190  1  0
104191  1  0
107192  1  0
107193  1  0
108194  1  0
108195  1  0
108196  1  0
111197  1  0
122198  1  0
123199  1  0
124200  1  0
125201  1  0
126202  1  0
M  END

