
     RDKit          3D

265289  0  0  0  0  0  0  0  0999 V2000
   -7.2583   -4.5132   -0.3518 C   0  0  0  0  0  0  0  0  0  0  0  0
   -7.5199   -4.4171   -1.6708 C   0  0  0  0  0  0  0  0  0  0  0  0
   -6.5206   -4.1731   -2.7183 C   0  0  0  0  0  0  0  0  0  0  0  0
   -5.4326   -3.5591   -2.5770 O   0  0  0  0  0  0  0  0  0  0  0  0
   -7.0518   -4.6580   -3.9723 C   0  0  0  0  0  0  0  0  0  0  0  0
   -6.3921   -4.8069   -5.1893 C   0  0  0  0  0  0  0  0  0  0  0  0
   -7.0791   -5.4152   -6.2496 C   0  0  0  0  0  0  0  0  0  0  0  0
   -8.3944   -5.8776   -6.0680 C   0  0  0  0  0  0  0  0  0  0  0  0
   -9.0398   -6.4906   -7.0937 F   0  0  0  0  0  0  0  0  0  0  0  0
   -9.0354   -5.7322   -4.8283 C   0  0  0  0  0  0  0  0  0  0  0  0
   -8.3557   -5.0854   -3.7831 C   0  0  0  0  0  0  0  0  0  0  0  0
   -8.7670   -4.8332   -2.3758 C   0  0  0  0  0  0  0  0  0  0  0  0
  -10.0365   -4.7565   -1.8999 C   0  0  0  0  0  0  0  0  0  0  0  0
  -10.3181   -4.3018   -0.5631 C   0  0  0  0  0  0  0  0  0  0  0  0
  -10.5484   -3.9402    0.5103 N   0  0  0  0  0  0  0  0  0  0  0  0
  -11.1886   -4.9780   -2.7341 C   0  0  0  0  0  0  0  0  0  0  0  0
  -12.1232   -5.1423   -3.3988 N   0  0  0  0  0  0  0  0  0  0  0  0
   -5.8801   -4.4628    0.1643 C   0  0  0  0  0  0  0  0  0  0  0  0
   -4.8410   -5.3518   -0.1899 C   0  0  0  0  0  0  0  0  0  0  0  0
   -5.0659   -6.6668   -0.7570 N   0  0  0  0  0  0  0  0  0  0  0  0
   -4.1734   -7.2612   -1.7231 C   0  0  0  0  0  0  0  0  0  0  0  0
   -3.9132   -8.6406   -1.6734 C   0  0  0  0  0  0  0  0  0  0  0  0
   -3.1694   -9.2592   -2.6787 C   0  0  0  0  0  0  0  0  0  0  0  0
   -2.6709   -8.5095   -3.7474 C   0  0  0  0  0  0  0  0  0  0  0  0
   -1.7833   -9.3305   -5.0763 S   0  0  0  0  0  0  0  0  0  0  0  0
   -0.1421   -8.8812   -4.4356 C   0  0  0  0  0  0  0  0  0  0  0  0
   -2.9072   -7.1315   -3.7961 C   0  0  0  0  0  0  0  0  0  0  0  0
   -3.6474   -6.5073   -2.7880 C   0  0  0  0  0  0  0  0  0  0  0  0
   -6.2799   -7.3630   -0.4032 C   0  0  0  0  0  0  0  0  0  0  0  0
   -6.6526   -7.5054    0.9456 C   0  0  0  0  0  0  0  0  0  0  0  0
   -7.8937   -8.0532    1.2830 C   0  0  0  0  0  0  0  0  0  0  0  0
   -8.7809   -8.4514    0.2767 C   0  0  0  0  0  0  0  0  0  0  0  0
  -10.3786   -9.1372    0.7134 S   0  0  0  0  0  0  0  0  0  0  0  0
  -11.2293   -7.5294    0.6837 C   0  0  0  0  0  0  0  0  0  0  0  0
   -8.4109   -8.3286   -1.0688 C   0  0  0  0  0  0  0  0  0  0  0  0
   -7.1658   -7.7907   -1.4080 C   0  0  0  0  0  0  0  0  0  0  0  0
   -3.5985   -4.8182    0.1768 C   0  0  0  0  0  0  0  0  0  0  0  0
   -1.9934   -5.1462   -0.2092 S   0  0  0  0  0  0  0  0  0  0  0  0
   -1.3713   -3.7281    0.5164 C   0  0  0  0  0  0  0  0  0  0  0  0
   -2.4462   -3.0001    1.0708 C   0  0  0  0  0  0  0  0  0  0  0  0
   -2.3081   -1.7185    1.7177 N   0  0  0  0  0  0  0  0  0  0  0  0
   -3.2083   -0.6316    1.4117 C   0  0  0  0  0  0  0  0  0  0  0  0
   -3.4292   -0.2298    0.0816 C   0  0  0  0  0  0  0  0  0  0  0  0
   -4.2010    0.9016   -0.1964 C   0  0  0  0  0  0  0  0  0  0  0  0
   -4.7917    1.6227    0.8476 C   0  0  0  0  0  0  0  0  0  0  0  0
   -5.7338    3.1078    0.4956 S   0  0  0  0  0  0  0  0  0  0  0  0
   -7.2920    2.2095    0.2196 C   0  0  0  0  0  0  0  0  0  0  0  0
   -4.6218    1.2004    2.1700 C   0  0  0  0  0  0  0  0  0  0  0  0
   -3.8344    0.0796    2.4519 C   0  0  0  0  0  0  0  0  0  0  0  0
   -1.3117   -1.5342    2.7462 C   0  0  0  0  0  0  0  0  0  0  0  0
   -0.5932   -0.3256    2.8235 C   0  0  0  0  0  0  0  0  0  0  0  0
    0.2744   -0.0762    3.8826 C   0  0  0  0  0  0  0  0  0  0  0  0
    0.4371   -1.0309    4.8960 C   0  0  0  0  0  0  0  0  0  0  0  0
    1.4283   -0.6445    6.3443 S   0  0  0  0  0  0  0  0  0  0  0  0
    3.0243   -0.6508    5.4686 C   0  0  0  0  0  0  0  0  0  0  0  0
   -0.2420   -2.2525    4.8110 C   0  0  0  0  0  0  0  0  0  0  0  0
   -1.1033   -2.5116    3.7341 C   0  0  0  0  0  0  0  0  0  0  0  0
   -3.6643   -3.6281    0.8350 C   0  0  0  0  0  0  0  0  0  0  0  0
   -5.2544   -3.1117    0.9716 S   0  0  0  0  0  0  0  0  0  0  0  0
   -0.1478   -3.0497    0.0635 C   0  0  0  0  0  0  0  0  0  0  0  0
    1.0806   -3.0485    0.7568 C   0  0  0  0  0  0  0  0  0  0  0  0
    1.6245   -4.1990    1.4483 N   0  0  0  0  0  0  0  0  0  0  0  0
    1.4007   -5.5291    0.9391 C   0  0  0  0  0  0  0  0  0  0  0  0
    1.4078   -5.7850   -0.4464 C   0  0  0  0  0  0  0  0  0  0  0  0
    1.3379   -7.0964   -0.9271 C   0  0  0  0  0  0  0  0  0  0  0  0
    1.2903   -8.1694   -0.0310 C   0  0  0  0  0  0  0  0  0  0  0  0
    1.2772   -9.8539   -0.6414 S   0  0  0  0  0  0  0  0  0  0  0  0
   -0.5131  -10.0524   -0.3935 C   0  0  0  0  0  0  0  0  0  0  0  0
    1.2813   -7.9274    1.3465 C   0  0  0  0  0  0  0  0  0  0  0  0
    1.3235   -6.6193    1.8282 C   0  0  0  0  0  0  0  0  0  0  0  0
    2.7175   -4.0521    2.3696 C   0  0  0  0  0  0  0  0  0  0  0  0
    2.4873   -4.0861    3.7497 C   0  0  0  0  0  0  0  0  0  0  0  0
    3.5585   -4.0180    4.6450 C   0  0  0  0  0  0  0  0  0  0  0  0
    4.8711   -3.9312    4.1620 C   0  0  0  0  0  0  0  0  0  0  0  0
    6.2466   -3.8016    5.3016 S   0  0  0  0  0  0  0  0  0  0  0  0
    6.4125   -5.5996    5.5109 C   0  0  0  0  0  0  0  0  0  0  0  0
    5.1078   -3.9395    2.7828 C   0  0  0  0  0  0  0  0  0  0  0  0
    4.0389   -4.0116    1.8903 C   0  0  0  0  0  0  0  0  0  0  0  0
    1.7447   -1.8207    0.5741 C   0  0  0  0  0  0  0  0  0  0  0  0
    2.9668   -1.0113    1.3832 S   0  0  0  0  0  0  0  0  0  0  0  0
    2.7337    0.4733    0.5797 C   0  0  0  0  0  0  0  0  0  0  0  0
    1.6549    0.3511   -0.3195 C   0  0  0  0  0  0  0  0  0  0  0  0
    1.0832    1.4060   -1.1361 N   0  0  0  0  0  0  0  0  0  0  0  0
    0.6803    1.1360   -2.5022 C   0  0  0  0  0  0  0  0  0  0  0  0
    1.3199    0.1331   -3.2524 C   0  0  0  0  0  0  0  0  0  0  0  0
    0.9040   -0.1632   -4.5558 C   0  0  0  0  0  0  0  0  0  0  0  0
   -0.1638    0.5320   -5.1237 C   0  0  0  0  0  0  0  0  0  0  0  0
   -0.7304    0.1148   -6.7732 S   0  0  0  0  0  0  0  0  0  0  0  0
   -1.9535   -1.0977   -6.1745 C   0  0  0  0  0  0  0  0  0  0  0  0
   -0.8000    1.5462   -4.3998 C   0  0  0  0  0  0  0  0  0  0  0  0
   -0.3869    1.8457   -3.1000 C   0  0  0  0  0  0  0  0  0  0  0  0
    0.7559    2.6833   -0.5541 C   0  0  0  0  0  0  0  0  0  0  0  0
   -0.3618    2.8242    0.2809 C   0  0  0  0  0  0  0  0  0  0  0  0
   -0.7511    4.0938    0.7305 C   0  0  0  0  0  0  0  0  0  0  0  0
   -0.0270    5.2297    0.3474 C   0  0  0  0  0  0  0  0  0  0  0  0
   -0.4907    6.8577    0.9514 S   0  0  0  0  0  0  0  0  0  0  0  0
   -1.4457    7.2812   -0.5401 C   0  0  0  0  0  0  0  0  0  0  0  0
    1.0726    5.0933   -0.5053 C   0  0  0  0  0  0  0  0  0  0  0  0
    1.4342    3.8313   -0.9775 C   0  0  0  0  0  0  0  0  0  0  0  0
    1.1388   -0.9459   -0.2761 C   0  0  0  0  0  0  0  0  0  0  0  0
   -0.2899   -1.5982   -0.8176 S   0  0  0  0  0  0  0  0  0  0  0  0
    3.3612    1.7135    1.0350 C   0  0  0  0  0  0  0  0  0  0  0  0
    4.0650    2.6651    0.2590 C   0  0  0  0  0  0  0  0  0  0  0  0
    4.6279    2.4261   -1.0616 N   0  0  0  0  0  0  0  0  0  0  0  0
    4.9259    1.0852   -1.5019 C   0  0  0  0  0  0  0  0  0  0  0  0
    4.5979    0.6769   -2.8047 C   0  0  0  0  0  0  0  0  0  0  0  0
    4.8775   -0.6258   -3.2290 C   0  0  0  0  0  0  0  0  0  0  0  0
    5.4637   -1.5390   -2.3474 C   0  0  0  0  0  0  0  0  0  0  0  0
    5.7490   -3.2339   -2.8690 S   0  0  0  0  0  0  0  0  0  0  0  0
    4.0447   -3.7660   -2.4998 C   0  0  0  0  0  0  0  0  0  0  0  0
    5.8305   -1.1302   -1.0632 C   0  0  0  0  0  0  0  0  0  0  0  0
    5.5854    0.1815   -0.6495 C   0  0  0  0  0  0  0  0  0  0  0  0
    5.2843    3.4880   -1.7760 C   0  0  0  0  0  0  0  0  0  0  0  0
    6.5462    3.9340   -1.3552 C   0  0  0  0  0  0  0  0  0  0  0  0
    7.1956    4.9633   -2.0437 C   0  0  0  0  0  0  0  0  0  0  0  0
    6.5985    5.5371   -3.1731 C   0  0  0  0  0  0  0  0  0  0  0  0
    7.4590    6.8036   -4.0993 S   0  0  0  0  0  0  0  0  0  0  0  0
    8.2793    5.5990   -5.1894 C   0  0  0  0  0  0  0  0  0  0  0  0
    5.3433    5.0905   -3.5994 C   0  0  0  0  0  0  0  0  0  0  0  0
    4.6944    4.0596   -2.9155 C   0  0  0  0  0  0  0  0  0  0  0  0
    4.1968    3.8521    0.9957 C   0  0  0  0  0  0  0  0  0  0  0  0
    4.5452    5.4510    0.6315 S   0  0  0  0  0  0  0  0  0  0  0  0
    4.1973    6.0684    2.1884 C   0  0  0  0  0  0  0  0  0  0  0  0
    3.7858    4.9961    2.9884 C   0  0  0  0  0  0  0  0  0  0  0  0
    3.3809    5.1246    4.3593 N   0  0  0  0  0  0  0  0  0  0  0  0
    4.3803    5.5124    5.3205 C   0  0  0  0  0  0  0  0  0  0  0  0
    4.1468    6.5802    6.2040 C   0  0  0  0  0  0  0  0  0  0  0  0
    5.1435    6.9844    7.1003 C   0  0  0  0  0  0  0  0  0  0  0  0
    6.3682    6.3055    7.1429 C   0  0  0  0  0  0  0  0  0  0  0  0
    7.6512    6.8222    8.2851 S   0  0  0  0  0  0  0  0  0  0  0  0
    7.0654    5.7409    9.6259 C   0  0  0  0  0  0  0  0  0  0  0  0
    6.6033    5.2360    6.2703 C   0  0  0  0  0  0  0  0  0  0  0  0
    5.6146    4.8418    5.3663 C   0  0  0  0  0  0  0  0  0  0  0  0
    2.0521    4.7400    4.7734 C   0  0  0  0  0  0  0  0  0  0  0  0
    0.9497    4.9978    3.9373 C   0  0  0  0  0  0  0  0  0  0  0  0
   -0.3355    4.6198    4.3283 C   0  0  0  0  0  0  0  0  0  0  0  0
   -0.5374    3.9564    5.5422 C   0  0  0  0  0  0  0  0  0  0  0  0
   -2.1884    3.4541    6.0261 S   0  0  0  0  0  0  0  0  0  0  0  0
   -2.0566    1.8430    5.2041 C   0  0  0  0  0  0  0  0  0  0  0  0
    0.5557    3.6897    6.3771 C   0  0  0  0  0  0  0  0  0  0  0  0
    1.8401    4.0823    5.9980 C   0  0  0  0  0  0  0  0  0  0  0  0
    3.7565    3.7991    2.2823 C   0  0  0  0  0  0  0  0  0  0  0  0
    3.0784    2.3125    2.6015 S   0  0  0  0  0  0  0  0  0  0  0  0
    3.8931    7.4799    2.5092 C   0  0  0  0  0  0  0  0  0  0  0  0
    4.0273    8.5010    1.6466 C   0  0  0  0  0  0  0  0  0  0  0  0
    2.9724    9.5043    1.4914 C   0  0  0  0  0  0  0  0  0  0  0  0
    2.1184    9.8223    2.3639 O   0  0  0  0  0  0  0  0  0  0  0  0
    2.9569    9.9350    0.1057 C   0  0  0  0  0  0  0  0  0  0  0  0
    1.9229   10.6306   -0.5592 C   0  0  0  0  0  0  0  0  0  0  0  0
    2.0615   10.6540   -1.9375 C   0  0  0  0  0  0  0  0  0  0  0  0
    3.1555   10.0332   -2.6237 C   0  0  0  0  0  0  0  0  0  0  0  0
    4.1802    9.3612   -1.9754 C   0  0  0  0  0  0  0  0  0  0  0  0
    4.0555    9.3401   -0.5630 C   0  0  0  0  0  0  0  0  0  0  0  0
    4.8462    8.5586    0.4106 C   0  0  0  0  0  0  0  0  0  0  0  0
    6.1716    8.2889    0.3399 C   0  0  0  0  0  0  0  0  0  0  0  0
    6.9833    8.7139   -0.7718 C   0  0  0  0  0  0  0  0  0  0  0  0
    7.6422    9.0733   -1.6514 N   0  0  0  0  0  0  0  0  0  0  0  0
    6.8813    7.7157    1.4544 C   0  0  0  0  0  0  0  0  0  0  0  0
    7.4546    7.2433    2.3405 N   0  0  0  0  0  0  0  0  0  0  0  0
    2.5660   10.4180   -3.9481 C   0  0  0  0  0  0  0  0  0  0  0  0
    3.2247   11.5910   -4.7332 C   0  0  0  0  0  0  0  0  0  0  0  0
    3.8381   12.5814   -3.7681 C   0  0  0  0  0  0  0  0  0  0  0  0
    2.8250   13.1579   -3.1250 C   0  0  0  0  0  0  0  0  0  0  0  0
    1.5569   12.5529   -3.6753 C   0  0  0  0  0  0  0  0  0  0  0  0
    1.9816   12.3693   -5.1201 C   0  0  0  0  0  0  0  0  0  0  0  0
    1.4482   11.0587   -3.2454 C   0  0  0  0  0  0  0  0  0  0  0  0
   -8.0188   -4.7965    0.3527 H   0  0  0  0  0  0  0  0  0  0  0  0
   -5.3681   -4.4872   -5.3096 H   0  0  0  0  0  0  0  0  0  0  0  0
   -6.5854   -5.5459   -7.2029 H   0  0  0  0  0  0  0  0  0  0  0  0
  -10.0156   -6.1606   -4.6923 H   0  0  0  0  0  0  0  0  0  0  0  0
   -4.3027   -9.2409   -0.8593 H   0  0  0  0  0  0  0  0  0  0  0  0
   -2.9895  -10.3261   -2.6323 H   0  0  0  0  0  0  0  0  0  0  0  0
   -0.0503   -9.1381   -3.3586 H   0  0  0  0  0  0  0  0  0  0  0  0
    0.0229   -7.7917   -4.5707 H   0  0  0  0  0  0  0  0  0  0  0  0
    0.6307   -9.4343   -5.0054 H   0  0  0  0  0  0  0  0  0  0  0  0
   -2.5242   -6.5440   -4.6209 H   0  0  0  0  0  0  0  0  0  0  0  0
   -3.8349   -5.4477   -2.8555 H   0  0  0  0  0  0  0  0  0  0  0  0
   -5.9877   -7.1692    1.7340 H   0  0  0  0  0  0  0  0  0  0  0  0
   -8.1748   -8.1425    2.3245 H   0  0  0  0  0  0  0  0  0  0  0  0
  -12.2760   -7.6652    1.0193 H   0  0  0  0  0  0  0  0  0  0  0  0
  -10.7281   -6.8121    1.3650 H   0  0  0  0  0  0  0  0  0  0  0  0
  -11.2372   -7.1249   -0.3483 H   0  0  0  0  0  0  0  0  0  0  0  0
   -9.0987   -8.6234   -1.8487 H   0  0  0  0  0  0  0  0  0  0  0  0
   -6.9096   -7.6561   -2.4522 H   0  0  0  0  0  0  0  0  0  0  0  0
   -2.9833   -0.7747   -0.7387 H   0  0  0  0  0  0  0  0  0  0  0  0
   -4.3304    1.2208   -1.2212 H   0  0  0  0  0  0  0  0  0  0  0  0
   -8.1120    2.9417    0.0620 H   0  0  0  0  0  0  0  0  0  0  0  0
   -7.1996    1.5704   -0.6849 H   0  0  0  0  0  0  0  0  0  0  0  0
   -7.5352    1.5794    1.1019 H   0  0  0  0  0  0  0  0  0  0  0  0
   -5.0845    1.7497    2.9802 H   0  0  0  0  0  0  0  0  0  0  0  0
   -3.7060   -0.2326    3.4805 H   0  0  0  0  0  0  0  0  0  0  0  0
   -0.7369    0.4322    2.0767 H   0  0  0  0  0  0  0  0  0  0  0  0
    0.7863    0.8726    3.9415 H   0  0  0  0  0  0  0  0  0  0  0  0
    3.0363   -1.3911    4.6490 H   0  0  0  0  0  0  0  0  0  0  0  0
    3.2134    0.3559    5.0453 H   0  0  0  0  0  0  0  0  0  0  0  0
    3.8299   -0.8912    6.1894 H   0  0  0  0  0  0  0  0  0  0  0  0
   -0.1296   -2.9928    5.5944 H   0  0  0  0  0  0  0  0  0  0  0  0
   -1.6402   -3.4528    3.6983 H   0  0  0  0  0  0  0  0  0  0  0  0
    1.4997   -4.9768   -1.1612 H   0  0  0  0  0  0  0  0  0  0  0  0
    1.3703   -7.2795   -1.9945 H   0  0  0  0  0  0  0  0  0  0  0  0
   -1.0623   -9.2276   -0.8910 H   0  0  0  0  0  0  0  0  0  0  0  0
   -0.8376  -11.0224   -0.8222 H   0  0  0  0  0  0  0  0  0  0  0  0
   -0.7402  -10.0440    0.6939 H   0  0  0  0  0  0  0  0  0  0  0  0
    1.2535   -8.7506    2.0466 H   0  0  0  0  0  0  0  0  0  0  0  0
    1.3237   -6.4533    2.8935 H   0  0  0  0  0  0  0  0  0  0  0  0
    1.4832   -4.2070    4.1278 H   0  0  0  0  0  0  0  0  0  0  0  0
    3.3691   -4.0264    5.7105 H   0  0  0  0  0  0  0  0  0  0  0  0
    5.4746   -6.0205    5.9210 H   0  0  0  0  0  0  0  0  0  0  0  0
    7.2367   -5.8050    6.2205 H   0  0  0  0  0  0  0  0  0  0  0  0
    6.6473   -6.0823    4.5408 H   0  0  0  0  0  0  0  0  0  0  0  0
    6.1201   -3.8932    2.4012 H   0  0  0  0  0  0  0  0  0  0  0  0
    4.2296   -4.0369    0.8291 H   0  0  0  0  0  0  0  0  0  0  0  0
    2.1336   -0.4358   -2.8294 H   0  0  0  0  0  0  0  0  0  0  0  0
    1.4041   -0.9464   -5.1130 H   0  0  0  0  0  0  0  0  0  0  0  0
   -1.4344   -1.9708   -5.7204 H   0  0  0  0  0  0  0  0  0  0  0  0
   -2.6218   -0.6237   -5.4224 H   0  0  0  0  0  0  0  0  0  0  0  0
   -2.5686   -1.4441   -7.0305 H   0  0  0  0  0  0  0  0  0  0  0  0
   -1.6351    2.0857   -4.8351 H   0  0  0  0  0  0  0  0  0  0  0  0
   -0.9315    2.6017   -2.5509 H   0  0  0  0  0  0  0  0  0  0  0  0
   -0.9735    1.9691    0.5180 H   0  0  0  0  0  0  0  0  0  0  0  0
   -1.6287    4.1944    1.3537 H   0  0  0  0  0  0  0  0  0  0  0  0
   -0.7729    7.3198   -1.4202 H   0  0  0  0  0  0  0  0  0  0  0  0
   -1.9053    8.2805   -0.4058 H   0  0  0  0  0  0  0  0  0  0  0  0
   -2.2483    6.5347   -0.7191 H   0  0  0  0  0  0  0  0  0  0  0  0
    1.6191    5.9642   -0.8419 H   0  0  0  0  0  0  0  0  0  0  0  0
    2.2351    3.7391   -1.6866 H   0  0  0  0  0  0  0  0  0  0  0  0
    4.0853    1.3500   -3.4789 H   0  0  0  0  0  0  0  0  0  0  0  0
    4.5972   -0.9335   -4.2275 H   0  0  0  0  0  0  0  0  0  0  0  0
    3.7876   -3.5376   -1.4450 H   0  0  0  0  0  0  0  0  0  0  0  0
    3.3306   -3.2461   -3.1761 H   0  0  0  0  0  0  0  0  0  0  0  0
    3.9599   -4.8600   -2.6675 H   0  0  0  0  0  0  0  0  0  0  0  0
    6.3034   -1.8261   -0.3841 H   0  0  0  0  0  0  0  0  0  0  0  0
    5.8840    0.4863    0.3444 H   0  0  0  0  0  0  0  0  0  0  0  0
    7.0159    3.4908   -0.4833 H   0  0  0  0  0  0  0  0  0  0  0  0
    8.1656    5.3017   -1.7057 H   0  0  0  0  0  0  0  0  0  0  0  0
    8.9315    6.1402   -5.9068 H   0  0  0  0  0  0  0  0  0  0  0  0
    7.5163    5.0223   -5.7561 H   0  0  0  0  0  0  0  0  0  0  0  0
    8.9011    4.9037   -4.5853 H   0  0  0  0  0  0  0  0  0  0  0  0
    4.8822    5.5236   -4.4753 H   0  0  0  0  0  0  0  0  0  0  0  0
    3.7480    3.6981   -3.2909 H   0  0  0  0  0  0  0  0  0  0  0  0
    3.2081    7.1163    6.1717 H   0  0  0  0  0  0  0  0  0  0  0  0
    4.9595    7.8201    7.7649 H   0  0  0  0  0  0  0  0  0  0  0  0
    7.8111    5.7485   10.4453 H   0  0  0  0  0  0  0  0  0  0  0  0
    6.9435    4.6989    9.2639 H   0  0  0  0  0  0  0  0  0  0  0  0
    6.0936    6.1148   10.0114 H   0  0  0  0  0  0  0  0  0  0  0  0
    7.5484    4.7065    6.2998 H   0  0  0  0  0  0  0  0  0  0  0  0
    5.8096    4.0131    4.6959 H   0  0  0  0  0  0  0  0  0  0  0  0
    1.0946    5.5032    2.9949 H   0  0  0  0  0  0  0  0  0  0  0  0
   -1.1800    4.8420    3.6873 H   0  0  0  0  0  0  0  0  0  0  0  0
   -1.2110    1.2832    5.6435 H   0  0  0  0  0  0  0  0  0  0  0  0
   -1.9106    1.9936    4.1131 H   0  0  0  0  0  0  0  0  0  0  0  0
   -2.9865    1.2645    5.3709 H   0  0  0  0  0  0  0  0  0  0  0  0
    0.4071    3.1689    7.3140 H   0  0  0  0  0  0  0  0  0  0  0  0
    2.6746    3.8608    6.6532 H   0  0  0  0  0  0  0  0  0  0  0  0
    3.2365    7.6286    3.3600 H   0  0  0  0  0  0  0  0  0  0  0  0
    1.0599   11.0352   -0.0498 H   0  0  0  0  0  0  0  0  0  0  0  0
    4.9484    8.8328   -2.5239 H   0  0  0  0  0  0  0  0  0  0  0  0
    2.2655    9.5454   -4.5656 H   0  0  0  0  0  0  0  0  0  0  0  0
    3.8773   11.2844   -5.5799 H   0  0  0  0  0  0  0  0  0  0  0  0
    4.8860   12.8443   -3.6654 H   0  0  0  0  0  0  0  0  0  0  0  0
    2.9048   13.9750   -2.4151 H   0  0  0  0  0  0  0  0  0  0  0  0
    0.6416   13.1590   -3.5169 H   0  0  0  0  0  0  0  0  0  0  0  0
    2.1988   13.3339   -5.6394 H   0  0  0  0  0  0  0  0  0  0  0  0
    1.2570   11.7773   -5.7254 H   0  0  0  0  0  0  0  0  0  0  0  0
    0.4639   10.5871   -3.4460 H   0  0  0  0  0  0  0  0  0  0  0  0
  1  2  2  3
  2  3  1  0
  3  4  2  0
  3  5  1  0
  5  6  2  0
  6  7  1  0
  7  8  2  0
  8  9  1  0
  8 10  1  0
 10 11  2  0
 11 12  1  0
 12 13  2  3
 13 14  1  0
 14 15  3  0
 13 16  1  0
 16 17  3  0
  1 18  1  0
 18 19  2  0
 19 20  1  0
 20 21  1  0
 21 22  2  0
 22 23  1  0
 23 24  2  0
 24 25  1  0
 25 26  1  0
 24 27  1  0
 27 28  2  0
 20 29  1  0
 29 30  2  0
 30 31  1  0
 31 32  2  0
 32 33  1  0
 33 34  1  0
 32 35  1  0
 35 36  2  0
 19 37  1  0
 37 38  1  0
 38 39  1  0
 39 40  2  0
 40 41  1  0
 41 42  1  0
 42 43  2  0
 43 44  1  0
 44 45  2  0
 45 46  1  0
 46 47  1  0
 45 48  1  0
 48 49  2  0
 41 50  1  0
 50 51  2  0
 51 52  1  0
 52 53  2  0
 53 54  1  0
 54 55  1  0
 53 56  1  0
 56 57  2  0
 40 58  1  0
 58 59  1  0
 39 60  1  0
 60 61  2  0
 61 62  1  0
 62 63  1  0
 63 64  2  0
 64 65  1  0
 65 66  2  0
 66 67  1  0
 67 68  1  0
 66 69  1  0
 69 70  2  0
 62 71  1  0
 71 72  2  0
 72 73  1  0
 73 74  2  0
 74 75  1  0
 75 76  1  0
 74 77  1  0
 77 78  2  0
 61 79  1  0
 79 80  1  0
 80 81  1  0
 81 82  2  0
 82 83  1  0
 83 84  1  0
 84 85  2  0
 85 86  1  0
 86 87  2  0
 87 88  1  0
 88 89  1  0
 87 90  1  0
 90 91  2  0
 83 92  1  0
 92 93  2  0
 93 94  1  0
 94 95  2  0
 95 96  1  0
 96 97  1  0
 95 98  1  0
 98 99  2  0
 82100  1  0
100101  1  0
 81102  1  0
102103  2  0
103104  1  0
104105  1  0
105106  2  0
106107  1  0
107108  2  0
108109  1  0
109110  1  0
108111  1  0
111112  2  0
104113  1  0
113114  2  0
114115  1  0
115116  2  0
116117  1  0
117118  1  0
116119  1  0
119120  2  0
103121  1  0
121122  1  0
122123  1  0
123124  2  0
124125  1  0
125126  1  0
126127  2  0
127128  1  0
128129  2  0
129130  1  0
130131  1  0
129132  1  0
132133  2  0
125134  1  0
134135  2  0
135136  1  0
136137  2  0
137138  1  0
138139  1  0
137140  1  0
140141  2  0
124142  1  0
142143  1  0
123144  1  0
144145  2  3
145146  1  0
146147  2  0
146148  1  0
148149  2  0
149150  1  0
150151  2  0
151152  1  0
152153  2  0
153154  1  0
154155  2  3
155156  1  0
156157  3  0
155158  1  0
158159  3  0
151160  1  0
160161  1  0
161162  1  0
162163  2  0
163164  1  0
164165  1  0
164166  1  0
 12  2  1  0
 59 18  1  0
101 60  1  0
143102  1  0
154145  1  0
166160  1  0
 11  5  1  0
 28 21  1  0
 36 29  1  0
 58 37  2  0
 70 63  1  0
 78 71  1  0
100 79  2  0
112105  1  0
120113  1  0
142121  2  0
153148  1  0
165161  1  0
 49 42  1  0
 57 50  1  0
 91 84  1  0
 99 92  1  0
133126  1  0
141134  1  0
166150  1  0
  1167  1  0
  6168  1  0
  7169  1  0
 10170  1  0
 22171  1  0
 23172  1  0
 26173  1  0
 26174  1  0
 26175  1  0
 27176  1  0
 28177  1  0
 30178  1  0
 31179  1  0
 34180  1  0
 34181  1  0
 34182  1  0
 35183  1  0
 36184  1  0
 43185  1  0
 44186  1  0
 47187  1  0
 47188  1  0
 47189  1  0
 48190  1  0
 49191  1  0
 51192  1  0
 52193  1  0
 55194  1  0
 55195  1  0
 55196  1  0
 56197  1  0
 57198  1  0
 64199  1  0
 65200  1  0
 68201  1  0
 68202  1  0
 68203  1  0
 69204  1  0
 70205  1  0
 72206  1  0
 73207  1  0
 76208  1  0
 76209  1  0
 76210  1  0
 77211  1  0
 78212  1  0
 85213  1  0
 86214  1  0
 89215  1  0
 89216  1  0
 89217  1  0
 90218  1  0
 91219  1  0
 93220  1  0
 94221  1  0
 97222  1  0
 97223  1  0
 97224  1  0
 98225  1  0
 99226  1  0
106227  1  0
107228  1  0
110229  1  0
110230  1  0
110231  1  0
111232  1  0
112233  1  0
114234  1  0
115235  1  0
118236  1  0
118237  1  0
118238  1  0
119239  1  0
120240  1  0
127241  1  0
128242  1  0
131243  1  0
131244  1  0
131245  1  0
132246  1  0
133247  1  0
135248  1  0
136249  1  0
139250  1  0
139251  1  0
139252  1  0
140253  1  0
141254  1  0
144255  1  0
149256  1  0
152257  1  0
160258  1  0
161259  1  0
162260  1  0
163261  1  0
164262  1  0
165263  1  0
165264  1  0
166265  1  0
M  END

