
     RDKit          3D

193210  0  0  0  0  0  0  0  0999 V2000
   -5.9082   -4.8762    1.4385 C   0  0  0  0  0  0  0  0  0  0  0  0
   -7.0810   -4.5388    2.0021 C   0  0  0  0  0  0  0  0  0  0  0  0
   -7.6568   -3.1864    2.0278 C   0  0  0  0  0  0  0  0  0  0  0  0
   -7.1778   -2.1624    1.4672 O   0  0  0  0  0  0  0  0  0  0  0  0
   -8.9897   -3.2687    2.5849 C   0  0  0  0  0  0  0  0  0  0  0  0
   -9.9084   -2.2325    2.7658 C   0  0  0  0  0  0  0  0  0  0  0  0
  -11.1833   -2.5538    3.2542 C   0  0  0  0  0  0  0  0  0  0  0  0
  -11.5243   -3.8906    3.5176 C   0  0  0  0  0  0  0  0  0  0  0  0
  -12.7706   -4.1989    3.9552 F   0  0  0  0  0  0  0  0  0  0  0  0
  -10.5879   -4.9180    3.3205 C   0  0  0  0  0  0  0  0  0  0  0  0
   -9.2998   -4.5908    2.8641 C   0  0  0  0  0  0  0  0  0  0  0  0
   -8.1230   -5.4591    2.5739 C   0  0  0  0  0  0  0  0  0  0  0  0
   -7.9500   -6.7515    2.9699 C   0  0  0  0  0  0  0  0  0  0  0  0
   -6.7065   -7.4607    2.8015 C   0  0  0  0  0  0  0  0  0  0  0  0
   -5.7166   -8.0518    2.6654 N   0  0  0  0  0  0  0  0  0  0  0  0
   -8.9539   -7.4970    3.6837 C   0  0  0  0  0  0  0  0  0  0  0  0
   -9.7432   -8.1179    4.2565 N   0  0  0  0  0  0  0  0  0  0  0  0
   -4.7668   -3.9511    1.2704 C   0  0  0  0  0  0  0  0  0  0  0  0
   -3.7285   -4.1095    0.3371 C   0  0  0  0  0  0  0  0  0  0  0  0
   -3.8058   -4.9786   -0.8010 N   0  0  0  0  0  0  0  0  0  0  0  0
   -4.3935   -4.4997   -2.0392 C   0  0  0  0  0  0  0  0  0  0  0  0
   -5.2919   -3.4107   -2.0439 C   0  0  0  0  0  0  0  0  0  0  0  0
   -5.9177   -3.0097   -3.2245 C   0  0  0  0  0  0  0  0  0  0  0  0
   -5.6478   -3.6688   -4.4244 C   0  0  0  0  0  0  0  0  0  0  0  0
   -6.5580   -3.2419   -5.9122 S   0  0  0  0  0  0  0  0  0  0  0  0
   -5.4608   -1.8664   -6.3694 C   0  0  0  0  0  0  0  0  0  0  0  0
   -4.7167   -4.7172   -4.4455 C   0  0  0  0  0  0  0  0  0  0  0  0
   -4.0886   -5.1245   -3.2651 C   0  0  0  0  0  0  0  0  0  0  0  0
   -3.4598   -6.3623   -0.6172 C   0  0  0  0  0  0  0  0  0  0  0  0
   -4.3467   -7.3796   -1.0122 C   0  0  0  0  0  0  0  0  0  0  0  0
   -4.0130   -8.7218   -0.8116 C   0  0  0  0  0  0  0  0  0  0  0  0
   -2.7971   -9.0603   -0.2069 C   0  0  0  0  0  0  0  0  0  0  0  0
   -2.3581  -10.7842    0.0222 S   0  0  0  0  0  0  0  0  0  0  0  0
   -1.5022  -10.8967   -1.5818 C   0  0  0  0  0  0  0  0  0  0  0  0
   -1.9187   -8.0538    0.2065 C   0  0  0  0  0  0  0  0  0  0  0  0
   -2.2455   -6.7115    0.0014 C   0  0  0  0  0  0  0  0  0  0  0  0
   -2.7199   -3.1748    0.5303 C   0  0  0  0  0  0  0  0  0  0  0  0
   -1.3272   -2.7432   -0.3004 S   0  0  0  0  0  0  0  0  0  0  0  0
   -1.0204   -1.3806    0.6892 C   0  0  0  0  0  0  0  0  0  0  0  0
   -2.0480   -1.2408    1.6393 C   0  0  0  0  0  0  0  0  0  0  0  0
   -2.4764    0.0328    2.1523 N   0  0  0  0  0  0  0  0  0  0  0  0
   -3.6426    0.6668    1.5629 C   0  0  0  0  0  0  0  0  0  0  0  0
   -4.0055    0.3993    0.2266 C   0  0  0  0  0  0  0  0  0  0  0  0
   -5.1591    0.9531   -0.3284 C   0  0  0  0  0  0  0  0  0  0  0  0
   -5.9615    1.8064    0.4328 C   0  0  0  0  0  0  0  0  0  0  0  0
   -7.4249    2.5426   -0.2938 S   0  0  0  0  0  0  0  0  0  0  0  0
   -6.4901    3.9094   -1.0551 C   0  0  0  0  0  0  0  0  0  0  0  0
   -5.6244    2.0759    1.7623 C   0  0  0  0  0  0  0  0  0  0  0  0
   -4.4792    1.5028    2.3301 C   0  0  0  0  0  0  0  0  0  0  0  0
   -1.7824    0.6259    3.2670 C   0  0  0  0  0  0  0  0  0  0  0  0
   -1.4299    1.9859    3.2372 C   0  0  0  0  0  0  0  0  0  0  0  0
   -0.7289    2.5565    4.2991 C   0  0  0  0  0  0  0  0  0  0  0  0
   -0.3641    1.7735    5.3991 C   0  0  0  0  0  0  0  0  0  0  0  0
    0.5995    2.4930    6.7351 S   0  0  0  0  0  0  0  0  0  0  0  0
   -0.8566    3.0920    7.6462 C   0  0  0  0  0  0  0  0  0  0  0  0
   -0.7240    0.4203    5.4434 C   0  0  0  0  0  0  0  0  0  0  0  0
   -1.4294   -0.1518    4.3813 C   0  0  0  0  0  0  0  0  0  0  0  0
   -2.9348   -2.3046    1.5490 C   0  0  0  0  0  0  0  0  0  0  0  0
   -4.3915   -2.6413    2.3046 S   0  0  0  0  0  0  0  0  0  0  0  0
    0.1170   -0.4613    0.5241 C   0  0  0  0  0  0  0  0  0  0  0  0
    0.5957    0.0843   -0.6790 C   0  0  0  0  0  0  0  0  0  0  0  0
    0.1413   -0.2685   -1.9912 N   0  0  0  0  0  0  0  0  0  0  0  0
   -1.1242    0.2107   -2.4853 C   0  0  0  0  0  0  0  0  0  0  0  0
   -1.7858   -0.4923   -3.5064 C   0  0  0  0  0  0  0  0  0  0  0  0
   -2.9374    0.0304   -4.0906 C   0  0  0  0  0  0  0  0  0  0  0  0
   -3.4470    1.2614   -3.6635 C   0  0  0  0  0  0  0  0  0  0  0  0
   -4.8793    1.9720   -4.4739 S   0  0  0  0  0  0  0  0  0  0  0  0
   -3.9026    2.6861   -5.8395 C   0  0  0  0  0  0  0  0  0  0  0  0
   -2.8223    1.9494   -2.6159 C   0  0  0  0  0  0  0  0  0  0  0  0
   -1.6705    1.4247   -2.0247 C   0  0  0  0  0  0  0  0  0  0  0  0
    1.1248   -0.7962   -2.9030 C   0  0  0  0  0  0  0  0  0  0  0  0
    1.8688   -1.9323   -2.5525 C   0  0  0  0  0  0  0  0  0  0  0  0
    2.8814   -2.3998   -3.3952 C   0  0  0  0  0  0  0  0  0  0  0  0
    3.1722   -1.7204   -4.5838 C   0  0  0  0  0  0  0  0  0  0  0  0
    4.4963   -2.3028   -5.6473 S   0  0  0  0  0  0  0  0  0  0  0  0
    5.7800   -1.3411   -4.7870 C   0  0  0  0  0  0  0  0  0  0  0  0
    2.4374   -0.5818   -4.9386 C   0  0  0  0  0  0  0  0  0  0  0  0
    1.4154   -0.1239   -4.1051 C   0  0  0  0  0  0  0  0  0  0  0  0
    1.6576    0.9484   -0.4498 C   0  0  0  0  0  0  0  0  0  0  0  0
    2.5356    1.9960   -1.4189 S   0  0  0  0  0  0  0  0  0  0  0  0
    3.4922    2.5751   -0.1329 C   0  0  0  0  0  0  0  0  0  0  0  0
    3.1147    1.9383    1.0600 C   0  0  0  0  0  0  0  0  0  0  0  0
    3.9157    1.9264    2.2494 N   0  0  0  0  0  0  0  0  0  0  0  0
    3.8702    3.0170    3.1903 C   0  0  0  0  0  0  0  0  0  0  0  0
    5.0475    3.4509    3.8284 C   0  0  0  0  0  0  0  0  0  0  0  0
    5.0006    4.4948    4.7542 C   0  0  0  0  0  0  0  0  0  0  0  0
    3.7813    5.1058    5.0637 C   0  0  0  0  0  0  0  0  0  0  0  0
    3.7215    6.4132    6.2897 S   0  0  0  0  0  0  0  0  0  0  0  0
    3.4830    5.2590    7.6806 C   0  0  0  0  0  0  0  0  0  0  0  0
    2.6078    4.6859    4.4260 C   0  0  0  0  0  0  0  0  0  0  0  0
    2.6532    3.6473    3.4958 C   0  0  0  0  0  0  0  0  0  0  0  0
    4.7280    0.7662    2.5075 C   0  0  0  0  0  0  0  0  0  0  0  0
    4.6305    0.0860    3.7341 C   0  0  0  0  0  0  0  0  0  0  0  0
    5.3731   -1.0788    3.9522 C   0  0  0  0  0  0  0  0  0  0  0  0
    6.2262   -1.5641    2.9549 C   0  0  0  0  0  0  0  0  0  0  0  0
    7.1719   -3.0616    3.2290 S   0  0  0  0  0  0  0  0  0  0  0  0
    5.9479   -4.1394    2.4192 C   0  0  0  0  0  0  0  0  0  0  0  0
    6.3445   -0.8809    1.7389 C   0  0  0  0  0  0  0  0  0  0  0  0
    5.5899    0.2743    1.5116 C   0  0  0  0  0  0  0  0  0  0  0  0
    2.0711    1.0445    0.8366 C   0  0  0  0  0  0  0  0  0  0  0  0
    1.1031    0.0810    1.8099 S   0  0  0  0  0  0  0  0  0  0  0  0
    4.3403    3.7672   -0.2541 C   0  0  0  0  0  0  0  0  0  0  0  0
    5.5238    3.7129   -0.9978 C   0  0  0  0  0  0  0  0  0  0  0  0
    6.2003    4.8893   -1.3557 C   0  0  0  0  0  0  0  0  0  0  0  0
    7.3536    4.7926   -2.0622 F   0  0  0  0  0  0  0  0  0  0  0  0
    5.6722    6.1585   -1.0187 C   0  0  0  0  0  0  0  0  0  0  0  0
    4.5362    6.2128   -0.2014 C   0  0  0  0  0  0  0  0  0  0  0  0
    3.8570    5.0148    0.1622 C   0  0  0  0  0  0  0  0  0  0  0  0
    2.7010    5.1607    0.8573 N   0  0  0  0  0  0  0  0  0  0  0  0
    2.6223    6.8077    0.9788 S   0  0  0  0  0  0  0  0  0  0  0  0
    3.9594    7.3811    0.1913 N   0  0  0  0  0  0  0  0  0  0  0  0
    6.2650    7.4188   -1.5192 C   0  0  0  0  0  0  0  0  0  0  0  0
    6.6097    7.6553   -2.8013 C   0  0  0  0  0  0  0  0  0  0  0  0
    7.5359    8.7233   -3.1673 C   0  0  0  0  0  0  0  0  0  0  0  0
    7.8217    9.7313   -2.4663 O   0  0  0  0  0  0  0  0  0  0  0  0
    8.1364    8.3803   -4.4394 C   0  0  0  0  0  0  0  0  0  0  0  0
    9.1737    9.0256   -5.1054 C   0  0  0  0  0  0  0  0  0  0  0  0
    9.6530    8.4678   -6.2971 C   0  0  0  0  0  0  0  0  0  0  0  0
    9.0889    7.2817   -6.7993 C   0  0  0  0  0  0  0  0  0  0  0  0
    9.5714    6.7428   -7.9489 F   0  0  0  0  0  0  0  0  0  0  0  0
    8.0454    6.6388   -6.1110 C   0  0  0  0  0  0  0  0  0  0  0  0
    7.5647    7.2096   -4.9213 C   0  0  0  0  0  0  0  0  0  0  0  0
    6.4820    6.7687   -3.9978 C   0  0  0  0  0  0  0  0  0  0  0  0
    5.4029    6.0168   -4.3330 C   0  0  0  0  0  0  0  0  0  0  0  0
    4.1586    6.1026   -3.6122 C   0  0  0  0  0  0  0  0  0  0  0  0
    3.1518    6.1647   -3.0471 N   0  0  0  0  0  0  0  0  0  0  0  0
    5.4000    5.1360   -5.4717 C   0  0  0  0  0  0  0  0  0  0  0  0
    5.4002    4.3959   -6.3672 N   0  0  0  0  0  0  0  0  0  0  0  0
   -5.7274   -5.8946    1.1445 H   0  0  0  0  0  0  0  0  0  0  0  0
   -9.6425   -1.2072    2.5410 H   0  0  0  0  0  0  0  0  0  0  0  0
  -11.9116   -1.7684    3.4104 H   0  0  0  0  0  0  0  0  0  0  0  0
  -10.9043   -5.9298    3.4853 H   0  0  0  0  0  0  0  0  0  0  0  0
   -5.5395   -2.8852   -1.1327 H   0  0  0  0  0  0  0  0  0  0  0  0
   -6.6329   -2.1934   -3.1997 H   0  0  0  0  0  0  0  0  0  0  0  0
   -5.5831   -1.0378   -5.6433 H   0  0  0  0  0  0  0  0  0  0  0  0
   -5.7424   -1.4994   -7.3760 H   0  0  0  0  0  0  0  0  0  0  0  0
   -4.4054   -2.2062   -6.3932 H   0  0  0  0  0  0  0  0  0  0  0  0
   -4.5029   -5.2309   -5.3745 H   0  0  0  0  0  0  0  0  0  0  0  0
   -3.3774   -5.9419   -3.3067 H   0  0  0  0  0  0  0  0  0  0  0  0
   -5.2991   -7.1316   -1.4652 H   0  0  0  0  0  0  0  0  0  0  0  0
   -4.6976   -9.4978   -1.1287 H   0  0  0  0  0  0  0  0  0  0  0  0
   -2.2145  -10.6960   -2.4092 H   0  0  0  0  0  0  0  0  0  0  0  0
   -0.6693  -10.1631   -1.6196 H   0  0  0  0  0  0  0  0  0  0  0  0
   -1.0856  -11.9186   -1.7007 H   0  0  0  0  0  0  0  0  0  0  0  0
   -0.9790   -8.3103    0.6755 H   0  0  0  0  0  0  0  0  0  0  0  0
   -1.5526   -5.9436    0.3141 H   0  0  0  0  0  0  0  0  0  0  0  0
   -3.3972   -0.2425   -0.3950 H   0  0  0  0  0  0  0  0  0  0  0  0
   -5.4203    0.7245   -1.3513 H   0  0  0  0  0  0  0  0  0  0  0  0
   -7.2011    4.6596   -1.4568 H   0  0  0  0  0  0  0  0  0  0  0  0
   -5.8319    4.4059   -0.3102 H   0  0  0  0  0  0  0  0  0  0  0  0
   -5.8745    3.5205   -1.8925 H   0  0  0  0  0  0  0  0  0  0  0  0
   -6.2513    2.7261    2.3643 H   0  0  0  0  0  0  0  0  0  0  0  0
   -4.2613    1.7028    3.3708 H   0  0  0  0  0  0  0  0  0  0  0  0
   -1.6829    2.5968    2.3790 H   0  0  0  0  0  0  0  0  0  0  0  0
   -0.4615    3.6062    4.2636 H   0  0  0  0  0  0  0  0  0  0  0  0
   -1.4192    3.8235    7.0292 H   0  0  0  0  0  0  0  0  0  0  0  0
   -0.5146    3.5947    8.5733 H   0  0  0  0  0  0  0  0  0  0  0  0
   -1.5190    2.2441    7.9195 H   0  0  0  0  0  0  0  0  0  0  0  0
   -0.4479   -0.1886    6.2935 H   0  0  0  0  0  0  0  0  0  0  0  0
   -1.7047   -1.1989    4.4268 H   0  0  0  0  0  0  0  0  0  0  0  0
   -1.3829   -1.4272   -3.8770 H   0  0  0  0  0  0  0  0  0  0  0  0
   -3.4033   -0.4986   -4.9079 H   0  0  0  0  0  0  0  0  0  0  0  0
   -3.5060    1.8667   -6.4752 H   0  0  0  0  0  0  0  0  0  0  0  0
   -3.0595    3.2982   -5.4504 H   0  0  0  0  0  0  0  0  0  0  0  0
   -4.5614    3.3284   -6.4604 H   0  0  0  0  0  0  0  0  0  0  0  0
   -3.2203    2.8946   -2.2733 H   0  0  0  0  0  0  0  0  0  0  0  0
   -1.1856    1.9878   -1.2364 H   0  0  0  0  0  0  0  0  0  0  0  0
    1.6696   -2.4485   -1.6234 H   0  0  0  0  0  0  0  0  0  0  0  0
    3.4472   -3.2765   -3.1196 H   0  0  0  0  0  0  0  0  0  0  0  0
    5.5440   -0.2581   -4.8344 H   0  0  0  0  0  0  0  0  0  0  0  0
    5.8522   -1.6603   -3.7268 H   0  0  0  0  0  0  0  0  0  0  0  0
    6.7564   -1.5191   -5.2800 H   0  0  0  0  0  0  0  0  0  0  0  0
    2.6686   -0.0468   -5.8515 H   0  0  0  0  0  0  0  0  0  0  0  0
    0.8794    0.7796   -4.3710 H   0  0  0  0  0  0  0  0  0  0  0  0
    5.9965    2.9807    3.6049 H   0  0  0  0  0  0  0  0  0  0  0  0
    5.9126    4.8184    5.2434 H   0  0  0  0  0  0  0  0  0  0  0  0
    4.3841    4.6193    7.7964 H   0  0  0  0  0  0  0  0  0  0  0  0
    2.5931    4.6207    7.5031 H   0  0  0  0  0  0  0  0  0  0  0  0
    3.3293    5.8351    8.6180 H   0  0  0  0  0  0  0  0  0  0  0  0
    1.6623    5.1607    4.6578 H   0  0  0  0  0  0  0  0  0  0  0  0
    1.7404    3.3247    3.0164 H   0  0  0  0  0  0  0  0  0  0  0  0
    3.9621    0.4432    4.5055 H   0  0  0  0  0  0  0  0  0  0  0  0
    5.2811   -1.6054    4.8918 H   0  0  0  0  0  0  0  0  0  0  0  0
    5.8346   -3.8468    1.3560 H   0  0  0  0  0  0  0  0  0  0  0  0
    6.3018   -5.1881    2.4668 H   0  0  0  0  0  0  0  0  0  0  0  0
    4.9694   -4.0634    2.9331 H   0  0  0  0  0  0  0  0  0  0  0  0
    7.0038   -1.2516    0.9649 H   0  0  0  0  0  0  0  0  0  0  0  0
    5.6795    0.7834    0.5645 H   0  0  0  0  0  0  0  0  0  0  0  0
    5.9119    2.7563   -1.3346 H   0  0  0  0  0  0  0  0  0  0  0  0
    6.4633    8.1835   -0.7784 H   0  0  0  0  0  0  0  0  0  0  0  0
    9.6185    9.9275   -4.6980 H   0  0  0  0  0  0  0  0  0  0  0  0
   10.4592    8.9521   -6.8282 H   0  0  0  0  0  0  0  0  0  0  0  0
    7.6549    5.7151   -6.5030 H   0  0  0  0  0  0  0  0  0  0  0  0
  1  2  2  3
  2  3  1  0
  3  4  2  0
  3  5  1  0
  5  6  2  0
  6  7  1  0
  7  8  2  0
  8  9  1  0
  8 10  1  0
 10 11  2  0
 11 12  1  0
 12 13  2  3
 13 14  1  0
 14 15  3  0
 13 16  1  0
 16 17  3  0
  1 18  1  0
 18 19  2  0
 19 20  1  0
 20 21  1  0
 21 22  2  0
 22 23  1  0
 23 24  2  0
 24 25  1  0
 25 26  1  0
 24 27  1  0
 27 28  2  0
 20 29  1  0
 29 30  2  0
 30 31  1  0
 31 32  2  0
 32 33  1  0
 33 34  1  0
 32 35  1  0
 35 36  2  0
 19 37  1  0
 37 38  1  0
 38 39  1  0
 39 40  2  0
 40 41  1  0
 41 42  1  0
 42 43  2  0
 43 44  1  0
 44 45  2  0
 45 46  1  0
 46 47  1  0
 45 48  1  0
 48 49  2  0
 41 50  1  0
 50 51  2  0
 51 52  1  0
 52 53  2  0
 53 54  1  0
 54 55  1  0
 53 56  1  0
 56 57  2  0
 40 58  1  0
 58 59  1  0
 39 60  1  0
 60 61  2  0
 61 62  1  0
 62 63  1  0
 63 64  2  0
 64 65  1  0
 65 66  2  0
 66 67  1  0
 67 68  1  0
 66 69  1  0
 69 70  2  0
 62 71  1  0
 71 72  2  0
 72 73  1  0
 73 74  2  0
 74 75  1  0
 75 76  1  0
 74 77  1  0
 77 78  2  0
 61 79  1  0
 79 80  1  0
 80 81  1  0
 81 82  2  0
 82 83  1  0
 83 84  1  0
 84 85  2  0
 85 86  1  0
 86 87  2  0
 87 88  1  0
 88 89  1  0
 87 90  1  0
 90 91  2  0
 83 92  1  0
 92 93  2  0
 93 94  1  0
 94 95  2  0
 95 96  1  0
 96 97  1  0
 95 98  1  0
 98 99  2  0
 82100  1  0
100101  1  0
 81102  1  0
102103  2  0
103104  1  0
104105  1  0
104106  2  0
106107  1  0
107108  1  0
108109  2  0
109110  1  0
110111  1  0
106112  1  0
112113  2  3
113114  1  0
114115  2  0
114116  1  0
116117  2  0
117118  1  0
118119  2  0
119120  1  0
119121  1  0
121122  2  0
122123  1  0
123124  2  3
124125  1  0
125126  3  0
124127  1  0
127128  3  0
 12  2  1  0
 59 18  1  0
101 60  1  0
108102  1  0
123113  1  0
 11  5  1  0
 28 21  1  0
 36 29  1  0
 58 37  2  0
 70 63  1  0
 78 71  1  0
100 79  2  0
111107  2  0
122116  1  0
 49 42  1  0
 57 50  1  0
 91 84  1  0
 99 92  1  0
  1129  1  0
  6130  1  0
  7131  1  0
 10132  1  0
 22133  1  0
 23134  1  0
 26135  1  0
 26136  1  0
 26137  1  0
 27138  1  0
 28139  1  0
 30140  1  0
 31141  1  0
 34142  1  0
 34143  1  0
 34144  1  0
 35145  1  0
 36146  1  0
 43147  1  0
 44148  1  0
 47149  1  0
 47150  1  0
 47151  1  0
 48152  1  0
 49153  1  0
 51154  1  0
 52155  1  0
 55156  1  0
 55157  1  0
 55158  1  0
 56159  1  0
 57160  1  0
 64161  1  0
 65162  1  0
 68163  1  0
 68164  1  0
 68165  1  0
 69166  1  0
 70167  1  0
 72168  1  0
 73169  1  0
 76170  1  0
 76171  1  0
 76172  1  0
 77173  1  0
 78174  1  0
 85175  1  0
 86176  1  0
 89177  1  0
 89178  1  0
 89179  1  0
 90180  1  0
 91181  1  0
 93182  1  0
 94183  1  0
 97184  1  0
 97185  1  0
 97186  1  0
 98187  1  0
 99188  1  0
103189  1  0
112190  1  0
117191  1  0
118192  1  0
121193  1  0
M  END

