
     RDKit          3D

207224  0  0  0  0  0  0  0  0999 V2000
   -4.3930    5.0027    4.3692 C   0  0  0  0  0  0  0  0  0  0  0  0
   -4.2993    5.9859    3.4525 C   0  0  0  0  0  0  0  0  0  0  0  0
   -4.8414    7.3233    3.7035 C   0  0  0  0  0  0  0  0  0  0  0  0
   -5.6681    7.6346    4.6013 O   0  0  0  0  0  0  0  0  0  0  0  0
   -4.1994    8.2554    2.8010 C   0  0  0  0  0  0  0  0  0  0  0  0
   -4.3131    9.6465    2.7635 C   0  0  0  0  0  0  0  0  0  0  0  0
   -3.5260   10.3551    1.8437 C   0  0  0  0  0  0  0  0  0  0  0  0
   -2.6256    9.6689    1.0079 C   0  0  0  0  0  0  0  0  0  0  0  0
   -1.8519   10.3642    0.1359 F   0  0  0  0  0  0  0  0  0  0  0  0
   -2.5158    8.2702    1.0750 C   0  0  0  0  0  0  0  0  0  0  0  0
   -3.3384    7.5630    1.9634 C   0  0  0  0  0  0  0  0  0  0  0  0
   -3.4585    6.0991    2.2159 C   0  0  0  0  0  0  0  0  0  0  0  0
   -3.2212    5.1276    1.2922 C   0  0  0  0  0  0  0  0  0  0  0  0
   -3.7831    3.8067    1.3936 C   0  0  0  0  0  0  0  0  0  0  0  0
   -4.2209    2.7384    1.4463 N   0  0  0  0  0  0  0  0  0  0  0  0
   -2.5258    5.3829    0.0586 C   0  0  0  0  0  0  0  0  0  0  0  0
   -1.9650    5.5666   -0.9372 N   0  0  0  0  0  0  0  0  0  0  0  0
   -3.5589    3.7885    4.4156 C   0  0  0  0  0  0  0  0  0  0  0  0
   -4.0229    2.4716    4.6495 C   0  0  0  0  0  0  0  0  0  0  0  0
   -5.3599    2.1335    5.0767 N   0  0  0  0  0  0  0  0  0  0  0  0
   -6.0266    0.9687    4.5679 C   0  0  0  0  0  0  0  0  0  0  0  0
   -6.5056    0.9534    3.2524 C   0  0  0  0  0  0  0  0  0  0  0  0
   -7.2857   -0.1168    2.7987 C   0  0  0  0  0  0  0  0  0  0  0  0
   -7.5848   -1.1816    3.6557 C   0  0  0  0  0  0  0  0  0  0  0  0
   -8.6960   -2.4830    3.1199 S   0  0  0  0  0  0  0  0  0  0  0  0
   -7.3951   -3.4215    2.2678 C   0  0  0  0  0  0  0  0  0  0  0  0
   -7.0877   -1.1826    4.9644 C   0  0  0  0  0  0  0  0  0  0  0  0
   -6.3272   -0.1061    5.4234 C   0  0  0  0  0  0  0  0  0  0  0  0
   -6.0103    2.8928    6.1164 C   0  0  0  0  0  0  0  0  0  0  0  0
   -5.2887    3.3437    7.2360 C   0  0  0  0  0  0  0  0  0  0  0  0
   -5.9090    4.1528    8.1955 C   0  0  0  0  0  0  0  0  0  0  0  0
   -7.2536    4.5088    8.0531 C   0  0  0  0  0  0  0  0  0  0  0  0
   -8.0284    5.6136    9.2322 S   0  0  0  0  0  0  0  0  0  0  0  0
   -7.6285    7.1026    8.2620 C   0  0  0  0  0  0  0  0  0  0  0  0
   -7.9886    4.0239    6.9663 C   0  0  0  0  0  0  0  0  0  0  0  0
   -7.3740    3.2208    6.0034 C   0  0  0  0  0  0  0  0  0  0  0  0
   -3.0091    1.5425    4.3954 C   0  0  0  0  0  0  0  0  0  0  0  0
   -2.9901   -0.0973    4.0352 S   0  0  0  0  0  0  0  0  0  0  0  0
   -1.3731   -0.1157    3.4825 C   0  0  0  0  0  0  0  0  0  0  0  0
   -0.8467    1.1833    3.6029 C   0  0  0  0  0  0  0  0  0  0  0  0
    0.4420    1.6037    3.1198 N   0  0  0  0  0  0  0  0  0  0  0  0
    0.7464    1.5228    1.7176 C   0  0  0  0  0  0  0  0  0  0  0  0
    1.9453    0.9304    1.2927 C   0  0  0  0  0  0  0  0  0  0  0  0
    2.3356    1.0150   -0.0463 C   0  0  0  0  0  0  0  0  0  0  0  0
    1.5469    1.7229   -0.9615 C   0  0  0  0  0  0  0  0  0  0  0  0
    2.1038    1.9375   -2.6530 S   0  0  0  0  0  0  0  0  0  0  0  0
    2.9557    3.5046   -2.2733 C   0  0  0  0  0  0  0  0  0  0  0  0
    0.3344    2.2898   -0.5450 C   0  0  0  0  0  0  0  0  0  0  0  0
   -0.0703    2.1775    0.7881 C   0  0  0  0  0  0  0  0  0  0  0  0
    1.3070    2.3671    3.9908 C   0  0  0  0  0  0  0  0  0  0  0  0
    2.0283    3.4724    3.4979 C   0  0  0  0  0  0  0  0  0  0  0  0
    2.8447    4.2219    4.3483 C   0  0  0  0  0  0  0  0  0  0  0  0
    2.9494    3.8832    5.7026 C   0  0  0  0  0  0  0  0  0  0  0  0
    4.0105    4.8408    6.7897 S   0  0  0  0  0  0  0  0  0  0  0  0
    2.7144    6.0581    7.1871 C   0  0  0  0  0  0  0  0  0  0  0  0
    2.2319    2.7898    6.2017 C   0  0  0  0  0  0  0  0  0  0  0  0
    1.4156    2.0355    5.3512 C   0  0  0  0  0  0  0  0  0  0  0  0
   -1.7975    2.0764    4.0925 C   0  0  0  0  0  0  0  0  0  0  0  0
   -1.8957    3.7460    4.0433 S   0  0  0  0  0  0  0  0  0  0  0  0
   -0.8262   -1.1224    2.5539 C   0  0  0  0  0  0  0  0  0  0  0  0
   -1.4222   -1.2873    1.2963 C   0  0  0  0  0  0  0  0  0  0  0  0
   -2.7416   -0.8545    1.1090 O   0  0  0  0  0  0  0  0  0  0  0  0
   -3.7690   -1.7144    0.6100 C   0  0  0  0  0  0  0  0  0  0  0  0
   -3.9794   -2.9000    1.5485 C   0  0  0  0  0  0  0  0  0  0  0  0
   -0.6987   -1.8604    0.2290 C   0  0  0  0  0  0  0  0  0  0  0  0
   -1.1742   -1.6758   -1.0771 O   0  0  0  0  0  0  0  0  0  0  0  0
   -1.3158   -0.3705   -1.6426 C   0  0  0  0  0  0  0  0  0  0  0  0
   -2.2393   -0.4009   -2.8514 C   0  0  0  0  0  0  0  0  0  0  0  0
    0.5374   -2.5186    0.4646 C   0  0  0  0  0  0  0  0  0  0  0  0
    1.0426   -2.5091    1.7858 C   0  0  0  0  0  0  0  0  0  0  0  0
    0.3867   -1.7600    2.8079 C   0  0  0  0  0  0  0  0  0  0  0  0
    1.0079   -1.6981    4.0175 N   0  0  0  0  0  0  0  0  0  0  0  0
    2.3490   -2.6171    3.7131 S   0  0  0  0  0  0  0  0  0  0  0  0
    2.2191   -3.0936    2.1377 N   0  0  0  0  0  0  0  0  0  0  0  0
    1.4024   -2.9500   -0.6753 C   0  0  0  0  0  0  0  0  0  0  0  0
    0.9820   -3.1091   -2.0112 C   0  0  0  0  0  0  0  0  0  0  0  0
   -0.1396   -3.9620   -2.3415 N   0  0  0  0  0  0  0  0  0  0  0  0
   -0.8359   -3.8547   -3.5949 C   0  0  0  0  0  0  0  0  0  0  0  0
   -0.1921   -4.1436   -4.8097 C   0  0  0  0  0  0  0  0  0  0  0  0
   -0.8668   -3.9922   -6.0253 C   0  0  0  0  0  0  0  0  0  0  0  0
   -2.2103   -3.6084   -6.0330 C   0  0  0  0  0  0  0  0  0  0  0  0
   -3.0613   -3.3512   -7.5894 S   0  0  0  0  0  0  0  0  0  0  0  0
   -2.6246   -1.5847   -7.6685 C   0  0  0  0  0  0  0  0  0  0  0  0
   -2.8888   -3.4206   -4.8218 C   0  0  0  0  0  0  0  0  0  0  0  0
   -2.2090   -3.5602   -3.6084 C   0  0  0  0  0  0  0  0  0  0  0  0
   -0.2775   -5.2033   -1.6335 C   0  0  0  0  0  0  0  0  0  0  0  0
    0.7283   -6.1762   -1.7386 C   0  0  0  0  0  0  0  0  0  0  0  0
    0.5775   -7.4191   -1.1197 C   0  0  0  0  0  0  0  0  0  0  0  0
   -0.5771   -7.6965   -0.3805 C   0  0  0  0  0  0  0  0  0  0  0  0
   -0.7919   -9.3167    0.3639 S   0  0  0  0  0  0  0  0  0  0  0  0
   -0.0634   -8.8273    1.9591 C   0  0  0  0  0  0  0  0  0  0  0  0
   -1.5792   -6.7261   -0.2583 C   0  0  0  0  0  0  0  0  0  0  0  0
   -1.4254   -5.4767   -0.8778 C   0  0  0  0  0  0  0  0  0  0  0  0
    2.0421   -2.8989   -2.9023 C   0  0  0  0  0  0  0  0  0  0  0  0
    2.0681   -1.8965   -4.2504 S   0  0  0  0  0  0  0  0  0  0  0  0
    3.7370   -1.5613   -4.2437 C   0  0  0  0  0  0  0  0  0  0  0  0
    4.2858   -2.1996   -3.1138 C   0  0  0  0  0  0  0  0  0  0  0  0
    5.7005   -2.2160   -2.7806 N   0  0  0  0  0  0  0  0  0  0  0  0
    6.7046   -2.2007   -3.8143 C   0  0  0  0  0  0  0  0  0  0  0  0
    6.5198   -2.9169   -5.0098 C   0  0  0  0  0  0  0  0  0  0  0  0
    7.5227   -2.9387   -5.9865 C   0  0  0  0  0  0  0  0  0  0  0  0
    8.7269   -2.2609   -5.7712 C   0  0  0  0  0  0  0  0  0  0  0  0
   10.0202   -2.3133   -7.0084 S   0  0  0  0  0  0  0  0  0  0  0  0
   10.8264   -3.7628   -6.2579 C   0  0  0  0  0  0  0  0  0  0  0  0
    8.9199   -1.5493   -4.5796 C   0  0  0  0  0  0  0  0  0  0  0  0
    7.9181   -1.5226   -3.6069 C   0  0  0  0  0  0  0  0  0  0  0  0
    6.1224   -2.7302   -1.5096 C   0  0  0  0  0  0  0  0  0  0  0  0
    6.2224   -4.1183   -1.3176 C   0  0  0  0  0  0  0  0  0  0  0  0
    6.5814   -4.6314   -0.0676 C   0  0  0  0  0  0  0  0  0  0  0  0
    6.8708   -3.7601    0.9898 C   0  0  0  0  0  0  0  0  0  0  0  0
    7.2847   -4.4249    2.6018 S   0  0  0  0  0  0  0  0  0  0  0  0
    9.0550   -4.5918    2.2047 C   0  0  0  0  0  0  0  0  0  0  0  0
    6.7944   -2.3723    0.7951 C   0  0  0  0  0  0  0  0  0  0  0  0
    6.4129   -1.8597   -0.4510 C   0  0  0  0  0  0  0  0  0  0  0  0
    3.2907   -2.8223   -2.3446 C   0  0  0  0  0  0  0  0  0  0  0  0
    3.0867   -2.7526   -0.6849 S   0  0  0  0  0  0  0  0  0  0  0  0
    4.3940   -0.4158   -4.9205 C   0  0  0  0  0  0  0  0  0  0  0  0
    3.8871    0.3416   -5.9118 C   0  0  0  0  0  0  0  0  0  0  0  0
    2.8970   -0.0765   -6.9123 C   0  0  0  0  0  0  0  0  0  0  0  0
    2.3987   -1.2265   -7.0358 O   0  0  0  0  0  0  0  0  0  0  0  0
    2.7668    0.9809   -7.8920 C   0  0  0  0  0  0  0  0  0  0  0  0
    1.9501    1.0032   -9.0236 C   0  0  0  0  0  0  0  0  0  0  0  0
    2.0049    2.1181   -9.8668 C   0  0  0  0  0  0  0  0  0  0  0  0
    2.8730    3.1842   -9.5726 C   0  0  0  0  0  0  0  0  0  0  0  0
    2.9252    4.2598  -10.3953 F   0  0  0  0  0  0  0  0  0  0  0  0
    3.7020    3.1383   -8.4382 C   0  0  0  0  0  0  0  0  0  0  0  0
    3.6393    2.0178   -7.5888 C   0  0  0  0  0  0  0  0  0  0  0  0
    4.3629    1.7095   -6.3181 C   0  0  0  0  0  0  0  0  0  0  0  0
    5.1392    2.5641   -5.5914 C   0  0  0  0  0  0  0  0  0  0  0  0
    5.5622    2.2937   -4.2403 C   0  0  0  0  0  0  0  0  0  0  0  0
    5.8884    2.1048   -3.1475 N   0  0  0  0  0  0  0  0  0  0  0  0
    5.4884    3.8867   -6.0463 C   0  0  0  0  0  0  0  0  0  0  0  0
    5.7829    4.9512   -6.3939 N   0  0  0  0  0  0  0  0  0  0  0  0
   -5.0728    5.1557    5.1893 H   0  0  0  0  0  0  0  0  0  0  0  0
   -4.9889   10.1678    3.4291 H   0  0  0  0  0  0  0  0  0  0  0  0
   -3.5974   11.4333    1.7903 H   0  0  0  0  0  0  0  0  0  0  0  0
   -1.7791    7.7793    0.4581 H   0  0  0  0  0  0  0  0  0  0  0  0
   -6.3296    1.7958    2.6009 H   0  0  0  0  0  0  0  0  0  0  0  0
   -7.6805   -0.0963    1.7874 H   0  0  0  0  0  0  0  0  0  0  0  0
   -7.8399   -4.3223    1.7996 H   0  0  0  0  0  0  0  0  0  0  0  0
   -6.6145   -3.7394    2.9899 H   0  0  0  0  0  0  0  0  0  0  0  0
   -6.9420   -2.7923    1.4743 H   0  0  0  0  0  0  0  0  0  0  0  0
   -7.3263   -1.9944    5.6379 H   0  0  0  0  0  0  0  0  0  0  0  0
   -5.9803   -0.0935    6.4468 H   0  0  0  0  0  0  0  0  0  0  0  0
   -4.2436    3.0871    7.3511 H   0  0  0  0  0  0  0  0  0  0  0  0
   -5.3353    4.5097    9.0442 H   0  0  0  0  0  0  0  0  0  0  0  0
   -6.5270    7.2008    8.1534 H   0  0  0  0  0  0  0  0  0  0  0  0
   -8.1132    7.0475    7.2645 H   0  0  0  0  0  0  0  0  0  0  0  0
   -8.0166    7.9938    8.7975 H   0  0  0  0  0  0  0  0  0  0  0  0
   -9.0335    4.2931    6.8537 H   0  0  0  0  0  0  0  0  0  0  0  0
   -7.9473    2.8931    5.1443 H   0  0  0  0  0  0  0  0  0  0  0  0
    2.5903    0.4329    2.0044 H   0  0  0  0  0  0  0  0  0  0  0  0
    3.2660    0.5647   -0.3676 H   0  0  0  0  0  0  0  0  0  0  0  0
    3.7963    3.3223   -1.5689 H   0  0  0  0  0  0  0  0  0  0  0  0
    3.3612    3.9363   -3.2112 H   0  0  0  0  0  0  0  0  0  0  0  0
    2.2473    4.2361   -1.8297 H   0  0  0  0  0  0  0  0  0  0  0  0
   -0.2867    2.8296   -1.2485 H   0  0  0  0  0  0  0  0  0  0  0  0
   -0.9906    2.6521    1.1029 H   0  0  0  0  0  0  0  0  0  0  0  0
    1.9501    3.7675    2.4605 H   0  0  0  0  0  0  0  0  0  0  0  0
    3.3955    5.0668    3.9545 H   0  0  0  0  0  0  0  0  0  0  0  0
    3.1183    6.7879    7.9167 H   0  0  0  0  0  0  0  0  0  0  0  0
    1.8354    5.5504    7.6341 H   0  0  0  0  0  0  0  0  0  0  0  0
    2.4118    6.6031    6.2683 H   0  0  0  0  0  0  0  0  0  0  0  0
    2.3140    2.5183    7.2464 H   0  0  0  0  0  0  0  0  0  0  0  0
    0.8762    1.1872    5.7532 H   0  0  0  0  0  0  0  0  0  0  0  0
   -3.5158   -2.0863   -0.3995 H   0  0  0  0  0  0  0  0  0  0  0  0
   -4.7113   -1.1370    0.5347 H   0  0  0  0  0  0  0  0  0  0  0  0
   -3.0376   -3.4647    1.6948 H   0  0  0  0  0  0  0  0  0  0  0  0
   -4.7282   -3.5967    1.1117 H   0  0  0  0  0  0  0  0  0  0  0  0
   -4.3432   -2.5369    2.5376 H   0  0  0  0  0  0  0  0  0  0  0  0
   -1.7433    0.3353   -0.9017 H   0  0  0  0  0  0  0  0  0  0  0  0
   -0.3194   -0.0086   -1.9708 H   0  0  0  0  0  0  0  0  0  0  0  0
   -2.4552    0.6399   -3.1751 H   0  0  0  0  0  0  0  0  0  0  0  0
   -1.7479   -0.9275   -3.6923 H   0  0  0  0  0  0  0  0  0  0  0  0
   -3.2000   -0.9035   -2.5892 H   0  0  0  0  0  0  0  0  0  0  0  0
    0.8384   -4.4719   -4.8168 H   0  0  0  0  0  0  0  0  0  0  0  0
   -0.3419   -4.1700   -6.9521 H   0  0  0  0  0  0  0  0  0  0  0  0
   -3.0569   -1.1487   -8.5927 H   0  0  0  0  0  0  0  0  0  0  0  0
   -3.0446   -1.0518   -6.7901 H   0  0  0  0  0  0  0  0  0  0  0  0
   -1.5218   -1.4607   -7.6937 H   0  0  0  0  0  0  0  0  0  0  0  0
   -3.9371   -3.1411   -4.8217 H   0  0  0  0  0  0  0  0  0  0  0  0
   -2.7379   -3.3924   -2.6823 H   0  0  0  0  0  0  0  0  0  0  0  0
    1.6191   -5.9750   -2.3231 H   0  0  0  0  0  0  0  0  0  0  0  0
    1.3549   -8.1663   -1.2194 H   0  0  0  0  0  0  0  0  0  0  0  0
    0.9391   -8.3717    1.8074 H   0  0  0  0  0  0  0  0  0  0  0  0
    0.0562   -9.7293    2.5936 H   0  0  0  0  0  0  0  0  0  0  0  0
   -0.7368   -8.1112    2.4733 H   0  0  0  0  0  0  0  0  0  0  0  0
   -2.4794   -6.9429    0.3031 H   0  0  0  0  0  0  0  0  0  0  0  0
   -2.2005   -4.7334   -0.7673 H   0  0  0  0  0  0  0  0  0  0  0  0
    5.6017   -3.4654   -5.1884 H   0  0  0  0  0  0  0  0  0  0  0  0
    7.3645   -3.4915   -6.9048 H   0  0  0  0  0  0  0  0  0  0  0  0
   11.7538   -3.9900   -6.8207 H   0  0  0  0  0  0  0  0  0  0  0  0
   10.1495   -4.6413   -6.3079 H   0  0  0  0  0  0  0  0  0  0  0  0
   11.0912   -3.5538   -5.1998 H   0  0  0  0  0  0  0  0  0  0  0  0
    9.8493   -1.0229   -4.4041 H   0  0  0  0  0  0  0  0  0  0  0  0
    8.0865   -0.9763   -2.6887 H   0  0  0  0  0  0  0  0  0  0  0  0
    5.9923   -4.7924   -2.1283 H   0  0  0  0  0  0  0  0  0  0  0  0
    6.6488   -5.6999    0.0752 H   0  0  0  0  0  0  0  0  0  0  0  0
    9.5944   -4.9842    3.0902 H   0  0  0  0  0  0  0  0  0  0  0  0
    9.4860   -3.6047    1.9319 H   0  0  0  0  0  0  0  0  0  0  0  0
    9.1885   -5.3065    1.3654 H   0  0  0  0  0  0  0  0  0  0  0  0
    6.9897   -1.6934    1.6150 H   0  0  0  0  0  0  0  0  0  0  0  0
    6.3141   -0.7919   -0.5857 H   0  0  0  0  0  0  0  0  0  0  0  0
    5.3096   -0.1034   -4.4565 H   0  0  0  0  0  0  0  0  0  0  0  0
    1.2814    0.1822   -9.2434 H   0  0  0  0  0  0  0  0  0  0  0  0
    1.3715    2.1637  -10.7434 H   0  0  0  0  0  0  0  0  0  0  0  0
    4.3742    3.9599   -8.2743 H   0  0  0  0  0  0  0  0  0  0  0  0
  1  2  2  3
  2  3  1  0
  3  4  2  0
  3  5  1  0
  5  6  2  0
  6  7  1  0
  7  8  2  0
  8  9  1  0
  8 10  1  0
 10 11  2  0
 11 12  1  0
 12 13  2  3
 13 14  1  0
 14 15  3  0
 13 16  1  0
 16 17  3  0
  1 18  1  0
 18 19  2  0
 19 20  1  0
 20 21  1  0
 21 22  2  0
 22 23  1  0
 23 24  2  0
 24 25  1  0
 25 26  1  0
 24 27  1  0
 27 28  2  0
 20 29  1  0
 29 30  2  0
 30 31  1  0
 31 32  2  0
 32 33  1  0
 33 34  1  0
 32 35  1  0
 35 36  2  0
 19 37  1  0
 37 38  1  0
 38 39  1  0
 39 40  2  0
 40 41  1  0
 41 42  1  0
 42 43  2  0
 43 44  1  0
 44 45  2  0
 45 46  1  0
 46 47  1  0
 45 48  1  0
 48 49  2  0
 41 50  1  0
 50 51  2  0
 51 52  1  0
 52 53  2  0
 53 54  1  0
 54 55  1  0
 53 56  1  0
 56 57  2  0
 40 58  1  0
 58 59  1  0
 39 60  1  0
 60 61  2  0
 61 62  1  0
 62 63  1  0
 63 64  1  0
 61 65  1  0
 65 66  1  0
 66 67  1  0
 67 68  1  0
 65 69  2  0
 69 70  1  0
 70 71  1  0
 71 72  2  0
 72 73  1  0
 73 74  1  0
 69 75  1  0
 75 76  2  0
 76 77  1  0
 77 78  1  0
 78 79  2  0
 79 80  1  0
 80 81  2  0
 81 82  1  0
 82 83  1  0
 81 84  1  0
 84 85  2  0
 77 86  1  0
 86 87  2  0
 87 88  1  0
 88 89  2  0
 89 90  1  0
 90 91  1  0
 89 92  1  0
 92 93  2  0
 76 94  1  0
 94 95  1  0
 95 96  1  0
 96 97  2  0
 97 98  1  0
 98 99  1  0
 99100  2  0
100101  1  0
101102  2  0
102103  1  0
103104  1  0
102105  1  0
105106  2  0
 98107  1  0
107108  2  0
108109  1  0
109110  2  0
110111  1  0
111112  1  0
110113  1  0
113114  2  0
 97115  1  0
115116  1  0
 96117  1  0
117118  2  3
118119  1  0
119120  2  0
119121  1  0
121122  2  0
122123  1  0
123124  2  0
124125  1  0
124126  1  0
126127  2  0
127128  1  0
128129  2  3
129130  1  0
130131  3  0
129132  1  0
132133  3  0
 12  2  1  0
 59 18  1  0
 71 60  1  0
116 75  1  0
128118  1  0
 11  5  1  0
 28 21  1  0
 36 29  1  0
 58 37  2  0
 74 70  2  0
 85 78  1  0
 93 86  1  0
115 94  2  0
127121  1  0
 49 42  1  0
 57 50  1  0
106 99  1  0
114107  1  0
  1134  1  0
  6135  1  0
  7136  1  0
 10137  1  0
 22138  1  0
 23139  1  0
 26140  1  0
 26141  1  0
 26142  1  0
 27143  1  0
 28144  1  0
 30145  1  0
 31146  1  0
 34147  1  0
 34148  1  0
 34149  1  0
 35150  1  0
 36151  1  0
 43152  1  0
 44153  1  0
 47154  1  0
 47155  1  0
 47156  1  0
 48157  1  0
 49158  1  0
 51159  1  0
 52160  1  0
 55161  1  0
 55162  1  0
 55163  1  0
 56164  1  0
 57165  1  0
 63166  1  0
 63167  1  0
 64168  1  0
 64169  1  0
 64170  1  0
 67171  1  0
 67172  1  0
 68173  1  0
 68174  1  0
 68175  1  0
 79176  1  0
 80177  1  0
 83178  1  0
 83179  1  0
 83180  1  0
 84181  1  0
 85182  1  0
 87183  1  0
 88184  1  0
 91185  1  0
 91186  1  0
 91187  1  0
 92188  1  0
 93189  1  0
100190  1  0
101191  1  0
104192  1  0
104193  1  0
104194  1  0
105195  1  0
106196  1  0
108197  1  0
109198  1  0
112199  1  0
112200  1  0
112201  1  0
113202  1  0
114203  1  0
117204  1  0
122205  1  0
123206  1  0
126207  1  0
M  END

