
     RDKit          3D

204221  0  0  0  0  0  0  0  0999 V2000
   -1.6273   -2.0169   -6.8997 C   0  0  0  0  0  0  0  0  0  0  0  0
   -0.8671   -1.6092   -7.9374 C   0  0  0  0  0  0  0  0  0  0  0  0
   -0.5610   -0.2191   -8.2811 C   0  0  0  0  0  0  0  0  0  0  0  0
   -1.2306    0.7978   -7.9588 O   0  0  0  0  0  0  0  0  0  0  0  0
    0.5856   -0.2089   -9.1574 C   0  0  0  0  0  0  0  0  0  0  0  0
    1.3019    0.8938   -9.6246 C   0  0  0  0  0  0  0  0  0  0  0  0
    2.4465    0.6690  -10.3991 C   0  0  0  0  0  0  0  0  0  0  0  0
    2.8663   -0.6456  -10.6731 C   0  0  0  0  0  0  0  0  0  0  0  0
    3.9995   -0.8505  -11.3885 F   0  0  0  0  0  0  0  0  0  0  0  0
    2.1354   -1.7452  -10.1895 C   0  0  0  0  0  0  0  0  0  0  0  0
    0.9621   -1.5092   -9.4477 C   0  0  0  0  0  0  0  0  0  0  0  0
    0.0085   -2.4620   -8.8096 C   0  0  0  0  0  0  0  0  0  0  0  0
   -0.1325   -3.7887   -9.0912 C   0  0  0  0  0  0  0  0  0  0  0  0
    0.7057   -4.4685  -10.0431 C   0  0  0  0  0  0  0  0  0  0  0  0
    1.3679   -5.0321  -10.8070 N   0  0  0  0  0  0  0  0  0  0  0  0
   -1.1860   -4.5990   -8.5428 C   0  0  0  0  0  0  0  0  0  0  0  0
   -2.0261   -5.2660   -8.0973 N   0  0  0  0  0  0  0  0  0  0  0  0
   -2.1398   -1.1632   -5.8106 C   0  0  0  0  0  0  0  0  0  0  0  0
   -3.1269   -1.6056   -4.9154 C   0  0  0  0  0  0  0  0  0  0  0  0
   -4.1069   -2.6092   -5.2371 N   0  0  0  0  0  0  0  0  0  0  0  0
   -4.4240   -3.6559   -4.3033 C   0  0  0  0  0  0  0  0  0  0  0  0
   -3.4037   -4.3325   -3.6113 C   0  0  0  0  0  0  0  0  0  0  0  0
   -3.7206   -5.3238   -2.6778 C   0  0  0  0  0  0  0  0  0  0  0  0
   -5.0616   -5.6371   -2.4225 C   0  0  0  0  0  0  0  0  0  0  0  0
   -5.4857   -6.8643   -1.1849 S   0  0  0  0  0  0  0  0  0  0  0  0
   -5.5788   -5.6514    0.1762 C   0  0  0  0  0  0  0  0  0  0  0  0
   -6.0790   -4.9818   -3.1232 C   0  0  0  0  0  0  0  0  0  0  0  0
   -5.7651   -3.9977   -4.0593 C   0  0  0  0  0  0  0  0  0  0  0  0
   -4.7504   -2.5477   -6.5270 C   0  0  0  0  0  0  0  0  0  0  0  0
   -5.1298   -1.3043   -7.0698 C   0  0  0  0  0  0  0  0  0  0  0  0
   -5.5774   -1.2136   -8.3859 C   0  0  0  0  0  0  0  0  0  0  0  0
   -5.6488   -2.3651   -9.1828 C   0  0  0  0  0  0  0  0  0  0  0  0
   -6.0800   -2.2195  -10.9146 S   0  0  0  0  0  0  0  0  0  0  0  0
   -4.3686   -1.8703  -11.4326 C   0  0  0  0  0  0  0  0  0  0  0  0
   -5.3344   -3.6127   -8.6322 C   0  0  0  0  0  0  0  0  0  0  0  0
   -4.8929   -3.7069   -7.3094 C   0  0  0  0  0  0  0  0  0  0  0  0
   -3.0540   -0.9310   -3.6988 C   0  0  0  0  0  0  0  0  0  0  0  0
   -3.7186   -1.1477   -2.1794 S   0  0  0  0  0  0  0  0  0  0  0  0
   -2.7434    0.0214   -1.4012 C   0  0  0  0  0  0  0  0  0  0  0  0
   -1.9216    0.6280   -2.3863 C   0  0  0  0  0  0  0  0  0  0  0  0
   -1.3730    1.9582   -2.2894 N   0  0  0  0  0  0  0  0  0  0  0  0
   -2.1574    3.0022   -2.9185 C   0  0  0  0  0  0  0  0  0  0  0  0
   -3.5226    3.1555   -2.6143 C   0  0  0  0  0  0  0  0  0  0  0  0
   -4.2832    4.1474   -3.2449 C   0  0  0  0  0  0  0  0  0  0  0  0
   -3.6952    4.9855   -4.1957 C   0  0  0  0  0  0  0  0  0  0  0  0
   -4.6682    6.2668   -4.9849 S   0  0  0  0  0  0  0  0  0  0  0  0
   -5.0277    5.2691   -6.4637 C   0  0  0  0  0  0  0  0  0  0  0  0
   -2.3482    4.8265   -4.5295 C   0  0  0  0  0  0  0  0  0  0  0  0
   -1.5890    3.8316   -3.9068 C   0  0  0  0  0  0  0  0  0  0  0  0
    0.0324    2.1909   -2.0224 C   0  0  0  0  0  0  0  0  0  0  0  0
    1.0022    1.2220   -2.3400 C   0  0  0  0  0  0  0  0  0  0  0  0
    2.3556    1.5719   -2.3993 C   0  0  0  0  0  0  0  0  0  0  0  0
    2.7565    2.8888   -2.1427 C   0  0  0  0  0  0  0  0  0  0  0  0
    4.4382    3.4057   -2.5032 S   0  0  0  0  0  0  0  0  0  0  0  0
    4.9651    3.4959   -0.7666 C   0  0  0  0  0  0  0  0  0  0  0  0
    1.8149    3.8249   -1.7087 C   0  0  0  0  0  0  0  0  0  0  0  0
    0.4676    3.4696   -1.6254 C   0  0  0  0  0  0  0  0  0  0  0  0
   -2.1078    0.0317   -3.6302 C   0  0  0  0  0  0  0  0  0  0  0  0
   -1.2442    0.0849   -5.0596 S   0  0  0  0  0  0  0  0  0  0  0  0
   -2.3684   -0.0624    0.0378 C   0  0  0  0  0  0  0  0  0  0  0  0
   -2.1366   -1.3244    0.6236 C   0  0  0  0  0  0  0  0  0  0  0  0
   -2.4698   -2.4720   -0.0185 F   0  0  0  0  0  0  0  0  0  0  0  0
   -1.4525   -1.4387    1.8327 C   0  0  0  0  0  0  0  0  0  0  0  0
   -1.2175   -2.6772    2.3366 F   0  0  0  0  0  0  0  0  0  0  0  0
   -0.9269   -0.3050    2.4677 C   0  0  0  0  0  0  0  0  0  0  0  0
   -1.2183    0.9678    1.9304 C   0  0  0  0  0  0  0  0  0  0  0  0
   -0.7203    2.1048    2.4874 N   0  0  0  0  0  0  0  0  0  0  0  0
   -1.0597    3.3457    2.0429 C   0  0  0  0  0  0  0  0  0  0  0  0
   -0.3922    4.5311    2.6852 C   0  0  0  0  0  0  0  0  0  0  0  0
    0.7015    5.1044    1.7767 C   0  0  0  0  0  0  0  0  0  0  0  0
   -1.9768    3.4567    0.9701 C   0  0  0  0  0  0  0  0  0  0  0  0
   -2.3827    2.3183    0.3453 N   0  0  0  0  0  0  0  0  0  0  0  0
   -2.0030    1.0835    0.7641 C   0  0  0  0  0  0  0  0  0  0  0  0
   -2.5766    4.7619    0.5110 C   0  0  0  0  0  0  0  0  0  0  0  0
   -4.0535    4.8293    0.9036 C   0  0  0  0  0  0  0  0  0  0  0  0
    0.0923   -0.4958    3.5289 C   0  0  0  0  0  0  0  0  0  0  0  0
    0.3760    0.3412    4.6406 C   0  0  0  0  0  0  0  0  0  0  0  0
   -0.5869    1.1744    5.3447 N   0  0  0  0  0  0  0  0  0  0  0  0
   -0.2241    1.7419    6.6115 C   0  0  0  0  0  0  0  0  0  0  0  0
   -0.0097    3.1193    6.7416 C   0  0  0  0  0  0  0  0  0  0  0  0
    0.3576    3.6624    7.9770 C   0  0  0  0  0  0  0  0  0  0  0  0
    0.5074    2.8333    9.0989 C   0  0  0  0  0  0  0  0  0  0  0  0
    0.9671    3.4035   10.4070 C   0  0  0  0  0  0  0  0  0  0  0  0
    0.3027    1.4522    8.9666 C   0  0  0  0  0  0  0  0  0  0  0  0
   -0.0751    0.9126    7.7325 C   0  0  0  0  0  0  0  0  0  0  0  0
   -1.9987    1.0727    5.0857 C   0  0  0  0  0  0  0  0  0  0  0  0
   -2.7525    2.2282    4.8418 C   0  0  0  0  0  0  0  0  0  0  0  0
   -4.1252    2.1369    4.5802 C   0  0  0  0  0  0  0  0  0  0  0  0
   -4.7671    0.8909    4.5993 C   0  0  0  0  0  0  0  0  0  0  0  0
   -6.2262    0.7897    4.2841 C   0  0  0  0  0  0  0  0  0  0  0  0
   -4.0168   -0.2630    4.8622 C   0  0  0  0  0  0  0  0  0  0  0  0
   -2.6455   -0.1727    5.1164 C   0  0  0  0  0  0  0  0  0  0  0  0
    1.7133    0.1655    5.0509 C   0  0  0  0  0  0  0  0  0  0  0  0
    2.8232    1.2313    5.7348 S   0  0  0  0  0  0  0  0  0  0  0  0
    4.1881    0.3796    5.1801 C   0  0  0  0  0  0  0  0  0  0  0  0
    3.7828   -0.7919    4.5267 C   0  0  0  0  0  0  0  0  0  0  0  0
    4.6118   -1.9642    4.4356 N   0  0  0  0  0  0  0  0  0  0  0  0
    4.6472   -2.8839    5.5432 C   0  0  0  0  0  0  0  0  0  0  0  0
    4.8253   -2.4192    6.8581 C   0  0  0  0  0  0  0  0  0  0  0  0
    4.8631   -3.3151    7.9289 C   0  0  0  0  0  0  0  0  0  0  0  0
    4.7036   -4.6889    7.7038 C   0  0  0  0  0  0  0  0  0  0  0  0
    4.7726   -5.6567    8.8490 C   0  0  0  0  0  0  0  0  0  0  0  0
    4.5457   -5.1615    6.3926 C   0  0  0  0  0  0  0  0  0  0  0  0
    4.5183   -4.2639    5.3205 C   0  0  0  0  0  0  0  0  0  0  0  0
    5.3913   -2.2587    3.2663 C   0  0  0  0  0  0  0  0  0  0  0  0
    4.7701   -2.6101    2.0618 C   0  0  0  0  0  0  0  0  0  0  0  0
    5.5372   -2.9852    0.9558 C   0  0  0  0  0  0  0  0  0  0  0  0
    6.9358   -3.0271    1.0467 C   0  0  0  0  0  0  0  0  0  0  0  0
    7.7531   -3.4933   -0.1185 C   0  0  0  0  0  0  0  0  0  0  0  0
    7.5579   -2.7150    2.2628 C   0  0  0  0  0  0  0  0  0  0  0  0
    6.7891   -2.3397    3.3694 C   0  0  0  0  0  0  0  0  0  0  0  0
    2.3946   -0.8465    4.4395 C   0  0  0  0  0  0  0  0  0  0  0  0
    1.4359   -1.5020    3.2471 S   0  0  0  0  0  0  0  0  0  0  0  0
    5.5416    0.9455    5.1300 C   0  0  0  0  0  0  0  0  0  0  0  0
    6.2307    1.1007    3.9814 C   0  0  0  0  0  0  0  0  0  0  0  0
    7.6919    1.1309    3.9393 C   0  0  0  0  0  0  0  0  0  0  0  0
    8.4569    1.3369    4.9168 O   0  0  0  0  0  0  0  0  0  0  0  0
    8.1163    0.7944    2.5912 C   0  0  0  0  0  0  0  0  0  0  0  0
    9.4154    0.6597    2.0981 C   0  0  0  0  0  0  0  0  0  0  0  0
    9.5865    0.3573    0.7407 C   0  0  0  0  0  0  0  0  0  0  0  0
    8.4697    0.2166   -0.0986 C   0  0  0  0  0  0  0  0  0  0  0  0
    8.6499   -0.0506   -1.4173 F   0  0  0  0  0  0  0  0  0  0  0  0
    7.1708    0.3557    0.4144 C   0  0  0  0  0  0  0  0  0  0  0  0
    7.0046    0.6107    1.7844 C   0  0  0  0  0  0  0  0  0  0  0  0
    5.7736    0.8469    2.5801 C   0  0  0  0  0  0  0  0  0  0  0  0
    4.5400    1.0493    2.0748 C   0  0  0  0  0  0  0  0  0  0  0  0
    4.0658    0.3490    0.9107 C   0  0  0  0  0  0  0  0  0  0  0  0
    3.6664   -0.2196   -0.0180 N   0  0  0  0  0  0  0  0  0  0  0  0
    3.6492    2.0304    2.6374 C   0  0  0  0  0  0  0  0  0  0  0  0
    2.9264    2.8236    3.0656 N   0  0  0  0  0  0  0  0  0  0  0  0
   -1.7677   -3.0648   -6.7204 H   0  0  0  0  0  0  0  0  0  0  0  0
    0.9925    1.8996   -9.3769 H   0  0  0  0  0  0  0  0  0  0  0  0
    3.0174    1.5081  -10.7707 H   0  0  0  0  0  0  0  0  0  0  0  0
    2.5204   -2.7303  -10.3679 H   0  0  0  0  0  0  0  0  0  0  0  0
   -2.3659   -4.0858   -3.7935 H   0  0  0  0  0  0  0  0  0  0  0  0
   -2.9284   -5.8332   -2.1466 H   0  0  0  0  0  0  0  0  0  0  0  0
   -6.0620   -4.7115   -0.1638 H   0  0  0  0  0  0  0  0  0  0  0  0
   -6.1811   -6.0778    0.9974 H   0  0  0  0  0  0  0  0  0  0  0  0
   -4.5546   -5.4333    0.5414 H   0  0  0  0  0  0  0  0  0  0  0  0
   -7.1174   -5.2220   -2.9279 H   0  0  0  0  0  0  0  0  0  0  0  0
   -6.5613   -3.4820   -4.5755 H   0  0  0  0  0  0  0  0  0  0  0  0
   -5.0379   -0.3996   -6.4811 H   0  0  0  0  0  0  0  0  0  0  0  0
   -5.8173   -0.2477   -8.8029 H   0  0  0  0  0  0  0  0  0  0  0  0
   -3.7173   -2.7442  -11.2202 H   0  0  0  0  0  0  0  0  0  0  0  0
   -4.3567   -1.6660  -12.5232 H   0  0  0  0  0  0  0  0  0  0  0  0
   -3.9797   -0.9784  -10.8998 H   0  0  0  0  0  0  0  0  0  0  0  0
   -5.3978   -4.5037   -9.2397 H   0  0  0  0  0  0  0  0  0  0  0  0
   -4.6135   -4.6696   -6.9111 H   0  0  0  0  0  0  0  0  0  0  0  0
   -3.9972    2.5191   -1.8812 H   0  0  0  0  0  0  0  0  0  0  0  0
   -5.3299    4.2592   -2.9890 H   0  0  0  0  0  0  0  0  0  0  0  0
   -4.1050    5.1572   -7.0696 H   0  0  0  0  0  0  0  0  0  0  0  0
   -5.7989    5.7861   -7.0684 H   0  0  0  0  0  0  0  0  0  0  0  0
   -5.4038    4.2684   -6.1749 H   0  0  0  0  0  0  0  0  0  0  0  0
   -1.8927    5.4579   -5.2807 H   0  0  0  0  0  0  0  0  0  0  0  0
   -0.5567    3.7038   -4.2083 H   0  0  0  0  0  0  0  0  0  0  0  0
    0.7120    0.2220   -2.6238 H   0  0  0  0  0  0  0  0  0  0  0  0
    3.0839    0.8388   -2.7233 H   0  0  0  0  0  0  0  0  0  0  0  0
    4.5773    4.4323   -0.3131 H   0  0  0  0  0  0  0  0  0  0  0  0
    4.5799    2.6263   -0.2106 H   0  0  0  0  0  0  0  0  0  0  0  0
    6.0719    3.4896   -0.7210 H   0  0  0  0  0  0  0  0  0  0  0  0
    2.1134    4.8430   -1.4911 H   0  0  0  0  0  0  0  0  0  0  0  0
   -0.2499    4.2269   -1.3453 H   0  0  0  0  0  0  0  0  0  0  0  0
    0.0887    4.2101    3.6308 H   0  0  0  0  0  0  0  0  0  0  0  0
   -1.1347    5.3132    2.9514 H   0  0  0  0  0  0  0  0  0  0  0  0
    1.3226    5.8188    2.3475 H   0  0  0  0  0  0  0  0  0  0  0  0
    1.3456    4.2911    1.3892 H   0  0  0  0  0  0  0  0  0  0  0  0
    0.2540    5.6375    0.9112 H   0  0  0  0  0  0  0  0  0  0  0  0
   -2.4984    4.8337   -0.5912 H   0  0  0  0  0  0  0  0  0  0  0  0
   -2.0621    5.6511    0.9265 H   0  0  0  0  0  0  0  0  0  0  0  0
   -4.1576    4.8167    2.0077 H   0  0  0  0  0  0  0  0  0  0  0  0
   -4.6051    3.9678    0.4705 H   0  0  0  0  0  0  0  0  0  0  0  0
   -4.4994    5.7663    0.5107 H   0  0  0  0  0  0  0  0  0  0  0  0
   -0.1059    3.7702    5.8849 H   0  0  0  0  0  0  0  0  0  0  0  0
    0.5285    4.7315    8.0561 H   0  0  0  0  0  0  0  0  0  0  0  0
    0.5919    2.7913   11.2563 H   0  0  0  0  0  0  0  0  0  0  0  0
    0.5940    4.4405   10.5391 H   0  0  0  0  0  0  0  0  0  0  0  0
    2.0775    3.4115   10.4337 H   0  0  0  0  0  0  0  0  0  0  0  0
    0.4313    0.7935    9.8154 H   0  0  0  0  0  0  0  0  0  0  0  0
   -0.2367   -0.1550    7.6465 H   0  0  0  0  0  0  0  0  0  0  0  0
   -2.2787    3.2022    4.8357 H   0  0  0  0  0  0  0  0  0  0  0  0
   -4.6808    3.0403    4.3608 H   0  0  0  0  0  0  0  0  0  0  0  0
   -6.7695    1.6958    4.6289 H   0  0  0  0  0  0  0  0  0  0  0  0
   -6.3627    0.6807    3.1866 H   0  0  0  0  0  0  0  0  0  0  0  0
   -6.6799   -0.0910    4.7924 H   0  0  0  0  0  0  0  0  0  0  0  0
   -4.4904   -1.2372    4.8664 H   0  0  0  0  0  0  0  0  0  0  0  0
   -2.0841   -1.0743    5.3335 H   0  0  0  0  0  0  0  0  0  0  0  0
    4.9621   -1.3670    7.0592 H   0  0  0  0  0  0  0  0  0  0  0  0
    5.0178   -2.9350    8.9296 H   0  0  0  0  0  0  0  0  0  0  0  0
    4.4509   -5.1697    9.7938 H   0  0  0  0  0  0  0  0  0  0  0  0
    4.1050   -6.5230    8.6620 H   0  0  0  0  0  0  0  0  0  0  0  0
    5.8152   -6.0173    8.9617 H   0  0  0  0  0  0  0  0  0  0  0  0
    4.4434   -6.2228    6.2000 H   0  0  0  0  0  0  0  0  0  0  0  0
    4.3847   -4.6458    4.3166 H   0  0  0  0  0  0  0  0  0  0  0  0
    3.6954   -2.6203    1.9856 H   0  0  0  0  0  0  0  0  0  0  0  0
    5.0398   -3.2638    0.0393 H   0  0  0  0  0  0  0  0  0  0  0  0
    8.7502   -3.0026   -0.1215 H   0  0  0  0  0  0  0  0  0  0  0  0
    7.8916   -4.5947   -0.0545 H   0  0  0  0  0  0  0  0  0  0  0  0
    7.2464   -3.2463   -1.0771 H   0  0  0  0  0  0  0  0  0  0  0  0
    8.6348   -2.7745    2.3639 H   0  0  0  0  0  0  0  0  0  0  0  0
    7.2806   -2.1024    4.3045 H   0  0  0  0  0  0  0  0  0  0  0  0
    6.0285    1.1500    6.0736 H   0  0  0  0  0  0  0  0  0  0  0  0
   10.2721    0.7928    2.7466 H   0  0  0  0  0  0  0  0  0  0  0  0
   10.5862    0.2443    0.3432 H   0  0  0  0  0  0  0  0  0  0  0  0
    6.3376    0.2726   -0.2598 H   0  0  0  0  0  0  0  0  0  0  0  0
  1  2  2  3
  2  3  1  0
  3  4  2  0
  3  5  1  0
  5  6  2  0
  6  7  1  0
  7  8  2  0
  8  9  1  0
  8 10  1  0
 10 11  2  0
 11 12  1  0
 12 13  2  3
 13 14  1  0
 14 15  3  0
 13 16  1  0
 16 17  3  0
  1 18  1  0
 18 19  2  0
 19 20  1  0
 20 21  1  0
 21 22  2  0
 22 23  1  0
 23 24  2  0
 24 25  1  0
 25 26  1  0
 24 27  1  0
 27 28  2  0
 20 29  1  0
 29 30  2  0
 30 31  1  0
 31 32  2  0
 32 33  1  0
 33 34  1  0
 32 35  1  0
 35 36  2  0
 19 37  1  0
 37 38  1  0
 38 39  1  0
 39 40  2  0
 40 41  1  0
 41 42  1  0
 42 43  2  0
 43 44  1  0
 44 45  2  0
 45 46  1  0
 46 47  1  0
 45 48  1  0
 48 49  2  0
 41 50  1  0
 50 51  2  0
 51 52  1  0
 52 53  2  0
 53 54  1  0
 54 55  1  0
 53 56  1  0
 56 57  2  0
 40 58  1  0
 58 59  1  0
 39 60  1  0
 60 61  2  0
 61 62  1  0
 61 63  1  0
 63 64  1  0
 63 65  2  0
 65 66  1  0
 66 67  2  0
 67 68  1  0
 68 69  1  0
 69 70  1  0
 68 71  2  0
 71 72  1  0
 72 73  2  0
 71 74  1  0
 74 75  1  0
 65 76  1  0
 76 77  2  0
 77 78  1  0
 78 79  1  0
 79 80  2  0
 80 81  1  0
 81 82  2  0
 82 83  1  0
 82 84  1  0
 84 85  2  0
 78 86  1  0
 86 87  2  0
 87 88  1  0
 88 89  2  0
 89 90  1  0
 89 91  1  0
 91 92  2  0
 77 93  1  0
 93 94  1  0
 94 95  1  0
 95 96  2  0
 96 97  1  0
 97 98  1  0
 98 99  2  0
 99100  1  0
100101  2  0
101102  1  0
101103  1  0
103104  2  0
 97105  1  0
105106  2  0
106107  1  0
107108  2  0
108109  1  0
108110  1  0
110111  2  0
 96112  1  0
112113  1  0
 95114  1  0
114115  2  3
115116  1  0
116117  2  0
116118  1  0
118119  2  0
119120  1  0
120121  2  0
121122  1  0
121123  1  0
123124  2  0
124125  1  0
125126  2  3
126127  1  0
127128  3  0
126129  1  0
129130  3  0
 12  2  1  0
 59 18  1  0
 73 60  1  0
113 76  1  0
125115  1  0
 11  5  1  0
 28 21  1  0
 36 29  1  0
 58 37  2  0
 73 66  1  0
 85 79  1  0
 92 86  1  0
112 93  2  0
124118  1  0
 49 42  1  0
 57 50  1  0
104 98  1  0
111105  1  0
  1131  1  0
  6132  1  0
  7133  1  0
 10134  1  0
 22135  1  0
 23136  1  0
 26137  1  0
 26138  1  0
 26139  1  0
 27140  1  0
 28141  1  0
 30142  1  0
 31143  1  0
 34144  1  0
 34145  1  0
 34146  1  0
 35147  1  0
 36148  1  0
 43149  1  0
 44150  1  0
 47151  1  0
 47152  1  0
 47153  1  0
 48154  1  0
 49155  1  0
 51156  1  0
 52157  1  0
 55158  1  0
 55159  1  0
 55160  1  0
 56161  1  0
 57162  1  0
 69163  1  0
 69164  1  0
 70165  1  0
 70166  1  0
 70167  1  0
 74168  1  0
 74169  1  0
 75170  1  0
 75171  1  0
 75172  1  0
 80173  1  0
 81174  1  0
 83175  1  0
 83176  1  0
 83177  1  0
 84178  1  0
 85179  1  0
 87180  1  0
 88181  1  0
 90182  1  0
 90183  1  0
 90184  1  0
 91185  1  0
 92186  1  0
 99187  1  0
100188  1  0
102189  1  0
102190  1  0
102191  1  0
103192  1  0
104193  1  0
106194  1  0
107195  1  0
109196  1  0
109197  1  0
109198  1  0
110199  1  0
111200  1  0
114201  1  0
119202  1  0
120203  1  0
123204  1  0
M  END

