
     RDKit          3D

193210  0  0  0  0  0  0  0  0999 V2000
    5.3945   -5.9840   -1.0278 C   0  0  0  0  0  0  0  0  0  0  0  0
    6.6091   -6.5553   -0.9222 C   0  0  0  0  0  0  0  0  0  0  0  0
    7.8716   -5.8313   -0.7369 C   0  0  0  0  0  0  0  0  0  0  0  0
    7.9986   -4.6000   -0.5010 O   0  0  0  0  0  0  0  0  0  0  0  0
    8.9611   -6.7370   -1.0253 C   0  0  0  0  0  0  0  0  0  0  0  0
   10.3229   -6.4501   -1.0752 C   0  0  0  0  0  0  0  0  0  0  0  0
   11.2056   -7.4609   -1.4752 C   0  0  0  0  0  0  0  0  0  0  0  0
   10.7095   -8.7257   -1.8390 C   0  0  0  0  0  0  0  0  0  0  0  0
   11.5707   -9.6860   -2.2482 F   0  0  0  0  0  0  0  0  0  0  0  0
    9.3322   -8.9930   -1.7926 C   0  0  0  0  0  0  0  0  0  0  0  0
    8.4566   -7.9856   -1.3554 C   0  0  0  0  0  0  0  0  0  0  0  0
    6.9681   -7.9753   -1.2502 C   0  0  0  0  0  0  0  0  0  0  0  0
    6.1398   -9.0570   -1.2379 C   0  0  0  0  0  0  0  0  0  0  0  0
    6.6222  -10.4068   -1.3798 C   0  0  0  0  0  0  0  0  0  0  0  0
    6.9922  -11.4969   -1.4956 N   0  0  0  0  0  0  0  0  0  0  0  0
    4.7181   -8.9550   -1.0288 C   0  0  0  0  0  0  0  0  0  0  0  0
    3.5761   -8.8798   -0.8791 N   0  0  0  0  0  0  0  0  0  0  0  0
    5.0433   -4.6166   -0.5875 C   0  0  0  0  0  0  0  0  0  0  0  0
    4.2445   -3.8284   -1.4287 C   0  0  0  0  0  0  0  0  0  0  0  0
    3.6561   -2.6415   -0.9753 C   0  0  0  0  0  0  0  0  0  0  0  0
    2.8245   -1.9837   -1.8106 F   0  0  0  0  0  0  0  0  0  0  0  0
    3.8227   -2.2185    0.3595 C   0  0  0  0  0  0  0  0  0  0  0  0
    4.6607   -2.9706    1.1975 C   0  0  0  0  0  0  0  0  0  0  0  0
    5.2659   -4.1735    0.7259 C   0  0  0  0  0  0  0  0  0  0  0  0
    6.0039   -4.8668    1.6318 N   0  0  0  0  0  0  0  0  0  0  0  0
    5.8662   -3.8912    2.9596 S   0  0  0  0  0  0  0  0  0  0  0  0
    4.9045   -2.6315    2.4908 N   0  0  0  0  0  0  0  0  0  0  0  0
    2.9489   -1.1604    0.9145 C   0  0  0  0  0  0  0  0  0  0  0  0
    2.6779    0.0910    0.3387 C   0  0  0  0  0  0  0  0  0  0  0  0
    3.5041    0.7231   -0.6470 N   0  0  0  0  0  0  0  0  0  0  0  0
    3.0188    1.0556   -1.9734 C   0  0  0  0  0  0  0  0  0  0  0  0
    1.7322    0.6530   -2.3991 C   0  0  0  0  0  0  0  0  0  0  0  0
    1.3040    0.8997   -3.7076 C   0  0  0  0  0  0  0  0  0  0  0  0
    2.1450    1.5483   -4.6127 C   0  0  0  0  0  0  0  0  0  0  0  0
    1.6279    1.7865   -6.3142 S   0  0  0  0  0  0  0  0  0  0  0  0
    2.3520    0.2017   -6.8694 C   0  0  0  0  0  0  0  0  0  0  0  0
    3.4030    1.9914   -4.1966 C   0  0  0  0  0  0  0  0  0  0  0  0
    3.8368    1.7528   -2.8859 C   0  0  0  0  0  0  0  0  0  0  0  0
    4.8396    1.0269   -0.2204 C   0  0  0  0  0  0  0  0  0  0  0  0
    5.9290    0.2880   -0.7082 C   0  0  0  0  0  0  0  0  0  0  0  0
    7.2068    0.4841   -0.1746 C   0  0  0  0  0  0  0  0  0  0  0  0
    7.4018    1.4232    0.8473 C   0  0  0  0  0  0  0  0  0  0  0  0
    9.0389    1.6711    1.5467 S   0  0  0  0  0  0  0  0  0  0  0  0
    8.8087    0.4404    2.8660 C   0  0  0  0  0  0  0  0  0  0  0  0
    6.3219    2.1693    1.3291 C   0  0  0  0  0  0  0  0  0  0  0  0
    5.0445    1.9653    0.8036 C   0  0  0  0  0  0  0  0  0  0  0  0
    1.5790    0.6993    0.9468 C   0  0  0  0  0  0  0  0  0  0  0  0
    0.6478    2.0487    0.6197 S   0  0  0  0  0  0  0  0  0  0  0  0
   -0.5715    1.6878    1.7623 C   0  0  0  0  0  0  0  0  0  0  0  0
   -0.1905    0.5095    2.4267 C   0  0  0  0  0  0  0  0  0  0  0  0
   -0.7334    0.1040    3.6934 N   0  0  0  0  0  0  0  0  0  0  0  0
   -1.3605   -1.1799    3.8220 C   0  0  0  0  0  0  0  0  0  0  0  0
   -2.6289   -1.4005    3.2699 C   0  0  0  0  0  0  0  0  0  0  0  0
   -3.2294   -2.6593    3.3675 C   0  0  0  0  0  0  0  0  0  0  0  0
   -2.5627   -3.7028    4.0202 C   0  0  0  0  0  0  0  0  0  0  0  0
   -3.3228   -5.3255    4.1287 S   0  0  0  0  0  0  0  0  0  0  0  0
   -4.1013   -4.9762    5.7326 C   0  0  0  0  0  0  0  0  0  0  0  0
   -1.2961   -3.4872    4.5764 C   0  0  0  0  0  0  0  0  0  0  0  0
   -0.7025   -2.2251    4.4936 C   0  0  0  0  0  0  0  0  0  0  0  0
   -0.2980    0.7913    4.8785 C   0  0  0  0  0  0  0  0  0  0  0  0
   -1.2249    1.1344    5.8683 C   0  0  0  0  0  0  0  0  0  0  0  0
   -0.8177    1.8865    6.9784 C   0  0  0  0  0  0  0  0  0  0  0  0
    0.5170    2.2986    7.0968 C   0  0  0  0  0  0  0  0  0  0  0  0
    1.0363    3.3210    8.4785 S   0  0  0  0  0  0  0  0  0  0  0  0
    0.8316    4.8726    7.5513 C   0  0  0  0  0  0  0  0  0  0  0  0
    1.4603    1.8872    6.1519 C   0  0  0  0  0  0  0  0  0  0  0  0
    1.0561    1.1494    5.0455 C   0  0  0  0  0  0  0  0  0  0  0  0
    0.9964   -0.0168    1.9248 C   0  0  0  0  0  0  0  0  0  0  0  0
    1.8189   -1.4566    2.1535 S   0  0  0  0  0  0  0  0  0  0  0  0
   -1.9547    1.8422    1.3076 C   0  0  0  0  0  0  0  0  0  0  0  0
   -2.6006    3.0581    1.0253 C   0  0  0  0  0  0  0  0  0  0  0  0
   -2.4244    4.2469    1.8004 N   0  0  0  0  0  0  0  0  0  0  0  0
   -3.0828    4.2494    3.0797 C   0  0  0  0  0  0  0  0  0  0  0  0
   -4.4810    4.3114    3.1546 C   0  0  0  0  0  0  0  0  0  0  0  0
   -5.1271    4.2561    4.3931 C   0  0  0  0  0  0  0  0  0  0  0  0
   -4.3760    4.1502    5.5671 C   0  0  0  0  0  0  0  0  0  0  0  0
   -5.2102    3.9713    7.1454 S   0  0  0  0  0  0  0  0  0  0  0  0
   -5.3144    2.1596    7.0088 C   0  0  0  0  0  0  0  0  0  0  0  0
   -2.9808    4.1435    5.5030 C   0  0  0  0  0  0  0  0  0  0  0  0
   -2.3301    4.1849    4.2630 C   0  0  0  0  0  0  0  0  0  0  0  0
   -1.8530    5.4578    1.2477 C   0  0  0  0  0  0  0  0  0  0  0  0
   -2.0007    6.6922    1.9129 C   0  0  0  0  0  0  0  0  0  0  0  0
   -1.4618    7.8621    1.3739 C   0  0  0  0  0  0  0  0  0  0  0  0
   -0.7555    7.8219    0.1682 C   0  0  0  0  0  0  0  0  0  0  0  0
   -0.0778    9.3330   -0.5162 S   0  0  0  0  0  0  0  0  0  0  0  0
    1.4061    9.2817    0.5318 C   0  0  0  0  0  0  0  0  0  0  0  0
   -0.5970    6.6045   -0.5041 C   0  0  0  0  0  0  0  0  0  0  0  0
   -1.1363    5.4320    0.0290 C   0  0  0  0  0  0  0  0  0  0  0  0
   -3.6193    2.8874    0.0842 C   0  0  0  0  0  0  0  0  0  0  0  0
   -4.5438    3.9264   -0.8611 S   0  0  0  0  0  0  0  0  0  0  0  0
   -5.1202    2.6880   -1.8930 C   0  0  0  0  0  0  0  0  0  0  0  0
   -4.6215    1.4549   -1.4487 C   0  0  0  0  0  0  0  0  0  0  0  0
   -4.8962    0.1868   -2.0612 N   0  0  0  0  0  0  0  0  0  0  0  0
   -4.1332   -0.2986   -3.1993 C   0  0  0  0  0  0  0  0  0  0  0  0
   -3.1500    0.5127   -3.8013 C   0  0  0  0  0  0  0  0  0  0  0  0
   -2.4725    0.0783   -4.9461 C   0  0  0  0  0  0  0  0  0  0  0  0
   -2.7084   -1.1954   -5.4595 C   0  0  0  0  0  0  0  0  0  0  0  0
   -1.8093   -1.7556   -6.9146 S   0  0  0  0  0  0  0  0  0  0  0  0
   -0.4441   -2.4748   -5.9448 C   0  0  0  0  0  0  0  0  0  0  0  0
   -3.6311   -2.0418   -4.8347 C   0  0  0  0  0  0  0  0  0  0  0  0
   -4.3410   -1.5917   -3.7170 C   0  0  0  0  0  0  0  0  0  0  0  0
   -5.9451   -0.5966   -1.4780 C   0  0  0  0  0  0  0  0  0  0  0  0
   -5.7477   -1.2371   -0.2460 C   0  0  0  0  0  0  0  0  0  0  0  0
   -6.7788   -1.9831    0.3324 C   0  0  0  0  0  0  0  0  0  0  0  0
   -8.0098   -2.1014   -0.3151 C   0  0  0  0  0  0  0  0  0  0  0  0
   -9.3243   -3.0496    0.4443 S   0  0  0  0  0  0  0  0  0  0  0  0
   -8.8879   -4.5879   -0.4213 C   0  0  0  0  0  0  0  0  0  0  0  0
   -8.2141   -1.4688   -1.5527 C   0  0  0  0  0  0  0  0  0  0  0  0
   -7.1809   -0.7173   -2.1311 C   0  0  0  0  0  0  0  0  0  0  0  0
   -3.7675    1.6192   -0.3727 C   0  0  0  0  0  0  0  0  0  0  0  0
   -2.6338    0.6195    0.3276 S   0  0  0  0  0  0  0  0  0  0  0  0
   -5.7926    2.8563   -3.1876 C   0  0  0  0  0  0  0  0  0  0  0  0
   -5.1630    3.3132   -4.2907 C   0  0  0  0  0  0  0  0  0  0  0  0
   -3.7762    3.8079   -4.3347 C   0  0  0  0  0  0  0  0  0  0  0  0
   -3.0647    4.1683   -3.3606 O   0  0  0  0  0  0  0  0  0  0  0  0
   -3.3159    3.7785   -5.6989 C   0  0  0  0  0  0  0  0  0  0  0  0
   -2.0351    4.0723   -6.1735 C   0  0  0  0  0  0  0  0  0  0  0  0
   -1.7882    3.9611   -7.5467 C   0  0  0  0  0  0  0  0  0  0  0  0
   -2.8084    3.5356   -8.4133 C   0  0  0  0  0  0  0  0  0  0  0  0
   -2.5611    3.4169   -9.7399 F   0  0  0  0  0  0  0  0  0  0  0  0
   -4.0876    3.2282   -7.9131 C   0  0  0  0  0  0  0  0  0  0  0  0
   -4.3369    3.3627   -6.5354 C   0  0  0  0  0  0  0  0  0  0  0  0
   -5.5743    3.1263   -5.7226 C   0  0  0  0  0  0  0  0  0  0  0  0
   -6.8217    2.8649   -6.2006 C   0  0  0  0  0  0  0  0  0  0  0  0
   -7.1032    2.7032   -7.6000 C   0  0  0  0  0  0  0  0  0  0  0  0
   -7.3507    2.5612   -8.7247 N   0  0  0  0  0  0  0  0  0  0  0  0
   -7.9820    2.7896   -5.3511 C   0  0  0  0  0  0  0  0  0  0  0  0
   -8.9271    2.7366   -4.6825 N   0  0  0  0  0  0  0  0  0  0  0  0
    4.5907   -6.5261   -1.4962 H   0  0  0  0  0  0  0  0  0  0  0  0
   10.6898   -5.4644   -0.8273 H   0  0  0  0  0  0  0  0  0  0  0  0
   12.2659   -7.2591   -1.5171 H   0  0  0  0  0  0  0  0  0  0  0  0
    8.9900   -9.9529   -2.1272 H   0  0  0  0  0  0  0  0  0  0  0  0
    4.0354   -4.1572   -2.4403 H   0  0  0  0  0  0  0  0  0  0  0  0
    1.0646    0.1186   -1.7414 H   0  0  0  0  0  0  0  0  0  0  0  0
    0.3199    0.5694   -4.0160 H   0  0  0  0  0  0  0  0  0  0  0  0
    1.7314   -0.6387   -6.5093 H   0  0  0  0  0  0  0  0  0  0  0  0
    2.3826    0.1896   -7.9759 H   0  0  0  0  0  0  0  0  0  0  0  0
    3.3831    0.0851   -6.4811 H   0  0  0  0  0  0  0  0  0  0  0  0
    4.0548    2.5040   -4.8916 H   0  0  0  0  0  0  0  0  0  0  0  0
    4.8250    2.0905   -2.6065 H   0  0  0  0  0  0  0  0  0  0  0  0
    5.7773   -0.4625   -1.4716 H   0  0  0  0  0  0  0  0  0  0  0  0
    8.0400   -0.1044   -0.5407 H   0  0  0  0  0  0  0  0  0  0  0  0
    9.6829    0.4786    3.5484 H   0  0  0  0  0  0  0  0  0  0  0  0
    8.7320   -0.5761    2.4289 H   0  0  0  0  0  0  0  0  0  0  0  0
    7.8959    0.6685    3.4554 H   0  0  0  0  0  0  0  0  0  0  0  0
    6.4654    2.8893    2.1235 H   0  0  0  0  0  0  0  0  0  0  0  0
    4.2034    2.5153    1.2048 H   0  0  0  0  0  0  0  0  0  0  0  0
   -3.1713   -0.5874    2.8053 H   0  0  0  0  0  0  0  0  0  0  0  0
   -4.2089   -2.8195    2.9419 H   0  0  0  0  0  0  0  0  0  0  0  0
   -4.6937   -5.8579    6.0457 H   0  0  0  0  0  0  0  0  0  0  0  0
   -4.7775   -4.0949    5.6395 H   0  0  0  0  0  0  0  0  0  0  0  0
   -3.3246   -4.7675    6.5000 H   0  0  0  0  0  0  0  0  0  0  0  0
   -0.7823   -4.2918    5.0856 H   0  0  0  0  0  0  0  0  0  0  0  0
    0.2785   -2.0560    4.9202 H   0  0  0  0  0  0  0  0  0  0  0  0
   -2.2597    0.8263    5.7892 H   0  0  0  0  0  0  0  0  0  0  0  0
   -1.5455    2.1640    7.7358 H   0  0  0  0  0  0  0  0  0  0  0  0
    1.4806    4.8731    6.6489 H   0  0  0  0  0  0  0  0  0  0  0  0
   -0.2276    4.9998    7.2440 H   0  0  0  0  0  0  0  0  0  0  0  0
    1.1285    5.7209    8.2026 H   0  0  0  0  0  0  0  0  0  0  0  0
    2.5057    2.1637    6.2702 H   0  0  0  0  0  0  0  0  0  0  0  0
    1.7947    0.8551    4.3155 H   0  0  0  0  0  0  0  0  0  0  0  0
   -5.0694    4.3873    2.2471 H   0  0  0  0  0  0  0  0  0  0  0  0
   -6.2069    4.2914    4.4354 H   0  0  0  0  0  0  0  0  0  0  0  0
   -4.3030    1.7300    6.8851 H   0  0  0  0  0  0  0  0  0  0  0  0
   -5.7695    1.7483    7.9292 H   0  0  0  0  0  0  0  0  0  0  0  0
   -5.9450    1.8764    6.1392 H   0  0  0  0  0  0  0  0  0  0  0  0
   -2.3981    4.0984    6.4104 H   0  0  0  0  0  0  0  0  0  0  0  0
   -1.2476    4.1347    4.2161 H   0  0  0  0  0  0  0  0  0  0  0  0
   -2.5400    6.7659    2.8472 H   0  0  0  0  0  0  0  0  0  0  0  0
   -1.5835    8.7978    1.9043 H   0  0  0  0  0  0  0  0  0  0  0  0
    1.1196    9.1873    1.6008 H   0  0  0  0  0  0  0  0  0  0  0  0
    1.9844   10.2171    0.3911 H   0  0  0  0  0  0  0  0  0  0  0  0
    2.0423    8.4170    0.2426 H   0  0  0  0  0  0  0  0  0  0  0  0
   -0.0514    6.5682   -1.4357 H   0  0  0  0  0  0  0  0  0  0  0  0
   -1.0005    4.5027   -0.5076 H   0  0  0  0  0  0  0  0  0  0  0  0
   -2.8953    1.4764   -3.3942 H   0  0  0  0  0  0  0  0  0  0  0  0
   -1.7415    0.7291   -5.4151 H   0  0  0  0  0  0  0  0  0  0  0  0
   -0.7880   -3.4017   -5.4410 H   0  0  0  0  0  0  0  0  0  0  0  0
   -0.0932   -1.7575   -5.1789 H   0  0  0  0  0  0  0  0  0  0  0  0
    0.3944   -2.7110   -6.6296 H   0  0  0  0  0  0  0  0  0  0  0  0
   -3.7964   -3.0381   -5.2062 H   0  0  0  0  0  0  0  0  0  0  0  0
   -5.0500   -2.2669   -3.2582 H   0  0  0  0  0  0  0  0  0  0  0  0
   -4.7993   -1.1718    0.2630 H   0  0  0  0  0  0  0  0  0  0  0  0
   -6.6103   -2.4730    1.2832 H   0  0  0  0  0  0  0  0  0  0  0  0
   -7.8115   -4.8243   -0.2838 H   0  0  0  0  0  0  0  0  0  0  0  0
   -9.1095   -4.4755   -1.5045 H   0  0  0  0  0  0  0  0  0  0  0  0
   -9.4916   -5.4226   -0.0111 H   0  0  0  0  0  0  0  0  0  0  0  0
   -9.1632   -1.5584   -2.0587 H   0  0  0  0  0  0  0  0  0  0  0  0
   -7.3451   -0.2339   -3.0848 H   0  0  0  0  0  0  0  0  0  0  0  0
   -6.7197    2.3170   -3.2781 H   0  0  0  0  0  0  0  0  0  0  0  0
   -1.2477    4.3842   -5.4982 H   0  0  0  0  0  0  0  0  0  0  0  0
   -0.8045    4.1880   -7.9370 H   0  0  0  0  0  0  0  0  0  0  0  0
   -4.8288    2.8824   -8.6102 H   0  0  0  0  0  0  0  0  0  0  0  0
  1  2  2  3
  2  3  1  0
  3  4  2  0
  3  5  1  0
  5  6  2  0
  6  7  1  0
  7  8  2  0
  8  9  1  0
  8 10  1  0
 10 11  2  0
 11 12  1  0
 12 13  2  3
 13 14  1  0
 14 15  3  0
 13 16  1  0
 16 17  3  0
  1 18  1  0
 18 19  2  0
 19 20  1  0
 20 21  1  0
 20 22  2  0
 22 23  1  0
 23 24  1  0
 24 25  2  0
 25 26  1  0
 26 27  1  0
 22 28  1  0
 28 29  2  0
 29 30  1  0
 30 31  1  0
 31 32  2  0
 32 33  1  0
 33 34  2  0
 34 35  1  0
 35 36  1  0
 34 37  1  0
 37 38  2  0
 30 39  1  0
 39 40  2  0
 40 41  1  0
 41 42  2  0
 42 43  1  0
 43 44  1  0
 42 45  1  0
 45 46  2  0
 29 47  1  0
 47 48  1  0
 48 49  1  0
 49 50  2  0
 50 51  1  0
 51 52  1  0
 52 53  2  0
 53 54  1  0
 54 55  2  0
 55 56  1  0
 56 57  1  0
 55 58  1  0
 58 59  2  0
 51 60  1  0
 60 61  2  0
 61 62  1  0
 62 63  2  0
 63 64  1  0
 64 65  1  0
 63 66  1  0
 66 67  2  0
 50 68  1  0
 68 69  1  0
 49 70  1  0
 70 71  2  0
 71 72  1  0
 72 73  1  0
 73 74  2  0
 74 75  1  0
 75 76  2  0
 76 77  1  0
 77 78  1  0
 76 79  1  0
 79 80  2  0
 72 81  1  0
 81 82  2  0
 82 83  1  0
 83 84  2  0
 84 85  1  0
 85 86  1  0
 84 87  1  0
 87 88  2  0
 71 89  1  0
 89 90  1  0
 90 91  1  0
 91 92  2  0
 92 93  1  0
 93 94  1  0
 94 95  2  0
 95 96  1  0
 96 97  2  0
 97 98  1  0
 98 99  1  0
 97100  1  0
100101  2  0
 93102  1  0
102103  2  0
103104  1  0
104105  2  0
105106  1  0
106107  1  0
105108  1  0
108109  2  0
 92110  1  0
110111  1  0
 91112  1  0
112113  2  3
113114  1  0
114115  2  0
114116  1  0
116117  2  0
117118  1  0
118119  2  0
119120  1  0
119121  1  0
121122  2  0
122123  1  0
123124  2  3
124125  1  0
125126  3  0
124127  1  0
127128  3  0
 12  2  1  0
 24 18  1  0
 69 28  1  0
111 70  1  0
123113  1  0
 11  5  1  0
 27 23  2  0
 38 31  1  0
 46 39  1  0
 68 47  2  0
 80 73  1  0
 88 81  1  0
110 89  2  0
122116  1  0
 59 52  1  0
 67 60  1  0
101 94  1  0
109102  1  0
  1129  1  0
  6130  1  0
  7131  1  0
 10132  1  0
 19133  1  0
 32134  1  0
 33135  1  0
 36136  1  0
 36137  1  0
 36138  1  0
 37139  1  0
 38140  1  0
 40141  1  0
 41142  1  0
 44143  1  0
 44144  1  0
 44145  1  0
 45146  1  0
 46147  1  0
 53148  1  0
 54149  1  0
 57150  1  0
 57151  1  0
 57152  1  0
 58153  1  0
 59154  1  0
 61155  1  0
 62156  1  0
 65157  1  0
 65158  1  0
 65159  1  0
 66160  1  0
 67161  1  0
 74162  1  0
 75163  1  0
 78164  1  0
 78165  1  0
 78166  1  0
 79167  1  0
 80168  1  0
 82169  1  0
 83170  1  0
 86171  1  0
 86172  1  0
 86173  1  0
 87174  1  0
 88175  1  0
 95176  1  0
 96177  1  0
 99178  1  0
 99179  1  0
 99180  1  0
100181  1  0
101182  1  0
103183  1  0
104184  1  0
107185  1  0
107186  1  0
107187  1  0
108188  1  0
109189  1  0
112190  1  0
117191  1  0
118192  1  0
121193  1  0
M  END

