
     RDKit          3D

244265  0  0  0  0  0  0  0  0999 V2000
    2.7586    2.8348    8.4449 C   0  0  0  0  0  0  0  0  0  0  0  0
    2.7364    1.8142    9.3249 C   0  0  0  0  0  0  0  0  0  0  0  0
    3.0528    1.9637   10.7456 C   0  0  0  0  0  0  0  0  0  0  0  0
    3.1902    3.0501   11.3702 O   0  0  0  0  0  0  0  0  0  0  0  0
    3.1981    0.6398   11.3288 C   0  0  0  0  0  0  0  0  0  0  0  0
    3.4097    0.3085   12.6690 C   0  0  0  0  0  0  0  0  0  0  0  0
    3.3852   -1.0412   13.0377 C   0  0  0  0  0  0  0  0  0  0  0  0
    3.1305   -2.0288   12.0684 C   0  0  0  0  0  0  0  0  0  0  0  0
    3.0569   -3.3345   12.4488 F   0  0  0  0  0  0  0  0  0  0  0  0
    2.9414   -1.6813   10.7254 C   0  0  0  0  0  0  0  0  0  0  0  0
    2.9907   -0.3222   10.3528 C   0  0  0  0  0  0  0  0  0  0  0  0
    2.6229    0.3389    9.0657 C   0  0  0  0  0  0  0  0  0  0  0  0
    1.9221   -0.2453    8.0685 C   0  0  0  0  0  0  0  0  0  0  0  0
    2.0951   -1.6307    7.7231 C   0  0  0  0  0  0  0  0  0  0  0  0
    2.2326   -2.7452    7.4417 N   0  0  0  0  0  0  0  0  0  0  0  0
    0.7265    0.3786    7.5724 C   0  0  0  0  0  0  0  0  0  0  0  0
   -0.2959    0.8287    7.2452 N   0  0  0  0  0  0  0  0  0  0  0  0
    2.7477    2.6390    6.9877 C   0  0  0  0  0  0  0  0  0  0  0  0
    1.9008    3.2796    6.0585 C   0  0  0  0  0  0  0  0  0  0  0  0
    1.3809    4.6245    6.1941 N   0  0  0  0  0  0  0  0  0  0  0  0
    0.7689    5.0836    7.4121 C   0  0  0  0  0  0  0  0  0  0  0  0
    1.1398    6.3283    7.9607 C   0  0  0  0  0  0  0  0  0  0  0  0
    0.5242    6.8058    9.1140 C   0  0  0  0  0  0  0  0  0  0  0  0
   -0.4557    6.0422    9.7601 C   0  0  0  0  0  0  0  0  0  0  0  0
   -1.1352    6.5568   11.0002 C   0  0  0  0  0  0  0  0  0  0  0  0
   -0.8473    4.8128    9.2084 C   0  0  0  0  0  0  0  0  0  0  0  0
   -0.2345    4.3359    8.0418 C   0  0  0  0  0  0  0  0  0  0  0  0
    1.6004    5.5567    5.1172 C   0  0  0  0  0  0  0  0  0  0  0  0
    0.5472    6.3538    4.6330 C   0  0  0  0  0  0  0  0  0  0  0  0
    0.7179    7.1349    3.4827 C   0  0  0  0  0  0  0  0  0  0  0  0
    1.9517    7.1469    2.8167 C   0  0  0  0  0  0  0  0  0  0  0  0
    2.1136    7.8839    1.5178 C   0  0  0  0  0  0  0  0  0  0  0  0
    3.0132    6.3808    3.3169 C   0  0  0  0  0  0  0  0  0  0  0  0
    2.8440    5.6034    4.4636 C   0  0  0  0  0  0  0  0  0  0  0  0
    1.9943    2.6316    4.8150 C   0  0  0  0  0  0  0  0  0  0  0  0
    1.2150    2.7900    3.3583 S   0  0  0  0  0  0  0  0  0  0  0  0
    2.1477    1.6237    2.5220 C   0  0  0  0  0  0  0  0  0  0  0  0
    3.1578    1.1622    3.4092 C   0  0  0  0  0  0  0  0  0  0  0  0
    4.4571    0.6959    2.9960 N   0  0  0  0  0  0  0  0  0  0  0  0
    5.3067    1.7195    2.4273 C   0  0  0  0  0  0  0  0  0  0  0  0
    6.4155    2.2078    3.1394 C   0  0  0  0  0  0  0  0  0  0  0  0
    7.2444    3.1890    2.5761 C   0  0  0  0  0  0  0  0  0  0  0  0
    6.9634    3.7147    1.3023 C   0  0  0  0  0  0  0  0  0  0  0  0
    7.8357    4.7807    0.7072 C   0  0  0  0  0  0  0  0  0  0  0  0
    5.8200    3.2742    0.6155 C   0  0  0  0  0  0  0  0  0  0  0  0
    4.9994    2.2969    1.1785 C   0  0  0  0  0  0  0  0  0  0  0  0
    5.0388   -0.5058    3.5778 C   0  0  0  0  0  0  0  0  0  0  0  0
    4.3000   -1.3241    4.4662 C   0  0  0  0  0  0  0  0  0  0  0  0
    4.8310   -2.5294    4.9353 C   0  0  0  0  0  0  0  0  0  0  0  0
    6.1215   -2.9345    4.5596 C   0  0  0  0  0  0  0  0  0  0  0  0
    6.6603   -4.2446    5.0526 C   0  0  0  0  0  0  0  0  0  0  0  0
    6.8760   -2.1121    3.7183 C   0  0  0  0  0  0  0  0  0  0  0  0
    6.3419   -0.9151    3.2365 C   0  0  0  0  0  0  0  0  0  0  0  0
    2.9728    1.7078    4.6867 C   0  0  0  0  0  0  0  0  0  0  0  0
    3.7469    1.5237    6.1610 S   0  0  0  0  0  0  0  0  0  0  0  0
    1.6675    1.0807    1.2158 C   0  0  0  0  0  0  0  0  0  0  0  0
    2.1161    0.0012    0.4086 C   0  0  0  0  0  0  0  0  0  0  0  0
    3.2675   -0.8346    0.6185 N   0  0  0  0  0  0  0  0  0  0  0  0
    4.4465   -0.6368   -0.2231 C   0  0  0  0  0  0  0  0  0  0  0  0
    4.4107    0.2145   -1.3572 C   0  0  0  0  0  0  0  0  0  0  0  0
    5.5677    0.4588   -2.0986 C   0  0  0  0  0  0  0  0  0  0  0  0
    6.7775   -0.1487   -1.7442 C   0  0  0  0  0  0  0  0  0  0  0  0
    8.2680    0.2367   -2.6690 S   0  0  0  0  0  0  0  0  0  0  0  0
    8.0507   -1.1178   -3.8641 C   0  0  0  0  0  0  0  0  0  0  0  0
    6.8188   -1.0059   -0.6478 C   0  0  0  0  0  0  0  0  0  0  0  0
    5.6651   -1.2641    0.0952 C   0  0  0  0  0  0  0  0  0  0  0  0
    2.9939   -2.1130    1.2403 C   0  0  0  0  0  0  0  0  0  0  0  0
    3.4106   -3.3178    0.6417 C   0  0  0  0  0  0  0  0  0  0  0  0
    3.1048   -4.5474    1.2326 C   0  0  0  0  0  0  0  0  0  0  0  0
    2.3572   -4.5959    2.4114 C   0  0  0  0  0  0  0  0  0  0  0  0
    1.9932   -6.1774    3.1813 S   0  0  0  0  0  0  0  0  0  0  0  0
    0.4889   -6.4454    2.1884 C   0  0  0  0  0  0  0  0  0  0  0  0
    1.8716   -3.4115    2.9755 C   0  0  0  0  0  0  0  0  0  0  0  0
    2.1741   -2.1820    2.3872 C   0  0  0  0  0  0  0  0  0  0  0  0
    1.1837   -0.3186   -0.5865 C   0  0  0  0  0  0  0  0  0  0  0  0
    1.0402   -1.5935   -1.6669 S   0  0  0  0  0  0  0  0  0  0  0  0
   -0.5487   -1.1862   -2.1286 C   0  0  0  0  0  0  0  0  0  0  0  0
   -0.9538   -0.0247   -1.4426 C   0  0  0  0  0  0  0  0  0  0  0  0
   -2.2977    0.4801   -1.3927 N   0  0  0  0  0  0  0  0  0  0  0  0
   -2.5641    1.8705   -1.7154 C   0  0  0  0  0  0  0  0  0  0  0  0
   -1.5527    2.6974   -2.2663 C   0  0  0  0  0  0  0  0  0  0  0  0
   -1.7781    4.0552   -2.4936 C   0  0  0  0  0  0  0  0  0  0  0  0
   -3.0272    4.6173   -2.2214 C   0  0  0  0  0  0  0  0  0  0  0  0
   -3.2969    6.3634   -2.4766 S   0  0  0  0  0  0  0  0  0  0  0  0
   -2.9838    6.7934   -0.7298 C   0  0  0  0  0  0  0  0  0  0  0  0
   -4.0640    3.8071   -1.7276 C   0  0  0  0  0  0  0  0  0  0  0  0
   -3.8277    2.4534   -1.4521 C   0  0  0  0  0  0  0  0  0  0  0  0
   -3.2435   -0.2970   -0.6318 C   0  0  0  0  0  0  0  0  0  0  0  0
   -4.4116   -0.7817   -1.2267 C   0  0  0  0  0  0  0  0  0  0  0  0
   -5.2574   -1.6324   -0.5128 C   0  0  0  0  0  0  0  0  0  0  0  0
   -4.9484   -2.0049    0.7922 C   0  0  0  0  0  0  0  0  0  0  0  0
   -5.9673   -3.2143    1.6398 S   0  0  0  0  0  0  0  0  0  0  0  0
   -4.8785   -4.6197    1.2087 C   0  0  0  0  0  0  0  0  0  0  0  0
   -3.8351   -1.4483    1.4368 C   0  0  0  0  0  0  0  0  0  0  0  0
   -2.9723   -0.6085    0.7226 C   0  0  0  0  0  0  0  0  0  0  0  0
    0.0530    0.4174   -0.5966 C   0  0  0  0  0  0  0  0  0  0  0  0
    0.1333    1.5522    0.6199 S   0  0  0  0  0  0  0  0  0  0  0  0
   -1.2956   -1.9405   -3.1450 C   0  0  0  0  0  0  0  0  0  0  0  0
   -1.0532   -1.8711   -4.5235 C   0  0  0  0  0  0  0  0  0  0  0  0
   -0.2993   -0.8015   -5.1151 N   0  0  0  0  0  0  0  0  0  0  0  0
    1.0946   -1.0115   -5.4048 C   0  0  0  0  0  0  0  0  0  0  0  0
    1.5022   -2.1525   -6.1179 C   0  0  0  0  0  0  0  0  0  0  0  0
    2.8295   -2.2907   -6.5235 C   0  0  0  0  0  0  0  0  0  0  0  0
    3.7703   -1.2944   -6.2206 C   0  0  0  0  0  0  0  0  0  0  0  0
    5.1687   -1.4221   -6.7420 C   0  0  0  0  0  0  0  0  0  0  0  0
    3.3772   -0.1843   -5.4618 C   0  0  0  0  0  0  0  0  0  0  0  0
    2.0485   -0.0445   -5.0524 C   0  0  0  0  0  0  0  0  0  0  0  0
   -0.9961    0.3864   -5.5736 C   0  0  0  0  0  0  0  0  0  0  0  0
   -0.5001    1.1519   -6.6508 C   0  0  0  0  0  0  0  0  0  0  0  0
   -1.1946    2.2734   -7.1102 C   0  0  0  0  0  0  0  0  0  0  0  0
   -2.3978    2.6587   -6.4984 C   0  0  0  0  0  0  0  0  0  0  0  0
   -3.1346    3.8712   -6.9963 C   0  0  0  0  0  0  0  0  0  0  0  0
   -2.8914    1.9148   -5.4229 C   0  0  0  0  0  0  0  0  0  0  0  0
   -2.2052    0.7827   -4.9743 C   0  0  0  0  0  0  0  0  0  0  0  0
   -1.9644   -2.6476   -5.2325 C   0  0  0  0  0  0  0  0  0  0  0  0
   -2.3546   -2.7523   -6.8599 S   0  0  0  0  0  0  0  0  0  0  0  0
   -3.8518   -3.5384   -6.6101 C   0  0  0  0  0  0  0  0  0  0  0  0
   -4.0427   -3.6889   -5.2223 C   0  0  0  0  0  0  0  0  0  0  0  0
   -5.3554   -3.7289   -4.6344 N   0  0  0  0  0  0  0  0  0  0  0  0
   -6.2694   -2.6459   -4.9481 C   0  0  0  0  0  0  0  0  0  0  0  0
   -5.7933   -1.3210   -5.0861 C   0  0  0  0  0  0  0  0  0  0  0  0
   -6.6597   -0.2800   -5.4352 C   0  0  0  0  0  0  0  0  0  0  0  0
   -8.0195   -0.5541   -5.6758 C   0  0  0  0  0  0  0  0  0  0  0  0
   -8.9552    0.5607   -6.0219 C   0  0  0  0  0  0  0  0  0  0  0  0
   -8.4999   -1.8629   -5.5185 C   0  0  0  0  0  0  0  0  0  0  0  0
   -7.6353   -2.8964   -5.1550 C   0  0  0  0  0  0  0  0  0  0  0  0
   -5.6988   -4.7532   -3.6718 C   0  0  0  0  0  0  0  0  0  0  0  0
   -6.5743   -4.4620   -2.6053 C   0  0  0  0  0  0  0  0  0  0  0  0
   -6.9097   -5.4390   -1.6714 C   0  0  0  0  0  0  0  0  0  0  0  0
   -6.3622   -6.7251   -1.7676 C   0  0  0  0  0  0  0  0  0  0  0  0
   -6.7444   -7.7803   -0.7776 C   0  0  0  0  0  0  0  0  0  0  0  0
   -5.4999   -7.0329   -2.8316 C   0  0  0  0  0  0  0  0  0  0  0  0
   -5.1533   -6.0514   -3.7709 C   0  0  0  0  0  0  0  0  0  0  0  0
   -2.9361   -3.2368   -4.4946 C   0  0  0  0  0  0  0  0  0  0  0  0
   -2.6936   -2.8913   -2.8684 S   0  0  0  0  0  0  0  0  0  0  0  0
   -4.8605   -3.9524   -7.6097 C   0  0  0  0  0  0  0  0  0  0  0  0
   -4.9138   -3.6923   -8.9396 C   0  0  0  0  0  0  0  0  0  0  0  0
   -4.0050   -2.8611   -9.7506 C   0  0  0  0  0  0  0  0  0  0  0  0
   -3.3273   -1.8792   -9.3512 O   0  0  0  0  0  0  0  0  0  0  0  0
   -4.1803   -3.2025  -11.1444 C   0  0  0  0  0  0  0  0  0  0  0  0
   -3.4422   -2.7714  -12.2500 C   0  0  0  0  0  0  0  0  0  0  0  0
   -3.7663   -3.2930  -13.5176 C   0  0  0  0  0  0  0  0  0  0  0  0
   -2.8027   -2.7028  -15.0598 Br  0  0  0  0  0  0  0  0  0  0  0  0
   -4.7832   -4.2579  -13.6440 C   0  0  0  0  0  0  0  0  0  0  0  0
   -5.4934   -4.6902  -12.5138 C   0  0  0  0  0  0  0  0  0  0  0  0
   -5.2084   -4.1178  -11.2600 C   0  0  0  0  0  0  0  0  0  0  0  0
   -5.8242   -4.3675   -9.9309 C   0  0  0  0  0  0  0  0  0  0  0  0
   -7.0769   -4.8582   -9.7155 C   0  0  0  0  0  0  0  0  0  0  0  0
   -7.6818   -4.9379   -8.4120 C   0  0  0  0  0  0  0  0  0  0  0  0
   -8.1995   -5.0121   -7.3810 N   0  0  0  0  0  0  0  0  0  0  0  0
   -7.9295   -5.3159  -10.7835 C   0  0  0  0  0  0  0  0  0  0  0  0
   -8.6215   -5.6900  -11.6265 N   0  0  0  0  0  0  0  0  0  0  0  0
    2.8188    3.8453    8.8138 H   0  0  0  0  0  0  0  0  0  0  0  0
    3.5626    1.0755   13.4225 H   0  0  0  0  0  0  0  0  0  0  0  0
    3.5305   -1.3168   14.0763 H   0  0  0  0  0  0  0  0  0  0  0  0
    2.7478   -2.4669   10.0211 H   0  0  0  0  0  0  0  0  0  0  0  0
    1.8908    6.9364    7.4669 H   0  0  0  0  0  0  0  0  0  0  0  0
    0.8403    7.7593    9.5144 H   0  0  0  0  0  0  0  0  0  0  0  0
   -0.6748    7.5008   11.3441 H   0  0  0  0  0  0  0  0  0  0  0  0
   -2.2112    6.7404   10.7969 H   0  0  0  0  0  0  0  0  0  0  0  0
   -1.0414    5.8067   11.8027 H   0  0  0  0  0  0  0  0  0  0  0  0
   -1.6372    4.2327    9.6691 H   0  0  0  0  0  0  0  0  0  0  0  0
   -0.5682    3.4058    7.6131 H   0  0  0  0  0  0  0  0  0  0  0  0
   -0.4270    6.3423    5.1238 H   0  0  0  0  0  0  0  0  0  0  0  0
   -0.1192    7.7107    3.1059 H   0  0  0  0  0  0  0  0  0  0  0  0
    1.4086    8.7385    1.4515 H   0  0  0  0  0  0  0  0  0  0  0  0
    1.9186    7.1876    0.6716 H   0  0  0  0  0  0  0  0  0  0  0  0
    3.1475    8.2829    1.4254 H   0  0  0  0  0  0  0  0  0  0  0  0
    3.9647    6.3542    2.8043 H   0  0  0  0  0  0  0  0  0  0  0  0
    3.6657    5.0054    4.8223 H   0  0  0  0  0  0  0  0  0  0  0  0
    6.6423    1.8371    4.1326 H   0  0  0  0  0  0  0  0  0  0  0  0
    8.1044    3.5455    3.1386 H   0  0  0  0  0  0  0  0  0  0  0  0
    7.8139    4.7168   -0.4012 H   0  0  0  0  0  0  0  0  0  0  0  0
    8.8862    4.6483    1.0389 H   0  0  0  0  0  0  0  0  0  0  0  0
    7.4733    5.7806    1.0212 H   0  0  0  0  0  0  0  0  0  0  0  0
    5.5670    3.6858   -0.3450 H   0  0  0  0  0  0  0  0  0  0  0  0
    4.1195    1.9954    0.6383 H   0  0  0  0  0  0  0  0  0  0  0  0
    3.2990   -1.0610    4.7803 H   0  0  0  0  0  0  0  0  0  0  0  0
    4.2324   -3.1549    5.5783 H   0  0  0  0  0  0  0  0  0  0  0  0
    7.6577   -4.4653    4.6263 H   0  0  0  0  0  0  0  0  0  0  0  0
    5.9674   -5.0602    4.7618 H   0  0  0  0  0  0  0  0  0  0  0  0
    6.7493   -4.2177    6.1606 H   0  0  0  0  0  0  0  0  0  0  0  0
    7.8770   -2.4028    3.4199 H   0  0  0  0  0  0  0  0  0  0  0  0
    6.9480   -0.3360    2.5554 H   0  0  0  0  0  0  0  0  0  0  0  0
    3.5009    0.7057   -1.6621 H   0  0  0  0  0  0  0  0  0  0  0  0
    5.5172    1.1197   -2.9571 H   0  0  0  0  0  0  0  0  0  0  0  0
    6.9825   -1.2674   -4.1242 H   0  0  0  0  0  0  0  0  0  0  0  0
    8.4721   -2.0548   -3.4444 H   0  0  0  0  0  0  0  0  0  0  0  0
    8.6058   -0.8687   -4.7893 H   0  0  0  0  0  0  0  0  0  0  0  0
    7.7522   -1.4849   -0.3637 H   0  0  0  0  0  0  0  0  0  0  0  0
    5.7274   -1.9465    0.9308 H   0  0  0  0  0  0  0  0  0  0  0  0
    3.9583   -3.3159   -0.2903 H   0  0  0  0  0  0  0  0  0  0  0  0
    3.4568   -5.4658    0.7659 H   0  0  0  0  0  0  0  0  0  0  0  0
    0.0398   -7.4190    2.4625 H   0  0  0  0  0  0  0  0  0  0  0  0
   -0.2538   -5.6442    2.3841 H   0  0  0  0  0  0  0  0  0  0  0  0
    0.7445   -6.4614    1.1091 H   0  0  0  0  0  0  0  0  0  0  0  0
    1.2654   -3.4436    3.8707 H   0  0  0  0  0  0  0  0  0  0  0  0
    1.7811   -1.2812    2.8346 H   0  0  0  0  0  0  0  0  0  0  0  0
   -0.5883    2.2968   -2.5359 H   0  0  0  0  0  0  0  0  0  0  0  0
   -0.9818    4.6717   -2.8985 H   0  0  0  0  0  0  0  0  0  0  0  0
   -3.7518    6.3041   -0.0990 H   0  0  0  0  0  0  0  0  0  0  0  0
   -1.9731    6.4457   -0.4205 H   0  0  0  0  0  0  0  0  0  0  0  0
   -3.0461    7.8919   -0.5991 H   0  0  0  0  0  0  0  0  0  0  0  0
   -5.0417    4.2234   -1.5162 H   0  0  0  0  0  0  0  0  0  0  0  0
   -4.6342    1.8773   -1.0174 H   0  0  0  0  0  0  0  0  0  0  0  0
   -4.6405   -0.5283   -2.2598 H   0  0  0  0  0  0  0  0  0  0  0  0
   -6.1467   -2.0252   -1.0019 H   0  0  0  0  0  0  0  0  0  0  0  0
   -4.6358   -4.5979    0.1294 H   0  0  0  0  0  0  0  0  0  0  0  0
   -5.3886   -5.5727    1.4454 H   0  0  0  0  0  0  0  0  0  0  0  0
   -3.9492   -4.5522    1.8053 H   0  0  0  0  0  0  0  0  0  0  0  0
   -3.6114   -1.6917    2.4727 H   0  0  0  0  0  0  0  0  0  0  0  0
   -2.0928   -0.2111    1.2151 H   0  0  0  0  0  0  0  0  0  0  0  0
    0.7779   -2.9123   -6.4067 H   0  0  0  0  0  0  0  0  0  0  0  0
    3.1152   -3.1617   -7.1072 H   0  0  0  0  0  0  0  0  0  0  0  0
    5.1477   -1.4737   -7.8510 H   0  0  0  0  0  0  0  0  0  0  0  0
    5.7893   -0.5472   -6.4551 H   0  0  0  0  0  0  0  0  0  0  0  0
    5.6370   -2.3453   -6.3449 H   0  0  0  0  0  0  0  0  0  0  0  0
    4.0878    0.5922   -5.2069 H   0  0  0  0  0  0  0  0  0  0  0  0
    1.7432    0.8309   -4.4929 H   0  0  0  0  0  0  0  0  0  0  0  0
    0.4253    0.8854   -7.1406 H   0  0  0  0  0  0  0  0  0  0  0  0
   -0.7994    2.8365   -7.9481 H   0  0  0  0  0  0  0  0  0  0  0  0
   -2.5512    4.7811   -6.7665 H   0  0  0  0  0  0  0  0  0  0  0  0
   -3.2780    3.8086   -8.0938 H   0  0  0  0  0  0  0  0  0  0  0  0
   -4.1321    3.9659   -6.5211 H   0  0  0  0  0  0  0  0  0  0  0  0
   -3.8097    2.2017   -4.9316 H   0  0  0  0  0  0  0  0  0  0  0  0
   -2.6181    0.2297   -4.1390 H   0  0  0  0  0  0  0  0  0  0  0  0
   -4.7521   -1.0799   -4.9086 H   0  0  0  0  0  0  0  0  0  0  0  0
   -6.2829    0.7242   -5.5120 H   0  0  0  0  0  0  0  0  0  0  0  0
   -9.7370    0.2080   -6.7339 H   0  0  0  0  0  0  0  0  0  0  0  0
   -9.4497    0.9224   -5.0970 H   0  0  0  0  0  0  0  0  0  0  0  0
   -8.4099    1.3996   -6.4988 H   0  0  0  0  0  0  0  0  0  0  0  0
   -9.5474   -2.0792   -5.6681 H   0  0  0  0  0  0  0  0  0  0  0  0
   -8.0265   -3.8965   -5.0181 H   0  0  0  0  0  0  0  0  0  0  0  0
   -7.0093   -3.4835   -2.5054 H   0  0  0  0  0  0  0  0  0  0  0  0
   -7.6062   -5.1904   -0.8769 H   0  0  0  0  0  0  0  0  0  0  0  0
   -7.1473   -7.3269    0.1524 H   0  0  0  0  0  0  0  0  0  0  0  0
   -7.5248   -8.4352   -1.2251 H   0  0  0  0  0  0  0  0  0  0  0  0
   -5.8580   -8.3958   -0.5063 H   0  0  0  0  0  0  0  0  0  0  0  0
   -5.0986   -8.0251   -2.9379 H   0  0  0  0  0  0  0  0  0  0  0  0
   -4.4994   -6.3082   -4.5884 H   0  0  0  0  0  0  0  0  0  0  0  0
   -5.5754   -4.6488   -7.1996 H   0  0  0  0  0  0  0  0  0  0  0  0
   -2.6357   -2.0566  -12.1481 H   0  0  0  0  0  0  0  0  0  0  0  0
   -5.0034   -4.6931  -14.6112 H   0  0  0  0  0  0  0  0  0  0  0  0
   -6.2186   -5.4690  -12.6421 H   0  0  0  0  0  0  0  0  0  0  0  0
  1  2  2  3
  2  3  1  0
  3  4  2  0
  3  5  1  0
  5  6  2  0
  6  7  1  0
  7  8  2  0
  8  9  1  0
  8 10  1  0
 10 11  2  0
 11 12  1  0
 12 13  2  3
 13 14  1  0
 14 15  3  0
 13 16  1  0
 16 17  3  0
  1 18  1  0
 18 19  2  0
 19 20  1  0
 20 21  1  0
 21 22  2  0
 22 23  1  0
 23 24  2  0
 24 25  1  0
 24 26  1  0
 26 27  2  0
 20 28  1  0
 28 29  2  0
 29 30  1  0
 30 31  2  0
 31 32  1  0
 31 33  1  0
 33 34  2  0
 19 35  1  0
 35 36  1  0
 36 37  1  0
 37 38  2  0
 38 39  1  0
 39 40  1  0
 40 41  2  0
 41 42  1  0
 42 43  2  0
 43 44  1  0
 43 45  1  0
 45 46  2  0
 39 47  1  0
 47 48  2  0
 48 49  1  0
 49 50  2  0
 50 51  1  0
 50 52  1  0
 52 53  2  0
 38 54  1  0
 54 55  1  0
 37 56  1  0
 56 57  2  0
 57 58  1  0
 58 59  1  0
 59 60  2  0
 60 61  1  0
 61 62  2  0
 62 63  1  0
 63 64  1  0
 62 65  1  0
 65 66  2  0
 58 67  1  0
 67 68  2  0
 68 69  1  0
 69 70  2  0
 70 71  1  0
 71 72  1  0
 70 73  1  0
 73 74  2  0
 57 75  1  0
 75 76  1  0
 76 77  1  0
 77 78  2  0
 78 79  1  0
 79 80  1  0
 80 81  2  0
 81 82  1  0
 82 83  2  0
 83 84  1  0
 84 85  1  0
 83 86  1  0
 86 87  2  0
 79 88  1  0
 88 89  2  0
 89 90  1  0
 90 91  2  0
 91 92  1  0
 92 93  1  0
 91 94  1  0
 94 95  2  0
 78 96  1  0
 96 97  1  0
 77 98  1  0
 98 99  2  0
 99100  1  0
100101  1  0
101102  2  0
102103  1  0
103104  2  0
104105  1  0
104106  1  0
106107  2  0
100108  1  0
108109  2  0
109110  1  0
110111  2  0
111112  1  0
111113  1  0
113114  2  0
 99115  1  0
115116  1  0
116117  1  0
117118  2  0
118119  1  0
119120  1  0
120121  2  0
121122  1  0
122123  2  0
123124  1  0
123125  1  0
125126  2  0
119127  1  0
127128  2  0
128129  1  0
129130  2  0
130131  1  0
130132  1  0
132133  2  0
118134  1  0
134135  1  0
117136  1  0
136137  2  3
137138  1  0
138139  2  0
138140  1  0
140141  2  0
141142  1  0
142143  1  0
142144  2  0
144145  1  0
145146  2  0
146147  1  0
147148  2  3
148149  1  0
149150  3  0
148151  1  0
151152  3  0
 12  2  1  0
 55 18  1  0
 97 56  1  0
135 98  1  0
147137  1  0
 11  5  1  0
 27 21  1  0
 34 28  1  0
 54 35  2  0
 66 59  1  0
 74 67  1  0
 96 75  2  0
107101  1  0
114108  1  0
134115  2  0
146140  1  0
 46 40  1  0
 53 47  1  0
 87 80  1  0
 95 88  1  0
126120  1  0
133127  1  0
  1153  1  0
  6154  1  0
  7155  1  0
 10156  1  0
 22157  1  0
 23158  1  0
 25159  1  0
 25160  1  0
 25161  1  0
 26162  1  0
 27163  1  0
 29164  1  0
 30165  1  0
 32166  1  0
 32167  1  0
 32168  1  0
 33169  1  0
 34170  1  0
 41171  1  0
 42172  1  0
 44173  1  0
 44174  1  0
 44175  1  0
 45176  1  0
 46177  1  0
 48178  1  0
 49179  1  0
 51180  1  0
 51181  1  0
 51182  1  0
 52183  1  0
 53184  1  0
 60185  1  0
 61186  1  0
 64187  1  0
 64188  1  0
 64189  1  0
 65190  1  0
 66191  1  0
 68192  1  0
 69193  1  0
 72194  1  0
 72195  1  0
 72196  1  0
 73197  1  0
 74198  1  0
 81199  1  0
 82200  1  0
 85201  1  0
 85202  1  0
 85203  1  0
 86204  1  0
 87205  1  0
 89206  1  0
 90207  1  0
 93208  1  0
 93209  1  0
 93210  1  0
 94211  1  0
 95212  1  0
102213  1  0
103214  1  0
105215  1  0
105216  1  0
105217  1  0
106218  1  0
107219  1  0
109220  1  0
110221  1  0
112222  1  0
112223  1  0
112224  1  0
113225  1  0
114226  1  0
121227  1  0
122228  1  0
124229  1  0
124230  1  0
124231  1  0
125232  1  0
126233  1  0
128234  1  0
129235  1  0
131236  1  0
131237  1  0
131238  1  0
132239  1  0
133240  1  0
136241  1  0
141242  1  0
144243  1  0
145244  1  0
M  END

