
     RDKit          3D

155171  0  0  0  0  0  0  0  0999 V2000
   -5.3367    1.8339    7.6685 C   0  0  0  0  0  0  0  0  0  0  0  0
   -4.5830    1.0561    8.4715 C   0  0  0  0  0  0  0  0  0  0  0  0
   -3.1259    0.8351    8.3246 C   0  0  0  0  0  0  0  0  0  0  0  0
   -2.4112    1.1061    7.3219 O   0  0  0  0  0  0  0  0  0  0  0  0
   -2.6696    0.1477    9.5076 C   0  0  0  0  0  0  0  0  0  0  0  0
   -3.7295   -0.1184   10.3388 C   0  0  0  0  0  0  0  0  0  0  0  0
   -3.3775   -0.7772   11.5159 C   0  0  0  0  0  0  0  0  0  0  0  0
   -1.6941   -0.9857   11.4533 S   0  0  0  0  0  0  0  0  0  0  0  0
   -1.4289   -0.2686    9.9536 C   0  0  0  0  0  0  0  0  0  0  0  0
    0.1206   -0.0555    9.1607 Cl  0  0  0  0  0  0  0  0  0  0  0  0
   -4.9989    0.3606    9.7411 C   0  0  0  0  0  0  0  0  0  0  0  0
   -6.2459    0.0994   10.2054 C   0  0  0  0  0  0  0  0  0  0  0  0
   -7.4389    0.4358    9.4731 C   0  0  0  0  0  0  0  0  0  0  0  0
   -8.4052    0.6971    8.8917 N   0  0  0  0  0  0  0  0  0  0  0  0
   -6.4660   -0.6129   11.4382 C   0  0  0  0  0  0  0  0  0  0  0  0
   -6.6586   -1.1914   12.4228 N   0  0  0  0  0  0  0  0  0  0  0  0
   -4.7911    2.5611    6.5086 C   0  0  0  0  0  0  0  0  0  0  0  0
   -5.2331    2.2277    5.2159 C   0  0  0  0  0  0  0  0  0  0  0  0
   -4.6391    2.8658    4.1290 C   0  0  0  0  0  0  0  0  0  0  0  0
   -4.7587    2.5840    2.7024 C   0  0  0  0  0  0  0  0  0  0  0  0
   -5.5249    1.7358    2.1634 O   0  0  0  0  0  0  0  0  0  0  0  0
   -3.7338    3.3801    2.0331 C   0  0  0  0  0  0  0  0  0  0  0  0
   -3.0623    4.1115    2.9940 C   0  0  0  0  0  0  0  0  0  0  0  0
   -3.6358    3.8055    4.3038 C   0  0  0  0  0  0  0  0  0  0  0  0
   -3.2139    4.1885    5.5747 C   0  0  0  0  0  0  0  0  0  0  0  0
   -3.8137    3.5740    6.6844 C   0  0  0  0  0  0  0  0  0  0  0  0
   -1.9119    4.8254    2.6757 C   0  0  0  0  0  0  0  0  0  0  0  0
   -1.4144    4.7409    1.3651 C   0  0  0  0  0  0  0  0  0  0  0  0
   -2.0566    3.9383    0.3852 C   0  0  0  0  0  0  0  0  0  0  0  0
   -3.2798    3.3076    0.7190 C   0  0  0  0  0  0  0  0  0  0  0  0
   -1.3700    3.6737   -0.9112 C   0  0  0  0  0  0  0  0  0  0  0  0
   -1.5564    2.5616   -1.7681 C   0  0  0  0  0  0  0  0  0  0  0  0
   -2.4248    1.4460   -1.5089 N   0  0  0  0  0  0  0  0  0  0  0  0
   -2.1123    0.4952   -0.4598 C   0  0  0  0  0  0  0  0  0  0  0  0
   -0.7936    0.3502    0.0279 C   0  0  0  0  0  0  0  0  0  0  0  0
   -0.4912   -0.6308    0.9739 C   0  0  0  0  0  0  0  0  0  0  0  0
   -1.4984   -1.4722    1.4630 C   0  0  0  0  0  0  0  0  0  0  0  0
   -1.0953   -2.7843    2.6194 S   0  0  0  0  0  0  0  0  0  0  0  0
   -0.8180   -4.0161    1.3053 C   0  0  0  0  0  0  0  0  0  0  0  0
   -2.8194   -1.2977    1.0335 C   0  0  0  0  0  0  0  0  0  0  0  0
   -3.1253   -0.3163    0.0870 C   0  0  0  0  0  0  0  0  0  0  0  0
   -3.4219    1.1558   -2.5116 C   0  0  0  0  0  0  0  0  0  0  0  0
   -3.5416   -0.1390   -3.0529 C   0  0  0  0  0  0  0  0  0  0  0  0
   -4.4469   -0.3900   -4.0881 C   0  0  0  0  0  0  0  0  0  0  0  0
   -5.2354    0.6469   -4.6003 C   0  0  0  0  0  0  0  0  0  0  0  0
   -6.3724    0.3303   -5.9482 S   0  0  0  0  0  0  0  0  0  0  0  0
   -5.1455    0.7329   -7.2354 C   0  0  0  0  0  0  0  0  0  0  0  0
   -5.1308    1.9337   -4.0591 C   0  0  0  0  0  0  0  0  0  0  0  0
   -4.2258    2.1880   -3.0268 C   0  0  0  0  0  0  0  0  0  0  0  0
   -0.5512    2.4711   -2.7318 C   0  0  0  0  0  0  0  0  0  0  0  0
    0.0473    1.1132   -3.5015 S   0  0  0  0  0  0  0  0  0  0  0  0
    1.6122    1.7277   -3.7339 C   0  0  0  0  0  0  0  0  0  0  0  0
    1.6567    3.0339   -3.2014 C   0  0  0  0  0  0  0  0  0  0  0  0
    2.8360    3.8489   -3.1112 N   0  0  0  0  0  0  0  0  0  0  0  0
    4.0275    3.3424   -2.4932 C   0  0  0  0  0  0  0  0  0  0  0  0
    5.1881    3.1636   -3.2580 C   0  0  0  0  0  0  0  0  0  0  0  0
    6.3684    2.7238   -2.6519 C   0  0  0  0  0  0  0  0  0  0  0  0
    6.4024    2.4896   -1.2745 C   0  0  0  0  0  0  0  0  0  0  0  0
    7.9305    1.9813   -0.4826 S   0  0  0  0  0  0  0  0  0  0  0  0
    8.5155    3.6912   -0.2480 C   0  0  0  0  0  0  0  0  0  0  0  0
    5.2404    2.6555   -0.5080 C   0  0  0  0  0  0  0  0  0  0  0  0
    4.0525    3.0756   -1.1187 C   0  0  0  0  0  0  0  0  0  0  0  0
    2.8130    5.1921   -3.6297 C   0  0  0  0  0  0  0  0  0  0  0  0
    3.4234    6.2412   -2.9209 C   0  0  0  0  0  0  0  0  0  0  0  0
    3.4028    7.5442   -3.4319 C   0  0  0  0  0  0  0  0  0  0  0  0
    2.7773    7.8094   -4.6540 C   0  0  0  0  0  0  0  0  0  0  0  0
    2.7746    9.4760   -5.3176 S   0  0  0  0  0  0  0  0  0  0  0  0
    1.2131    9.9298   -4.4975 C   0  0  0  0  0  0  0  0  0  0  0  0
    2.1740    6.7695   -5.3695 C   0  0  0  0  0  0  0  0  0  0  0  0
    2.1868    5.4689   -4.8580 C   0  0  0  0  0  0  0  0  0  0  0  0
    0.4239    3.4140   -2.6609 C   0  0  0  0  0  0  0  0  0  0  0  0
    0.0687    4.4599   -1.4045 S   0  0  0  0  0  0  0  0  0  0  0  0
    2.7279    0.7761   -3.7264 C   0  0  0  0  0  0  0  0  0  0  0  0
    3.0568    0.1910   -2.4877 C   0  0  0  0  0  0  0  0  0  0  0  0
    3.7610   -1.0032   -2.4765 C   0  0  0  0  0  0  0  0  0  0  0  0
    3.8185   -1.9753   -1.3915 C   0  0  0  0  0  0  0  0  0  0  0  0
    3.4520   -1.7930   -0.2036 O   0  0  0  0  0  0  0  0  0  0  0  0
    4.1925   -3.2441   -1.9976 C   0  0  0  0  0  0  0  0  0  0  0  0
    4.4155   -3.0372   -3.3500 C   0  0  0  0  0  0  0  0  0  0  0  0
    4.1403   -1.6261   -3.6539 C   0  0  0  0  0  0  0  0  0  0  0  0
    3.8814   -1.0351   -4.8949 C   0  0  0  0  0  0  0  0  0  0  0  0
    3.1758    0.1829   -4.9250 C   0  0  0  0  0  0  0  0  0  0  0  0
    4.5563   -4.1163   -4.2273 C   0  0  0  0  0  0  0  0  0  0  0  0
    4.4261   -5.4187   -3.7122 C   0  0  0  0  0  0  0  0  0  0  0  0
    4.1046   -5.6209   -2.3505 C   0  0  0  0  0  0  0  0  0  0  0  0
    4.0289   -4.5224   -1.4727 C   0  0  0  0  0  0  0  0  0  0  0  0
    3.7022   -6.9543   -1.8782 C   0  0  0  0  0  0  0  0  0  0  0  0
    2.4214   -7.2403   -1.5483 C   0  0  0  0  0  0  0  0  0  0  0  0
    1.2799   -6.3442   -1.7923 C   0  0  0  0  0  0  0  0  0  0  0  0
    1.3037   -5.2471   -2.4074 O   0  0  0  0  0  0  0  0  0  0  0  0
    0.0811   -6.9763   -1.2986 C   0  0  0  0  0  0  0  0  0  0  0  0
   -1.2055   -6.4427   -1.2794 C   0  0  0  0  0  0  0  0  0  0  0  0
   -2.2319   -7.1902   -0.6818 C   0  0  0  0  0  0  0  0  0  0  0  0
   -3.5387   -6.6827   -0.6267 C   0  0  0  0  0  0  0  0  0  0  0  0
   -4.5499   -7.4178   -0.0062 C   0  0  0  0  0  0  0  0  0  0  0  0
   -4.2694   -8.6631    0.5625 C   0  0  0  0  0  0  0  0  0  0  0  0
   -5.2581   -9.3732    1.1577 F   0  0  0  0  0  0  0  0  0  0  0  0
   -2.9701   -9.1815    0.5167 C   0  0  0  0  0  0  0  0  0  0  0  0
   -1.9397   -8.4532   -0.1006 C   0  0  0  0  0  0  0  0  0  0  0  0
   -0.6233   -8.9595   -0.1340 C   0  0  0  0  0  0  0  0  0  0  0  0
    0.3869   -8.2160   -0.7720 C   0  0  0  0  0  0  0  0  0  0  0  0
    1.8514   -8.4888   -0.9305 C   0  0  0  0  0  0  0  0  0  0  0  0
    2.5036   -9.6411   -0.6112 C   0  0  0  0  0  0  0  0  0  0  0  0
    1.8123  -10.8436   -0.2279 C   0  0  0  0  0  0  0  0  0  0  0  0
    1.2729  -11.8271    0.0700 N   0  0  0  0  0  0  0  0  0  0  0  0
    3.9325   -9.7938   -0.6914 C   0  0  0  0  0  0  0  0  0  0  0  0
    5.0812   -9.9365   -0.7480 N   0  0  0  0  0  0  0  0  0  0  0  0
   -6.3862    1.9759    7.8466 H   0  0  0  0  0  0  0  0  0  0  0  0
   -4.0205   -1.0931   12.3242 H   0  0  0  0  0  0  0  0  0  0  0  0
   -5.9671    1.4453    5.0604 H   0  0  0  0  0  0  0  0  0  0  0  0
   -2.4199    4.9112    5.7080 H   0  0  0  0  0  0  0  0  0  0  0  0
   -3.4861    3.8449    7.6794 H   0  0  0  0  0  0  0  0  0  0  0  0
   -1.3742    5.3758    3.4355 H   0  0  0  0  0  0  0  0  0  0  0  0
   -0.4895    5.2572    1.1504 H   0  0  0  0  0  0  0  0  0  0  0  0
   -3.8373    2.7191    0.0104 H   0  0  0  0  0  0  0  0  0  0  0  0
    0.0109    0.9679   -0.3460 H   0  0  0  0  0  0  0  0  0  0  0  0
    0.5305   -0.7513    1.3156 H   0  0  0  0  0  0  0  0  0  0  0  0
   -0.0276   -3.6477    0.6179 H   0  0  0  0  0  0  0  0  0  0  0  0
   -0.4739   -4.9644    1.7709 H   0  0  0  0  0  0  0  0  0  0  0  0
   -1.7675   -4.2025    0.7669 H   0  0  0  0  0  0  0  0  0  0  0  0
   -3.6051   -1.9347    1.4191 H   0  0  0  0  0  0  0  0  0  0  0  0
   -4.1518   -0.2039   -0.2373 H   0  0  0  0  0  0  0  0  0  0  0  0
   -2.9191   -0.9458   -2.6898 H   0  0  0  0  0  0  0  0  0  0  0  0
   -4.5241   -1.3870   -4.5024 H   0  0  0  0  0  0  0  0  0  0  0  0
   -4.2979    0.0177   -7.1828 H   0  0  0  0  0  0  0  0  0  0  0  0
   -4.7694    1.7683   -7.1022 H   0  0  0  0  0  0  0  0  0  0  0  0
   -5.6214    0.6446   -8.2327 H   0  0  0  0  0  0  0  0  0  0  0  0
   -5.7323    2.7414   -4.4571 H   0  0  0  0  0  0  0  0  0  0  0  0
   -4.1405    3.1931   -2.6345 H   0  0  0  0  0  0  0  0  0  0  0  0
    5.1762    3.3626   -4.3244 H   0  0  0  0  0  0  0  0  0  0  0  0
    7.2612    2.5860   -3.2496 H   0  0  0  0  0  0  0  0  0  0  0  0
    7.7647    4.2826    0.3178 H   0  0  0  0  0  0  0  0  0  0  0  0
    8.6963    4.1703   -1.2330 H   0  0  0  0  0  0  0  0  0  0  0  0
    9.4654    3.6802    0.3224 H   0  0  0  0  0  0  0  0  0  0  0  0
    5.2563    2.4680    0.5582 H   0  0  0  0  0  0  0  0  0  0  0  0
    3.1584    3.2044   -0.5241 H   0  0  0  0  0  0  0  0  0  0  0  0
    3.8982    6.0555   -1.9662 H   0  0  0  0  0  0  0  0  0  0  0  0
    3.8659    8.3447   -2.8731 H   0  0  0  0  0  0  0  0  0  0  0  0
    0.9912   10.9936   -4.7115 H   0  0  0  0  0  0  0  0  0  0  0  0
    1.3098    9.8015   -3.3973 H   0  0  0  0  0  0  0  0  0  0  0  0
    0.3829    9.2989   -4.8785 H   0  0  0  0  0  0  0  0  0  0  0  0
    1.6946    6.9694   -6.3195 H   0  0  0  0  0  0  0  0  0  0  0  0
    1.7211    4.6737   -5.4267 H   0  0  0  0  0  0  0  0  0  0  0  0
    2.6281    0.5664   -1.5676 H   0  0  0  0  0  0  0  0  0  0  0  0
    4.1213   -1.5455   -5.8153 H   0  0  0  0  0  0  0  0  0  0  0  0
    2.8805    0.5986   -5.8783 H   0  0  0  0  0  0  0  0  0  0  0  0
    4.6913   -3.9559   -5.2877 H   0  0  0  0  0  0  0  0  0  0  0  0
    4.4795   -6.2606   -4.3916 H   0  0  0  0  0  0  0  0  0  0  0  0
    3.7316   -4.6572   -0.4415 H   0  0  0  0  0  0  0  0  0  0  0  0
    4.4908   -7.6748   -1.7973 H   0  0  0  0  0  0  0  0  0  0  0  0
   -1.3992   -5.4629   -1.7004 H   0  0  0  0  0  0  0  0  0  0  0  0
   -3.7725   -5.7151   -1.0544 H   0  0  0  0  0  0  0  0  0  0  0  0
   -5.5556   -7.0182    0.0347 H   0  0  0  0  0  0  0  0  0  0  0  0
   -2.7713  -10.1543    0.9583 H   0  0  0  0  0  0  0  0  0  0  0  0
   -0.4189   -9.8983    0.3536 H   0  0  0  0  0  0  0  0  0  0  0  0
  1  2  2  3
  2  3  1  0
  3  4  2  0
  3  5  1  0
  5  6  1  0
  6  7  2  0
  7  8  1  0
  8  9  1  0
  9 10  1  0
  6 11  1  0
 11 12  2  3
 12 13  1  0
 13 14  3  0
 12 15  1  0
 15 16  3  0
  1 17  1  0
 17 18  2  0
 18 19  1  0
 19 20  1  0
 20 21  2  0
 20 22  1  0
 22 23  2  0
 23 24  1  0
 24 25  1  0
 25 26  2  0
 23 27  1  0
 27 28  2  0
 28 29  1  0
 29 30  2  0
 29 31  1  0
 31 32  2  0
 32 33  1  0
 33 34  1  0
 34 35  2  0
 35 36  1  0
 36 37  2  0
 37 38  1  0
 38 39  1  0
 37 40  1  0
 40 41  2  0
 33 42  1  0
 42 43  2  0
 43 44  1  0
 44 45  2  0
 45 46  1  0
 46 47  1  0
 45 48  1  0
 48 49  2  0
 32 50  1  0
 50 51  1  0
 51 52  1  0
 52 53  2  0
 53 54  1  0
 54 55  1  0
 55 56  2  0
 56 57  1  0
 57 58  2  0
 58 59  1  0
 59 60  1  0
 58 61  1  0
 61 62  2  0
 54 63  1  0
 63 64  2  0
 64 65  1  0
 65 66  2  0
 66 67  1  0
 67 68  1  0
 66 69  1  0
 69 70  2  0
 53 71  1  0
 71 72  1  0
 52 73  1  0
 73 74  2  0
 74 75  1  0
 75 76  1  0
 76 77  2  0
 76 78  1  0
 78 79  2  0
 79 80  1  0
 80 81  1  0
 81 82  2  0
 79 83  1  0
 83 84  2  0
 84 85  1  0
 85 86  2  0
 85 87  1  0
 87 88  2  3
 88 89  1  0
 89 90  2  0
 89 91  1  0
 91 92  2  0
 92 93  1  0
 93 94  2  0
 94 95  1  0
 95 96  2  0
 96 97  1  0
 96 98  1  0
 98 99  2  0
 99100  1  0
100101  2  0
101102  1  0
102103  2  3
103104  1  0
104105  3  0
103106  1  0
106107  3  0
 11  2  1  0
 26 17  1  0
 72 31  1  0
 82 73  1  0
102 88  1  0
  9  5  2  0
 24 19  2  0
 41 34  1  0
 49 42  1  0
 71 50  2  0
 80 75  2  0
101 91  1  0
 30 22  1  0
 62 55  1  0
 70 63  1  0
 86 78  1  0
 99 93  1  0
  1108  1  0
  7109  1  0
 18110  1  0
 25111  1  0
 26112  1  0
 27113  1  0
 28114  1  0
 30115  1  0
 35116  1  0
 36117  1  0
 39118  1  0
 39119  1  0
 39120  1  0
 40121  1  0
 41122  1  0
 43123  1  0
 44124  1  0
 47125  1  0
 47126  1  0
 47127  1  0
 48128  1  0
 49129  1  0
 56130  1  0
 57131  1  0
 60132  1  0
 60133  1  0
 60134  1  0
 61135  1  0
 62136  1  0
 64137  1  0
 65138  1  0
 68139  1  0
 68140  1  0
 68141  1  0
 69142  1  0
 70143  1  0
 74144  1  0
 81145  1  0
 82146  1  0
 83147  1  0
 84148  1  0
 86149  1  0
 87150  1  0
 92151  1  0
 94152  1  0
 95153  1  0
 98154  1  0
100155  1  0
M  END

