
     RDKit          3D

190206  0  0  0  0  0  0  0  0999 V2000
   -0.2736   -2.9511    4.8385 C   0  0  0  0  0  0  0  0  0  0  0  0
    0.7955   -2.1552    5.0398 C   0  0  0  0  0  0  0  0  0  0  0  0
    1.0692   -0.9063    4.2904 C   0  0  0  0  0  0  0  0  0  0  0  0
    0.3251   -0.3484    3.4420 O   0  0  0  0  0  0  0  0  0  0  0  0
    2.2979   -0.3537    4.7952 C   0  0  0  0  0  0  0  0  0  0  0  0
    2.7802   -1.1283    5.8207 C   0  0  0  0  0  0  0  0  0  0  0  0
    3.9645   -0.6528    6.3800 C   0  0  0  0  0  0  0  0  0  0  0  0
    4.3630    0.7545    5.5239 S   0  0  0  0  0  0  0  0  0  0  0  0
    3.0482    0.7575    4.4652 C   0  0  0  0  0  0  0  0  0  0  0  0
    2.7405    1.9238    3.1927 Cl  0  0  0  0  0  0  0  0  0  0  0  0
    1.9046   -2.3078    6.0486 C   0  0  0  0  0  0  0  0  0  0  0  0
    2.1431   -3.3264    6.9109 C   0  0  0  0  0  0  0  0  0  0  0  0
    3.2729   -3.3175    7.8011 C   0  0  0  0  0  0  0  0  0  0  0  0
    4.1762   -3.3192    8.5262 N   0  0  0  0  0  0  0  0  0  0  0  0
    1.2994   -4.4881    7.0168 C   0  0  0  0  0  0  0  0  0  0  0  0
    0.6280   -5.4264    7.1343 N   0  0  0  0  0  0  0  0  0  0  0  0
   -1.1374   -2.7878    3.6627 C   0  0  0  0  0  0  0  0  0  0  0  0
   -0.6985   -2.8677    2.3260 C   0  0  0  0  0  0  0  0  0  0  0  0
    0.5552   -3.4484    1.8936 N   0  0  0  0  0  0  0  0  0  0  0  0
    1.1725   -3.0018    0.6727 C   0  0  0  0  0  0  0  0  0  0  0  0
    1.1653   -3.8351   -0.4560 C   0  0  0  0  0  0  0  0  0  0  0  0
    1.6526   -3.3663   -1.6812 C   0  0  0  0  0  0  0  0  0  0  0  0
    2.1675   -2.0691   -1.7809 C   0  0  0  0  0  0  0  0  0  0  0  0
    2.7571   -1.4470   -3.3570 S   0  0  0  0  0  0  0  0  0  0  0  0
    4.4106   -2.1906   -3.1760 C   0  0  0  0  0  0  0  0  0  0  0  0
    2.1952   -1.2423   -0.6484 C   0  0  0  0  0  0  0  0  0  0  0  0
    1.6968   -1.7039    0.5698 C   0  0  0  0  0  0  0  0  0  0  0  0
    1.0628   -4.6370    2.5334 C   0  0  0  0  0  0  0  0  0  0  0  0
    2.4477   -4.8120    2.7095 C   0  0  0  0  0  0  0  0  0  0  0  0
    2.9394   -5.9652    3.3259 C   0  0  0  0  0  0  0  0  0  0  0  0
    2.0565   -6.9555    3.7755 C   0  0  0  0  0  0  0  0  0  0  0  0
    2.6826   -8.4478    4.5437 S   0  0  0  0  0  0  0  0  0  0  0  0
    2.6970   -9.3803    2.9785 C   0  0  0  0  0  0  0  0  0  0  0  0
    0.6795   -6.7858    3.6119 C   0  0  0  0  0  0  0  0  0  0  0  0
    0.1844   -5.6387    2.9863 C   0  0  0  0  0  0  0  0  0  0  0  0
   -1.6554   -2.3183    1.4759 C   0  0  0  0  0  0  0  0  0  0  0  0
   -1.6397   -1.8568   -0.1176 S   0  0  0  0  0  0  0  0  0  0  0  0
   -3.1488   -1.0745   -0.0962 C   0  0  0  0  0  0  0  0  0  0  0  0
   -3.6557   -1.1609    1.2184 C   0  0  0  0  0  0  0  0  0  0  0  0
   -4.9320   -0.6394    1.6313 N   0  0  0  0  0  0  0  0  0  0  0  0
   -6.1110   -1.0564    0.9125 C   0  0  0  0  0  0  0  0  0  0  0  0
   -6.2368   -2.3836    0.4654 C   0  0  0  0  0  0  0  0  0  0  0  0
   -7.3889   -2.8009   -0.2099 C   0  0  0  0  0  0  0  0  0  0  0  0
   -8.4265   -1.8968   -0.4476 C   0  0  0  0  0  0  0  0  0  0  0  0
   -9.8903   -2.4307   -1.3356 S   0  0  0  0  0  0  0  0  0  0  0  0
  -10.7203   -3.0718    0.1526 C   0  0  0  0  0  0  0  0  0  0  0  0
   -8.3155   -0.5722    0.0013 C   0  0  0  0  0  0  0  0  0  0  0  0
   -7.1640   -0.1548    0.6786 C   0  0  0  0  0  0  0  0  0  0  0  0
   -5.0525    0.0904    2.8713 C   0  0  0  0  0  0  0  0  0  0  0  0
   -6.0669   -0.2311    3.7936 C   0  0  0  0  0  0  0  0  0  0  0  0
   -6.1527    0.4415    5.0150 C   0  0  0  0  0  0  0  0  0  0  0  0
   -5.2285    1.4405    5.3330 C   0  0  0  0  0  0  0  0  0  0  0  0
   -5.3458    2.3073    6.9017 S   0  0  0  0  0  0  0  0  0  0  0  0
   -4.2925    1.1080    7.7790 C   0  0  0  0  0  0  0  0  0  0  0  0
   -4.2189    1.7701    4.4203 C   0  0  0  0  0  0  0  0  0  0  0  0
   -4.1232    1.0928    3.2022 C   0  0  0  0  0  0  0  0  0  0  0  0
   -2.7868   -1.8572    2.0640 C   0  0  0  0  0  0  0  0  0  0  0  0
   -2.6904   -2.0845    3.7243 S   0  0  0  0  0  0  0  0  0  0  0  0
   -3.3837    0.0551   -1.0079 C   0  0  0  0  0  0  0  0  0  0  0  0
   -2.8958    0.0957   -2.3431 C   0  0  0  0  0  0  0  0  0  0  0  0
   -2.8989   -0.9919   -3.3017 N   0  0  0  0  0  0  0  0  0  0  0  0
   -3.0753   -2.3652   -2.9171 C   0  0  0  0  0  0  0  0  0  0  0  0
   -1.9907   -3.2544   -2.9748 C   0  0  0  0  0  0  0  0  0  0  0  0
   -2.1638   -4.6016   -2.6400 C   0  0  0  0  0  0  0  0  0  0  0  0
   -3.4272   -5.0680   -2.2567 C   0  0  0  0  0  0  0  0  0  0  0  0
   -3.6673   -6.8044   -1.8831 S   0  0  0  0  0  0  0  0  0  0  0  0
   -4.0570   -7.2365   -3.6056 C   0  0  0  0  0  0  0  0  0  0  0  0
   -4.5077   -4.1811   -2.1871 C   0  0  0  0  0  0  0  0  0  0  0  0
   -4.3325   -2.8337   -2.5143 C   0  0  0  0  0  0  0  0  0  0  0  0
   -3.0441   -0.6867   -4.7055 C   0  0  0  0  0  0  0  0  0  0  0  0
   -4.0255    0.2252   -5.1334 C   0  0  0  0  0  0  0  0  0  0  0  0
   -4.1538    0.5387   -6.4895 C   0  0  0  0  0  0  0  0  0  0  0  0
   -3.3093   -0.0570   -7.4326 C   0  0  0  0  0  0  0  0  0  0  0  0
   -3.4646    0.3695   -9.1700 S   0  0  0  0  0  0  0  0  0  0  0  0
   -2.2298    1.7047   -9.0729 C   0  0  0  0  0  0  0  0  0  0  0  0
   -2.3444   -0.9798   -7.0165 C   0  0  0  0  0  0  0  0  0  0  0  0
   -2.2092   -1.2907   -5.6621 C   0  0  0  0  0  0  0  0  0  0  0  0
   -2.3391    1.3487   -2.6320 C   0  0  0  0  0  0  0  0  0  0  0  0
   -1.1516    1.8164   -3.7171 S   0  0  0  0  0  0  0  0  0  0  0  0
   -0.7736    3.2696   -2.9187 C   0  0  0  0  0  0  0  0  0  0  0  0
   -1.5921    3.3902   -1.7710 C   0  0  0  0  0  0  0  0  0  0  0  0
   -1.6056    4.4900   -0.8323 N   0  0  0  0  0  0  0  0  0  0  0  0
   -0.4085    5.2082   -0.5012 C   0  0  0  0  0  0  0  0  0  0  0  0
   -0.1796    6.4730   -1.0604 C   0  0  0  0  0  0  0  0  0  0  0  0
    0.9743    7.1876   -0.7284 C   0  0  0  0  0  0  0  0  0  0  0  0
    1.9002    6.6470    0.1701 C   0  0  0  0  0  0  0  0  0  0  0  0
    3.3848    7.5619    0.5847 S   0  0  0  0  0  0  0  0  0  0  0  0
    4.3290    6.8965   -0.8188 C   0  0  0  0  0  0  0  0  0  0  0  0
    1.6598    5.3934    0.7529 C   0  0  0  0  0  0  0  0  0  0  0  0
    0.5056    4.6761    0.4177 C   0  0  0  0  0  0  0  0  0  0  0  0
   -2.8505    4.9149   -0.2407 C   0  0  0  0  0  0  0  0  0  0  0  0
   -4.0055    5.0458   -1.0315 C   0  0  0  0  0  0  0  0  0  0  0  0
   -5.2263    5.3959   -0.4457 C   0  0  0  0  0  0  0  0  0  0  0  0
   -5.3020    5.6224    0.9317 C   0  0  0  0  0  0  0  0  0  0  0  0
   -6.8708    6.0559    1.6912 S   0  0  0  0  0  0  0  0  0  0  0  0
   -7.3035    4.3284    2.0795 C   0  0  0  0  0  0  0  0  0  0  0  0
   -4.1504    5.5258    1.7199 C   0  0  0  0  0  0  0  0  0  0  0  0
   -2.9294    5.1711    1.1406 C   0  0  0  0  0  0  0  0  0  0  0  0
   -2.4448    2.2885   -1.6596 C   0  0  0  0  0  0  0  0  0  0  0  0
   -3.2085    1.6155   -0.3430 S   0  0  0  0  0  0  0  0  0  0  0  0
    0.4380    4.0212   -3.2555 C   0  0  0  0  0  0  0  0  0  0  0  0
    0.7110    4.5403   -4.5116 C   0  0  0  0  0  0  0  0  0  0  0  0
    2.0687    4.8339   -4.7104 C   0  0  0  0  0  0  0  0  0  0  0  0
    2.6776    5.5356   -6.2425 S   0  0  0  0  0  0  0  0  0  0  0  0
    3.0825    3.9040   -6.9538 C   0  0  0  0  0  0  0  0  0  0  0  0
    3.7694    4.0835   -8.2954 C   0  0  0  0  0  0  0  0  0  0  0  0
    2.8927    4.4805   -3.6429 C   0  0  0  0  0  0  0  0  0  0  0  0
    1.8997    3.8611   -2.4355 S   0  0  0  0  0  0  0  0  0  0  0  0
    4.3473    4.7476   -3.5672 C   0  0  0  0  0  0  0  0  0  0  0  0
    5.2542    4.1020   -2.8012 C   0  0  0  0  0  0  0  0  0  0  0  0
    5.0602    2.8084   -2.1092 C   0  0  0  0  0  0  0  0  0  0  0  0
    4.0801    2.0255   -2.2172 O   0  0  0  0  0  0  0  0  0  0  0  0
    6.2930    2.4776   -1.4422 C   0  0  0  0  0  0  0  0  0  0  0  0
    7.2459    3.4284   -1.7009 C   0  0  0  0  0  0  0  0  0  0  0  0
    8.4875    3.1641   -1.1206 C   0  0  0  0  0  0  0  0  0  0  0  0
    8.3192    1.6991   -0.2859 S   0  0  0  0  0  0  0  0  0  0  0  0
    6.6972    1.4118   -0.6552 C   0  0  0  0  0  0  0  0  0  0  0  0
    5.7361    0.0564   -0.1088 Cl  0  0  0  0  0  0  0  0  0  0  0  0
    6.6868    4.5142   -2.5442 C   0  0  0  0  0  0  0  0  0  0  0  0
    7.3288    5.6612   -2.8839 C   0  0  0  0  0  0  0  0  0  0  0  0
    6.6969    6.7490   -3.5796 C   0  0  0  0  0  0  0  0  0  0  0  0
    6.1925    7.6314   -4.1307 N   0  0  0  0  0  0  0  0  0  0  0  0
    8.6982    5.9023   -2.5045 C   0  0  0  0  0  0  0  0  0  0  0  0
    9.7991    6.1111   -2.2022 N   0  0  0  0  0  0  0  0  0  0  0  0
   -0.5370   -3.7360    5.5182 H   0  0  0  0  0  0  0  0  0  0  0  0
    4.5314   -1.0762    7.1917 H   0  0  0  0  0  0  0  0  0  0  0  0
    0.7449   -4.8288   -0.3942 H   0  0  0  0  0  0  0  0  0  0  0  0
    1.6232   -4.0059   -2.5551 H   0  0  0  0  0  0  0  0  0  0  0  0
    4.3270   -3.2997   -3.1770 H   0  0  0  0  0  0  0  0  0  0  0  0
    4.8864   -1.8530   -2.2311 H   0  0  0  0  0  0  0  0  0  0  0  0
    5.0440   -1.8791   -4.0313 H   0  0  0  0  0  0  0  0  0  0  0  0
    2.5869   -0.2347   -0.7192 H   0  0  0  0  0  0  0  0  0  0  0  0
    1.7105   -1.0529    1.4287 H   0  0  0  0  0  0  0  0  0  0  0  0
    3.1382   -4.0507    2.3722 H   0  0  0  0  0  0  0  0  0  0  0  0
    4.0085   -6.0945    3.4463 H   0  0  0  0  0  0  0  0  0  0  0  0
    1.6805   -9.3944    2.5304 H   0  0  0  0  0  0  0  0  0  0  0  0
    3.0064  -10.4253    3.1847 H   0  0  0  0  0  0  0  0  0  0  0  0
    3.4185   -8.9232    2.2693 H   0  0  0  0  0  0  0  0  0  0  0  0
   -0.0101   -7.5471    3.9583 H   0  0  0  0  0  0  0  0  0  0  0  0
   -0.8867   -5.5377    2.8468 H   0  0  0  0  0  0  0  0  0  0  0  0
   -5.4551   -3.1062    0.6606 H   0  0  0  0  0  0  0  0  0  0  0  0
   -7.4755   -3.8321   -0.5412 H   0  0  0  0  0  0  0  0  0  0  0  0
  -11.7052   -3.4975   -0.1285 H   0  0  0  0  0  0  0  0  0  0  0  0
  -10.8793   -2.2526    0.8869 H   0  0  0  0  0  0  0  0  0  0  0  0
  -10.1067   -3.8748    0.6182 H   0  0  0  0  0  0  0  0  0  0  0  0
   -9.1220    0.1311   -0.1740 H   0  0  0  0  0  0  0  0  0  0  0  0
   -7.0919    0.8686    1.0264 H   0  0  0  0  0  0  0  0  0  0  0  0
   -6.7760   -1.0179    3.5730 H   0  0  0  0  0  0  0  0  0  0  0  0
   -6.9336    0.1814    5.7192 H   0  0  0  0  0  0  0  0  0  0  0  0
   -4.7225    0.0879    7.7032 H   0  0  0  0  0  0  0  0  0  0  0  0
   -3.2679    1.1190    7.3533 H   0  0  0  0  0  0  0  0  0  0  0  0
   -4.2391    1.3903    8.8513 H   0  0  0  0  0  0  0  0  0  0  0  0
   -3.5020    2.5447    4.6597 H   0  0  0  0  0  0  0  0  0  0  0  0
   -3.3225    1.3488    2.5221 H   0  0  0  0  0  0  0  0  0  0  0  0
   -1.0067   -2.9040   -3.2597 H   0  0  0  0  0  0  0  0  0  0  0  0
   -1.3231   -5.2821   -2.6911 H   0  0  0  0  0  0  0  0  0  0  0  0
   -4.9470   -6.6722   -3.9547 H   0  0  0  0  0  0  0  0  0  0  0  0
   -4.2727   -8.3204   -3.6725 H   0  0  0  0  0  0  0  0  0  0  0  0
   -3.1932   -7.0002   -4.2598 H   0  0  0  0  0  0  0  0  0  0  0  0
   -5.4848   -4.5382   -1.8863 H   0  0  0  0  0  0  0  0  0  0  0  0
   -5.1735   -2.1551   -2.4701 H   0  0  0  0  0  0  0  0  0  0  0  0
   -4.6924    0.6907   -4.4136 H   0  0  0  0  0  0  0  0  0  0  0  0
   -4.9126    1.2468   -6.8044 H   0  0  0  0  0  0  0  0  0  0  0  0
   -2.1321    2.1804  -10.0714 H   0  0  0  0  0  0  0  0  0  0  0  0
   -1.2425    1.2893   -8.7733 H   0  0  0  0  0  0  0  0  0  0  0  0
   -2.5536    2.4721   -8.3375 H   0  0  0  0  0  0  0  0  0  0  0  0
   -1.6873   -1.4379   -7.7395 H   0  0  0  0  0  0  0  0  0  0  0  0
   -1.4395   -1.9818   -5.3647 H   0  0  0  0  0  0  0  0  0  0  0  0
   -0.8873    6.8909   -1.7626 H   0  0  0  0  0  0  0  0  0  0  0  0
    1.1506    8.1585   -1.1785 H   0  0  0  0  0  0  0  0  0  0  0  0
    4.3245    5.7896   -0.7786 H   0  0  0  0  0  0  0  0  0  0  0  0
    5.3753    7.2528   -0.7642 H   0  0  0  0  0  0  0  0  0  0  0  0
    3.8799    7.2429   -1.7738 H   0  0  0  0  0  0  0  0  0  0  0  0
    2.3701    4.9743    1.4549 H   0  0  0  0  0  0  0  0  0  0  0  0
    0.3238    3.7076    0.8733 H   0  0  0  0  0  0  0  0  0  0  0  0
   -3.9615    4.8676   -2.0991 H   0  0  0  0  0  0  0  0  0  0  0  0
   -6.1097    5.4860   -1.0634 H   0  0  0  0  0  0  0  0  0  0  0  0
   -7.4762    3.7617    1.1408 H   0  0  0  0  0  0  0  0  0  0  0  0
   -6.4934    3.8452    2.6666 H   0  0  0  0  0  0  0  0  0  0  0  0
   -8.2322    4.3158    2.6854 H   0  0  0  0  0  0  0  0  0  0  0  0
   -4.2064    5.7065    2.7838 H   0  0  0  0  0  0  0  0  0  0  0  0
   -2.0555    5.0645    1.7695 H   0  0  0  0  0  0  0  0  0  0  0  0
   -0.0398    4.6639   -5.2802 H   0  0  0  0  0  0  0  0  0  0  0  0
    3.7618    3.3508   -6.2674 H   0  0  0  0  0  0  0  0  0  0  0  0
    2.1451    3.3231   -7.0911 H   0  0  0  0  0  0  0  0  0  0  0  0
    4.7049    4.6665   -8.1725 H   0  0  0  0  0  0  0  0  0  0  0  0
    3.0973    4.6122   -9.0044 H   0  0  0  0  0  0  0  0  0  0  0  0
    4.0234    3.0869   -8.7176 H   0  0  0  0  0  0  0  0  0  0  0  0
    4.6707    5.5474   -4.2003 H   0  0  0  0  0  0  0  0  0  0  0  0
    9.3930    3.7387   -1.1935 H   0  0  0  0  0  0  0  0  0  0  0  0
  1  2  2  3
  2  3  1  0
  3  4  2  0
  3  5  1  0
  5  6  1  0
  6  7  2  0
  7  8  1  0
  8  9  1  0
  9 10  1  0
  6 11  1  0
 11 12  2  3
 12 13  1  0
 13 14  3  0
 12 15  1  0
 15 16  3  0
  1 17  1  0
 17 18  2  0
 18 19  1  0
 19 20  1  0
 20 21  2  0
 21 22  1  0
 22 23  2  0
 23 24  1  0
 24 25  1  0
 23 26  1  0
 26 27  2  0
 19 28  1  0
 28 29  2  0
 29 30  1  0
 30 31  2  0
 31 32  1  0
 32 33  1  0
 31 34  1  0
 34 35  2  0
 18 36  1  0
 36 37  1  0
 37 38  1  0
 38 39  2  0
 39 40  1  0
 40 41  1  0
 41 42  2  0
 42 43  1  0
 43 44  2  0
 44 45  1  0
 45 46  1  0
 44 47  1  0
 47 48  2  0
 40 49  1  0
 49 50  2  0
 50 51  1  0
 51 52  2  0
 52 53  1  0
 53 54  1  0
 52 55  1  0
 55 56  2  0
 39 57  1  0
 57 58  1  0
 38 59  1  0
 59 60  2  0
 60 61  1  0
 61 62  1  0
 62 63  2  0
 63 64  1  0
 64 65  2  0
 65 66  1  0
 66 67  1  0
 65 68  1  0
 68 69  2  0
 61 70  1  0
 70 71  2  0
 71 72  1  0
 72 73  2  0
 73 74  1  0
 74 75  1  0
 73 76  1  0
 76 77  2  0
 60 78  1  0
 78 79  1  0
 79 80  1  0
 80 81  2  0
 81 82  1  0
 82 83  1  0
 83 84  2  0
 84 85  1  0
 85 86  2  0
 86 87  1  0
 87 88  1  0
 86 89  1  0
 89 90  2  0
 82 91  1  0
 91 92  2  0
 92 93  1  0
 93 94  2  0
 94 95  1  0
 95 96  1  0
 94 97  1  0
 97 98  2  0
 81 99  1  0
 99100  1  0
 80101  1  0
101102  2  0
102103  1  0
103104  1  0
104105  1  0
105106  1  0
103107  2  0
107108  1  0
107109  1  0
109110  2  3
110111  1  0
111112  2  0
111113  1  0
113114  1  0
114115  2  0
115116  1  0
116117  1  0
117118  1  0
114119  1  0
119120  2  3
120121  1  0
121122  3  0
120123  1  0
123124  3  0
 11  2  1  0
 58 17  1  0
100 59  1  0
108101  1  0
119110  1  0
  9  5  2  0
 27 20  1  0
 35 28  1  0
 57 36  2  0
 69 62  1  0
 77 70  1  0
 99 78  2  0
117113  2  0
 48 41  1  0
 56 49  1  0
 90 83  1  0
 98 91  1  0
  1125  1  0
  7126  1  0
 21127  1  0
 22128  1  0
 25129  1  0
 25130  1  0
 25131  1  0
 26132  1  0
 27133  1  0
 29134  1  0
 30135  1  0
 33136  1  0
 33137  1  0
 33138  1  0
 34139  1  0
 35140  1  0
 42141  1  0
 43142  1  0
 46143  1  0
 46144  1  0
 46145  1  0
 47146  1  0
 48147  1  0
 50148  1  0
 51149  1  0
 54150  1  0
 54151  1  0
 54152  1  0
 55153  1  0
 56154  1  0
 63155  1  0
 64156  1  0
 67157  1  0
 67158  1  0
 67159  1  0
 68160  1  0
 69161  1  0
 71162  1  0
 72163  1  0
 75164  1  0
 75165  1  0
 75166  1  0
 76167  1  0
 77168  1  0
 84169  1  0
 85170  1  0
 88171  1  0
 88172  1  0
 88173  1  0
 89174  1  0
 90175  1  0
 92176  1  0
 93177  1  0
 96178  1  0
 96179  1  0
 96180  1  0
 97181  1  0
 98182  1  0
102183  1  0
105184  1  0
105185  1  0
106186  1  0
106187  1  0
106188  1  0
109189  1  0
115190  1  0
M  END

