
     RDKit          3D

106114  0  0  0  0  0  0  0  0999 V2000
    6.3627    0.9932   -3.0853 C   0  0  0  0  0  0  0  0  0  0  0  0
    7.6831    0.9272   -2.8447 C   0  0  0  0  0  0  0  0  0  0  0  0
    8.6782    1.1855   -3.8967 C   0  0  0  0  0  0  0  0  0  0  0  0
    8.4659    1.7284   -5.0132 O   0  0  0  0  0  0  0  0  0  0  0  0
    9.9298    0.6184   -3.4535 C   0  0  0  0  0  0  0  0  0  0  0  0
    9.7892    0.0873   -2.1932 C   0  0  0  0  0  0  0  0  0  0  0  0
   10.9542   -0.4689   -1.6716 C   0  0  0  0  0  0  0  0  0  0  0  0
   12.1454   -0.2825   -2.8654 S   0  0  0  0  0  0  0  0  0  0  0  0
   11.1889    0.5073   -4.0127 C   0  0  0  0  0  0  0  0  0  0  0  0
   11.7114    1.0761   -5.5862 Cl  0  0  0  0  0  0  0  0  0  0  0  0
    8.4229    0.3350   -1.6782 C   0  0  0  0  0  0  0  0  0  0  0  0
    8.0635    0.3414   -0.3738 C   0  0  0  0  0  0  0  0  0  0  0  0
    6.9038    1.0515    0.0938 C   0  0  0  0  0  0  0  0  0  0  0  0
    5.9768    1.6228    0.4849 N   0  0  0  0  0  0  0  0  0  0  0  0
    8.9023   -0.2284    0.6496 C   0  0  0  0  0  0  0  0  0  0  0  0
    9.5755   -0.6802    1.4762 N   0  0  0  0  0  0  0  0  0  0  0  0
    5.3163    0.3126   -2.3094 C   0  0  0  0  0  0  0  0  0  0  0  0
    5.3215   -1.0088   -1.8621 C   0  0  0  0  0  0  0  0  0  0  0  0
    6.4368   -1.8400   -2.0176 O   0  0  0  0  0  0  0  0  0  0  0  0
    6.3857   -3.1172   -2.6519 C   0  0  0  0  0  0  0  0  0  0  0  0
    6.1574   -2.9496   -4.1533 C   0  0  0  0  0  0  0  0  0  0  0  0
    4.1042   -1.4146   -1.2805 C   0  0  0  0  0  0  0  0  0  0  0  0
    3.9532   -2.6915   -0.7207 O   0  0  0  0  0  0  0  0  0  0  0  0
    2.7079   -3.3306   -0.4525 C   0  0  0  0  0  0  0  0  0  0  0  0
    2.9489   -4.7946   -0.1261 C   0  0  0  0  0  0  0  0  0  0  0  0
    3.1213   -0.4152   -1.3346 C   0  0  0  0  0  0  0  0  0  0  0  0
    3.7811    0.9396   -2.0823 S   0  0  0  0  0  0  0  0  0  0  0  0
    1.7647   -0.4134   -0.7651 C   0  0  0  0  0  0  0  0  0  0  0  0
    1.5303   -0.2749    0.6188 C   0  0  0  0  0  0  0  0  0  0  0  0
    2.5060   -0.2410    1.6278 C   0  0  0  0  0  0  0  0  0  0  0  0
    1.9632   -0.0459    2.8974 C   0  0  0  0  0  0  0  0  0  0  0  0
    2.7321   -0.0709    4.1804 C   0  0  0  0  0  0  0  0  0  0  0  0
    2.9484   -1.5012    4.6542 C   0  0  0  0  0  0  0  0  0  0  0  0
    0.2826    0.0607    2.7790 S   0  0  0  0  0  0  0  0  0  0  0  0
    0.2274   -0.1146    1.1051 C   0  0  0  0  0  0  0  0  0  0  0  0
   -0.8932   -0.0785    0.2580 C   0  0  0  0  0  0  0  0  0  0  0  0
   -0.6587   -0.2651   -1.1208 C   0  0  0  0  0  0  0  0  0  0  0  0
    0.6428   -0.4161   -1.6048 C   0  0  0  0  0  0  0  0  0  0  0  0
    0.5944   -0.5606   -3.2800 S   0  0  0  0  0  0  0  0  0  0  0  0
   -1.0890   -0.4708   -3.4015 C   0  0  0  0  0  0  0  0  0  0  0  0
   -1.8722   -0.4706   -4.6791 C   0  0  0  0  0  0  0  0  0  0  0  0
   -1.4423   -1.6028   -5.6041 C   0  0  0  0  0  0  0  0  0  0  0  0
   -1.6323   -0.2906   -2.1326 C   0  0  0  0  0  0  0  0  0  0  0  0
   -2.2396    0.2674    0.7678 C   0  0  0  0  0  0  0  0  0  0  0  0
   -2.7734    1.5355    0.4894 C   0  0  0  0  0  0  0  0  0  0  0  0
   -1.9674    2.4398   -0.2265 O   0  0  0  0  0  0  0  0  0  0  0  0
   -2.3101    3.7789   -0.5736 C   0  0  0  0  0  0  0  0  0  0  0  0
   -4.0751    1.8451    0.9300 C   0  0  0  0  0  0  0  0  0  0  0  0
   -4.6110    3.0715    0.7043 F   0  0  0  0  0  0  0  0  0  0  0  0
   -4.8464    0.8823    1.6075 C   0  0  0  0  0  0  0  0  0  0  0  0
   -4.2898   -0.3665    1.9385 C   0  0  0  0  0  0  0  0  0  0  0  0
   -5.0805   -1.2628    2.6837 O   0  0  0  0  0  0  0  0  0  0  0  0
   -4.7104   -2.5863    3.0765 C   0  0  0  0  0  0  0  0  0  0  0  0
   -2.9791   -0.6702    1.5066 C   0  0  0  0  0  0  0  0  0  0  0  0
   -2.4164   -1.8770    1.7686 F   0  0  0  0  0  0  0  0  0  0  0  0
   -6.2273    1.2061    2.0398 C   0  0  0  0  0  0  0  0  0  0  0  0
   -7.1919    1.6399    1.2012 C   0  0  0  0  0  0  0  0  0  0  0  0
   -7.1141    1.6130   -0.2762 C   0  0  0  0  0  0  0  0  0  0  0  0
   -6.1477    1.2096   -0.9763 O   0  0  0  0  0  0  0  0  0  0  0  0
   -8.3943    2.0334   -0.7936 C   0  0  0  0  0  0  0  0  0  0  0  0
   -9.2557    2.3043    0.2414 C   0  0  0  0  0  0  0  0  0  0  0  0
  -10.5055    2.7690   -0.1641 C   0  0  0  0  0  0  0  0  0  0  0  0
  -10.4693    2.8124   -1.8574 S   0  0  0  0  0  0  0  0  0  0  0  0
   -8.8966    2.2334   -2.0678 C   0  0  0  0  0  0  0  0  0  0  0  0
   -8.1698    2.0831   -3.3628 C   0  0  0  0  0  0  0  0  0  0  0  0
   -8.5830    2.1041    1.5499 C   0  0  0  0  0  0  0  0  0  0  0  0
   -9.1123    2.3804    2.7682 C   0  0  0  0  0  0  0  0  0  0  0  0
   -8.3497    2.3191    3.9873 C   0  0  0  0  0  0  0  0  0  0  0  0
   -7.7512    2.2751    4.9797 N   0  0  0  0  0  0  0  0  0  0  0  0
  -10.4825    2.7999    2.9258 C   0  0  0  0  0  0  0  0  0  0  0  0
  -11.5809    3.1364    3.0715 N   0  0  0  0  0  0  0  0  0  0  0  0
    6.0339    1.4928   -3.9855 H   0  0  0  0  0  0  0  0  0  0  0  0
   11.0907   -0.9420   -0.7111 H   0  0  0  0  0  0  0  0  0  0  0  0
    5.5874   -3.7558   -2.2166 H   0  0  0  0  0  0  0  0  0  0  0  0
    7.3590   -3.6267   -2.4879 H   0  0  0  0  0  0  0  0  0  0  0  0
    6.9848   -2.3477   -4.5974 H   0  0  0  0  0  0  0  0  0  0  0  0
    5.1839   -2.4375   -4.3388 H   0  0  0  0  0  0  0  0  0  0  0  0
    6.1355   -3.9513   -4.6367 H   0  0  0  0  0  0  0  0  0  0  0  0
    2.2172   -2.8603    0.4182 H   0  0  0  0  0  0  0  0  0  0  0  0
    2.0401   -3.2590   -1.3373 H   0  0  0  0  0  0  0  0  0  0  0  0
    3.5740   -4.8855    0.7902 H   0  0  0  0  0  0  0  0  0  0  0  0
    3.4629   -5.2952   -0.9682 H   0  0  0  0  0  0  0  0  0  0  0  0
    1.9765   -5.2980    0.0537 H   0  0  0  0  0  0  0  0  0  0  0  0
    3.5646   -0.3735    1.4460 H   0  0  0  0  0  0  0  0  0  0  0  0
    2.1762    0.4937    4.9532 H   0  0  0  0  0  0  0  0  0  0  0  0
    3.7128    0.4238    4.0361 H   0  0  0  0  0  0  0  0  0  0  0  0
    3.5285   -2.0648    3.8928 H   0  0  0  0  0  0  0  0  0  0  0  0
    1.9726   -2.0018    4.8266 H   0  0  0  0  0  0  0  0  0  0  0  0
    3.5237   -1.4970    5.6042 H   0  0  0  0  0  0  0  0  0  0  0  0
   -2.9521   -0.5895   -4.4488 H   0  0  0  0  0  0  0  0  0  0  0  0
   -1.7325    0.5023   -5.1913 H   0  0  0  0  0  0  0  0  0  0  0  0
   -0.3869   -1.4620   -5.9229 H   0  0  0  0  0  0  0  0  0  0  0  0
   -2.0892   -1.6059   -6.5049 H   0  0  0  0  0  0  0  0  0  0  0  0
   -1.5397   -2.5803   -5.0866 H   0  0  0  0  0  0  0  0  0  0  0  0
   -2.6912   -0.1865   -1.9489 H   0  0  0  0  0  0  0  0  0  0  0  0
   -3.1878    3.7742   -1.2448 H   0  0  0  0  0  0  0  0  0  0  0  0
   -2.5111    4.3823    0.3355 H   0  0  0  0  0  0  0  0  0  0  0  0
   -1.4607    4.2363   -1.1169 H   0  0  0  0  0  0  0  0  0  0  0  0
   -5.5250   -3.0230    3.6838 H   0  0  0  0  0  0  0  0  0  0  0  0
   -3.7980   -2.5589    3.6987 H   0  0  0  0  0  0  0  0  0  0  0  0
   -4.5659   -3.2232    2.1786 H   0  0  0  0  0  0  0  0  0  0  0  0
   -6.4432    1.0374    3.0808 H   0  0  0  0  0  0  0  0  0  0  0  0
  -11.3381    3.0741    0.4500 H   0  0  0  0  0  0  0  0  0  0  0  0
   -7.4408    2.9120   -3.4869 H   0  0  0  0  0  0  0  0  0  0  0  0
   -8.8950    2.1071   -4.2027 H   0  0  0  0  0  0  0  0  0  0  0  0
   -7.6305    1.1160   -3.3848 H   0  0  0  0  0  0  0  0  0  0  0  0
  1  2  2  3
  2  3  1  0
  3  4  2  0
  3  5  1  0
  5  6  1  0
  6  7  2  0
  7  8  1  0
  8  9  1  0
  9 10  1  0
  6 11  1  0
 11 12  2  3
 12 13  1  0
 13 14  3  0
 12 15  1  0
 15 16  3  0
  1 17  1  0
 17 18  2  0
 18 19  1  0
 19 20  1  0
 20 21  1  0
 18 22  1  0
 22 23  1  0
 23 24  1  0
 24 25  1  0
 22 26  2  0
 26 27  1  0
 26 28  1  0
 28 29  2  0
 29 30  1  0
 30 31  2  0
 31 32  1  0
 32 33  1  0
 31 34  1  0
 34 35  1  0
 35 36  2  0
 36 37  1  0
 37 38  2  0
 38 39  1  0
 39 40  1  0
 40 41  1  0
 41 42  1  0
 40 43  2  0
 36 44  1  0
 44 45  2  0
 45 46  1  0
 46 47  1  0
 45 48  1  0
 48 49  1  0
 48 50  2  0
 50 51  1  0
 51 52  1  0
 52 53  1  0
 51 54  2  0
 54 55  1  0
 50 56  1  0
 56 57  2  3
 57 58  1  0
 58 59  2  0
 58 60  1  0
 60 61  1  0
 61 62  2  0
 62 63  1  0
 63 64  1  0
 64 65  1  0
 61 66  1  0
 66 67  2  3
 67 68  1  0
 68 69  3  0
 67 70  1  0
 70 71  3  0
 11  2  1  0
 27 17  1  0
 38 28  1  0
 54 44  1  0
 66 57  1  0
  9  5  2  0
 35 29  1  0
 43 37  1  0
 64 60  2  0
  1 72  1  0
  7 73  1  0
 20 74  1  0
 20 75  1  0
 21 76  1  0
 21 77  1  0
 21 78  1  0
 24 79  1  0
 24 80  1  0
 25 81  1  0
 25 82  1  0
 25 83  1  0
 30 84  1  0
 32 85  1  0
 32 86  1  0
 33 87  1  0
 33 88  1  0
 33 89  1  0
 41 90  1  0
 41 91  1  0
 42 92  1  0
 42 93  1  0
 42 94  1  0
 43 95  1  0
 47 96  1  0
 47 97  1  0
 47 98  1  0
 53 99  1  0
 53100  1  0
 53101  1  0
 56102  1  0
 62103  1  0
 65104  1  0
 65105  1  0
 65106  1  0
M  END

