
     RDKit          3D

180197  0  0  0  0  0  0  0  0999 V2000
   -8.4443   -3.5693   -8.6122 C   0  0  0  0  0  0  0  0  0  0  0  0
   -7.9836   -4.8349   -8.6855 C   0  0  0  0  0  0  0  0  0  0  0  0
   -6.8238   -5.3745   -7.9588 C   0  0  0  0  0  0  0  0  0  0  0  0
   -5.9085   -4.7145   -7.3988 O   0  0  0  0  0  0  0  0  0  0  0  0
   -6.8718   -6.8174   -8.0287 C   0  0  0  0  0  0  0  0  0  0  0  0
   -6.0438   -7.7343   -7.3856 C   0  0  0  0  0  0  0  0  0  0  0  0
   -6.3070   -9.1075   -7.5357 C   0  0  0  0  0  0  0  0  0  0  0  0
   -5.4422  -10.1126   -6.8188 C   0  0  0  0  0  0  0  0  0  0  0  0
   -4.1085   -9.7636   -6.9356 F   0  0  0  0  0  0  0  0  0  0  0  0
   -5.6045  -11.3854   -7.3406 F   0  0  0  0  0  0  0  0  0  0  0  0
   -5.7836  -10.1351   -5.4763 F   0  0  0  0  0  0  0  0  0  0  0  0
   -7.4369   -9.5153   -8.2798 C   0  0  0  0  0  0  0  0  0  0  0  0
   -8.2604   -8.5702   -8.9171 C   0  0  0  0  0  0  0  0  0  0  0  0
   -7.9440   -7.2073   -8.8076 C   0  0  0  0  0  0  0  0  0  0  0  0
   -8.6248   -6.0020   -9.3666 C   0  0  0  0  0  0  0  0  0  0  0  0
   -9.4481   -5.9688  -10.4466 C   0  0  0  0  0  0  0  0  0  0  0  0
   -9.8414   -4.7407  -11.0894 C   0  0  0  0  0  0  0  0  0  0  0  0
  -10.1581   -3.7591  -11.6161 N   0  0  0  0  0  0  0  0  0  0  0  0
   -9.8714   -7.1635  -11.1312 C   0  0  0  0  0  0  0  0  0  0  0  0
  -10.2176   -8.1153  -11.6893 N   0  0  0  0  0  0  0  0  0  0  0  0
   -7.7865   -2.5113   -7.8206 C   0  0  0  0  0  0  0  0  0  0  0  0
   -7.6355   -2.6505   -6.4246 C   0  0  0  0  0  0  0  0  0  0  0  0
   -6.8944   -1.6904   -5.7426 C   0  0  0  0  0  0  0  0  0  0  0  0
   -6.3923   -1.7135   -4.3769 C   0  0  0  0  0  0  0  0  0  0  0  0
   -6.6592   -2.5663   -3.4894 O   0  0  0  0  0  0  0  0  0  0  0  0
   -5.4534   -0.6043   -4.2664 C   0  0  0  0  0  0  0  0  0  0  0  0
   -5.4232    0.0691   -5.4715 C   0  0  0  0  0  0  0  0  0  0  0  0
   -6.3262   -0.6123   -6.3998 C   0  0  0  0  0  0  0  0  0  0  0  0
   -6.5120   -0.4208   -7.7694 C   0  0  0  0  0  0  0  0  0  0  0  0
   -7.2648   -1.3715   -8.4784 C   0  0  0  0  0  0  0  0  0  0  0  0
   -4.5056    1.0910   -5.6990 C   0  0  0  0  0  0  0  0  0  0  0  0
   -3.5862    1.4041   -4.6816 C   0  0  0  0  0  0  0  0  0  0  0  0
   -3.5717    0.6805   -3.4592 C   0  0  0  0  0  0  0  0  0  0  0  0
   -4.5491   -0.3224   -3.2517 C   0  0  0  0  0  0  0  0  0  0  0  0
   -2.5038    0.8630   -2.4347 C   0  0  0  0  0  0  0  0  0  0  0  0
   -1.1855    1.3464   -2.6121 C   0  0  0  0  0  0  0  0  0  0  0  0
   -0.6882    2.0709   -3.7434 N   0  0  0  0  0  0  0  0  0  0  0  0
   -0.8796    3.5064   -3.8118 C   0  0  0  0  0  0  0  0  0  0  0  0
   -1.1488    4.2577   -2.6463 C   0  0  0  0  0  0  0  0  0  0  0  0
   -1.3898    5.6298   -2.7229 C   0  0  0  0  0  0  0  0  0  0  0  0
   -1.3584    6.2821   -3.9598 C   0  0  0  0  0  0  0  0  0  0  0  0
   -1.7050    8.0399   -4.0471 S   0  0  0  0  0  0  0  0  0  0  0  0
    0.0045    8.5232   -3.6531 C   0  0  0  0  0  0  0  0  0  0  0  0
   -1.0893    5.5526   -5.1232 C   0  0  0  0  0  0  0  0  0  0  0  0
   -0.8575    4.1750   -5.0506 C   0  0  0  0  0  0  0  0  0  0  0  0
    0.2282    1.3819   -4.6188 C   0  0  0  0  0  0  0  0  0  0  0  0
    1.4754    1.9411   -4.9375 C   0  0  0  0  0  0  0  0  0  0  0  0
    2.4027    1.2183   -5.6932 C   0  0  0  0  0  0  0  0  0  0  0  0
    2.0955   -0.0759   -6.1320 C   0  0  0  0  0  0  0  0  0  0  0  0
    3.3074   -1.0412   -7.0337 S   0  0  0  0  0  0  0  0  0  0  0  0
    2.6847   -0.5410   -8.6669 C   0  0  0  0  0  0  0  0  0  0  0  0
    0.8512   -0.6361   -5.8219 C   0  0  0  0  0  0  0  0  0  0  0  0
   -0.0782    0.0864   -5.0753 C   0  0  0  0  0  0  0  0  0  0  0  0
   -0.4040    1.1361   -1.4784 C   0  0  0  0  0  0  0  0  0  0  0  0
    1.1830    1.4982   -1.0649 S   0  0  0  0  0  0  0  0  0  0  0  0
    1.0346    0.8826    0.5150 C   0  0  0  0  0  0  0  0  0  0  0  0
   -0.2732    0.4177    0.7237 C   0  0  0  0  0  0  0  0  0  0  0  0
   -0.8079   -0.0316    1.9834 N   0  0  0  0  0  0  0  0  0  0  0  0
   -0.2442   -1.1677    2.6808 C   0  0  0  0  0  0  0  0  0  0  0  0
   -0.4396   -1.3119    4.0671 C   0  0  0  0  0  0  0  0  0  0  0  0
   -0.0089   -2.4653    4.7288 C   0  0  0  0  0  0  0  0  0  0  0  0
    0.6419   -3.4809    4.0239 C   0  0  0  0  0  0  0  0  0  0  0  0
    1.0730   -5.0086    4.8595 S   0  0  0  0  0  0  0  0  0  0  0  0
    2.7263   -4.4440    5.3704 C   0  0  0  0  0  0  0  0  0  0  0  0
    0.8884   -3.3274    2.6547 C   0  0  0  0  0  0  0  0  0  0  0  0
    0.4436   -2.1819    1.9847 C   0  0  0  0  0  0  0  0  0  0  0  0
   -2.0703    0.5190    2.4063 C   0  0  0  0  0  0  0  0  0  0  0  0
   -3.1900   -0.3151    2.5563 C   0  0  0  0  0  0  0  0  0  0  0  0
   -4.4378    0.2290    2.8712 C   0  0  0  0  0  0  0  0  0  0  0  0
   -4.5770    1.6131    3.0437 C   0  0  0  0  0  0  0  0  0  0  0  0
   -6.1844    2.3147    3.4229 S   0  0  0  0  0  0  0  0  0  0  0  0
   -6.6079    2.6014    1.6753 C   0  0  0  0  0  0  0  0  0  0  0  0
   -3.4597    2.4467    2.9167 C   0  0  0  0  0  0  0  0  0  0  0  0
   -2.2126    1.9040    2.5861 C   0  0  0  0  0  0  0  0  0  0  0  0
   -1.0391    0.5742   -0.4284 C   0  0  0  0  0  0  0  0  0  0  0  0
   -2.6239    0.2500   -0.8436 S   0  0  0  0  0  0  0  0  0  0  0  0
    2.0623    1.0192    1.5392 C   0  0  0  0  0  0  0  0  0  0  0  0
    2.1684    2.0912    2.4101 C   0  0  0  0  0  0  0  0  0  0  0  0
    3.2082    1.9283    3.3358 C   0  0  0  0  0  0  0  0  0  0  0  0
    3.5341    2.8236    4.3666 C   0  0  0  0  0  0  0  0  0  0  0  0
    2.9006    4.1475    4.4783 C   0  0  0  0  0  0  0  0  0  0  0  0
    2.2305    4.6487    5.5877 C   0  0  0  0  0  0  0  0  0  0  0  0
    1.8611    5.9924    5.4499 C   0  0  0  0  0  0  0  0  0  0  0  0
    1.0117    6.8702    6.7089 Cl  0  0  0  0  0  0  0  0  0  0  0  0
    2.2547    6.5535    4.2340 C   0  0  0  0  0  0  0  0  0  0  0  0
    2.0530    7.9724    3.7899 C   0  0  0  0  0  0  0  0  0  0  0  0
    0.8023    8.0996    2.9272 C   0  0  0  0  0  0  0  0  0  0  0  0
    3.0329    5.3681    3.3286 S   0  0  0  0  0  0  0  0  0  0  0  0
    4.5100    2.4065    5.2798 C   0  0  0  0  0  0  0  0  0  0  0  0
    5.1993    1.1924    5.1580 C   0  0  0  0  0  0  0  0  0  0  0  0
    4.9412    0.3323    4.0659 C   0  0  0  0  0  0  0  0  0  0  0  0
    5.7352   -0.8943    3.8395 C   0  0  0  0  0  0  0  0  0  0  0  0
    5.1320   -2.4014    3.3868 S   0  0  0  0  0  0  0  0  0  0  0  0
    6.6181   -3.1847    3.3016 C   0  0  0  0  0  0  0  0  0  0  0  0
    6.8160   -4.6065    2.8674 C   0  0  0  0  0  0  0  0  0  0  0  0
    6.8582   -4.7105    1.3457 C   0  0  0  0  0  0  0  0  0  0  0  0
    7.6171   -2.2624    3.6041 C   0  0  0  0  0  0  0  0  0  0  0  0
    7.1238   -0.9877    3.9070 C   0  0  0  0  0  0  0  0  0  0  0  0
    9.3359   -2.6288    3.5908 Cl  0  0  0  0  0  0  0  0  0  0  0  0
    3.9031    0.7190    3.1926 C   0  0  0  0  0  0  0  0  0  0  0  0
    3.2490   -0.1229    1.8862 S   0  0  0  0  0  0  0  0  0  0  0  0
    6.0413    0.9255    6.2563 C   0  0  0  0  0  0  0  0  0  0  0  0
    5.9828    1.9246    7.2284 C   0  0  0  0  0  0  0  0  0  0  0  0
    4.9608    3.1599    6.7040 S   0  0  0  0  0  0  0  0  0  0  0  0
    6.5702    1.8594    8.5763 C   0  0  0  0  0  0  0  0  0  0  0  0
    5.8482    2.1287    9.6801 C   0  0  0  0  0  0  0  0  0  0  0  0
    6.4169    2.7770   10.8635 C   0  0  0  0  0  0  0  0  0  0  0  0
    7.6341    2.7620   11.2022 O   0  0  0  0  0  0  0  0  0  0  0  0
    5.3560    3.5232   11.5202 C   0  0  0  0  0  0  0  0  0  0  0  0
    5.4559    4.4373   12.5669 C   0  0  0  0  0  0  0  0  0  0  0  0
    4.3088    5.1638   12.9490 C   0  0  0  0  0  0  0  0  0  0  0  0
    4.4063    6.2136   14.0295 C   0  0  0  0  0  0  0  0  0  0  0  0
    5.2543    5.7927   15.0405 F   0  0  0  0  0  0  0  0  0  0  0  0
    4.9015    7.3847   13.4878 F   0  0  0  0  0  0  0  0  0  0  0  0
    3.1667    6.4723   14.5872 F   0  0  0  0  0  0  0  0  0  0  0  0
    3.1064    4.9871   12.2284 C   0  0  0  0  0  0  0  0  0  0  0  0
    3.0266    4.0624   11.1768 C   0  0  0  0  0  0  0  0  0  0  0  0
    4.1639    3.3127   10.8508 C   0  0  0  0  0  0  0  0  0  0  0  0
    4.3698    2.3192    9.7722 C   0  0  0  0  0  0  0  0  0  0  0  0
    3.4323    1.4863    9.2499 C   0  0  0  0  0  0  0  0  0  0  0  0
    3.7967    0.2526    8.5998 C   0  0  0  0  0  0  0  0  0  0  0  0
    4.0753   -0.7509    8.0895 N   0  0  0  0  0  0  0  0  0  0  0  0
    2.0199    1.6897    9.4379 C   0  0  0  0  0  0  0  0  0  0  0  0
    0.8798    1.8406    9.5716 N   0  0  0  0  0  0  0  0  0  0  0  0
   -9.3360   -3.2735   -9.1297 H   0  0  0  0  0  0  0  0  0  0  0  0
   -5.2191   -7.3868   -6.7733 H   0  0  0  0  0  0  0  0  0  0  0  0
   -7.6958  -10.5636   -8.3551 H   0  0  0  0  0  0  0  0  0  0  0  0
   -9.1390   -8.9195   -9.4345 H   0  0  0  0  0  0  0  0  0  0  0  0
   -8.0111   -3.5229   -5.9023 H   0  0  0  0  0  0  0  0  0  0  0  0
   -6.0500    0.4134   -8.2832 H   0  0  0  0  0  0  0  0  0  0  0  0
   -7.3872   -1.2603   -9.5489 H   0  0  0  0  0  0  0  0  0  0  0  0
   -4.4721    1.6125   -6.6473 H   0  0  0  0  0  0  0  0  0  0  0  0
   -2.8857    2.1908   -4.8775 H   0  0  0  0  0  0  0  0  0  0  0  0
   -4.5624   -0.9366   -2.3585 H   0  0  0  0  0  0  0  0  0  0  0  0
   -1.1760    3.7905   -1.6715 H   0  0  0  0  0  0  0  0  0  0  0  0
   -1.6016    6.1871   -1.8201 H   0  0  0  0  0  0  0  0  0  0  0  0
    0.6766    8.2419   -4.4892 H   0  0  0  0  0  0  0  0  0  0  0  0
    0.3419    8.0344   -2.7134 H   0  0  0  0  0  0  0  0  0  0  0  0
    0.0436    9.6233   -3.5138 H   0  0  0  0  0  0  0  0  0  0  0  0
   -1.0754    6.0450   -6.0841 H   0  0  0  0  0  0  0  0  0  0  0  0
   -0.6843    3.6235   -5.9667 H   0  0  0  0  0  0  0  0  0  0  0  0
    1.7455    2.9256   -4.5713 H   0  0  0  0  0  0  0  0  0  0  0  0
    3.3689    1.6550   -5.9186 H   0  0  0  0  0  0  0  0  0  0  0  0
    3.2141   -1.1236   -9.4492 H   0  0  0  0  0  0  0  0  0  0  0  0
    2.8829    0.5367   -8.8276 H   0  0  0  0  0  0  0  0  0  0  0  0
    1.5972   -0.7434   -8.7470 H   0  0  0  0  0  0  0  0  0  0  0  0
    0.6073   -1.6369   -6.1574 H   0  0  0  0  0  0  0  0  0  0  0  0
   -1.0327   -0.3651   -4.8442 H   0  0  0  0  0  0  0  0  0  0  0  0
   -0.9571   -0.5479    4.6329 H   0  0  0  0  0  0  0  0  0  0  0  0
   -0.2105   -2.5812    5.7863 H   0  0  0  0  0  0  0  0  0  0  0  0
    2.6633   -3.4671    5.8949 H   0  0  0  0  0  0  0  0  0  0  0  0
    3.1731   -5.1963    6.0552 H   0  0  0  0  0  0  0  0  0  0  0  0
    3.3696   -4.3549    4.4736 H   0  0  0  0  0  0  0  0  0  0  0  0
    1.3938   -4.1098    2.0997 H   0  0  0  0  0  0  0  0  0  0  0  0
    0.6066   -2.1054    0.9146 H   0  0  0  0  0  0  0  0  0  0  0  0
   -3.1008   -1.3799    2.3932 H   0  0  0  0  0  0  0  0  0  0  0  0
   -5.2992   -0.4196    2.9631 H   0  0  0  0  0  0  0  0  0  0  0  0
   -6.6051    1.6409    1.1167 H   0  0  0  0  0  0  0  0  0  0  0  0
   -7.6224    3.0464    1.6193 H   0  0  0  0  0  0  0  0  0  0  0  0
   -5.8821    3.3055    1.2179 H   0  0  0  0  0  0  0  0  0  0  0  0
   -3.5605    3.5159    3.0563 H   0  0  0  0  0  0  0  0  0  0  0  0
   -1.3601    2.5605    2.4665 H   0  0  0  0  0  0  0  0  0  0  0  0
    1.4988    2.9438    2.3889 H   0  0  0  0  0  0  0  0  0  0  0  0
    2.0309    4.0676    6.4802 H   0  0  0  0  0  0  0  0  0  0  0  0
    2.9371    8.2965    3.1976 H   0  0  0  0  0  0  0  0  0  0  0  0
    1.9695    8.6444    4.6721 H   0  0  0  0  0  0  0  0  0  0  0  0
    0.6414    9.1671    2.6623 H   0  0  0  0  0  0  0  0  0  0  0  0
    0.9295    7.5173    1.9909 H   0  0  0  0  0  0  0  0  0  0  0  0
   -0.0902    7.7354    3.4750 H   0  0  0  0  0  0  0  0  0  0  0  0
    5.9851   -5.2275    3.2574 H   0  0  0  0  0  0  0  0  0  0  0  0
    7.7633   -5.0044    3.2883 H   0  0  0  0  0  0  0  0  0  0  0  0
    7.6604   -4.0611    0.9322 H   0  0  0  0  0  0  0  0  0  0  0  0
    7.0663   -5.7605    1.0506 H   0  0  0  0  0  0  0  0  0  0  0  0
    5.8793   -4.4170    0.9133 H   0  0  0  0  0  0  0  0  0  0  0  0
    7.7672   -0.1502    4.1478 H   0  0  0  0  0  0  0  0  0  0  0  0
    6.5890   -0.0010    6.4000 H   0  0  0  0  0  0  0  0  0  0  0  0
    7.6471    1.7881    8.6442 H   0  0  0  0  0  0  0  0  0  0  0  0
    6.4110    4.5955   13.0544 H   0  0  0  0  0  0  0  0  0  0  0  0
    2.2319    5.5789   12.4649 H   0  0  0  0  0  0  0  0  0  0  0  0
    2.1097    3.9804   10.6138 H   0  0  0  0  0  0  0  0  0  0  0  0
  1  2  2  3
  2  3  1  0
  3  4  2  0
  3  5  1  0
  5  6  2  0
  6  7  1  0
  7  8  1  0
  8  9  1  0
  8 10  1  0
  8 11  1  0
  7 12  2  0
 12 13  1  0
 13 14  2  0
 14 15  1  0
 15 16  2  3
 16 17  1  0
 17 18  3  0
 16 19  1  0
 19 20  3  0
  1 21  1  0
 21 22  2  0
 22 23  1  0
 23 24  1  0
 24 25  2  0
 24 26  1  0
 26 27  2  0
 27 28  1  0
 28 29  1  0
 29 30  2  0
 27 31  1  0
 31 32  2  0
 32 33  1  0
 33 34  2  0
 33 35  1  0
 35 36  2  0
 36 37  1  0
 37 38  1  0
 38 39  2  0
 39 40  1  0
 40 41  2  0
 41 42  1  0
 42 43  1  0
 41 44  1  0
 44 45  2  0
 37 46  1  0
 46 47  2  0
 47 48  1  0
 48 49  2  0
 49 50  1  0
 50 51  1  0
 49 52  1  0
 52 53  2  0
 36 54  1  0
 54 55  1  0
 55 56  1  0
 56 57  2  0
 57 58  1  0
 58 59  1  0
 59 60  2  0
 60 61  1  0
 61 62  2  0
 62 63  1  0
 63 64  1  0
 62 65  1  0
 65 66  2  0
 58 67  1  0
 67 68  2  0
 68 69  1  0
 69 70  2  0
 70 71  1  0
 71 72  1  0
 70 73  1  0
 73 74  2  0
 57 75  1  0
 75 76  1  0
 56 77  1  0
 77 78  2  0
 78 79  1  0
 79 80  2  0
 80 81  1  0
 81 82  2  0
 82 83  1  0
 83 84  1  0
 83 85  2  0
 85 86  1  0
 86 87  1  0
 85 88  1  0
 80 89  1  0
 89 90  2  0
 90 91  1  0
 91 92  1  0
 92 93  1  0
 93 94  1  0
 94 95  1  0
 95 96  1  0
 94 97  2  0
 97 98  1  0
 97 99  1  0
 91100  2  0
100101  1  0
 90102  1  0
102103  2  0
103104  1  0
103105  1  0
105106  2  3
106107  1  0
107108  2  0
107109  1  0
109110  2  0
110111  1  0
111112  1  0
112113  1  0
112114  1  0
112115  1  0
111116  2  0
116117  1  0
117118  2  0
118119  1  0
119120  2  3
120121  1  0
121122  3  0
120123  1  0
123124  3  0
 15  2  1  0
 30 21  1  0
 76 35  1  0
101 77  1  0
119106  1  0
 14  5  1  0
 28 23  2  0
 45 38  1  0
 53 46  1  0
 75 54  2  0
100 79  1  0
118109  1  0
 34 26  1  0
 66 59  1  0
 74 67  1  0
 88 81  1  0
104 89  1  0
 98 92  2  0
  1125  1  0
  6126  1  0
 12127  1  0
 13128  1  0
 22129  1  0
 29130  1  0
 30131  1  0
 31132  1  0
 32133  1  0
 34134  1  0
 39135  1  0
 40136  1  0
 43137  1  0
 43138  1  0
 43139  1  0
 44140  1  0
 45141  1  0
 47142  1  0
 48143  1  0
 51144  1  0
 51145  1  0
 51146  1  0
 52147  1  0
 53148  1  0
 60149  1  0
 61150  1  0
 64151  1  0
 64152  1  0
 64153  1  0
 65154  1  0
 66155  1  0
 68156  1  0
 69157  1  0
 72158  1  0
 72159  1  0
 72160  1  0
 73161  1  0
 74162  1  0
 78163  1  0
 82164  1  0
 86165  1  0
 86166  1  0
 87167  1  0
 87168  1  0
 87169  1  0
 95170  1  0
 95171  1  0
 96172  1  0
 96173  1  0
 96174  1  0
 98175  1  0
102176  1  0
105177  1  0
110178  1  0
116179  1  0
117180  1  0
M  END

