
     RDKit          3D

221239  0  0  0  0  0  0  0  0999 V2000
   -1.0985   -0.4515    7.1733 C   0  0  0  0  0  0  0  0  0  0  0  0
   -2.3886   -0.4561    6.7796 C   0  0  0  0  0  0  0  0  0  0  0  0
   -2.8465   -0.5889    5.3907 C   0  0  0  0  0  0  0  0  0  0  0  0
   -2.1663   -0.9814    4.4043 O   0  0  0  0  0  0  0  0  0  0  0  0
   -4.2212   -0.1525    5.3214 C   0  0  0  0  0  0  0  0  0  0  0  0
   -4.9862    0.0702    4.1741 C   0  0  0  0  0  0  0  0  0  0  0  0
   -6.2628    0.6584    4.3106 C   0  0  0  0  0  0  0  0  0  0  0  0
   -7.1106    0.9779    3.1046 C   0  0  0  0  0  0  0  0  0  0  0  0
   -8.3677    0.4252    3.2617 F   0  0  0  0  0  0  0  0  0  0  0  0
   -6.5526    0.4748    1.9417 F   0  0  0  0  0  0  0  0  0  0  0  0
   -7.2283    2.3523    2.9773 F   0  0  0  0  0  0  0  0  0  0  0  0
   -6.7146    1.0251    5.5952 C   0  0  0  0  0  0  0  0  0  0  0  0
   -5.9208    0.8017    6.7327 C   0  0  0  0  0  0  0  0  0  0  0  0
   -4.6648    0.1876    6.5838 C   0  0  0  0  0  0  0  0  0  0  0  0
   -3.5920   -0.0738    7.5858 C   0  0  0  0  0  0  0  0  0  0  0  0
   -3.7299   -0.1094    8.9345 C   0  0  0  0  0  0  0  0  0  0  0  0
   -2.6402   -0.4480    9.8157 C   0  0  0  0  0  0  0  0  0  0  0  0
   -1.7687   -0.7137   10.5265 N   0  0  0  0  0  0  0  0  0  0  0  0
   -4.9928    0.1034    9.5943 C   0  0  0  0  0  0  0  0  0  0  0  0
   -5.9999    0.2748   10.1382 N   0  0  0  0  0  0  0  0  0  0  0  0
    0.0069   -0.6007    6.2214 C   0  0  0  0  0  0  0  0  0  0  0  0
    0.4468   -1.8002    5.6196 C   0  0  0  0  0  0  0  0  0  0  0  0
    0.0758   -3.1239    6.0833 N   0  0  0  0  0  0  0  0  0  0  0  0
    0.1137   -4.2889    5.2295 C   0  0  0  0  0  0  0  0  0  0  0  0
   -0.4903   -4.2807    3.9610 C   0  0  0  0  0  0  0  0  0  0  0  0
   -0.5281   -5.4465    3.1862 C   0  0  0  0  0  0  0  0  0  0  0  0
   -0.0172   -6.6456    3.6985 C   0  0  0  0  0  0  0  0  0  0  0  0
   -0.1505   -8.1629    2.7564 S   0  0  0  0  0  0  0  0  0  0  0  0
    1.6243   -8.2216    2.3636 C   0  0  0  0  0  0  0  0  0  0  0  0
    0.5602   -6.6684    4.9682 C   0  0  0  0  0  0  0  0  0  0  0  0
    0.6507   -5.4968    5.7169 C   0  0  0  0  0  0  0  0  0  0  0  0
   -0.2252   -3.3421    7.4797 C   0  0  0  0  0  0  0  0  0  0  0  0
   -1.3910   -4.0362    7.8426 C   0  0  0  0  0  0  0  0  0  0  0  0
   -1.5922   -4.4313    9.1670 C   0  0  0  0  0  0  0  0  0  0  0  0
   -0.6310   -4.1394   10.1423 C   0  0  0  0  0  0  0  0  0  0  0  0
   -0.8133   -4.7956   11.8007 S   0  0  0  0  0  0  0  0  0  0  0  0
   -1.6750   -3.3307   12.4389 C   0  0  0  0  0  0  0  0  0  0  0  0
    0.5114   -3.4047    9.7936 C   0  0  0  0  0  0  0  0  0  0  0  0
    0.7131   -3.0064    8.4684 C   0  0  0  0  0  0  0  0  0  0  0  0
    1.2711   -1.5067    4.5169 C   0  0  0  0  0  0  0  0  0  0  0  0
    1.9575   -2.3703    3.2479 S   0  0  0  0  0  0  0  0  0  0  0  0
    2.4933   -0.9995    2.3745 C   0  0  0  0  0  0  0  0  0  0  0  0
    2.1440    0.1415    3.1132 C   0  0  0  0  0  0  0  0  0  0  0  0
    2.4806    1.4888    2.7530 N   0  0  0  0  0  0  0  0  0  0  0  0
    3.8761    1.8654    2.7390 C   0  0  0  0  0  0  0  0  0  0  0  0
    4.3601    2.7898    1.7970 C   0  0  0  0  0  0  0  0  0  0  0  0
    5.7016    3.1835    1.8171 C   0  0  0  0  0  0  0  0  0  0  0  0
    6.5796    2.6442    2.7637 C   0  0  0  0  0  0  0  0  0  0  0  0
    8.2896    3.1791    2.8093 S   0  0  0  0  0  0  0  0  0  0  0  0
    8.0061    4.4041    4.1310 C   0  0  0  0  0  0  0  0  0  0  0  0
    6.1168    1.6967    3.6824 C   0  0  0  0  0  0  0  0  0  0  0  0
    4.7737    1.3146    3.6750 C   0  0  0  0  0  0  0  0  0  0  0  0
    1.4277    2.4584    2.5501 C   0  0  0  0  0  0  0  0  0  0  0  0
    0.2147    2.0801    1.9433 C   0  0  0  0  0  0  0  0  0  0  0  0
   -0.7921    3.0243    1.7190 C   0  0  0  0  0  0  0  0  0  0  0  0
   -0.6045    4.3553    2.1067 C   0  0  0  0  0  0  0  0  0  0  0  0
   -1.8655    5.5794    1.7580 S   0  0  0  0  0  0  0  0  0  0  0  0
   -1.1638    6.0001    0.1323 C   0  0  0  0  0  0  0  0  0  0  0  0
    0.5779    4.7290    2.7548 C   0  0  0  0  0  0  0  0  0  0  0  0
    1.5840    3.7896    2.9824 C   0  0  0  0  0  0  0  0  0  0  0  0
    1.4661   -0.1821    4.2841 C   0  0  0  0  0  0  0  0  0  0  0  0
    0.6551    0.7444    5.4111 S   0  0  0  0  0  0  0  0  0  0  0  0
    2.7764   -1.0244    0.9253 C   0  0  0  0  0  0  0  0  0  0  0  0
    2.8886   -2.2131    0.1828 C   0  0  0  0  0  0  0  0  0  0  0  0
    3.7439   -3.2997    0.6010 N   0  0  0  0  0  0  0  0  0  0  0  0
    3.6122   -4.5911   -0.0201 C   0  0  0  0  0  0  0  0  0  0  0  0
    4.6745   -5.1240   -0.7743 C   0  0  0  0  0  0  0  0  0  0  0  0
    4.5197   -6.3352   -1.4527 C   0  0  0  0  0  0  0  0  0  0  0  0
    3.3090   -7.0351   -1.3748 C   0  0  0  0  0  0  0  0  0  0  0  0
    3.1025   -8.5685   -2.2835 S   0  0  0  0  0  0  0  0  0  0  0  0
    3.8654   -9.5889   -0.9844 C   0  0  0  0  0  0  0  0  0  0  0  0
    2.2435   -6.5005   -0.6390 C   0  0  0  0  0  0  0  0  0  0  0  0
    2.3967   -5.2898    0.0470 C   0  0  0  0  0  0  0  0  0  0  0  0
    4.9820   -2.9729    1.2746 C   0  0  0  0  0  0  0  0  0  0  0  0
    5.7683   -1.8877    0.8351 C   0  0  0  0  0  0  0  0  0  0  0  0
    6.9457   -1.5532    1.5012 C   0  0  0  0  0  0  0  0  0  0  0  0
    7.3738   -2.3107    2.5933 C   0  0  0  0  0  0  0  0  0  0  0  0
    8.8814   -1.8558    3.4496 S   0  0  0  0  0  0  0  0  0  0  0  0
    9.9457   -2.8830    2.3885 C   0  0  0  0  0  0  0  0  0  0  0  0
    6.6153   -3.4052    3.0231 C   0  0  0  0  0  0  0  0  0  0  0  0
    5.4243   -3.7403    2.3620 C   0  0  0  0  0  0  0  0  0  0  0  0
    2.5485   -2.0040   -1.1574 C   0  0  0  0  0  0  0  0  0  0  0  0
    1.6870   -2.9812   -2.2162 S   0  0  0  0  0  0  0  0  0  0  0  0
    1.1571   -1.7187   -3.2165 C   0  0  0  0  0  0  0  0  0  0  0  0
    1.6262   -0.5045   -2.6935 C   0  0  0  0  0  0  0  0  0  0  0  0
    1.8608    0.6452   -3.5275 N   0  0  0  0  0  0  0  0  0  0  0  0
    3.2261    0.9384   -3.9006 C   0  0  0  0  0  0  0  0  0  0  0  0
    3.7059    2.2618   -3.8847 C   0  0  0  0  0  0  0  0  0  0  0  0
    5.0091    2.5488   -4.3055 C   0  0  0  0  0  0  0  0  0  0  0  0
    5.8552    1.5165   -4.7269 C   0  0  0  0  0  0  0  0  0  0  0  0
    7.5150    1.8809   -5.2983 S   0  0  0  0  0  0  0  0  0  0  0  0
    7.0067    2.0070   -7.0416 C   0  0  0  0  0  0  0  0  0  0  0  0
    5.3992    0.1945   -4.7108 C   0  0  0  0  0  0  0  0  0  0  0  0
    4.0934   -0.0929   -4.3035 C   0  0  0  0  0  0  0  0  0  0  0  0
    0.7826    1.4644   -4.0323 C   0  0  0  0  0  0  0  0  0  0  0  0
    0.8969    2.0939   -5.2874 C   0  0  0  0  0  0  0  0  0  0  0  0
   -0.0286    3.0600   -5.6882 C   0  0  0  0  0  0  0  0  0  0  0  0
   -1.1056    3.3792   -4.8590 C   0  0  0  0  0  0  0  0  0  0  0  0
   -2.1804    4.7591   -5.2839 S   0  0  0  0  0  0  0  0  0  0  0  0
   -3.1297    3.8505   -6.5437 C   0  0  0  0  0  0  0  0  0  0  0  0
   -1.2807    2.6966   -3.6524 C   0  0  0  0  0  0  0  0  0  0  0  0
   -0.3393    1.7425   -3.2364 C   0  0  0  0  0  0  0  0  0  0  0  0
    2.3473   -0.7052   -1.5184 C   0  0  0  0  0  0  0  0  0  0  0  0
    2.4022    0.2484   -0.1457 S   0  0  0  0  0  0  0  0  0  0  0  0
   -0.1178   -1.7890   -3.9263 C   0  0  0  0  0  0  0  0  0  0  0  0
   -0.2997   -1.8282   -5.3166 C   0  0  0  0  0  0  0  0  0  0  0  0
    0.7955   -2.2191   -6.2749 C   0  0  0  0  0  0  0  0  0  0  0  0
    1.0274   -3.7288   -6.2248 C   0  0  0  0  0  0  0  0  0  0  0  0
   -1.6530   -1.6126   -5.6498 C   0  0  0  0  0  0  0  0  0  0  0  0
   -2.4614   -1.5000   -4.5517 C   0  0  0  0  0  0  0  0  0  0  0  0
   -1.5906   -1.5046   -3.1326 S   0  0  0  0  0  0  0  0  0  0  0  0
   -3.7110   -0.9450   -4.9358 C   0  0  0  0  0  0  0  0  0  0  0  0
   -3.6889   -0.6786   -6.2654 C   0  0  0  0  0  0  0  0  0  0  0  0
   -2.3785   -1.1320   -6.9117 C   0  0  0  0  0  0  0  0  0  0  0  0
   -1.5954    0.0568   -7.5489 C   0  0  0  0  0  0  0  0  0  0  0  0
   -2.3110    0.8213   -8.6638 C   0  0  0  0  0  0  0  0  0  0  0  0
   -2.6023   -2.3016   -7.9095 C   0  0  0  0  0  0  0  0  0  0  0  0
   -3.2997   -3.5256   -7.2961 C   0  0  0  0  0  0  0  0  0  0  0  0
   -4.7720    0.0991   -6.6848 C   0  0  0  0  0  0  0  0  0  0  0  0
   -5.5756    0.4791   -5.5995 C   0  0  0  0  0  0  0  0  0  0  0  0
   -4.9862   -0.2007   -4.1506 S   0  0  0  0  0  0  0  0  0  0  0  0
   -6.6920    1.4310   -5.6925 C   0  0  0  0  0  0  0  0  0  0  0  0
   -6.6724    2.6626   -5.1352 C   0  0  0  0  0  0  0  0  0  0  0  0
   -5.6142    3.1918   -4.2621 C   0  0  0  0  0  0  0  0  0  0  0  0
   -4.5270    2.6331   -3.9698 O   0  0  0  0  0  0  0  0  0  0  0  0
   -6.0101    4.4817   -3.7720 C   0  0  0  0  0  0  0  0  0  0  0  0
   -5.3009    5.3224   -2.9109 C   0  0  0  0  0  0  0  0  0  0  0  0
   -5.8809    6.5418   -2.5236 C   0  0  0  0  0  0  0  0  0  0  0  0
   -5.1034    7.4931   -1.6496 C   0  0  0  0  0  0  0  0  0  0  0  0
   -4.4068    6.7904   -0.6832 F   0  0  0  0  0  0  0  0  0  0  0  0
   -4.2032    8.1956   -2.4295 F   0  0  0  0  0  0  0  0  0  0  0  0
   -5.9419    8.3914   -1.0164 F   0  0  0  0  0  0  0  0  0  0  0  0
   -7.1577    6.8856   -3.0238 C   0  0  0  0  0  0  0  0  0  0  0  0
   -7.8530    6.0210   -3.8847 C   0  0  0  0  0  0  0  0  0  0  0  0
   -7.2499    4.8156   -4.2820 C   0  0  0  0  0  0  0  0  0  0  0  0
   -7.7124    3.7477   -5.2245 C   0  0  0  0  0  0  0  0  0  0  0  0
   -8.7331    3.8464   -6.1200 C   0  0  0  0  0  0  0  0  0  0  0  0
   -9.6100    4.9875   -6.1766 C   0  0  0  0  0  0  0  0  0  0  0  0
  -10.3302    5.8966   -6.2396 N   0  0  0  0  0  0  0  0  0  0  0  0
   -8.9764    2.8716   -7.1499 C   0  0  0  0  0  0  0  0  0  0  0  0
   -9.1824    2.0992   -7.9900 N   0  0  0  0  0  0  0  0  0  0  0  0
   -0.8144   -0.1436    8.1630 H   0  0  0  0  0  0  0  0  0  0  0  0
   -4.5806   -0.1812    3.2015 H   0  0  0  0  0  0  0  0  0  0  0  0
   -7.6738    1.5143    5.7104 H   0  0  0  0  0  0  0  0  0  0  0  0
   -6.2764    1.1635    7.6803 H   0  0  0  0  0  0  0  0  0  0  0  0
   -0.9381   -3.3731    3.5775 H   0  0  0  0  0  0  0  0  0  0  0  0
   -0.9851   -5.4224    2.2040 H   0  0  0  0  0  0  0  0  0  0  0  0
    1.7858   -8.9960    1.5901 H   0  0  0  0  0  0  0  0  0  0  0  0
    2.2029   -8.4958    3.2681 H   0  0  0  0  0  0  0  0  0  0  0  0
    1.9773   -7.2396    1.9933 H   0  0  0  0  0  0  0  0  0  0  0  0
    0.9522   -7.5942    5.3749 H   0  0  0  0  0  0  0  0  0  0  0  0
    1.1138   -5.5377    6.6939 H   0  0  0  0  0  0  0  0  0  0  0  0
   -2.1179   -4.3078    7.0914 H   0  0  0  0  0  0  0  0  0  0  0  0
   -2.4746   -5.0001    9.4282 H   0  0  0  0  0  0  0  0  0  0  0  0
   -1.9965   -3.5243   13.4827 H   0  0  0  0  0  0  0  0  0  0  0  0
   -2.5721   -3.1147   11.8219 H   0  0  0  0  0  0  0  0  0  0  0  0
   -0.9865   -2.4619   12.4335 H   0  0  0  0  0  0  0  0  0  0  0  0
    1.2625   -3.1807   10.5417 H   0  0  0  0  0  0  0  0  0  0  0  0
    1.6234   -2.4897    8.1987 H   0  0  0  0  0  0  0  0  0  0  0  0
    3.6971    3.2100    1.0496 H   0  0  0  0  0  0  0  0  0  0  0  0
    6.0574    3.9124    1.1009 H   0  0  0  0  0  0  0  0  0  0  0  0
    8.8560    5.1165    4.1475 H   0  0  0  0  0  0  0  0  0  0  0  0
    7.9479    3.8858    5.1107 H   0  0  0  0  0  0  0  0  0  0  0  0
    7.0674    4.9695    3.9550 H   0  0  0  0  0  0  0  0  0  0  0  0
    6.7870    1.2718    4.4180 H   0  0  0  0  0  0  0  0  0  0  0  0
    4.4315    0.6090    4.4205 H   0  0  0  0  0  0  0  0  0  0  0  0
    0.0548    1.0593    1.6266 H   0  0  0  0  0  0  0  0  0  0  0  0
   -1.7088    2.7259    1.2323 H   0  0  0  0  0  0  0  0  0  0  0  0
   -1.7397    6.8367   -0.3096 H   0  0  0  0  0  0  0  0  0  0  0  0
   -1.2235    5.1220   -0.5443 H   0  0  0  0  0  0  0  0  0  0  0  0
   -0.1063    6.3140    0.2411 H   0  0  0  0  0  0  0  0  0  0  0  0
    0.7168    5.7543    3.0762 H   0  0  0  0  0  0  0  0  0  0  0  0
    2.4875    4.1014    3.4949 H   0  0  0  0  0  0  0  0  0  0  0  0
    5.6115   -4.5847   -0.8637 H   0  0  0  0  0  0  0  0  0  0  0  0
    5.3440   -6.7285   -2.0357 H   0  0  0  0  0  0  0  0  0  0  0  0
    4.9121   -9.2677   -0.8032 H   0  0  0  0  0  0  0  0  0  0  0  0
    3.2875   -9.5042   -0.0457 H   0  0  0  0  0  0  0  0  0  0  0  0
    3.8633  -10.6480   -1.3108 H   0  0  0  0  0  0  0  0  0  0  0  0
    1.2946   -7.0174   -0.6100 H   0  0  0  0  0  0  0  0  0  0  0  0
    1.5630   -4.8814    0.5999 H   0  0  0  0  0  0  0  0  0  0  0  0
    5.4638   -1.3010   -0.0218 H   0  0  0  0  0  0  0  0  0  0  0  0
    7.5295   -0.7072    1.1604 H   0  0  0  0  0  0  0  0  0  0  0  0
    9.7426   -2.6805    1.3166 H   0  0  0  0  0  0  0  0  0  0  0  0
   11.0097   -2.6462    2.6008 H   0  0  0  0  0  0  0  0  0  0  0  0
    9.7609   -3.9561    2.6064 H   0  0  0  0  0  0  0  0  0  0  0  0
    6.9443   -3.9972    3.8677 H   0  0  0  0  0  0  0  0  0  0  0  0
    4.8412   -4.5824    2.7093 H   0  0  0  0  0  0  0  0  0  0  0  0
    3.0658    3.0727   -3.5633 H   0  0  0  0  0  0  0  0  0  0  0  0
    5.3597    3.5720   -4.3074 H   0  0  0  0  0  0  0  0  0  0  0  0
    7.9115    2.0839   -7.6770 H   0  0  0  0  0  0  0  0  0  0  0  0
    6.4378    1.1063   -7.3504 H   0  0  0  0  0  0  0  0  0  0  0  0
    6.3837    2.9124   -7.1890 H   0  0  0  0  0  0  0  0  0  0  0  0
    6.0509   -0.6128   -5.0249 H   0  0  0  0  0  0  0  0  0  0  0  0
    3.7537   -1.1208   -4.3289 H   0  0  0  0  0  0  0  0  0  0  0  0
    1.7347    1.8774   -5.9385 H   0  0  0  0  0  0  0  0  0  0  0  0
    0.1117    3.5811   -6.6247 H   0  0  0  0  0  0  0  0  0  0  0  0
   -4.0956    4.3697   -6.7145 H   0  0  0  0  0  0  0  0  0  0  0  0
   -3.3359    2.8090   -6.2210 H   0  0  0  0  0  0  0  0  0  0  0  0
   -2.5573    3.8339   -7.4915 H   0  0  0  0  0  0  0  0  0  0  0  0
   -2.1082    2.9466   -3.0003 H   0  0  0  0  0  0  0  0  0  0  0  0
   -0.4540    1.2785   -2.2660 H   0  0  0  0  0  0  0  0  0  0  0  0
    0.5409   -1.9538   -7.3154 H   0  0  0  0  0  0  0  0  0  0  0  0
    1.7314   -1.6845   -6.0093 H   0  0  0  0  0  0  0  0  0  0  0  0
    0.0911   -4.2636   -6.4960 H   0  0  0  0  0  0  0  0  0  0  0  0
    1.8233   -4.0047   -6.9461 H   0  0  0  0  0  0  0  0  0  0  0  0
    1.3509   -4.0369   -5.2079 H   0  0  0  0  0  0  0  0  0  0  0  0
   -1.3146    0.7823   -6.7562 H   0  0  0  0  0  0  0  0  0  0  0  0
   -0.6517   -0.3135   -7.9915 H   0  0  0  0  0  0  0  0  0  0  0  0
   -3.0426    1.5428   -8.2474 H   0  0  0  0  0  0  0  0  0  0  0  0
   -1.5665    1.4141   -9.2363 H   0  0  0  0  0  0  0  0  0  0  0  0
   -2.8159    0.1405   -9.3788 H   0  0  0  0  0  0  0  0  0  0  0  0
   -3.2343   -1.9592   -8.7549 H   0  0  0  0  0  0  0  0  0  0  0  0
   -1.6269   -2.6265   -8.3250 H   0  0  0  0  0  0  0  0  0  0  0  0
   -3.4405   -4.3003   -8.0809 H   0  0  0  0  0  0  0  0  0  0  0  0
   -2.6862   -3.9648   -6.4821 H   0  0  0  0  0  0  0  0  0  0  0  0
   -4.2999   -3.2505   -6.9022 H   0  0  0  0  0  0  0  0  0  0  0  0
   -4.9405    0.4391   -7.6957 H   0  0  0  0  0  0  0  0  0  0  0  0
   -7.5251    1.0966   -6.2782 H   0  0  0  0  0  0  0  0  0  0  0  0
   -4.3213    5.0279   -2.5531 H   0  0  0  0  0  0  0  0  0  0  0  0
   -7.6223    7.8245   -2.7454 H   0  0  0  0  0  0  0  0  0  0  0  0
   -8.8440    6.3103   -4.1969 H   0  0  0  0  0  0  0  0  0  0  0  0
  1  2  2  3
  2  3  1  0
  3  4  2  0
  3  5  1  0
  5  6  2  0
  6  7  1  0
  7  8  1  0
  8  9  1  0
  8 10  1  0
  8 11  1  0
  7 12  2  0
 12 13  1  0
 13 14  2  0
 14 15  1  0
 15 16  2  3
 16 17  1  0
 17 18  3  0
 16 19  1  0
 19 20  3  0
  1 21  1  0
 21 22  2  0
 22 23  1  0
 23 24  1  0
 24 25  2  0
 25 26  1  0
 26 27  2  0
 27 28  1  0
 28 29  1  0
 27 30  1  0
 30 31  2  0
 23 32  1  0
 32 33  2  0
 33 34  1  0
 34 35  2  0
 35 36  1  0
 36 37  1  0
 35 38  1  0
 38 39  2  0
 22 40  1  0
 40 41  1  0
 41 42  1  0
 42 43  2  0
 43 44  1  0
 44 45  1  0
 45 46  2  0
 46 47  1  0
 47 48  2  0
 48 49  1  0
 49 50  1  0
 48 51  1  0
 51 52  2  0
 44 53  1  0
 53 54  2  0
 54 55  1  0
 55 56  2  0
 56 57  1  0
 57 58  1  0
 56 59  1  0
 59 60  2  0
 43 61  1  0
 61 62  1  0
 42 63  1  0
 63 64  2  0
 64 65  1  0
 65 66  1  0
 66 67  2  0
 67 68  1  0
 68 69  2  0
 69 70  1  0
 70 71  1  0
 69 72  1  0
 72 73  2  0
 65 74  1  0
 74 75  2  0
 75 76  1  0
 76 77  2  0
 77 78  1  0
 78 79  1  0
 77 80  1  0
 80 81  2  0
 64 82  1  0
 82 83  1  0
 83 84  1  0
 84 85  2  0
 85 86  1  0
 86 87  1  0
 87 88  2  0
 88 89  1  0
 89 90  2  0
 90 91  1  0
 91 92  1  0
 90 93  1  0
 93 94  2  0
 86 95  1  0
 95 96  2  0
 96 97  1  0
 97 98  2  0
 98 99  1  0
 99100  1  0
 98101  1  0
101102  2  0
 85103  1  0
103104  1  0
 84105  1  0
105106  2  0
106107  1  0
107108  1  0
106109  1  0
109110  2  0
110111  1  0
110112  1  0
112113  2  0
113114  1  0
114115  1  0
115116  1  0
114117  1  0
117118  1  0
113119  1  0
119120  2  0
120121  1  0
120122  1  0
122123  2  3
123124  1  0
124125  2  0
124126  1  0
126127  2  0
127128  1  0
128129  1  0
129130  1  0
129131  1  0
129132  1  0
128133  2  0
133134  1  0
134135  2  0
135136  1  0
136137  2  3
137138  1  0
138139  3  0
137140  1  0
140141  3  0
 15  2  1  0
 62 21  1  0
104 63  1  0
111105  1  0
121112  1  0
136123  1  0
 14  5  1  0
 31 24  1  0
 39 32  1  0
 61 40  2  0
 73 66  1  0
 81 74  1  0
103 82  2  0
114109  1  0
135126  1  0
 52 45  1  0
 60 53  1  0
 94 87  1  0
102 95  1  0
  1142  1  0
  6143  1  0
 12144  1  0
 13145  1  0
 25146  1  0
 26147  1  0
 29148  1  0
 29149  1  0
 29150  1  0
 30151  1  0
 31152  1  0
 33153  1  0
 34154  1  0
 37155  1  0
 37156  1  0
 37157  1  0
 38158  1  0
 39159  1  0
 46160  1  0
 47161  1  0
 50162  1  0
 50163  1  0
 50164  1  0
 51165  1  0
 52166  1  0
 54167  1  0
 55168  1  0
 58169  1  0
 58170  1  0
 58171  1  0
 59172  1  0
 60173  1  0
 67174  1  0
 68175  1  0
 71176  1  0
 71177  1  0
 71178  1  0
 72179  1  0
 73180  1  0
 75181  1  0
 76182  1  0
 79183  1  0
 79184  1  0
 79185  1  0
 80186  1  0
 81187  1  0
 88188  1  0
 89189  1  0
 92190  1  0
 92191  1  0
 92192  1  0
 93193  1  0
 94194  1  0
 96195  1  0
 97196  1  0
100197  1  0
100198  1  0
100199  1  0
101200  1  0
102201  1  0
107202  1  0
107203  1  0
108204  1  0
108205  1  0
108206  1  0
115207  1  0
115208  1  0
116209  1  0
116210  1  0
116211  1  0
117212  1  0
117213  1  0
118214  1  0
118215  1  0
118216  1  0
119217  1  0
122218  1  0
127219  1  0
133220  1  0
134221  1  0
M  END

