
     RDKit          3D

214231  0  0  0  0  0  0  0  0999 V2000
    2.0508   -6.8318   -2.1766 C   0  0  0  0  0  0  0  0  0  0  0  0
    1.2233   -7.3226   -1.2264 C   0  0  0  0  0  0  0  0  0  0  0  0
    0.6816   -6.5707   -0.0794 C   0  0  0  0  0  0  0  0  0  0  0  0
    1.2143   -5.5890    0.4983 O   0  0  0  0  0  0  0  0  0  0  0  0
   -0.5613   -7.1785    0.3278 C   0  0  0  0  0  0  0  0  0  0  0  0
   -1.4592   -6.7182    1.2915 C   0  0  0  0  0  0  0  0  0  0  0  0
   -2.6806   -7.4000    1.4550 C   0  0  0  0  0  0  0  0  0  0  0  0
   -3.6982   -6.9449    2.4712 C   0  0  0  0  0  0  0  0  0  0  0  0
   -4.1306   -8.0274    3.2161 F   0  0  0  0  0  0  0  0  0  0  0  0
   -4.7793   -6.3825    1.8181 F   0  0  0  0  0  0  0  0  0  0  0  0
   -3.1627   -6.0034    3.3376 F   0  0  0  0  0  0  0  0  0  0  0  0
   -2.9791   -8.4873    0.6062 C   0  0  0  0  0  0  0  0  0  0  0  0
   -2.0496   -8.9392   -0.3516 C   0  0  0  0  0  0  0  0  0  0  0  0
   -0.8125   -8.2846   -0.4533 C   0  0  0  0  0  0  0  0  0  0  0  0
    0.3494   -8.5258   -1.3596 C   0  0  0  0  0  0  0  0  0  0  0  0
    0.6590   -9.6814   -2.0019 C   0  0  0  0  0  0  0  0  0  0  0  0
    1.9383   -9.8688   -2.6439 C   0  0  0  0  0  0  0  0  0  0  0  0
    2.9544   -9.9976   -3.1802 N   0  0  0  0  0  0  0  0  0  0  0  0
   -0.2137  -10.8244   -1.9848 C   0  0  0  0  0  0  0  0  0  0  0  0
   -0.9175  -11.7448   -1.9836 N   0  0  0  0  0  0  0  0  0  0  0  0
    2.3896   -5.4032   -2.2224 C   0  0  0  0  0  0  0  0  0  0  0  0
    1.4760   -4.4397   -2.6884 C   0  0  0  0  0  0  0  0  0  0  0  0
    0.7750   -4.5014   -3.9556 N   0  0  0  0  0  0  0  0  0  0  0  0
    0.4321   -5.7462   -4.5866 C   0  0  0  0  0  0  0  0  0  0  0  0
    1.1272   -6.1769   -5.7256 C   0  0  0  0  0  0  0  0  0  0  0  0
    0.7870   -7.3836   -6.3425 C   0  0  0  0  0  0  0  0  0  0  0  0
   -0.2530   -8.1667   -5.8291 C   0  0  0  0  0  0  0  0  0  0  0  0
   -0.7261   -9.6813   -6.6718 S   0  0  0  0  0  0  0  0  0  0  0  0
    0.4678  -10.7181   -5.7737 C   0  0  0  0  0  0  0  0  0  0  0  0
   -0.9424   -7.7459   -4.6872 C   0  0  0  0  0  0  0  0  0  0  0  0
   -0.5964   -6.5426   -4.0601 C   0  0  0  0  0  0  0  0  0  0  0  0
    0.7430   -3.3015   -4.7521 C   0  0  0  0  0  0  0  0  0  0  0  0
    1.9434   -2.6416   -5.0655 C   0  0  0  0  0  0  0  0  0  0  0  0
    1.9334   -1.2959   -5.4362 C   0  0  0  0  0  0  0  0  0  0  0  0
    0.7235   -0.5991   -5.5060 C   0  0  0  0  0  0  0  0  0  0  0  0
    0.7355    1.1860   -5.6667 S   0  0  0  0  0  0  0  0  0  0  0  0
    0.7890    1.4443   -3.8634 C   0  0  0  0  0  0  0  0  0  0  0  0
   -0.4834   -1.2859   -5.3296 C   0  0  0  0  0  0  0  0  0  0  0  0
   -0.4753   -2.6361   -4.9551 C   0  0  0  0  0  0  0  0  0  0  0  0
    1.6414   -3.2489   -1.9899 C   0  0  0  0  0  0  0  0  0  0  0  0
    0.7897   -1.8147   -1.9644 S   0  0  0  0  0  0  0  0  0  0  0  0
    1.8329   -1.0731   -0.8591 C   0  0  0  0  0  0  0  0  0  0  0  0
    2.8766   -1.9532   -0.5219 C   0  0  0  0  0  0  0  0  0  0  0  0
    4.1133   -1.5361    0.0677 N   0  0  0  0  0  0  0  0  0  0  0  0
    4.6047   -2.1399    1.2906 C   0  0  0  0  0  0  0  0  0  0  0  0
    3.7266   -2.8257    2.1561 C   0  0  0  0  0  0  0  0  0  0  0  0
    4.2092   -3.4556    3.3093 C   0  0  0  0  0  0  0  0  0  0  0  0
    5.5702   -3.3962    3.6247 C   0  0  0  0  0  0  0  0  0  0  0  0
    6.1841   -4.1843    5.1141 S   0  0  0  0  0  0  0  0  0  0  0  0
    6.6337   -5.7234    4.2538 C   0  0  0  0  0  0  0  0  0  0  0  0
    6.4471   -2.7003    2.7878 C   0  0  0  0  0  0  0  0  0  0  0  0
    5.9728   -2.0793    1.6312 C   0  0  0  0  0  0  0  0  0  0  0  0
    4.9757   -0.7522   -0.7774 C   0  0  0  0  0  0  0  0  0  0  0  0
    5.4026   -1.2633   -2.0187 C   0  0  0  0  0  0  0  0  0  0  0  0
    6.1841   -0.4842   -2.8688 C   0  0  0  0  0  0  0  0  0  0  0  0
    6.5276    0.8230   -2.5026 C   0  0  0  0  0  0  0  0  0  0  0  0
    7.4732    1.8427   -3.6357 S   0  0  0  0  0  0  0  0  0  0  0  0
    5.9970    2.4856   -4.4847 C   0  0  0  0  0  0  0  0  0  0  0  0
    6.1416    1.3217   -1.2543 C   0  0  0  0  0  0  0  0  0  0  0  0
    5.3740    0.5347   -0.3897 C   0  0  0  0  0  0  0  0  0  0  0  0
    2.6976   -3.1873   -1.1469 C   0  0  0  0  0  0  0  0  0  0  0  0
    3.4752   -4.6730   -1.1133 S   0  0  0  0  0  0  0  0  0  0  0  0
    1.5072    0.1918   -0.2124 C   0  0  0  0  0  0  0  0  0  0  0  0
    0.3400    0.4151    0.5337 C   0  0  0  0  0  0  0  0  0  0  0  0
   -0.4765   -0.6155    1.1215 N   0  0  0  0  0  0  0  0  0  0  0  0
   -1.4423   -1.3415    0.3339 C   0  0  0  0  0  0  0  0  0  0  0  0
   -2.1919   -0.6959   -0.6647 C   0  0  0  0  0  0  0  0  0  0  0  0
   -3.2123   -1.3797   -1.3330 C   0  0  0  0  0  0  0  0  0  0  0  0
   -3.4864   -2.7178   -1.0199 C   0  0  0  0  0  0  0  0  0  0  0  0
   -4.8489   -3.5764   -1.8152 S   0  0  0  0  0  0  0  0  0  0  0  0
   -3.8528   -4.1329   -3.2271 C   0  0  0  0  0  0  0  0  0  0  0  0
   -2.7177   -3.3759   -0.0542 C   0  0  0  0  0  0  0  0  0  0  0  0
   -1.7034   -2.6936    0.6214 C   0  0  0  0  0  0  0  0  0  0  0  0
   -0.5426   -0.6678    2.5568 C   0  0  0  0  0  0  0  0  0  0  0  0
    0.6396   -0.6524    3.3188 C   0  0  0  0  0  0  0  0  0  0  0  0
    0.5801   -0.5342    4.7088 C   0  0  0  0  0  0  0  0  0  0  0  0
   -0.6605   -0.4187    5.3511 C   0  0  0  0  0  0  0  0  0  0  0  0
   -0.7394   -0.1440    7.1182 S   0  0  0  0  0  0  0  0  0  0  0  0
   -0.7276    1.6696    6.9423 C   0  0  0  0  0  0  0  0  0  0  0  0
   -1.8424   -0.4769    4.6023 C   0  0  0  0  0  0  0  0  0  0  0  0
   -1.7855   -0.6004    3.2129 C   0  0  0  0  0  0  0  0  0  0  0  0
    0.1968    1.7558    0.8433 C   0  0  0  0  0  0  0  0  0  0  0  0
   -0.9803    2.6343    1.6326 S   0  0  0  0  0  0  0  0  0  0  0  0
   -0.2103    4.1285    1.3772 C   0  0  0  0  0  0  0  0  0  0  0  0
    0.9888    3.9288    0.6573 C   0  0  0  0  0  0  0  0  0  0  0  0
    2.0311    4.9063    0.4975 N   0  0  0  0  0  0  0  0  0  0  0  0
    1.7188    6.2700    0.1865 C   0  0  0  0  0  0  0  0  0  0  0  0
    1.9195    7.2703    1.1507 C   0  0  0  0  0  0  0  0  0  0  0  0
    1.5823    8.5936    0.8668 C   0  0  0  0  0  0  0  0  0  0  0  0
    1.0570    8.9335   -0.3856 C   0  0  0  0  0  0  0  0  0  0  0  0
    0.6340   10.6391   -0.7440 S   0  0  0  0  0  0  0  0  0  0  0  0
    2.3201   11.0639   -1.2799 C   0  0  0  0  0  0  0  0  0  0  0  0
    0.8695    7.9409   -1.3575 C   0  0  0  0  0  0  0  0  0  0  0  0
    1.1987    6.6117   -1.0710 C   0  0  0  0  0  0  0  0  0  0  0  0
    3.3626    4.5760    0.9336 C   0  0  0  0  0  0  0  0  0  0  0  0
    4.4711    4.9026    0.1362 C   0  0  0  0  0  0  0  0  0  0  0  0
    5.7588    4.5360    0.5394 C   0  0  0  0  0  0  0  0  0  0  0  0
    5.9490    3.8470    1.7456 C   0  0  0  0  0  0  0  0  0  0  0  0
    7.5904    3.3452    2.2597 S   0  0  0  0  0  0  0  0  0  0  0  0
    7.9583    4.9365    3.0559 C   0  0  0  0  0  0  0  0  0  0  0  0
    4.8483    3.5357    2.5519 C   0  0  0  0  0  0  0  0  0  0  0  0
    3.5636    3.9016    2.1514 C   0  0  0  0  0  0  0  0  0  0  0  0
    1.1646    2.5750    0.3707 C   0  0  0  0  0  0  0  0  0  0  0  0
    2.2945    1.6779   -0.4954 S   0  0  0  0  0  0  0  0  0  0  0  0
   -0.9849    5.3703    1.4912 C   0  0  0  0  0  0  0  0  0  0  0  0
   -1.3217    5.8550    2.7644 C   0  0  0  0  0  0  0  0  0  0  0  0
   -0.6492    5.4193    3.8580 F   0  0  0  0  0  0  0  0  0  0  0  0
   -2.4652    6.6470    2.9324 C   0  0  0  0  0  0  0  0  0  0  0  0
   -2.8771    6.9619    4.1871 F   0  0  0  0  0  0  0  0  0  0  0  0
   -3.2780    6.9524    1.8283 C   0  0  0  0  0  0  0  0  0  0  0  0
   -2.8441    6.6128    0.5347 C   0  0  0  0  0  0  0  0  0  0  0  0
   -3.6109    6.8991   -0.5511 N   0  0  0  0  0  0  0  0  0  0  0  0
   -3.3343    6.4145   -1.7918 C   0  0  0  0  0  0  0  0  0  0  0  0
   -4.2834    6.7719   -2.9055 C   0  0  0  0  0  0  0  0  0  0  0  0
   -5.3670    5.7072   -3.0534 C   0  0  0  0  0  0  0  0  0  0  0  0
   -2.2388    5.5294   -1.9422 C   0  0  0  0  0  0  0  0  0  0  0  0
   -1.4772    5.2548   -0.8523 N   0  0  0  0  0  0  0  0  0  0  0  0
   -1.7232    5.7881    0.3729 C   0  0  0  0  0  0  0  0  0  0  0  0
   -1.9172    4.7880   -3.2161 C   0  0  0  0  0  0  0  0  0  0  0  0
   -2.1742    3.2940   -3.0352 C   0  0  0  0  0  0  0  0  0  0  0  0
   -4.7062    7.2687    2.0434 C   0  0  0  0  0  0  0  0  0  0  0  0
   -5.6666    6.3382    1.8241 C   0  0  0  0  0  0  0  0  0  0  0  0
   -5.4009    4.9138    1.5511 C   0  0  0  0  0  0  0  0  0  0  0  0
   -4.2801    4.3377    1.5655 O   0  0  0  0  0  0  0  0  0  0  0  0
   -6.6499    4.2230    1.3865 C   0  0  0  0  0  0  0  0  0  0  0  0
   -6.8381    2.8692    1.1086 C   0  0  0  0  0  0  0  0  0  0  0  0
   -8.1473    2.3709    1.0246 C   0  0  0  0  0  0  0  0  0  0  0  0
   -8.3529    0.9100    0.7121 C   0  0  0  0  0  0  0  0  0  0  0  0
   -9.6967    0.5827    0.6491 F   0  0  0  0  0  0  0  0  0  0  0  0
   -7.7567    0.1398    1.6936 F   0  0  0  0  0  0  0  0  0  0  0  0
   -7.7707    0.6151   -0.5104 F   0  0  0  0  0  0  0  0  0  0  0  0
   -9.2336    3.2475    1.2490 C   0  0  0  0  0  0  0  0  0  0  0  0
   -9.0151    4.6081    1.5356 C   0  0  0  0  0  0  0  0  0  0  0  0
   -7.6990    5.1030    1.5744 C   0  0  0  0  0  0  0  0  0  0  0  0
   -7.1622    6.4842    1.8235 C   0  0  0  0  0  0  0  0  0  0  0  0
   -7.8833    7.6378    1.8838 C   0  0  0  0  0  0  0  0  0  0  0  0
   -9.3160    7.6676    1.7558 C   0  0  0  0  0  0  0  0  0  0  0  0
  -10.4678    7.7153    1.6521 N   0  0  0  0  0  0  0  0  0  0  0  0
   -7.2812    8.9395    2.0051 C   0  0  0  0  0  0  0  0  0  0  0  0
   -6.8202    9.9981    2.0968 N   0  0  0  0  0  0  0  0  0  0  0  0
    2.2290   -7.3884   -3.0830 H   0  0  0  0  0  0  0  0  0  0  0  0
   -1.2146   -5.8462    1.8831 H   0  0  0  0  0  0  0  0  0  0  0  0
   -3.9347   -8.9911    0.6839 H   0  0  0  0  0  0  0  0  0  0  0  0
   -2.3312   -9.7370   -1.0165 H   0  0  0  0  0  0  0  0  0  0  0  0
    1.9313   -5.5757   -6.1358 H   0  0  0  0  0  0  0  0  0  0  0  0
    1.3341   -7.7157   -7.2112 H   0  0  0  0  0  0  0  0  0  0  0  0
    0.4828  -11.7325   -6.2248 H   0  0  0  0  0  0  0  0  0  0  0  0
    0.1514  -10.8065   -4.7190 H   0  0  0  0  0  0  0  0  0  0  0  0
    1.4864  -10.2816   -5.8356 H   0  0  0  0  0  0  0  0  0  0  0  0
   -1.7498   -8.3444   -4.2824 H   0  0  0  0  0  0  0  0  0  0  0  0
   -1.1320   -6.2230   -3.1773 H   0  0  0  0  0  0  0  0  0  0  0  0
    2.8904   -3.1388   -4.9040 H   0  0  0  0  0  0  0  0  0  0  0  0
    2.8709   -0.7729   -5.5611 H   0  0  0  0  0  0  0  0  0  0  0  0
    0.8422    2.5272   -3.6337 H   0  0  0  0  0  0  0  0  0  0  0  0
   -0.1232    1.0209   -3.3961 H   0  0  0  0  0  0  0  0  0  0  0  0
    1.6806    0.9480   -3.4321 H   0  0  0  0  0  0  0  0  0  0  0  0
   -1.4273   -0.7559   -5.3866 H   0  0  0  0  0  0  0  0  0  0  0  0
   -1.4057   -3.1280   -4.7107 H   0  0  0  0  0  0  0  0  0  0  0  0
    2.6693   -2.8871    1.9358 H   0  0  0  0  0  0  0  0  0  0  0  0
    3.5215   -3.9875    3.9555 H   0  0  0  0  0  0  0  0  0  0  0  0
    5.7318   -6.1834    3.7976 H   0  0  0  0  0  0  0  0  0  0  0  0
    7.3866   -5.5132    3.4643 H   0  0  0  0  0  0  0  0  0  0  0  0
    7.0699   -6.4310    4.9867 H   0  0  0  0  0  0  0  0  0  0  0  0
    7.5027   -2.6425    3.0296 H   0  0  0  0  0  0  0  0  0  0  0  0
    6.6868   -1.5740    0.9957 H   0  0  0  0  0  0  0  0  0  0  0  0
    5.1108   -2.2544   -2.3334 H   0  0  0  0  0  0  0  0  0  0  0  0
    6.4931   -0.8814   -3.8261 H   0  0  0  0  0  0  0  0  0  0  0  0
    5.3710    1.6477   -4.8543 H   0  0  0  0  0  0  0  0  0  0  0  0
    5.4055    3.1128   -3.7881 H   0  0  0  0  0  0  0  0  0  0  0  0
    6.3132    3.1054   -5.3490 H   0  0  0  0  0  0  0  0  0  0  0  0
    6.4244    2.3263   -0.9681 H   0  0  0  0  0  0  0  0  0  0  0  0
    5.0673    0.9365    0.5679 H   0  0  0  0  0  0  0  0  0  0  0  0
   -2.0152    0.3483   -0.8969 H   0  0  0  0  0  0  0  0  0  0  0  0
   -3.8076   -0.8636   -2.0748 H   0  0  0  0  0  0  0  0  0  0  0  0
   -4.4187   -4.8988   -3.7940 H   0  0  0  0  0  0  0  0  0  0  0  0
   -2.8978   -4.5746   -2.8771 H   0  0  0  0  0  0  0  0  0  0  0  0
   -3.6556   -3.2693   -3.8918 H   0  0  0  0  0  0  0  0  0  0  0  0
   -2.9248   -4.4092    0.1947 H   0  0  0  0  0  0  0  0  0  0  0  0
   -1.1303   -3.2074    1.3835 H   0  0  0  0  0  0  0  0  0  0  0  0
    1.6045   -0.6955    2.8268 H   0  0  0  0  0  0  0  0  0  0  0  0
    1.4973   -0.4929    5.2812 H   0  0  0  0  0  0  0  0  0  0  0  0
   -1.5507    1.9990    6.2725 H   0  0  0  0  0  0  0  0  0  0  0  0
   -0.8708    2.1336    7.9397 H   0  0  0  0  0  0  0  0  0  0  0  0
    0.2460    2.0033    6.5243 H   0  0  0  0  0  0  0  0  0  0  0  0
   -2.8031   -0.3921    5.0923 H   0  0  0  0  0  0  0  0  0  0  0  0
   -2.7059   -0.5900    2.6439 H   0  0  0  0  0  0  0  0  0  0  0  0
    2.3219    7.0130    2.1252 H   0  0  0  0  0  0  0  0  0  0  0  0
    1.7252    9.3547    1.6234 H   0  0  0  0  0  0  0  0  0  0  0  0
    3.0525   10.8226   -0.4803 H   0  0  0  0  0  0  0  0  0  0  0  0
    2.5773   10.5046   -2.2033 H   0  0  0  0  0  0  0  0  0  0  0  0
    2.3720   12.1523   -1.4871 H   0  0  0  0  0  0  0  0  0  0  0  0
    0.4627    8.1962   -2.3291 H   0  0  0  0  0  0  0  0  0  0  0  0
    1.0565    5.8466   -1.8252 H   0  0  0  0  0  0  0  0  0  0  0  0
    4.3333    5.4104   -0.8083 H   0  0  0  0  0  0  0  0  0  0  0  0
    6.6078    4.7747   -0.0898 H   0  0  0  0  0  0  0  0  0  0  0  0
    8.9044    4.8483    3.6244 H   0  0  0  0  0  0  0  0  0  0  0  0
    8.0697    5.7231    2.2824 H   0  0  0  0  0  0  0  0  0  0  0  0
    7.1460    5.2195    3.7541 H   0  0  0  0  0  0  0  0  0  0  0  0
    4.9871    3.0065    3.4864 H   0  0  0  0  0  0  0  0  0  0  0  0
    2.7221    3.6562    2.7853 H   0  0  0  0  0  0  0  0  0  0  0  0
   -3.7498    6.9249   -3.8650 H   0  0  0  0  0  0  0  0  0  0  0  0
   -4.7706    7.7409   -2.6664 H   0  0  0  0  0  0  0  0  0  0  0  0
   -5.9021    5.5651   -2.0890 H   0  0  0  0  0  0  0  0  0  0  0  0
   -4.9261    4.7399   -3.3717 H   0  0  0  0  0  0  0  0  0  0  0  0
   -6.1011    6.0287   -3.8236 H   0  0  0  0  0  0  0  0  0  0  0  0
   -0.8417    4.9374   -3.4504 H   0  0  0  0  0  0  0  0  0  0  0  0
   -2.4957    5.1502   -4.0866 H   0  0  0  0  0  0  0  0  0  0  0  0
   -1.9608    2.7615   -3.9860 H   0  0  0  0  0  0  0  0  0  0  0  0
   -3.2334    3.1116   -2.7562 H   0  0  0  0  0  0  0  0  0  0  0  0
   -1.5183    2.8792   -2.2389 H   0  0  0  0  0  0  0  0  0  0  0  0
   -4.9297    8.2612    2.3846 H   0  0  0  0  0  0  0  0  0  0  0  0
   -5.9847    2.2181    0.9680 H   0  0  0  0  0  0  0  0  0  0  0  0
  -10.2529    2.8817    1.2174 H   0  0  0  0  0  0  0  0  0  0  0  0
   -9.8725    5.2232    1.7357 H   0  0  0  0  0  0  0  0  0  0  0  0
  1  2  2  3
  2  3  1  0
  3  4  2  0
  3  5  1  0
  5  6  2  0
  6  7  1  0
  7  8  1  0
  8  9  1  0
  8 10  1  0
  8 11  1  0
  7 12  2  0
 12 13  1  0
 13 14  2  0
 14 15  1  0
 15 16  2  3
 16 17  1  0
 17 18  3  0
 16 19  1  0
 19 20  3  0
  1 21  1  0
 21 22  2  0
 22 23  1  0
 23 24  1  0
 24 25  2  0
 25 26  1  0
 26 27  2  0
 27 28  1  0
 28 29  1  0
 27 30  1  0
 30 31  2  0
 23 32  1  0
 32 33  2  0
 33 34  1  0
 34 35  2  0
 35 36  1  0
 36 37  1  0
 35 38  1  0
 38 39  2  0
 22 40  1  0
 40 41  1  0
 41 42  1  0
 42 43  2  0
 43 44  1  0
 44 45  1  0
 45 46  2  0
 46 47  1  0
 47 48  2  0
 48 49  1  0
 49 50  1  0
 48 51  1  0
 51 52  2  0
 44 53  1  0
 53 54  2  0
 54 55  1  0
 55 56  2  0
 56 57  1  0
 57 58  1  0
 56 59  1  0
 59 60  2  0
 43 61  1  0
 61 62  1  0
 42 63  1  0
 63 64  2  0
 64 65  1  0
 65 66  1  0
 66 67  2  0
 67 68  1  0
 68 69  2  0
 69 70  1  0
 70 71  1  0
 69 72  1  0
 72 73  2  0
 65 74  1  0
 74 75  2  0
 75 76  1  0
 76 77  2  0
 77 78  1  0
 78 79  1  0
 77 80  1  0
 80 81  2  0
 64 82  1  0
 82 83  1  0
 83 84  1  0
 84 85  2  0
 85 86  1  0
 86 87  1  0
 87 88  2  0
 88 89  1  0
 89 90  2  0
 90 91  1  0
 91 92  1  0
 90 93  1  0
 93 94  2  0
 86 95  1  0
 95 96  2  0
 96 97  1  0
 97 98  2  0
 98 99  1  0
 99100  1  0
 98101  1  0
101102  2  0
 85103  1  0
103104  1  0
 84105  1  0
105106  2  0
106107  1  0
106108  1  0
108109  1  0
108110  2  0
110111  1  0
111112  2  0
112113  1  0
113114  1  0
114115  1  0
113116  2  0
116117  1  0
117118  2  0
116119  1  0
119120  1  0
110121  1  0
121122  2  3
122123  1  0
123124  2  0
123125  1  0
125126  2  0
126127  1  0
127128  1  0
128129  1  0
128130  1  0
128131  1  0
127132  2  0
132133  1  0
133134  2  0
134135  1  0
135136  2  3
136137  1  0
137138  3  0
136139  1  0
139140  3  0
 15  2  1  0
 62 21  1  0
104 63  1  0
118105  1  0
135122  1  0
 14  5  1  0
 31 24  1  0
 39 32  1  0
 61 40  2  0
 73 66  1  0
 81 74  1  0
103 82  2  0
118111  1  0
134125  1  0
 52 45  1  0
 60 53  1  0
 94 87  1  0
102 95  1  0
  1141  1  0
  6142  1  0
 12143  1  0
 13144  1  0
 25145  1  0
 26146  1  0
 29147  1  0
 29148  1  0
 29149  1  0
 30150  1  0
 31151  1  0
 33152  1  0
 34153  1  0
 37154  1  0
 37155  1  0
 37156  1  0
 38157  1  0
 39158  1  0
 46159  1  0
 47160  1  0
 50161  1  0
 50162  1  0
 50163  1  0
 51164  1  0
 52165  1  0
 54166  1  0
 55167  1  0
 58168  1  0
 58169  1  0
 58170  1  0
 59171  1  0
 60172  1  0
 67173  1  0
 68174  1  0
 71175  1  0
 71176  1  0
 71177  1  0
 72178  1  0
 73179  1  0
 75180  1  0
 76181  1  0
 79182  1  0
 79183  1  0
 79184  1  0
 80185  1  0
 81186  1  0
 88187  1  0
 89188  1  0
 92189  1  0
 92190  1  0
 92191  1  0
 93192  1  0
 94193  1  0
 96194  1  0
 97195  1  0
100196  1  0
100197  1  0
100198  1  0
101199  1  0
102200  1  0
114201  1  0
114202  1  0
115203  1  0
115204  1  0
115205  1  0
119206  1  0
119207  1  0
120208  1  0
120209  1  0
120210  1  0
121211  1  0
126212  1  0
132213  1  0
133214  1  0
M  END

