
     RDKit          3D

142157  0  0  0  0  0  0  0  0999 V2000
   -1.3972    6.6375   -4.0078 C   0  0  0  0  0  0  0  0  0  0  0  0
   -0.9258    7.2822   -2.9133 C   0  0  0  0  0  0  0  0  0  0  0  0
   -0.6642    6.6553   -1.6107 C   0  0  0  0  0  0  0  0  0  0  0  0
   -1.0560    5.5153   -1.2465 O   0  0  0  0  0  0  0  0  0  0  0  0
    0.1228    7.5555   -0.8039 C   0  0  0  0  0  0  0  0  0  0  0  0
    0.5779    7.3669    0.5015 C   0  0  0  0  0  0  0  0  0  0  0  0
    1.3397    8.3862    1.1017 C   0  0  0  0  0  0  0  0  0  0  0  0
    1.7932    8.2309    2.5261 C   0  0  0  0  0  0  0  0  0  0  0  0
    2.8243    7.3137    2.5872 F   0  0  0  0  0  0  0  0  0  0  0  0
    0.7413    7.7816    3.3014 F   0  0  0  0  0  0  0  0  0  0  0  0
    2.2324    9.4368    3.0466 F   0  0  0  0  0  0  0  0  0  0  0  0
    1.7049    9.5199    0.3348 C   0  0  0  0  0  0  0  0  0  0  0  0
    1.2253    9.6879   -0.9766 C   0  0  0  0  0  0  0  0  0  0  0  0
    0.3811    8.7101   -1.5257 C   0  0  0  0  0  0  0  0  0  0  0  0
   -0.3454    8.6568   -2.8310 C   0  0  0  0  0  0  0  0  0  0  0  0
   -0.5990    9.7042   -3.6598 C   0  0  0  0  0  0  0  0  0  0  0  0
   -0.0543   11.0205   -3.4389 C   0  0  0  0  0  0  0  0  0  0  0  0
    0.3663   12.0859   -3.2713 N   0  0  0  0  0  0  0  0  0  0  0  0
   -1.5363    9.6163   -4.7492 C   0  0  0  0  0  0  0  0  0  0  0  0
   -2.2918    9.5567   -5.6205 N   0  0  0  0  0  0  0  0  0  0  0  0
   -1.6485    5.1874   -3.9960 C   0  0  0  0  0  0  0  0  0  0  0  0
   -0.5685    4.3066   -3.9227 C   0  0  0  0  0  0  0  0  0  0  0  0
   -0.7569    2.9331   -3.6449 C   0  0  0  0  0  0  0  0  0  0  0  0
    0.4623    2.2056   -3.4451 N   0  0  0  0  0  0  0  0  0  0  0  0
    1.5440    3.3535   -3.6585 S   0  0  0  0  0  4  0  0  0  0  0  0
    0.8008    4.7284   -3.9722 N   0  0  0  0  0  0  0  0  0  0  0  0
   -2.0462    2.3921   -3.4615 C   0  0  0  0  0  0  0  0  0  0  0  0
   -3.1429    3.2580   -3.6385 C   0  0  0  0  0  0  0  0  0  0  0  0
   -4.4293    2.8419   -3.5373 N   0  0  0  0  0  0  0  0  0  0  0  0
   -5.2324    4.2648   -3.7784 S   0  0  0  0  0  0  0  0  0  0  0  0
   -4.0645    5.4162   -4.0038 N   0  0  0  0  0  0  0  0  0  0  0  0
   -2.9457    4.6543   -3.9012 C   0  0  0  0  0  0  0  0  0  0  0  0
   -2.1881    1.0613   -2.8417 C   0  0  0  0  0  0  0  0  0  0  0  0
   -2.4690    0.9370   -1.4706 C   0  0  0  0  0  0  0  0  0  0  0  0
   -3.6341    1.5126   -0.8529 N   0  0  0  0  0  0  0  0  0  0  0  0
   -3.6231    2.8231   -0.2546 C   0  0  0  0  0  0  0  0  0  0  0  0
   -4.8013    3.5880   -0.2412 C   0  0  0  0  0  0  0  0  0  0  0  0
   -4.8466    4.8135    0.4205 C   0  0  0  0  0  0  0  0  0  0  0  0
   -3.7178    5.2904    1.0930 C   0  0  0  0  0  0  0  0  0  0  0  0
   -3.8233    6.8131    2.0409 S   0  0  0  0  0  0  0  0  0  0  0  0
   -3.4099    7.9030    0.6431 C   0  0  0  0  0  0  0  0  0  0  0  0
   -2.5328    4.5434    1.0825 C   0  0  0  0  0  0  0  0  0  0  0  0
   -2.4827    3.3170    0.4037 C   0  0  0  0  0  0  0  0  0  0  0  0
   -4.7343    0.6110   -0.6110 C   0  0  0  0  0  0  0  0  0  0  0  0
   -5.2252   -0.1982   -1.6530 C   0  0  0  0  0  0  0  0  0  0  0  0
   -6.1238   -1.2356   -1.3791 C   0  0  0  0  0  0  0  0  0  0  0  0
   -6.5302   -1.4807   -0.0663 C   0  0  0  0  0  0  0  0  0  0  0  0
   -7.5211   -2.9214    0.3130 S   0  0  0  0  0  0  0  0  0  0  0  0
   -6.0563   -3.9562    0.6569 C   0  0  0  0  0  0  0  0  0  0  0  0
   -6.1047   -0.6347    0.9656 C   0  0  0  0  0  0  0  0  0  0  0  0
   -5.2048    0.4041    0.6954 C   0  0  0  0  0  0  0  0  0  0  0  0
   -1.8209   -0.1581   -0.9176 C   0  0  0  0  0  0  0  0  0  0  0  0
   -1.5109   -0.6028    0.6693 S   0  0  0  0  0  0  0  0  0  0  0  0
   -0.3954   -1.8147    0.2355 C   0  0  0  0  0  0  0  0  0  0  0  0
   -0.2959   -1.8857   -1.1711 C   0  0  0  0  0  0  0  0  0  0  0  0
    0.4327   -2.9167   -1.8752 N   0  0  0  0  0  0  0  0  0  0  0  0
    0.4113   -4.2531   -1.3257 C   0  0  0  0  0  0  0  0  0  0  0  0
   -0.8085   -4.8273   -0.9200 C   0  0  0  0  0  0  0  0  0  0  0  0
   -0.8295   -6.0736   -0.2860 C   0  0  0  0  0  0  0  0  0  0  0  0
    0.3681   -6.7539   -0.0363 C   0  0  0  0  0  0  0  0  0  0  0  0
    0.3388   -8.3445    0.7982 S   0  0  0  0  0  0  0  0  0  0  0  0
    0.1289   -7.6212    2.4620 C   0  0  0  0  0  0  0  0  0  0  0  0
    1.5862   -6.1958   -0.4531 C   0  0  0  0  0  0  0  0  0  0  0  0
    1.6097   -4.9525   -1.0937 C   0  0  0  0  0  0  0  0  0  0  0  0
    1.1330   -2.6508   -3.1115 C   0  0  0  0  0  0  0  0  0  0  0  0
    1.8101   -1.4332   -3.3105 C   0  0  0  0  0  0  0  0  0  0  0  0
    2.4702   -1.1800   -4.5167 C   0  0  0  0  0  0  0  0  0  0  0  0
    2.4750   -2.1422   -5.5291 C   0  0  0  0  0  0  0  0  0  0  0  0
    3.2976   -1.8075   -7.0820 S   0  0  0  0  0  0  0  0  0  0  0  0
    4.9185   -2.3838   -6.4982 C   0  0  0  0  0  0  0  0  0  0  0  0
    1.8100   -3.3596   -5.3367 C   0  0  0  0  0  0  0  0  0  0  0  0
    1.1459   -3.6149   -4.1384 C   0  0  0  0  0  0  0  0  0  0  0  0
   -1.0941   -0.9149   -1.7760 C   0  0  0  0  0  0  0  0  0  0  0  0
   -1.2166   -0.2674   -3.3158 S   0  0  0  0  0  0  0  0  0  0  0  0
    0.5845   -2.3758    1.1932 C   0  0  0  0  0  0  0  0  0  0  0  0
    0.1715   -2.9752    2.3911 C   0  0  0  0  0  0  0  0  0  0  0  0
    1.1138   -3.4192    3.3553 C   0  0  0  0  0  0  0  0  0  0  0  0
    0.5394   -3.9934    4.5350 N   0  0  0  0  0  0  0  0  0  0  0  0
   -1.0151   -3.8787    4.1832 S   0  0  0  0  0  4  0  0  0  0  0  0
   -1.1962   -3.1957    2.7464 N   0  0  0  0  0  0  0  0  0  0  0  0
    2.4919   -3.2802    3.1461 C   0  0  0  0  0  0  0  0  0  0  0  0
    2.9194   -2.6930    1.9461 C   0  0  0  0  0  0  0  0  0  0  0  0
    4.2351   -2.5051    1.6483 N   0  0  0  0  0  0  0  0  0  0  0  0
    4.1103   -1.7596    0.1777 S   0  0  0  0  0  0  0  0  0  0  0  0
    2.4907   -1.6438   -0.1244 N   0  0  0  0  0  0  0  0  0  0  0  0
    1.9716   -2.2335    0.9787 C   0  0  0  0  0  0  0  0  0  0  0  0
    3.4713   -3.6480    4.1815 C   0  0  0  0  0  0  0  0  0  0  0  0
    4.2140   -4.7592    4.1114 C   0  0  0  0  0  0  0  0  0  0  0  0
    3.9246   -5.9209    3.2635 C   0  0  0  0  0  0  0  0  0  0  0  0
    3.1864   -5.9323    2.2463 O   0  0  0  0  0  0  0  0  0  0  0  0
    4.6215   -7.0688    3.8077 C   0  0  0  0  0  0  0  0  0  0  0  0
    4.4574   -8.4140    3.4857 C   0  0  0  0  0  0  0  0  0  0  0  0
    5.1289   -9.3845    4.2558 C   0  0  0  0  0  0  0  0  0  0  0  0
    4.9144  -10.8503    4.0011 C   0  0  0  0  0  0  0  0  0  0  0  0
    3.9514  -11.3228    4.8770 F   0  0  0  0  0  0  0  0  0  0  0  0
    6.0899  -11.5519    4.2006 F   0  0  0  0  0  0  0  0  0  0  0  0
    4.4917  -11.0801    2.7021 F   0  0  0  0  0  0  0  0  0  0  0  0
    5.9135   -8.9687    5.3560 C   0  0  0  0  0  0  0  0  0  0  0  0
    6.0532   -7.6056    5.6706 C   0  0  0  0  0  0  0  0  0  0  0  0
    5.4108   -6.6577    4.8684 C   0  0  0  0  0  0  0  0  0  0  0  0
    5.3016   -5.1867    5.0393 C   0  0  0  0  0  0  0  0  0  0  0  0
    6.2183   -4.3775    5.6346 C   0  0  0  0  0  0  0  0  0  0  0  0
    7.4298   -4.8985    6.2226 C   0  0  0  0  0  0  0  0  0  0  0  0
    8.4091   -5.3185    6.6724 N   0  0  0  0  0  0  0  0  0  0  0  0
    6.1269   -2.9374    5.5788 C   0  0  0  0  0  0  0  0  0  0  0  0
    6.0538   -1.7845    5.5720 N   0  0  0  0  0  0  0  0  0  0  0  0
   -1.4522    7.1215   -4.9733 H   0  0  0  0  0  0  0  0  0  0  0  0
    0.3284    6.4613    1.0416 H   0  0  0  0  0  0  0  0  0  0  0  0
    2.3578   10.2785    0.7545 H   0  0  0  0  0  0  0  0  0  0  0  0
    1.5596   10.5479   -1.5389 H   0  0  0  0  0  0  0  0  0  0  0  0
   -5.6917    3.2267   -0.7428 H   0  0  0  0  0  0  0  0  0  0  0  0
   -5.7700    5.3862    0.4246 H   0  0  0  0  0  0  0  0  0  0  0  0
   -2.3139    7.9176    0.5083 H   0  0  0  0  0  0  0  0  0  0  0  0
   -3.7537    8.9301    0.8716 H   0  0  0  0  0  0  0  0  0  0  0  0
   -3.9018    7.5627   -0.2859 H   0  0  0  0  0  0  0  0  0  0  0  0
   -1.6536    4.9054    1.6025 H   0  0  0  0  0  0  0  0  0  0  0  0
   -1.5668    2.7408    0.4228 H   0  0  0  0  0  0  0  0  0  0  0  0
   -4.8772   -0.0573   -2.6692 H   0  0  0  0  0  0  0  0  0  0  0  0
   -6.4638   -1.8739   -2.1872 H   0  0  0  0  0  0  0  0  0  0  0  0
   -6.3807   -4.9693    0.9667 H   0  0  0  0  0  0  0  0  0  0  0  0
   -5.4491   -3.5062    1.4673 H   0  0  0  0  0  0  0  0  0  0  0  0
   -5.4131   -4.0365   -0.2492 H   0  0  0  0  0  0  0  0  0  0  0  0
   -6.4165   -0.8158    1.9843 H   0  0  0  0  0  0  0  0  0  0  0  0
   -4.8137    0.9959    1.5141 H   0  0  0  0  0  0  0  0  0  0  0  0
   -1.7401   -4.3014   -1.0784 H   0  0  0  0  0  0  0  0  0  0  0  0
   -1.7744   -6.5002    0.0213 H   0  0  0  0  0  0  0  0  0  0  0  0
    0.9342   -6.8898    2.6739 H   0  0  0  0  0  0  0  0  0  0  0  0
    0.1770   -8.4315    3.2160 H   0  0  0  0  0  0  0  0  0  0  0  0
   -0.8557   -7.1088    2.5345 H   0  0  0  0  0  0  0  0  0  0  0  0
    2.5137   -6.7280   -0.2766 H   0  0  0  0  0  0  0  0  0  0  0  0
    2.5592   -4.5175   -1.3768 H   0  0  0  0  0  0  0  0  0  0  0  0
    1.8183   -0.6753   -2.5388 H   0  0  0  0  0  0  0  0  0  0  0  0
    2.9817   -0.2361   -4.6588 H   0  0  0  0  0  0  0  0  0  0  0  0
    5.6470   -2.3535   -7.3373 H   0  0  0  0  0  0  0  0  0  0  0  0
    4.8479   -3.4265   -6.1287 H   0  0  0  0  0  0  0  0  0  0  0  0
    5.2800   -1.7207   -5.6859 H   0  0  0  0  0  0  0  0  0  0  0  0
    1.7997   -4.1054   -6.1206 H   0  0  0  0  0  0  0  0  0  0  0  0
    0.6264   -4.5540   -4.0132 H   0  0  0  0  0  0  0  0  0  0  0  0
    3.6230   -2.9318    4.9821 H   0  0  0  0  0  0  0  0  0  0  0  0
    3.7887   -8.6961    2.6808 H   0  0  0  0  0  0  0  0  0  0  0  0
    6.4029   -9.7013    5.9865 H   0  0  0  0  0  0  0  0  0  0  0  0
    6.6032   -7.3304    6.5594 H   0  0  0  0  0  0  0  0  0  0  0  0
  1  2  2  3
  2  3  1  0
  3  4  2  0
  3  5  1  0
  5  6  2  0
  6  7  1  0
  7  8  1  0
  8  9  1  0
  8 10  1  0
  8 11  1  0
  7 12  2  0
 12 13  1  0
 13 14  2  0
 14 15  1  0
 15 16  2  3
 16 17  1  0
 17 18  3  0
 16 19  1  0
 19 20  3  0
  1 21  1  0
 21 22  2  0
 22 23  1  0
 23 24  1  0
 24 25  2  0
 25 26  2  0
 23 27  2  0
 27 28  1  0
 28 29  2  0
 29 30  1  0
 30 31  1  0
 31 32  2  0
 27 33  1  0
 33 34  2  0
 34 35  1  0
 35 36  1  0
 36 37  2  0
 37 38  1  0
 38 39  2  0
 39 40  1  0
 40 41  1  0
 39 42  1  0
 42 43  2  0
 35 44  1  0
 44 45  2  0
 45 46  1  0
 46 47  2  0
 47 48  1  0
 48 49  1  0
 47 50  1  0
 50 51  2  0
 34 52  1  0
 52 53  1  0
 53 54  1  0
 54 55  2  0
 55 56  1  0
 56 57  1  0
 57 58  2  0
 58 59  1  0
 59 60  2  0
 60 61  1  0
 61 62  1  0
 60 63  1  0
 63 64  2  0
 56 65  1  0
 65 66  2  0
 66 67  1  0
 67 68  2  0
 68 69  1  0
 69 70  1  0
 68 71  1  0
 71 72  2  0
 55 73  1  0
 73 74  1  0
 54 75  1  0
 75 76  2  0
 76 77  1  0
 77 78  1  0
 78 79  2  0
 79 80  2  0
 77 81  2  0
 81 82  1  0
 82 83  2  0
 83 84  1  0
 84 85  1  0
 85 86  2  0
 81 87  1  0
 87 88  2  3
 88 89  1  0
 89 90  2  0
 89 91  1  0
 91 92  2  0
 92 93  1  0
 93 94  1  0
 94 95  1  0
 94 96  1  0
 94 97  1  0
 93 98  2  0
 98 99  1  0
 99100  2  0
100101  1  0
101102  2  3
102103  1  0
103104  3  0
102105  1  0
105106  3  0
 15  2  1  0
 32 21  1  0
 74 33  1  0
 86 75  1  0
101 88  1  0
 14  5  1  0
 26 22  1  0
 32 28  1  0
 43 36  1  0
 51 44  1  0
 73 52  2  0
 80 76  1  0
 86 82  1  0
100 91  1  0
 64 57  1  0
 72 65  1  0
  1107  1  0
  6108  1  0
 12109  1  0
 13110  1  0
 37111  1  0
 38112  1  0
 41113  1  0
 41114  1  0
 41115  1  0
 42116  1  0
 43117  1  0
 45118  1  0
 46119  1  0
 49120  1  0
 49121  1  0
 49122  1  0
 50123  1  0
 51124  1  0
 58125  1  0
 59126  1  0
 62127  1  0
 62128  1  0
 62129  1  0
 63130  1  0
 64131  1  0
 66132  1  0
 67133  1  0
 70134  1  0
 70135  1  0
 70136  1  0
 71137  1  0
 72138  1  0
 87139  1  0
 92140  1  0
 98141  1  0
 99142  1  0
M  END

