
     RDKit          3D

250271  0  0  0  0  0  0  0  0999 V2000
   -6.2737    5.1368    1.6618 C   0  0  0  0  0  0  0  0  0  0  0  0
   -6.4776    5.7773    0.4990 C   0  0  0  0  0  0  0  0  0  0  0  0
   -6.5756    7.2352    0.4246 C   0  0  0  0  0  0  0  0  0  0  0  0
   -6.8597    8.0087    1.3777 O   0  0  0  0  0  0  0  0  0  0  0  0
   -6.1969    7.6470   -0.9120 C   0  0  0  0  0  0  0  0  0  0  0  0
   -6.0740    8.9403   -1.4126 C   0  0  0  0  0  0  0  0  0  0  0  0
   -5.6589    9.1197   -2.7473 C   0  0  0  0  0  0  0  0  0  0  0  0
   -5.5272   10.4999   -3.3323 C   0  0  0  0  0  0  0  0  0  0  0  0
   -5.2654   11.4318   -2.3451 F   0  0  0  0  0  0  0  0  0  0  0  0
   -4.4827   10.5398   -4.2398 F   0  0  0  0  0  0  0  0  0  0  0  0
   -6.7012   10.8408   -3.9799 F   0  0  0  0  0  0  0  0  0  0  0  0
   -5.4266    7.9817   -3.5549 C   0  0  0  0  0  0  0  0  0  0  0  0
   -5.5445    6.6873   -3.0241 C   0  0  0  0  0  0  0  0  0  0  0  0
   -5.9297    6.5295   -1.6853 C   0  0  0  0  0  0  0  0  0  0  0  0
   -6.1833    5.2964   -0.8884 C   0  0  0  0  0  0  0  0  0  0  0  0
   -6.4408    4.0629   -1.3817 C   0  0  0  0  0  0  0  0  0  0  0  0
   -6.0382    3.6420   -2.6957 C   0  0  0  0  0  0  0  0  0  0  0  0
   -5.7149    3.2774   -3.7444 N   0  0  0  0  0  0  0  0  0  0  0  0
   -7.2882    3.1344   -0.6816 C   0  0  0  0  0  0  0  0  0  0  0  0
   -7.9867    2.3782   -0.1509 N   0  0  0  0  0  0  0  0  0  0  0  0
   -5.5223    3.8811    1.7489 C   0  0  0  0  0  0  0  0  0  0  0  0
   -4.1272    3.7714    1.6139 C   0  0  0  0  0  0  0  0  0  0  0  0
   -3.2344    4.8945    1.7347 N   0  0  0  0  0  0  0  0  0  0  0  0
   -3.0521    5.8116    0.6403 C   0  0  0  0  0  0  0  0  0  0  0  0
   -2.8224    5.3374   -0.6631 C   0  0  0  0  0  0  0  0  0  0  0  0
   -2.5168    6.2358   -1.6944 C   0  0  0  0  0  0  0  0  0  0  0  0
   -2.4673    7.6181   -1.4335 C   0  0  0  0  0  0  0  0  0  0  0  0
   -2.0788    8.5806   -2.5139 C   0  0  0  0  0  0  0  0  0  0  0  0
   -2.7097    8.0891   -0.1348 C   0  0  0  0  0  0  0  0  0  0  0  0
   -3.0108    7.1923    0.8929 C   0  0  0  0  0  0  0  0  0  0  0  0
   -2.4361    5.0150    2.9352 C   0  0  0  0  0  0  0  0  0  0  0  0
   -1.0822    5.3975    2.8602 C   0  0  0  0  0  0  0  0  0  0  0  0
   -0.2796    5.3873    4.0084 C   0  0  0  0  0  0  0  0  0  0  0  0
   -0.8091    4.9815    5.2404 C   0  0  0  0  0  0  0  0  0  0  0  0
    0.0626    4.9533    6.4623 C   0  0  0  0  0  0  0  0  0  0  0  0
   -2.1714    4.6465    5.3292 C   0  0  0  0  0  0  0  0  0  0  0  0
   -2.9743    4.6555    4.1841 C   0  0  0  0  0  0  0  0  0  0  0  0
   -3.7159    2.4759    1.8916 C   0  0  0  0  0  0  0  0  0  0  0  0
   -2.2101    1.7885    2.0916 S   0  0  0  0  0  0  0  0  0  0  0  0
   -2.8214    0.3280    2.7202 C   0  0  0  0  0  0  0  0  0  0  0  0
   -4.2210    0.4022    2.8126 C   0  0  0  0  0  0  0  0  0  0  0  0
   -5.0343   -0.4591    3.6235 N   0  0  0  0  0  0  0  0  0  0  0  0
   -5.6436   -1.6296    3.0500 C   0  0  0  0  0  0  0  0  0  0  0  0
   -6.1863   -1.5987    1.7538 C   0  0  0  0  0  0  0  0  0  0  0  0
   -6.7954   -2.7335    1.2109 C   0  0  0  0  0  0  0  0  0  0  0  0
   -6.8819   -3.9167    1.9632 C   0  0  0  0  0  0  0  0  0  0  0  0
   -7.5496   -5.1259    1.3774 C   0  0  0  0  0  0  0  0  0  0  0  0
   -6.4049   -3.9305    3.2844 C   0  0  0  0  0  0  0  0  0  0  0  0
   -5.7787   -2.8010    3.8190 C   0  0  0  0  0  0  0  0  0  0  0  0
   -5.5088    0.0644    4.8842 C   0  0  0  0  0  0  0  0  0  0  0  0
   -6.8621   -0.0650    5.2444 C   0  0  0  0  0  0  0  0  0  0  0  0
   -7.3497    0.5365    6.4058 C   0  0  0  0  0  0  0  0  0  0  0  0
   -6.4871    1.2710    7.2363 C   0  0  0  0  0  0  0  0  0  0  0  0
   -7.0167    1.9738    8.4520 C   0  0  0  0  0  0  0  0  0  0  0  0
   -5.1402    1.4119    6.8787 C   0  0  0  0  0  0  0  0  0  0  0  0
   -4.6483    0.8082    5.7185 C   0  0  0  0  0  0  0  0  0  0  0  0
   -4.6763    1.6262    2.3283 C   0  0  0  0  0  0  0  0  0  0  0  0
   -6.1503    2.4245    2.3853 S   0  0  0  0  0  0  0  0  0  0  0  0
   -1.9427   -0.7911    3.0719 C   0  0  0  0  0  0  0  0  0  0  0  0
   -1.8579   -1.9879    2.3305 C   0  0  0  0  0  0  0  0  0  0  0  0
   -2.6738   -2.2647    1.1678 N   0  0  0  0  0  0  0  0  0  0  0  0
   -2.6716   -1.3021    0.0832 C   0  0  0  0  0  0  0  0  0  0  0  0
   -1.5023   -0.5941   -0.2418 C   0  0  0  0  0  0  0  0  0  0  0  0
   -1.5114    0.3894   -1.2323 C   0  0  0  0  0  0  0  0  0  0  0  0
   -2.6864    0.6564   -1.9378 C   0  0  0  0  0  0  0  0  0  0  0  0
   -2.6922    1.9000   -3.2314 S   0  0  0  0  0  0  0  0  0  0  0  0
   -2.1851    0.7167   -4.5172 C   0  0  0  0  0  0  0  0  0  0  0  0
   -3.8439   -0.0711   -1.6596 C   0  0  0  0  0  0  0  0  0  0  0  0
   -3.8371   -1.0505   -0.6607 C   0  0  0  0  0  0  0  0  0  0  0  0
   -3.1574   -3.6194    0.9680 C   0  0  0  0  0  0  0  0  0  0  0  0
   -3.2722   -4.1716   -0.3271 C   0  0  0  0  0  0  0  0  0  0  0  0
   -3.6604   -5.5031   -0.4981 C   0  0  0  0  0  0  0  0  0  0  0  0
   -3.9208   -6.3067    0.6139 C   0  0  0  0  0  0  0  0  0  0  0  0
   -4.3628   -8.0270    0.3937 S   0  0  0  0  0  0  0  0  0  0  0  0
   -2.6424   -8.5996    0.5549 C   0  0  0  0  0  0  0  0  0  0  0  0
   -3.8205   -5.7737    1.9021 C   0  0  0  0  0  0  0  0  0  0  0  0
   -3.4237   -4.4443    2.0772 C   0  0  0  0  0  0  0  0  0  0  0  0
   -0.5989   -2.5960    2.4718 C   0  0  0  0  0  0  0  0  0  0  0  0
    0.1818   -3.5784    1.3675 S   0  0  0  0  0  0  0  0  0  0  0  0
    1.7388   -2.9844    1.6727 C   0  0  0  0  0  0  0  0  0  0  0  0
    1.6503   -1.9753    2.6601 C   0  0  0  0  0  0  0  0  0  0  0  0
    2.5948   -0.8819    2.7612 N   0  0  0  0  0  0  0  0  0  0  0  0
    3.1012   -0.4350    4.0505 C   0  0  0  0  0  0  0  0  0  0  0  0
    2.6651   -1.0249    5.2572 C   0  0  0  0  0  0  0  0  0  0  0  0
    3.1296   -0.5618    6.4921 C   0  0  0  0  0  0  0  0  0  0  0  0
    4.0726    0.4678    6.5495 C   0  0  0  0  0  0  0  0  0  0  0  0
    4.6742    1.0533    8.1319 S   0  0  0  0  0  0  0  0  0  0  0  0
    3.4460    2.3902    8.2438 C   0  0  0  0  0  0  0  0  0  0  0  0
    4.5532    1.0308    5.3660 C   0  0  0  0  0  0  0  0  0  0  0  0
    4.0626    0.6021    4.1309 C   0  0  0  0  0  0  0  0  0  0  0  0
    2.7416   -0.0314    1.6035 C   0  0  0  0  0  0  0  0  0  0  0  0
    1.6711    0.7628    1.1712 C   0  0  0  0  0  0  0  0  0  0  0  0
    1.8362    1.6727    0.1275 C   0  0  0  0  0  0  0  0  0  0  0  0
    3.0705    1.7797   -0.5170 C   0  0  0  0  0  0  0  0  0  0  0  0
    3.2967    3.0408   -1.7738 S   0  0  0  0  0  0  0  0  0  0  0  0
    2.6069    2.0208   -3.1065 C   0  0  0  0  0  0  0  0  0  0  0  0
    4.1305    0.9557   -0.1317 C   0  0  0  0  0  0  0  0  0  0  0  0
    3.9710    0.0569    0.9304 C   0  0  0  0  0  0  0  0  0  0  0  0
    0.3317   -1.8488    3.1367 C   0  0  0  0  0  0  0  0  0  0  0  0
   -0.4278   -0.4954    3.7697 S   0  0  0  0  0  0  0  0  0  0  0  0
    2.7647   -3.0603    0.6275 C   0  0  0  0  0  0  0  0  0  0  0  0
    4.1571   -3.2034    0.7873 C   0  0  0  0  0  0  0  0  0  0  0  0
    4.7388   -3.8827    1.9146 N   0  0  0  0  0  0  0  0  0  0  0  0
    5.4584   -3.1043    2.8895 C   0  0  0  0  0  0  0  0  0  0  0  0
    5.0172   -3.0525    4.2233 C   0  0  0  0  0  0  0  0  0  0  0  0
    5.7502   -2.3495    5.1833 C   0  0  0  0  0  0  0  0  0  0  0  0
    6.9191   -1.6614    4.8183 C   0  0  0  0  0  0  0  0  0  0  0  0
    7.7246   -0.9308    5.8531 C   0  0  0  0  0  0  0  0  0  0  0  0
    7.3664   -1.7204    3.4889 C   0  0  0  0  0  0  0  0  0  0  0  0
    6.6415   -2.4370    2.5330 C   0  0  0  0  0  0  0  0  0  0  0  0
    4.6515   -5.3369    1.9938 C   0  0  0  0  0  0  0  0  0  0  0  0
    4.0350   -6.0829    0.9569 C   0  0  0  0  0  0  0  0  0  0  0  0
    3.9442   -7.4716    1.0247 C   0  0  0  0  0  0  0  0  0  0  0  0
    4.4638   -8.1627    2.1260 C   0  0  0  0  0  0  0  0  0  0  0  0
    4.4211   -9.6601    2.1742 C   0  0  0  0  0  0  0  0  0  0  0  0
    5.0887   -7.4466    3.1538 C   0  0  0  0  0  0  0  0  0  0  0  0
    5.1913   -6.0532    3.0872 C   0  0  0  0  0  0  0  0  0  0  0  0
    4.7815   -3.1538   -0.4630 C   0  0  0  0  0  0  0  0  0  0  0  0
    6.3555   -3.3435   -1.0226 S   0  0  0  0  0  0  0  0  0  0  0  0
    5.9077   -3.3219   -2.6662 C   0  0  0  0  0  0  0  0  0  0  0  0
    4.5220   -3.2228   -2.7738 C   0  0  0  0  0  0  0  0  0  0  0  0
    3.7801   -3.6567   -3.9290 N   0  0  0  0  0  0  0  0  0  0  0  0
    3.1880   -4.9765   -3.8929 C   0  0  0  0  0  0  0  0  0  0  0  0
    1.8378   -5.1650   -4.2394 C   0  0  0  0  0  0  0  0  0  0  0  0
    1.2470   -6.4301   -4.1158 C   0  0  0  0  0  0  0  0  0  0  0  0
    2.0059   -7.5231   -3.6697 C   0  0  0  0  0  0  0  0  0  0  0  0
    1.3681   -8.8698   -3.4810 C   0  0  0  0  0  0  0  0  0  0  0  0
    3.3501   -7.3350   -3.3115 C   0  0  0  0  0  0  0  0  0  0  0  0
    3.9347   -6.0715   -3.4232 C   0  0  0  0  0  0  0  0  0  0  0  0
    3.5488   -2.7566   -5.0273 C   0  0  0  0  0  0  0  0  0  0  0  0
    3.5525   -3.2395   -6.3457 C   0  0  0  0  0  0  0  0  0  0  0  0
    3.3117   -2.3717   -7.4143 C   0  0  0  0  0  0  0  0  0  0  0  0
    3.0781   -1.0058   -7.1789 C   0  0  0  0  0  0  0  0  0  0  0  0
    2.7620   -0.0803   -8.3177 C   0  0  0  0  0  0  0  0  0  0  0  0
    3.0532   -0.5262   -5.8589 C   0  0  0  0  0  0  0  0  0  0  0  0
    3.2883   -1.3990   -4.7907 C   0  0  0  0  0  0  0  0  0  0  0  0
    3.9432   -3.0751   -1.5254 C   0  0  0  0  0  0  0  0  0  0  0  0
    2.3586   -2.9870   -1.0266 S   0  0  0  0  0  0  0  0  0  0  0  0
    6.8291   -3.2472   -3.8017 C   0  0  0  0  0  0  0  0  0  0  0  0
    7.0883   -2.0731   -4.4119 C   0  0  0  0  0  0  0  0  0  0  0  0
    6.5256   -0.7720   -4.0083 C   0  0  0  0  0  0  0  0  0  0  0  0
    5.9896   -0.4961   -2.9014 O   0  0  0  0  0  0  0  0  0  0  0  0
    6.6651    0.1458   -5.1096 C   0  0  0  0  0  0  0  0  0  0  0  0
    6.1533    1.4363   -5.2143 C   0  0  0  0  0  0  0  0  0  0  0  0
    6.2971    2.1297   -6.4288 C   0  0  0  0  0  0  0  0  0  0  0  0
    5.7745    3.5380   -6.5599 C   0  0  0  0  0  0  0  0  0  0  0  0
    6.7014    4.4199   -6.0348 F   0  0  0  0  0  0  0  0  0  0  0  0
    5.5437    3.8644   -7.8862 F   0  0  0  0  0  0  0  0  0  0  0  0
    4.5847    3.6827   -5.8660 F   0  0  0  0  0  0  0  0  0  0  0  0
    6.9715    1.5007   -7.4990 C   0  0  0  0  0  0  0  0  0  0  0  0
    7.4885    0.2049   -7.3661 C   0  0  0  0  0  0  0  0  0  0  0  0
    7.3476   -0.4674   -6.1451 C   0  0  0  0  0  0  0  0  0  0  0  0
    7.7393   -1.8508   -5.7401 C   0  0  0  0  0  0  0  0  0  0  0  0
    8.6312   -2.6598   -6.3641 C   0  0  0  0  0  0  0  0  0  0  0  0
    9.0358   -3.9324   -5.8306 C   0  0  0  0  0  0  0  0  0  0  0  0
    9.3700   -4.9618   -5.4206 N   0  0  0  0  0  0  0  0  0  0  0  0
    9.3283   -2.2738   -7.5622 C   0  0  0  0  0  0  0  0  0  0  0  0
    9.9010   -1.9766   -8.5231 N   0  0  0  0  0  0  0  0  0  0  0  0
   -6.4170    5.6760    2.5954 H   0  0  0  0  0  0  0  0  0  0  0  0
   -6.2957    9.7859   -0.7737 H   0  0  0  0  0  0  0  0  0  0  0  0
   -5.1383    8.0956   -4.5942 H   0  0  0  0  0  0  0  0  0  0  0  0
   -5.3189    5.8519   -3.6641 H   0  0  0  0  0  0  0  0  0  0  0  0
   -2.8413    4.2735   -0.8679 H   0  0  0  0  0  0  0  0  0  0  0  0
   -2.3183    5.8543   -2.6901 H   0  0  0  0  0  0  0  0  0  0  0  0
   -0.9858    8.7629   -2.4712 H   0  0  0  0  0  0  0  0  0  0  0  0
   -2.6080    9.5432   -2.3784 H   0  0  0  0  0  0  0  0  0  0  0  0
   -2.3366    8.1816   -3.5154 H   0  0  0  0  0  0  0  0  0  0  0  0
   -2.6484    9.1532    0.0856 H   0  0  0  0  0  0  0  0  0  0  0  0
   -3.1748    7.5779    1.8932 H   0  0  0  0  0  0  0  0  0  0  0  0
   -0.6348    5.6730    1.9131 H   0  0  0  0  0  0  0  0  0  0  0  0
    0.7645    5.6745    3.9280 H   0  0  0  0  0  0  0  0  0  0  0  0
    1.0563    4.5333    6.2035 H   0  0  0  0  0  0  0  0  0  0  0  0
    0.1882    5.9855    6.8492 H   0  0  0  0  0  0  0  0  0  0  0  0
   -0.3832    4.3225    7.2563 H   0  0  0  0  0  0  0  0  0  0  0  0
   -2.6105    4.3554    6.2756 H   0  0  0  0  0  0  0  0  0  0  0  0
   -4.0137    4.3624    4.2742 H   0  0  0  0  0  0  0  0  0  0  0  0
   -6.1526   -0.6867    1.1704 H   0  0  0  0  0  0  0  0  0  0  0  0
   -7.2042   -2.6906    0.2087 H   0  0  0  0  0  0  0  0  0  0  0  0
   -7.3087   -5.2184    0.2967 H   0  0  0  0  0  0  0  0  0  0  0  0
   -7.2121   -6.0526    1.8832 H   0  0  0  0  0  0  0  0  0  0  0  0
   -8.6474   -5.0293    1.4958 H   0  0  0  0  0  0  0  0  0  0  0  0
   -6.5004   -4.8273    3.8909 H   0  0  0  0  0  0  0  0  0  0  0  0
   -5.3992   -2.8333    4.8334 H   0  0  0  0  0  0  0  0  0  0  0  0
   -7.5565   -0.5888    4.5989 H   0  0  0  0  0  0  0  0  0  0  0  0
   -8.3988    0.4367    6.6531 H   0  0  0  0  0  0  0  0  0  0  0  0
   -6.2688    1.9382    9.2728 H   0  0  0  0  0  0  0  0  0  0  0  0
   -7.9566    1.4966    8.8115 H   0  0  0  0  0  0  0  0  0  0  0  0
   -7.2269    3.0367    8.2003 H   0  0  0  0  0  0  0  0  0  0  0  0
   -4.4681    1.9948    7.4960 H   0  0  0  0  0  0  0  0  0  0  0  0
   -3.6075    0.9450    5.4579 H   0  0  0  0  0  0  0  0  0  0  0  0
   -0.5789   -0.7960    0.2769 H   0  0  0  0  0  0  0  0  0  0  0  0
   -0.6041    0.9367   -1.4545 H   0  0  0  0  0  0  0  0  0  0  0  0
   -1.1559    0.3538   -4.3160 H   0  0  0  0  0  0  0  0  0  0  0  0
   -2.2036    1.2204   -5.5024 H   0  0  0  0  0  0  0  0  0  0  0  0
   -2.8836   -0.1466   -4.5497 H   0  0  0  0  0  0  0  0  0  0  0  0
   -4.7535    0.1174   -2.2197 H   0  0  0  0  0  0  0  0  0  0  0  0
   -4.7331   -1.6197   -0.4843 H   0  0  0  0  0  0  0  0  0  0  0  0
   -3.0340   -3.5868   -1.2039 H   0  0  0  0  0  0  0  0  0  0  0  0
   -3.7322   -5.9172   -1.4987 H   0  0  0  0  0  0  0  0  0  0  0  0
   -2.6083   -9.7025    0.4278 H   0  0  0  0  0  0  0  0  0  0  0  0
   -2.2469   -8.3441    1.5612 H   0  0  0  0  0  0  0  0  0  0  0  0
   -2.0011   -8.1278   -0.2199 H   0  0  0  0  0  0  0  0  0  0  0  0
   -4.0255   -6.3937    2.7671 H   0  0  0  0  0  0  0  0  0  0  0  0
   -3.3313   -4.0608    3.0873 H   0  0  0  0  0  0  0  0  0  0  0  0
    1.9652   -1.8459    5.2605 H   0  0  0  0  0  0  0  0  0  0  0  0
    2.7728   -1.0191    7.4037 H   0  0  0  0  0  0  0  0  0  0  0  0
    2.4190    1.9716    8.2846 H   0  0  0  0  0  0  0  0  0  0  0  0
    3.5342    3.0656    7.3664 H   0  0  0  0  0  0  0  0  0  0  0  0
    3.6289    2.9821    9.1641 H   0  0  0  0  0  0  0  0  0  0  0  0
    5.2995    1.8139    5.4048 H   0  0  0  0  0  0  0  0  0  0  0  0
    4.4437    1.0990    3.2533 H   0  0  0  0  0  0  0  0  0  0  0  0
    0.7157    0.7164    1.6621 H   0  0  0  0  0  0  0  0  0  0  0  0
    1.0114    2.3029   -0.1692 H   0  0  0  0  0  0  0  0  0  0  0  0
    3.3149    1.1969   -3.3192 H   0  0  0  0  0  0  0  0  0  0  0  0
    1.6119    1.6145   -2.8208 H   0  0  0  0  0  0  0  0  0  0  0  0
    2.4823    2.6431   -4.0154 H   0  0  0  0  0  0  0  0  0  0  0  0
    5.0896    1.0350   -0.6206 H   0  0  0  0  0  0  0  0  0  0  0  0
    4.8120   -0.5354    1.2553 H   0  0  0  0  0  0  0  0  0  0  0  0
    4.1091   -3.5696    4.5145 H   0  0  0  0  0  0  0  0  0  0  0  0
    5.4130   -2.3409    6.2135 H   0  0  0  0  0  0  0  0  0  0  0  0
    7.0737   -0.5701    6.6779 H   0  0  0  0  0  0  0  0  0  0  0  0
    8.4940   -1.6145    6.2709 H   0  0  0  0  0  0  0  0  0  0  0  0
    8.2290   -0.0460    5.4105 H   0  0  0  0  0  0  0  0  0  0  0  0
    8.2890   -1.2303    3.1964 H   0  0  0  0  0  0  0  0  0  0  0  0
    7.0121   -2.4789    1.5193 H   0  0  0  0  0  0  0  0  0  0  0  0
    3.6271   -5.6068    0.0763 H   0  0  0  0  0  0  0  0  0  0  0  0
    3.4781   -8.0088    0.2078 H   0  0  0  0  0  0  0  0  0  0  0  0
    4.1065  -10.0038    3.1815 H   0  0  0  0  0  0  0  0  0  0  0  0
    5.4342  -10.0612    1.9534 H   0  0  0  0  0  0  0  0  0  0  0  0
    3.7034  -10.0693    1.4305 H   0  0  0  0  0  0  0  0  0  0  0  0
    5.5133   -7.9706    4.0008 H   0  0  0  0  0  0  0  0  0  0  0  0
    5.7129   -5.5498    3.8913 H   0  0  0  0  0  0  0  0  0  0  0  0
    1.2360   -4.3277   -4.5731 H   0  0  0  0  0  0  0  0  0  0  0  0
    0.1986   -6.5514   -4.3620 H   0  0  0  0  0  0  0  0  0  0  0  0
    0.5128   -9.0045   -4.1757 H   0  0  0  0  0  0  0  0  0  0  0  0
    1.0034   -8.9654   -2.4352 H   0  0  0  0  0  0  0  0  0  0  0  0
    2.1027   -9.6819   -3.6772 H   0  0  0  0  0  0  0  0  0  0  0  0
    3.9424   -8.1625   -2.9425 H   0  0  0  0  0  0  0  0  0  0  0  0
    4.9739   -5.9508   -3.1448 H   0  0  0  0  0  0  0  0  0  0  0  0
    3.7428   -4.2877   -6.5472 H   0  0  0  0  0  0  0  0  0  0  0  0
    3.3086   -2.7663   -8.4261 H   0  0  0  0  0  0  0  0  0  0  0  0
    3.2359   -0.4363   -9.2563 H   0  0  0  0  0  0  0  0  0  0  0  0
    1.6620   -0.0375   -8.4596 H   0  0  0  0  0  0  0  0  0  0  0  0
    3.1437    0.9373   -8.0999 H   0  0  0  0  0  0  0  0  0  0  0  0
    2.8479    0.5186   -5.6670 H   0  0  0  0  0  0  0  0  0  0  0  0
    3.2520   -1.0239   -3.7752 H   0  0  0  0  0  0  0  0  0  0  0  0
    7.1391   -4.1890   -4.2214 H   0  0  0  0  0  0  0  0  0  0  0  0
    5.6444    1.8854   -4.3733 H   0  0  0  0  0  0  0  0  0  0  0  0
    7.1011    2.0131   -8.4481 H   0  0  0  0  0  0  0  0  0  0  0  0
    7.9523   -0.2460   -8.2232 H   0  0  0  0  0  0  0  0  0  0  0  0
  1  2  2  3
  2  3  1  0
  3  4  2  0
  3  5  1  0
  5  6  2  0
  6  7  1  0
  7  8  1  0
  8  9  1  0
  8 10  1  0
  8 11  1  0
  7 12  2  0
 12 13  1  0
 13 14  2  0
 14 15  1  0
 15 16  2  3
 16 17  1  0
 17 18  3  0
 16 19  1  0
 19 20  3  0
  1 21  1  0
 21 22  2  0
 22 23  1  0
 23 24  1  0
 24 25  2  0
 25 26  1  0
 26 27  2  0
 27 28  1  0
 27 29  1  0
 29 30  2  0
 23 31  1  0
 31 32  2  0
 32 33  1  0
 33 34  2  0
 34 35  1  0
 34 36  1  0
 36 37  2  0
 22 38  1  0
 38 39  1  0
 39 40  1  0
 40 41  2  0
 41 42  1  0
 42 43  1  0
 43 44  2  0
 44 45  1  0
 45 46  2  0
 46 47  1  0
 46 48  1  0
 48 49  2  0
 42 50  1  0
 50 51  2  0
 51 52  1  0
 52 53  2  0
 53 54  1  0
 53 55  1  0
 55 56  2  0
 41 57  1  0
 57 58  1  0
 40 59  1  0
 59 60  2  0
 60 61  1  0
 61 62  1  0
 62 63  2  0
 63 64  1  0
 64 65  2  0
 65 66  1  0
 66 67  1  0
 65 68  1  0
 68 69  2  0
 61 70  1  0
 70 71  2  0
 71 72  1  0
 72 73  2  0
 73 74  1  0
 74 75  1  0
 73 76  1  0
 76 77  2  0
 60 78  1  0
 78 79  1  0
 79 80  1  0
 80 81  2  0
 81 82  1  0
 82 83  1  0
 83 84  2  0
 84 85  1  0
 85 86  2  0
 86 87  1  0
 87 88  1  0
 86 89  1  0
 89 90  2  0
 82 91  1  0
 91 92  2  0
 92 93  1  0
 93 94  2  0
 94 95  1  0
 95 96  1  0
 94 97  1  0
 97 98  2  0
 81 99  1  0
 99100  1  0
 80101  1  0
101102  2  0
102103  1  0
103104  1  0
104105  2  0
105106  1  0
106107  2  0
107108  1  0
107109  1  0
109110  2  0
103111  1  0
111112  2  0
112113  1  0
113114  2  0
114115  1  0
114116  1  0
116117  2  0
102118  1  0
118119  1  0
119120  1  0
120121  2  0
121122  1  0
122123  1  0
123124  2  0
124125  1  0
125126  2  0
126127  1  0
126128  1  0
128129  2  0
122130  1  0
130131  2  0
131132  1  0
132133  2  0
133134  1  0
133135  1  0
135136  2  0
121137  1  0
137138  1  0
120139  1  0
139140  2  3
140141  1  0
141142  2  0
141143  1  0
143144  2  0
144145  1  0
145146  1  0
146147  1  0
146148  1  0
146149  1  0
145150  2  0
150151  1  0
151152  2  0
152153  1  0
153154  2  3
154155  1  0
155156  3  0
154157  1  0
157158  3  0
 15  2  1  0
 58 21  1  0
100 59  1  0
138101  1  0
153140  1  0
 14  5  1  0
 30 24  1  0
 37 31  1  0
 57 38  2  0
 69 62  1  0
 77 70  1  0
 99 78  2  0
110104  1  0
117111  1  0
137118  2  0
152143  1  0
 49 43  1  0
 56 50  1  0
 90 83  1  0
 98 91  1  0
129123  1  0
136130  1  0
  1159  1  0
  6160  1  0
 12161  1  0
 13162  1  0
 25163  1  0
 26164  1  0
 28165  1  0
 28166  1  0
 28167  1  0
 29168  1  0
 30169  1  0
 32170  1  0
 33171  1  0
 35172  1  0
 35173  1  0
 35174  1  0
 36175  1  0
 37176  1  0
 44177  1  0
 45178  1  0
 47179  1  0
 47180  1  0
 47181  1  0
 48182  1  0
 49183  1  0
 51184  1  0
 52185  1  0
 54186  1  0
 54187  1  0
 54188  1  0
 55189  1  0
 56190  1  0
 63191  1  0
 64192  1  0
 67193  1  0
 67194  1  0
 67195  1  0
 68196  1  0
 69197  1  0
 71198  1  0
 72199  1  0
 75200  1  0
 75201  1  0
 75202  1  0
 76203  1  0
 77204  1  0
 84205  1  0
 85206  1  0
 88207  1  0
 88208  1  0
 88209  1  0
 89210  1  0
 90211  1  0
 92212  1  0
 93213  1  0
 96214  1  0
 96215  1  0
 96216  1  0
 97217  1  0
 98218  1  0
105219  1  0
106220  1  0
108221  1  0
108222  1  0
108223  1  0
109224  1  0
110225  1  0
112226  1  0
113227  1  0
115228  1  0
115229  1  0
115230  1  0
116231  1  0
117232  1  0
124233  1  0
125234  1  0
127235  1  0
127236  1  0
127237  1  0
128238  1  0
129239  1  0
131240  1  0
132241  1  0
134242  1  0
134243  1  0
134244  1  0
135245  1  0
136246  1  0
139247  1  0
144248  1  0
150249  1  0
151250  1  0
M  END

