
     RDKit          3D

150165  0  0  0  0  0  0  0  0999 V2000
    3.2049    8.1412    4.7260 C   0  0  0  0  0  0  0  0  0  0  0  0
    3.3970    6.9464    5.3298 C   0  0  0  0  0  0  0  0  0  0  0  0
    3.2343    5.6232    4.6991 C   0  0  0  0  0  0  0  0  0  0  0  0
    2.5522    5.3520    3.6751 O   0  0  0  0  0  0  0  0  0  0  0  0
    3.9349    4.6469    5.4998 C   0  0  0  0  0  0  0  0  0  0  0  0
    4.1923    3.3097    5.1957 C   0  0  0  0  0  0  0  0  0  0  0  0
    4.9802    2.5519    6.0850 C   0  0  0  0  0  0  0  0  0  0  0  0
    5.2720    1.1293    5.7880 C   0  0  0  0  0  0  0  0  0  0  0  0
    6.0156    0.4604    6.5565 O   0  0  0  0  0  0  0  0  0  0  0  0
    4.7273    0.5302    4.6439 O   0  0  0  0  0  0  0  0  0  0  0  0
    4.9703   -0.8299    4.2918 C   0  0  0  0  0  0  0  0  0  0  0  0
    5.5066    3.1760    7.2409 C   0  0  0  0  0  0  0  0  0  0  0  0
    5.2430    4.5293    7.5178 C   0  0  0  0  0  0  0  0  0  0  0  0
    4.4219    5.2540    6.6438 C   0  0  0  0  0  0  0  0  0  0  0  0
    4.0019    6.6836    6.6721 C   0  0  0  0  0  0  0  0  0  0  0  0
    3.8859    7.4610    7.7741 C   0  0  0  0  0  0  0  0  0  0  0  0
    3.2198    8.7384    7.7443 C   0  0  0  0  0  0  0  0  0  0  0  0
    2.6793    9.7655    7.7384 N   0  0  0  0  0  0  0  0  0  0  0  0
    4.2322    6.9856    9.0871 C   0  0  0  0  0  0  0  0  0  0  0  0
    4.4962    6.6057   10.1474 N   0  0  0  0  0  0  0  0  0  0  0  0
    2.6671    8.2359    3.3605 C   0  0  0  0  0  0  0  0  0  0  0  0
    3.3928    7.6845    2.2896 C   0  0  0  0  0  0  0  0  0  0  0  0
    2.6998    7.2938    1.1456 C   0  0  0  0  0  0  0  0  0  0  0  0
    3.0659    6.1846    0.2708 C   0  0  0  0  0  0  0  0  0  0  0  0
    4.2118    5.6760    0.1599 O   0  0  0  0  0  0  0  0  0  0  0  0
    1.8304    5.6516   -0.2836 C   0  0  0  0  0  0  0  0  0  0  0  0
    0.7879    6.4686    0.1335 C   0  0  0  0  0  0  0  0  0  0  0  0
    1.3294    7.4938    1.0351 C   0  0  0  0  0  0  0  0  0  0  0  0
    0.6241    8.1868    2.0230 C   0  0  0  0  0  0  0  0  0  0  0  0
    1.3058    8.5653    3.1892 C   0  0  0  0  0  0  0  0  0  0  0  0
   -0.5352    6.0357    0.0460 C   0  0  0  0  0  0  0  0  0  0  0  0
   -0.7867    4.7296   -0.3931 C   0  0  0  0  0  0  0  0  0  0  0  0
    0.2789    3.8533   -0.7084 C   0  0  0  0  0  0  0  0  0  0  0  0
    1.6016    4.3379   -0.6911 C   0  0  0  0  0  0  0  0  0  0  0  0
    0.0162    2.4010   -0.7557 C   0  0  0  0  0  0  0  0  0  0  0  0
    0.5558    1.4452   -1.6383 C   0  0  0  0  0  0  0  0  0  0  0  0
    1.4065    1.7279   -2.7559 N   0  0  0  0  0  0  0  0  0  0  0  0
    2.8495    1.7050   -2.6222 C   0  0  0  0  0  0  0  0  0  0  0  0
    3.6707    2.1777   -3.6645 C   0  0  0  0  0  0  0  0  0  0  0  0
    5.0562    2.2538   -3.5025 C   0  0  0  0  0  0  0  0  0  0  0  0
    5.6406    1.8835   -2.2889 C   0  0  0  0  0  0  0  0  0  0  0  0
    7.4013    2.1094   -2.0421 S   0  0  0  0  0  0  0  0  0  0  0  0
    7.2244    3.8400   -1.5095 C   0  0  0  0  0  0  0  0  0  0  0  0
    4.8453    1.3891   -1.2543 C   0  0  0  0  0  0  0  0  0  0  0  0
    3.4630    1.2804   -1.4219 C   0  0  0  0  0  0  0  0  0  0  0  0
    0.7745    1.7411   -4.0437 C   0  0  0  0  0  0  0  0  0  0  0  0
   -0.1501    2.7468   -4.3656 C   0  0  0  0  0  0  0  0  0  0  0  0
   -0.8189    2.7212   -5.5918 C   0  0  0  0  0  0  0  0  0  0  0  0
   -0.5930    1.6703   -6.4937 C   0  0  0  0  0  0  0  0  0  0  0  0
   -1.4882    1.6047   -8.0464 S   0  0  0  0  0  0  0  0  0  0  0  0
   -2.8646    0.6472   -7.3444 C   0  0  0  0  0  0  0  0  0  0  0  0
    0.3401    0.6730   -6.1820 C   0  0  0  0  0  0  0  0  0  0  0  0
    1.0274    0.7120   -4.9645 C   0  0  0  0  0  0  0  0  0  0  0  0
    0.1041    0.1647   -1.3324 C   0  0  0  0  0  0  0  0  0  0  0  0
    0.3451   -1.3582   -1.9951 S   0  0  0  0  0  0  0  0  0  0  0  0
   -0.6168   -2.1504   -0.8344 C   0  0  0  0  0  0  0  0  0  0  0  0
   -1.1364   -1.2054    0.0653 C   0  0  0  0  0  0  0  0  0  0  0  0
   -1.8846   -1.5250    1.2453 N   0  0  0  0  0  0  0  0  0  0  0  0
   -1.2158   -1.7814    2.5055 C   0  0  0  0  0  0  0  0  0  0  0  0
    0.1950   -1.8262    2.5776 C   0  0  0  0  0  0  0  0  0  0  0  0
    0.8410   -2.1171    3.7813 C   0  0  0  0  0  0  0  0  0  0  0  0
    0.0949   -2.3301    4.9436 C   0  0  0  0  0  0  0  0  0  0  0  0
    0.9294   -2.6907    6.4934 S   0  0  0  0  0  0  0  0  0  0  0  0
    1.2887   -0.9356    6.8561 C   0  0  0  0  0  0  0  0  0  0  0  0
   -1.2989   -2.2759    4.8926 C   0  0  0  0  0  0  0  0  0  0  0  0
   -1.9523   -2.0097    3.6875 C   0  0  0  0  0  0  0  0  0  0  0  0
   -3.3124   -1.4690    1.1339 C   0  0  0  0  0  0  0  0  0  0  0  0
   -3.9893   -0.2545    1.3135 C   0  0  0  0  0  0  0  0  0  0  0  0
   -5.3632   -0.1738    1.0677 C   0  0  0  0  0  0  0  0  0  0  0  0
   -6.0664   -1.3113    0.6543 C   0  0  0  0  0  0  0  0  0  0  0  0
   -7.8070   -1.1967    0.2425 S   0  0  0  0  0  0  0  0  0  0  0  0
   -7.4901   -0.7370   -1.4891 C   0  0  0  0  0  0  0  0  0  0  0  0
   -5.4007   -2.5363    0.5205 C   0  0  0  0  0  0  0  0  0  0  0  0
   -4.0280   -2.6149    0.7621 C   0  0  0  0  0  0  0  0  0  0  0  0
   -0.7058    0.0752   -0.2509 C   0  0  0  0  0  0  0  0  0  0  0  0
   -0.9592    1.6001    0.4012 S   0  0  0  0  0  0  0  0  0  0  0  0
   -0.9195   -3.5883   -0.8720 C   0  0  0  0  0  0  0  0  0  0  0  0
   -0.0988   -4.5155   -0.2181 C   0  0  0  0  0  0  0  0  0  0  0  0
   -0.2272   -5.9098   -0.4516 C   0  0  0  0  0  0  0  0  0  0  0  0
    0.7535   -6.7207    0.2056 N   0  0  0  0  0  0  0  0  0  0  0  0
    1.6025   -5.5957    0.9565 S   0  0  0  0  0  4  0  0  0  0  0  0
    0.9960   -4.1530    0.6283 N   0  0  0  0  0  0  0  0  0  0  0  0
   -1.1889   -6.4174   -1.3386 C   0  0  0  0  0  0  0  0  0  0  0  0
   -2.0437   -5.4920   -1.9773 C   0  0  0  0  0  0  0  0  0  0  0  0
   -2.9700   -5.8569   -2.9027 N   0  0  0  0  0  0  0  0  0  0  0  0
   -3.5710   -4.3819   -3.3325 S   0  0  0  0  0  0  0  0  0  0  0  0
   -2.7367   -3.2676   -2.4467 N   0  0  0  0  0  0  0  0  0  0  0  0
   -1.9137   -4.0829   -1.7372 C   0  0  0  0  0  0  0  0  0  0  0  0
   -1.0882   -7.8211   -1.7951 C   0  0  0  0  0  0  0  0  0  0  0  0
   -2.1107   -8.6998   -1.8216 C   0  0  0  0  0  0  0  0  0  0  0  0
   -3.4675   -8.4418   -1.3353 C   0  0  0  0  0  0  0  0  0  0  0  0
   -3.8143   -7.5455   -0.5170 O   0  0  0  0  0  0  0  0  0  0  0  0
   -4.3512   -9.4173   -1.9307 C   0  0  0  0  0  0  0  0  0  0  0  0
   -5.7422   -9.4705   -1.8594 C   0  0  0  0  0  0  0  0  0  0  0  0
   -6.4161  -10.4500   -2.6035 C   0  0  0  0  0  0  0  0  0  0  0  0
   -8.1707  -10.5307   -2.5536 Cl  0  0  0  0  0  0  0  0  0  0  0  0
   -5.6882  -11.3492   -3.4077 C   0  0  0  0  0  0  0  0  0  0  0  0
   -6.3357  -12.2933   -4.1329 F   0  0  0  0  0  0  0  0  0  0  0  0
   -4.2877  -11.2798   -3.4617 C   0  0  0  0  0  0  0  0  0  0  0  0
   -3.6189  -10.3070   -2.7007 C   0  0  0  0  0  0  0  0  0  0  0  0
   -2.1682   -9.9906   -2.5783 C   0  0  0  0  0  0  0  0  0  0  0  0
   -1.1205  -10.7752   -2.9596 C   0  0  0  0  0  0  0  0  0  0  0  0
    0.2453  -10.4897   -2.5944 C   0  0  0  0  0  0  0  0  0  0  0  0
    1.3474  -10.2742   -2.3037 N   0  0  0  0  0  0  0  0  0  0  0  0
   -1.2927  -12.0045   -3.6848 C   0  0  0  0  0  0  0  0  0  0  0  0
   -1.4232  -12.9908   -4.2799 N   0  0  0  0  0  0  0  0  0  0  0  0
    3.4356    9.0686    5.2266 H   0  0  0  0  0  0  0  0  0  0  0  0
    3.8098    2.8836    4.2748 H   0  0  0  0  0  0  0  0  0  0  0  0
    4.6216   -1.5018    5.1046 H   0  0  0  0  0  0  0  0  0  0  0  0
    4.4247   -1.0721    3.3574 H   0  0  0  0  0  0  0  0  0  0  0  0
    6.0603   -0.9839    4.1310 H   0  0  0  0  0  0  0  0  0  0  0  0
    6.1341    2.6196    7.9233 H   0  0  0  0  0  0  0  0  0  0  0  0
    5.7071    4.9899    8.3772 H   0  0  0  0  0  0  0  0  0  0  0  0
    4.4134    7.3536    2.4379 H   0  0  0  0  0  0  0  0  0  0  0  0
   -0.4522    8.2949    1.9676 H   0  0  0  0  0  0  0  0  0  0  0  0
    0.7410    8.9810    4.0122 H   0  0  0  0  0  0  0  0  0  0  0  0
   -1.3476    6.6508    0.4047 H   0  0  0  0  0  0  0  0  0  0  0  0
   -1.8057    4.3617   -0.3769 H   0  0  0  0  0  0  0  0  0  0  0  0
    2.4396    3.6754   -0.8106 H   0  0  0  0  0  0  0  0  0  0  0  0
    3.2458    2.5192   -4.5982 H   0  0  0  0  0  0  0  0  0  0  0  0
    5.6719    2.6340   -4.3095 H   0  0  0  0  0  0  0  0  0  0  0  0
    6.6962    4.4303   -2.2932 H   0  0  0  0  0  0  0  0  0  0  0  0
    6.6469    3.8847   -0.5601 H   0  0  0  0  0  0  0  0  0  0  0  0
    8.2295    4.2792   -1.3482 H   0  0  0  0  0  0  0  0  0  0  0  0
    5.2931    1.1017   -0.3134 H   0  0  0  0  0  0  0  0  0  0  0  0
    2.8724    0.9128   -0.5931 H   0  0  0  0  0  0  0  0  0  0  0  0
   -0.3549    3.5469   -3.6619 H   0  0  0  0  0  0  0  0  0  0  0  0
   -1.5386    3.4919   -5.8283 H   0  0  0  0  0  0  0  0  0  0  0  0
   -3.5779    0.3861   -8.1484 H   0  0  0  0  0  0  0  0  0  0  0  0
   -3.3954    1.2622   -6.5810 H   0  0  0  0  0  0  0  0  0  0  0  0
   -2.4966   -0.2904   -6.8699 H   0  0  0  0  0  0  0  0  0  0  0  0
    0.5346   -0.1315   -6.8821 H   0  0  0  0  0  0  0  0  0  0  0  0
    1.7342   -0.0709   -4.7273 H   0  0  0  0  0  0  0  0  0  0  0  0
    0.8071   -1.6362    1.7092 H   0  0  0  0  0  0  0  0  0  0  0  0
    1.9233   -2.1594    3.8082 H   0  0  0  0  0  0  0  0  0  0  0  0
    2.1475   -0.5969    6.2362 H   0  0  0  0  0  0  0  0  0  0  0  0
    1.5666   -0.8353    7.9240 H   0  0  0  0  0  0  0  0  0  0  0  0
    0.4064   -0.2988    6.6475 H   0  0  0  0  0  0  0  0  0  0  0  0
   -1.8810   -2.4399    5.7916 H   0  0  0  0  0  0  0  0  0  0  0  0
   -3.0358   -1.9720    3.6836 H   0  0  0  0  0  0  0  0  0  0  0  0
   -3.4495    0.6330    1.6193 H   0  0  0  0  0  0  0  0  0  0  0  0
   -5.8726    0.7751    1.1737 H   0  0  0  0  0  0  0  0  0  0  0  0
   -6.7637   -1.4445   -1.9492 H   0  0  0  0  0  0  0  0  0  0  0  0
   -7.0892    0.2954   -1.5408 H   0  0  0  0  0  0  0  0  0  0  0  0
   -8.4334   -0.7925   -2.0623 H   0  0  0  0  0  0  0  0  0  0  0  0
   -5.9448   -3.4201    0.2116 H   0  0  0  0  0  0  0  0  0  0  0  0
   -3.5178   -3.5589    0.6479 H   0  0  0  0  0  0  0  0  0  0  0  0
   -0.1381   -8.0747   -2.2293 H   0  0  0  0  0  0  0  0  0  0  0  0
   -6.2939   -8.7539   -1.2668 H   0  0  0  0  0  0  0  0  0  0  0  0
   -3.7688  -11.9618   -4.1138 H   0  0  0  0  0  0  0  0  0  0  0  0
  1  2  2  3
  2  3  1  0
  3  4  2  0
  3  5  1  0
  5  6  2  0
  6  7  1  0
  7  8  1  0
  8  9  2  0
  8 10  1  0
 10 11  1  0
  7 12  2  0
 12 13  1  0
 13 14  2  0
 14 15  1  0
 15 16  2  3
 16 17  1  0
 17 18  3  0
 16 19  1  0
 19 20  3  0
  1 21  1  0
 21 22  2  0
 22 23  1  0
 23 24  1  0
 24 25  2  0
 24 26  1  0
 26 27  2  0
 27 28  1  0
 28 29  1  0
 29 30  2  0
 27 31  1  0
 31 32  2  0
 32 33  1  0
 33 34  2  0
 33 35  1  0
 35 36  2  0
 36 37  1  0
 37 38  1  0
 38 39  2  0
 39 40  1  0
 40 41  2  0
 41 42  1  0
 42 43  1  0
 41 44  1  0
 44 45  2  0
 37 46  1  0
 46 47  2  0
 47 48  1  0
 48 49  2  0
 49 50  1  0
 50 51  1  0
 49 52  1  0
 52 53  2  0
 36 54  1  0
 54 55  1  0
 55 56  1  0
 56 57  2  0
 57 58  1  0
 58 59  1  0
 59 60  2  0
 60 61  1  0
 61 62  2  0
 62 63  1  0
 63 64  1  0
 62 65  1  0
 65 66  2  0
 58 67  1  0
 67 68  2  0
 68 69  1  0
 69 70  2  0
 70 71  1  0
 71 72  1  0
 70 73  1  0
 73 74  2  0
 57 75  1  0
 75 76  1  0
 56 77  1  0
 77 78  2  0
 78 79  1  0
 79 80  1  0
 80 81  2  0
 81 82  2  0
 79 83  2  0
 83 84  1  0
 84 85  2  0
 85 86  1  0
 86 87  1  0
 87 88  2  0
 83 89  1  0
 89 90  2  3
 90 91  1  0
 91 92  2  0
 91 93  1  0
 93 94  2  0
 94 95  1  0
 95 96  1  0
 95 97  2  0
 97 98  1  0
 97 99  1  0
 99100  2  0
100101  1  0
101102  2  3
102103  1  0
103104  3  0
102105  1  0
105106  3  0
 15  2  1  0
 30 21  1  0
 76 35  1  0
 88 77  1  0
101 90  1  0
 14  5  1  0
 28 23  2  0
 45 38  1  0
 53 46  1  0
 75 54  2  0
 82 78  1  0
 88 84  1  0
100 93  1  0
 34 26  1  0
 66 59  1  0
 74 67  1  0
  1107  1  0
  6108  1  0
 11109  1  0
 11110  1  0
 11111  1  0
 12112  1  0
 13113  1  0
 22114  1  0
 29115  1  0
 30116  1  0
 31117  1  0
 32118  1  0
 34119  1  0
 39120  1  0
 40121  1  0
 43122  1  0
 43123  1  0
 43124  1  0
 44125  1  0
 45126  1  0
 47127  1  0
 48128  1  0
 51129  1  0
 51130  1  0
 51131  1  0
 52132  1  0
 53133  1  0
 60134  1  0
 61135  1  0
 64136  1  0
 64137  1  0
 64138  1  0
 65139  1  0
 66140  1  0
 68141  1  0
 69142  1  0
 72143  1  0
 72144  1  0
 72145  1  0
 73146  1  0
 74147  1  0
 89148  1  0
 94149  1  0
 99150  1  0
M  END

