
     RDKit          3D

176191  0  0  0  0  0  0  0  0999 V2000
   -7.5409   -2.6036   -4.1269 C   0  0  0  0  0  0  0  0  0  0  0  0
   -7.8313   -1.4092   -3.5732 C   0  0  0  0  0  0  0  0  0  0  0  0
   -6.8527   -0.3442   -3.3083 C   0  0  0  0  0  0  0  0  0  0  0  0
   -5.5982   -0.4300   -3.4213 O   0  0  0  0  0  0  0  0  0  0  0  0
   -7.5700    0.8753   -3.0207 C   0  0  0  0  0  0  0  0  0  0  0  0
   -7.0486    2.1544   -2.8326 C   0  0  0  0  0  0  0  0  0  0  0  0
   -7.9381    3.2320   -2.6624 C   0  0  0  0  0  0  0  0  0  0  0  0
   -7.4201    4.6077   -2.4853 C   0  0  0  0  0  0  0  0  0  0  0  0
   -6.1829    4.8431   -2.6027 O   0  0  0  0  0  0  0  0  0  0  0  0
   -8.3048    5.6537   -2.2066 O   0  0  0  0  0  0  0  0  0  0  0  0
   -7.8759    7.0066   -2.0844 C   0  0  0  0  0  0  0  0  0  0  0  0
   -9.3314    2.9907   -2.7029 C   0  0  0  0  0  0  0  0  0  0  0  0
   -9.8318    1.6939   -2.9143 C   0  0  0  0  0  0  0  0  0  0  0  0
   -8.9320    0.6264   -3.0513 C   0  0  0  0  0  0  0  0  0  0  0  0
   -9.1813   -0.8216   -3.3037 C   0  0  0  0  0  0  0  0  0  0  0  0
  -10.3299   -1.5036   -3.0539 C   0  0  0  0  0  0  0  0  0  0  0  0
  -10.3969   -2.9409   -3.0963 C   0  0  0  0  0  0  0  0  0  0  0  0
  -10.4604   -4.0986   -3.1228 N   0  0  0  0  0  0  0  0  0  0  0  0
  -11.5100   -0.8594   -2.5417 C   0  0  0  0  0  0  0  0  0  0  0  0
  -12.4574   -0.3486   -2.1094 N   0  0  0  0  0  0  0  0  0  0  0  0
   -6.1629   -3.1110   -4.2035 C   0  0  0  0  0  0  0  0  0  0  0  0
   -5.4978   -3.4660   -3.0131 C   0  0  0  0  0  0  0  0  0  0  0  0
   -4.1341   -3.7574   -3.0756 C   0  0  0  0  0  0  0  0  0  0  0  0
   -3.2856   -3.9535   -2.0379 N   0  0  0  0  0  0  0  0  0  0  0  0
   -3.6569   -4.1419   -0.6295 C   0  0  0  0  0  0  0  0  0  0  0  0
   -4.1881   -5.5567   -0.4145 C   0  0  0  0  0  0  0  0  0  0  0  0
   -2.0534   -4.0214   -2.5948 C   0  0  0  0  0  0  0  0  0  0  0  0
   -2.1224   -3.8963   -3.9695 C   0  0  0  0  0  0  0  0  0  0  0  0
   -3.4563   -3.7235   -4.2775 C   0  0  0  0  0  0  0  0  0  0  0  0
   -4.0979   -3.4190   -5.4799 C   0  0  0  0  0  0  0  0  0  0  0  0
   -5.4726   -3.1199   -5.4380 C   0  0  0  0  0  0  0  0  0  0  0  0
   -0.9802   -3.8184   -4.7617 C   0  0  0  0  0  0  0  0  0  0  0  0
    0.2706   -3.8215   -4.1151 C   0  0  0  0  0  0  0  0  0  0  0  0
    0.3539   -3.8980   -2.7025 C   0  0  0  0  0  0  0  0  0  0  0  0
   -0.8214   -4.0158   -1.9357 C   0  0  0  0  0  0  0  0  0  0  0  0
    1.5801   -3.4486   -2.0370 C   0  0  0  0  0  0  0  0  0  0  0  0
    2.4583   -4.1735   -1.1932 C   0  0  0  0  0  0  0  0  0  0  0  0
    2.4801   -5.6065   -1.0243 N   0  0  0  0  0  0  0  0  0  0  0  0
    1.2614   -6.3430   -0.8398 C   0  0  0  0  0  0  0  0  0  0  0  0
    0.9570   -7.4133   -1.6908 C   0  0  0  0  0  0  0  0  0  0  0  0
   -0.1701   -8.2067   -1.4530 C   0  0  0  0  0  0  0  0  0  0  0  0
   -0.9912   -7.9401   -0.3502 C   0  0  0  0  0  0  0  0  0  0  0  0
   -2.4052   -8.9898   -0.0093 S   0  0  0  0  0  0  0  0  0  0  0  0
   -1.4487  -10.1654    1.0000 C   0  0  0  0  0  0  0  0  0  0  0  0
   -0.6986   -6.8632    0.4932 C   0  0  0  0  0  0  0  0  0  0  0  0
    0.4294   -6.0717    0.2568 C   0  0  0  0  0  0  0  0  0  0  0  0
    3.7463   -6.2991   -0.8996 C   0  0  0  0  0  0  0  0  0  0  0  0
    4.8613   -5.8925   -1.6561 C   0  0  0  0  0  0  0  0  0  0  0  0
    6.1025   -6.5147   -1.4819 C   0  0  0  0  0  0  0  0  0  0  0  0
    6.2394   -7.5577   -0.5581 C   0  0  0  0  0  0  0  0  0  0  0  0
    7.8378   -8.3324   -0.3074 S   0  0  0  0  0  0  0  0  0  0  0  0
    8.2903   -7.2325    1.0717 C   0  0  0  0  0  0  0  0  0  0  0  0
    5.1294   -7.9892    0.1783 C   0  0  0  0  0  0  0  0  0  0  0  0
    3.8941   -7.3588    0.0159 C   0  0  0  0  0  0  0  0  0  0  0  0
    3.3414   -3.3008   -0.5356 C   0  0  0  0  0  0  0  0  0  0  0  0
    4.3695   -3.4503    0.7939 S   0  0  0  0  0  0  0  0  0  0  0  0
    4.6281   -1.7707    0.9470 C   0  0  0  0  0  0  0  0  0  0  0  0
    3.8548   -1.0969   -0.0128 C   0  0  0  0  0  0  0  0  0  0  0  0
    3.5020    0.2959    0.0897 N   0  0  0  0  0  0  0  0  0  0  0  0
    2.2206    0.6939    0.6651 C   0  0  0  0  0  0  0  0  0  0  0  0
    1.8078    2.0473    0.6739 C   0  0  0  0  0  0  0  0  0  0  0  0
    0.6004    2.4241    1.2696 C   0  0  0  0  0  0  0  0  0  0  0  0
   -0.2593    1.4614    1.7932 C   0  0  0  0  0  0  0  0  0  0  0  0
   -1.8434    1.9434    2.4808 S   0  0  0  0  0  0  0  0  0  0  0  0
   -2.6184    2.2059    0.8573 C   0  0  0  0  0  0  0  0  0  0  0  0
    0.1079    0.1138    1.7567 C   0  0  0  0  0  0  0  0  0  0  0  0
    1.3422   -0.2620    1.2243 C   0  0  0  0  0  0  0  0  0  0  0  0
    4.4880    1.2579   -0.3347 C   0  0  0  0  0  0  0  0  0  0  0  0
    5.0556    1.1708   -1.6186 C   0  0  0  0  0  0  0  0  0  0  0  0
    5.9881    2.1247   -2.0423 C   0  0  0  0  0  0  0  0  0  0  0  0
    6.3659    3.1648   -1.1905 C   0  0  0  0  0  0  0  0  0  0  0  0
    7.4841    4.4397   -1.7719 S   0  0  0  0  0  0  0  0  0  0  0  0
    6.1245    5.4993   -2.3569 C   0  0  0  0  0  0  0  0  0  0  0  0
    5.8451    3.2279    0.1077 C   0  0  0  0  0  0  0  0  0  0  0  0
    4.9062    2.2848    0.5278 C   0  0  0  0  0  0  0  0  0  0  0  0
    3.1779   -1.9868   -0.8321 C   0  0  0  0  0  0  0  0  0  0  0  0
    1.9218   -1.7877   -1.9145 S   0  0  0  0  0  0  0  0  0  0  0  0
    5.1541   -1.0946    2.1386 C   0  0  0  0  0  0  0  0  0  0  0  0
    4.2313   -0.7605    3.1505 C   0  0  0  0  0  0  0  0  0  0  0  0
    4.4547    0.4000    3.9032 C   0  0  0  0  0  0  0  0  0  0  0  0
    3.5088    1.1291    4.5522 N   0  0  0  0  0  0  0  0  0  0  0  0
    2.1318    0.7411    4.8815 C   0  0  0  0  0  0  0  0  0  0  0  0
    1.9610    0.6327    6.3949 C   0  0  0  0  0  0  0  0  0  0  0  0
    4.0490    2.3670    4.6876 C   0  0  0  0  0  0  0  0  0  0  0  0
    5.3450    2.4046    4.2050 C   0  0  0  0  0  0  0  0  0  0  0  0
    5.6108    1.1434    3.7124 C   0  0  0  0  0  0  0  0  0  0  0  0
    6.6197    0.7307    2.8394 C   0  0  0  0  0  0  0  0  0  0  0  0
    6.3774   -0.3975    2.0392 C   0  0  0  0  0  0  0  0  0  0  0  0
    6.0213    3.6074    3.9927 C   0  0  0  0  0  0  0  0  0  0  0  0
    5.3347    4.8045    4.2499 C   0  0  0  0  0  0  0  0  0  0  0  0
    3.9936    4.7782    4.6975 C   0  0  0  0  0  0  0  0  0  0  0  0
    3.3558    3.5504    4.9620 C   0  0  0  0  0  0  0  0  0  0  0  0
    3.1952    6.0131    4.7185 C   0  0  0  0  0  0  0  0  0  0  0  0
    2.5977    6.4994    3.6112 C   0  0  0  0  0  0  0  0  0  0  0  0
    2.5948    5.8513    2.2916 C   0  0  0  0  0  0  0  0  0  0  0  0
    3.3925    4.9614    1.8933 O   0  0  0  0  0  0  0  0  0  0  0  0
    1.4855    6.3697    1.5238 C   0  0  0  0  0  0  0  0  0  0  0  0
    0.9797    5.8884    0.3170 C   0  0  0  0  0  0  0  0  0  0  0  0
   -0.2588    6.3738   -0.1473 C   0  0  0  0  0  0  0  0  0  0  0  0
   -0.8900    5.7707   -1.3432 C   0  0  0  0  0  0  0  0  0  0  0  0
   -2.0075    6.1920   -1.7460 O   0  0  0  0  0  0  0  0  0  0  0  0
   -0.2746    4.6901   -1.9858 O   0  0  0  0  0  0  0  0  0  0  0  0
   -0.9110    3.9430   -3.0180 C   0  0  0  0  0  0  0  0  0  0  0  0
   -0.9296    7.3675    0.6012 C   0  0  0  0  0  0  0  0  0  0  0  0
   -0.3951    7.8514    1.8071 C   0  0  0  0  0  0  0  0  0  0  0  0
    0.8341    7.3419    2.2592 C   0  0  0  0  0  0  0  0  0  0  0  0
    1.5548    7.5674    3.5444 C   0  0  0  0  0  0  0  0  0  0  0  0
    1.4270    8.6371    4.3725 C   0  0  0  0  0  0  0  0  0  0  0  0
    2.3100    8.8554    5.4878 C   0  0  0  0  0  0  0  0  0  0  0  0
    3.0137    9.0416    6.3883 N   0  0  0  0  0  0  0  0  0  0  0  0
    0.4906    9.7038    4.1184 C   0  0  0  0  0  0  0  0  0  0  0  0
   -0.2430   10.5779    3.9188 N   0  0  0  0  0  0  0  0  0  0  0  0
   -8.3181   -3.2305   -4.5333 H   0  0  0  0  0  0  0  0  0  0  0  0
   -5.9771    2.3058   -2.8425 H   0  0  0  0  0  0  0  0  0  0  0  0
   -8.7398    7.6442   -1.8061 H   0  0  0  0  0  0  0  0  0  0  0  0
   -7.0970    7.0905   -1.2934 H   0  0  0  0  0  0  0  0  0  0  0  0
   -7.4596    7.3628   -3.0523 H   0  0  0  0  0  0  0  0  0  0  0  0
  -10.0353    3.8110   -2.6124 H   0  0  0  0  0  0  0  0  0  0  0  0
  -10.8964    1.5615   -3.0099 H   0  0  0  0  0  0  0  0  0  0  0  0
   -6.0204   -3.4564   -2.0647 H   0  0  0  0  0  0  0  0  0  0  0  0
   -2.7924   -3.9707    0.0406 H   0  0  0  0  0  0  0  0  0  0  0  0
   -4.4323   -3.4021   -0.3424 H   0  0  0  0  0  0  0  0  0  0  0  0
   -4.3295   -5.7392    0.6730 H   0  0  0  0  0  0  0  0  0  0  0  0
   -5.1613   -5.6866   -0.9291 H   0  0  0  0  0  0  0  0  0  0  0  0
   -3.4616   -6.2968   -0.8138 H   0  0  0  0  0  0  0  0  0  0  0  0
   -3.5492   -3.3768   -6.4121 H   0  0  0  0  0  0  0  0  0  0  0  0
   -5.9846   -2.8351   -6.3512 H   0  0  0  0  0  0  0  0  0  0  0  0
   -1.0463   -3.6849   -5.8328 H   0  0  0  0  0  0  0  0  0  0  0  0
    1.1678   -3.6681   -4.7019 H   0  0  0  0  0  0  0  0  0  0  0  0
   -0.7695   -3.9499   -0.8598 H   0  0  0  0  0  0  0  0  0  0  0  0
    1.6004   -7.6405   -2.5308 H   0  0  0  0  0  0  0  0  0  0  0  0
   -0.3900   -9.0382   -2.1096 H   0  0  0  0  0  0  0  0  0  0  0  0
   -2.1348  -10.9322    1.4166 H   0  0  0  0  0  0  0  0  0  0  0  0
   -0.6901  -10.6711    0.3676 H   0  0  0  0  0  0  0  0  0  0  0  0
   -0.9446   -9.6385    1.8378 H   0  0  0  0  0  0  0  0  0  0  0  0
   -1.3388   -6.6404    1.3386 H   0  0  0  0  0  0  0  0  0  0  0  0
    0.6638   -5.2570    0.9295 H   0  0  0  0  0  0  0  0  0  0  0  0
    4.7744   -5.0828   -2.3659 H   0  0  0  0  0  0  0  0  0  0  0  0
    6.9549   -6.1779   -2.0554 H   0  0  0  0  0  0  0  0  0  0  0  0
    7.5847   -7.3665    1.9204 H   0  0  0  0  0  0  0  0  0  0  0  0
    9.3159   -7.4773    1.4119 H   0  0  0  0  0  0  0  0  0  0  0  0
    8.2664   -6.1740    0.7326 H   0  0  0  0  0  0  0  0  0  0  0  0
    5.2326   -8.7968    0.8922 H   0  0  0  0  0  0  0  0  0  0  0  0
    3.0601   -7.6921    0.6210 H   0  0  0  0  0  0  0  0  0  0  0  0
    2.4041    2.8231    0.2190 H   0  0  0  0  0  0  0  0  0  0  0  0
    0.3165    3.4679    1.3052 H   0  0  0  0  0  0  0  0  0  0  0  0
   -2.4315    1.3373    0.1966 H   0  0  0  0  0  0  0  0  0  0  0  0
   -2.2085    3.1245    0.3917 H   0  0  0  0  0  0  0  0  0  0  0  0
   -3.7120    2.3318    0.9920 H   0  0  0  0  0  0  0  0  0  0  0  0
   -0.5578   -0.6410    2.1531 H   0  0  0  0  0  0  0  0  0  0  0  0
    1.5948   -1.3127    1.2491 H   0  0  0  0  0  0  0  0  0  0  0  0
    4.7565    0.3812   -2.2955 H   0  0  0  0  0  0  0  0  0  0  0  0
    6.3900    2.0695   -3.0470 H   0  0  0  0  0  0  0  0  0  0  0  0
    6.5444    6.4202   -2.8133 H   0  0  0  0  0  0  0  0  0  0  0  0
    5.5283    4.9612   -3.1256 H   0  0  0  0  0  0  0  0  0  0  0  0
    5.4664    5.7883   -1.5080 H   0  0  0  0  0  0  0  0  0  0  0  0
    6.1452    4.0211    0.7815 H   0  0  0  0  0  0  0  0  0  0  0  0
    4.4878    2.3623    1.5208 H   0  0  0  0  0  0  0  0  0  0  0  0
    3.2789   -1.2716    3.1794 H   0  0  0  0  0  0  0  0  0  0  0  0
    1.8637   -0.2370    4.4363 H   0  0  0  0  0  0  0  0  0  0  0  0
    1.4138    1.4845    4.4709 H   0  0  0  0  0  0  0  0  0  0  0  0
    0.9297    0.3004    6.6280 H   0  0  0  0  0  0  0  0  0  0  0  0
    2.6786   -0.1080    6.8108 H   0  0  0  0  0  0  0  0  0  0  0  0
    2.1331    1.6183    6.8724 H   0  0  0  0  0  0  0  0  0  0  0  0
    7.4876    1.3505    2.6557 H   0  0  0  0  0  0  0  0  0  0  0  0
    7.0690   -0.6261    1.2367 H   0  0  0  0  0  0  0  0  0  0  0  0
    7.0164    3.6239    3.5633 H   0  0  0  0  0  0  0  0  0  0  0  0
    5.8095    5.7494    4.0198 H   0  0  0  0  0  0  0  0  0  0  0  0
    2.3126    3.5328    5.2460 H   0  0  0  0  0  0  0  0  0  0  0  0
    2.9390    6.4055    5.6928 H   0  0  0  0  0  0  0  0  0  0  0  0
    1.5062    5.1074   -0.2108 H   0  0  0  0  0  0  0  0  0  0  0  0
   -1.1175    4.6008   -3.8860 H   0  0  0  0  0  0  0  0  0  0  0  0
   -0.2439    3.1157   -3.3324 H   0  0  0  0  0  0  0  0  0  0  0  0
   -1.8563    3.5109   -2.6348 H   0  0  0  0  0  0  0  0  0  0  0  0
   -1.8900    7.7457    0.2760 H   0  0  0  0  0  0  0  0  0  0  0  0
   -0.9808    8.5482    2.3872 H   0  0  0  0  0  0  0  0  0  0  0  0
  1  2  2  3
  2  3  1  0
  3  4  2  0
  3  5  1  0
  5  6  2  0
  6  7  1  0
  7  8  1  0
  8  9  2  0
  8 10  1  0
 10 11  1  0
  7 12  2  0
 12 13  1  0
 13 14  2  0
 14 15  1  0
 15 16  2  3
 16 17  1  0
 17 18  3  0
 16 19  1  0
 19 20  3  0
  1 21  1  0
 21 22  2  0
 22 23  1  0
 23 24  1  0
 24 25  1  0
 25 26  1  0
 24 27  1  0
 27 28  2  0
 28 29  1  0
 29 30  1  0
 30 31  2  0
 28 32  1  0
 32 33  2  0
 33 34  1  0
 34 35  2  0
 34 36  1  0
 36 37  2  0
 37 38  1  0
 38 39  1  0
 39 40  2  0
 40 41  1  0
 41 42  2  0
 42 43  1  0
 43 44  1  0
 42 45  1  0
 45 46  2  0
 38 47  1  0
 47 48  2  0
 48 49  1  0
 49 50  2  0
 50 51  1  0
 51 52  1  0
 50 53  1  0
 53 54  2  0
 37 55  1  0
 55 56  1  0
 56 57  1  0
 57 58  2  0
 58 59  1  0
 59 60  1  0
 60 61  2  0
 61 62  1  0
 62 63  2  0
 63 64  1  0
 64 65  1  0
 63 66  1  0
 66 67  2  0
 59 68  1  0
 68 69  2  0
 69 70  1  0
 70 71  2  0
 71 72  1  0
 72 73  1  0
 71 74  1  0
 74 75  2  0
 58 76  1  0
 76 77  1  0
 57 78  1  0
 78 79  2  0
 79 80  1  0
 80 81  1  0
 81 82  1  0
 82 83  1  0
 81 84  1  0
 84 85  2  0
 85 86  1  0
 86 87  1  0
 87 88  2  0
 85 89  1  0
 89 90  2  0
 90 91  1  0
 91 92  2  0
 91 93  1  0
 93 94  2  3
 94 95  1  0
 95 96  2  0
 95 97  1  0
 97 98  2  0
 98 99  1  0
 99100  1  0
100101  2  0
100102  1  0
102103  1  0
 99104  2  0
104105  1  0
105106  2  0
106107  1  0
107108  2  3
108109  1  0
109110  3  0
108111  1  0
111112  3  0
 15  2  1  0
 31 21  1  0
 77 36  1  0
 88 78  1  0
107 94  1  0
 14  5  1  0
 29 23  2  0
 46 39  1  0
 54 47  1  0
 76 55  2  0
 86 80  2  0
106 97  1  0
 35 27  1  0
 67 60  1  0
 75 68  1  0
 92 84  1  0
  1113  1  0
  6114  1  0
 11115  1  0
 11116  1  0
 11117  1  0
 12118  1  0
 13119  1  0
 22120  1  0
 25121  1  0
 25122  1  0
 26123  1  0
 26124  1  0
 26125  1  0
 30126  1  0
 31127  1  0
 32128  1  0
 33129  1  0
 35130  1  0
 40131  1  0
 41132  1  0
 44133  1  0
 44134  1  0
 44135  1  0
 45136  1  0
 46137  1  0
 48138  1  0
 49139  1  0
 52140  1  0
 52141  1  0
 52142  1  0
 53143  1  0
 54144  1  0
 61145  1  0
 62146  1  0
 65147  1  0
 65148  1  0
 65149  1  0
 66150  1  0
 67151  1  0
 69152  1  0
 70153  1  0
 73154  1  0
 73155  1  0
 73156  1  0
 74157  1  0
 75158  1  0
 79159  1  0
 82160  1  0
 82161  1  0
 83162  1  0
 83163  1  0
 83164  1  0
 87165  1  0
 88166  1  0
 89167  1  0
 90168  1  0
 92169  1  0
 93170  1  0
 98171  1  0
103172  1  0
103173  1  0
103174  1  0
104175  1  0
105176  1  0
M  END

