
     RDKit          3D

184200  0  0  0  0  0  0  0  0999 V2000
   -0.4892    2.1973    7.3971 C   0  0  0  0  0  0  0  0  0  0  0  0
   -0.5754    3.3420    6.6770 C   0  0  0  0  0  0  0  0  0  0  0  0
   -0.2157    3.4752    5.2514 C   0  0  0  0  0  0  0  0  0  0  0  0
    0.3990    2.6333    4.5446 O   0  0  0  0  0  0  0  0  0  0  0  0
   -0.7857    4.7037    4.7481 C   0  0  0  0  0  0  0  0  0  0  0  0
   -0.7995    5.1491    3.4269 C   0  0  0  0  0  0  0  0  0  0  0  0
   -1.5262    6.3131    3.1116 C   0  0  0  0  0  0  0  0  0  0  0  0
   -1.5772    6.8019    1.7119 C   0  0  0  0  0  0  0  0  0  0  0  0
   -0.8819    6.2451    0.8207 O   0  0  0  0  0  0  0  0  0  0  0  0
   -2.3733    7.9075    1.3855 O   0  0  0  0  0  0  0  0  0  0  0  0
   -2.5506    8.3528    0.0473 C   0  0  0  0  0  0  0  0  0  0  0  0
   -2.2338    6.9762    4.1371 C   0  0  0  0  0  0  0  0  0  0  0  0
   -2.1947    6.5144    5.4628 C   0  0  0  0  0  0  0  0  0  0  0  0
   -1.4424    5.3674    5.7656 C   0  0  0  0  0  0  0  0  0  0  0  0
   -1.2752    4.6167    7.0495 C   0  0  0  0  0  0  0  0  0  0  0  0
   -1.5767    5.0576    8.2981 C   0  0  0  0  0  0  0  0  0  0  0  0
   -2.1356    6.3586    8.5501 C   0  0  0  0  0  0  0  0  0  0  0  0
   -2.5871    7.3986    8.7769 N   0  0  0  0  0  0  0  0  0  0  0  0
   -1.2928    4.2946    9.4843 C   0  0  0  0  0  0  0  0  0  0  0  0
   -1.0929    3.6797   10.4412 N   0  0  0  0  0  0  0  0  0  0  0  0
    0.0939    0.9602    6.8395 C   0  0  0  0  0  0  0  0  0  0  0  0
    1.4585    0.8915    6.5487 C   0  0  0  0  0  0  0  0  0  0  0  0
    2.3036    1.8559    6.9919 F   0  0  0  0  0  0  0  0  0  0  0  0
    1.9418   -0.1147    5.7098 C   0  0  0  0  0  0  0  0  0  0  0  0
    3.2668   -0.1174    5.4113 F   0  0  0  0  0  0  0  0  0  0  0  0
    1.0523   -1.0376    5.1045 C   0  0  0  0  0  0  0  0  0  0  0  0
   -0.2598   -1.1306    5.6354 C   0  0  0  0  0  0  0  0  0  0  0  0
   -1.1034   -2.1518    5.3172 N   0  0  0  0  0  0  0  0  0  0  0  0
   -2.3570   -2.2571    5.8334 C   0  0  0  0  0  0  0  0  0  0  0  0
   -3.1819   -3.4165    5.4352 C   0  0  0  0  0  0  0  0  0  0  0  0
   -4.1567   -4.3524    6.4457 S   0  0  0  0  0  0  0  0  0  0  0  0
   -4.6376   -5.4550    5.2700 C   0  0  0  0  0  0  0  0  0  0  0  0
   -5.6255   -6.5664    5.4655 C   0  0  0  0  0  0  0  0  0  0  0  0
   -7.0546   -6.0554    5.3134 C   0  0  0  0  0  0  0  0  0  0  0  0
   -4.0462   -5.0951    4.0670 C   0  0  0  0  0  0  0  0  0  0  0  0
   -3.2112   -3.9768    4.1561 C   0  0  0  0  0  0  0  0  0  0  0  0
   -4.2751   -5.7560    2.9101 F   0  0  0  0  0  0  0  0  0  0  0  0
   -2.8186   -1.2376    6.6954 C   0  0  0  0  0  0  0  0  0  0  0  0
   -1.9971   -0.1952    6.9841 N   0  0  0  0  0  0  0  0  0  0  0  0
   -0.7289   -0.1226    6.5052 C   0  0  0  0  0  0  0  0  0  0  0  0
   -4.1562   -1.2289    7.2963 C   0  0  0  0  0  0  0  0  0  0  0  0
   -4.5164   -1.8901    8.4641 C   0  0  0  0  0  0  0  0  0  0  0  0
   -5.7895   -1.5345    8.9185 C   0  0  0  0  0  0  0  0  0  0  0  0
   -6.3380   -2.0543   10.0426 F   0  0  0  0  0  0  0  0  0  0  0  0
   -6.4178   -0.5787    8.1265 C   0  0  0  0  0  0  0  0  0  0  0  0
   -7.7220    0.0910    8.4396 C   0  0  0  0  0  0  0  0  0  0  0  0
   -7.5151    1.2868    9.3695 C   0  0  0  0  0  0  0  0  0  0  0  0
   -5.3828   -0.1469    6.8749 S   0  0  0  0  0  0  0  0  0  0  0  0
    1.4338   -1.6347    3.7844 C   0  0  0  0  0  0  0  0  0  0  0  0
    0.6944   -2.5320    2.9916 C   0  0  0  0  0  0  0  0  0  0  0  0
    1.0813   -2.5348    1.6346 C   0  0  0  0  0  0  0  0  0  0  0  0
    0.4528   -3.2385    0.5789 C   0  0  0  0  0  0  0  0  0  0  0  0
   -0.5442   -4.3046    0.8179 C   0  0  0  0  0  0  0  0  0  0  0  0
   -0.2022   -5.4069    1.6097 C   0  0  0  0  0  0  0  0  0  0  0  0
   -1.0523   -6.5085    1.6958 C   0  0  0  0  0  0  0  0  0  0  0  0
   -2.2566   -6.5346    0.9703 C   0  0  0  0  0  0  0  0  0  0  0  0
   -3.0866   -7.6672    0.9527 O   0  0  0  0  0  0  0  0  0  0  0  0
   -2.7421   -8.9686    1.4463 C   0  0  0  0  0  0  0  0  0  0  0  0
   -1.6404   -9.6087    0.6041 C   0  0  0  0  0  0  0  0  0  0  0  0
   -2.6586   -5.3878    0.2471 C   0  0  0  0  0  0  0  0  0  0  0  0
   -3.9494   -5.3943   -0.5409 C   0  0  0  0  0  0  0  0  0  0  0  0
   -4.3380   -4.1112   -0.8883 F   0  0  0  0  0  0  0  0  0  0  0  0
   -3.7760   -6.1351   -1.6970 F   0  0  0  0  0  0  0  0  0  0  0  0
   -4.9709   -5.9589    0.2039 F   0  0  0  0  0  0  0  0  0  0  0  0
   -1.7898   -4.2845    0.1720 C   0  0  0  0  0  0  0  0  0  0  0  0
    0.8823   -2.9281   -0.7285 C   0  0  0  0  0  0  0  0  0  0  0  0
    1.9240   -2.0288   -0.9834 C   0  0  0  0  0  0  0  0  0  0  0  0
    2.6031   -1.3935    0.0676 C   0  0  0  0  0  0  0  0  0  0  0  0
    3.7522   -0.4960   -0.1807 C   0  0  0  0  0  0  0  0  0  0  0  0
    3.6916    0.8572    0.1706 C   0  0  0  0  0  0  0  0  0  0  0  0
    4.7807    1.6974   -0.0790 C   0  0  0  0  0  0  0  0  0  0  0  0
    5.9466    1.2007   -0.6948 C   0  0  0  0  0  0  0  0  0  0  0  0
    7.0605    2.0170   -0.9527 O   0  0  0  0  0  0  0  0  0  0  0  0
    7.2135    3.3791   -0.5566 C   0  0  0  0  0  0  0  0  0  0  0  0
    7.5048    3.4787    0.9386 C   0  0  0  0  0  0  0  0  0  0  0  0
    6.0004   -0.1539   -1.0812 C   0  0  0  0  0  0  0  0  0  0  0  0
    4.9050   -0.9966   -0.8088 C   0  0  0  0  0  0  0  0  0  0  0  0
    7.2335   -0.6944   -1.7739 C   0  0  0  0  0  0  0  0  0  0  0  0
    7.0850   -2.0235   -2.1358 F   0  0  0  0  0  0  0  0  0  0  0  0
    7.4863    0.0402   -2.9231 F   0  0  0  0  0  0  0  0  0  0  0  0
    8.3212   -0.5859   -0.9277 F   0  0  0  0  0  0  0  0  0  0  0  0
    2.1259   -1.6485    1.3627 C   0  0  0  0  0  0  0  0  0  0  0  0
    2.5794   -0.8967    2.7781 S   0  0  0  0  0  0  0  0  0  0  0  0
    2.1717   -1.8324   -2.3454 C   0  0  0  0  0  0  0  0  0  0  0  0
    1.3189   -2.5649   -3.1754 C   0  0  0  0  0  0  0  0  0  0  0  0
    0.2821   -3.4921   -2.2080 S   0  0  0  0  0  0  0  0  0  0  0  0
    1.3437   -2.5136   -4.6581 C   0  0  0  0  0  0  0  0  0  0  0  0
    1.1953   -3.6865   -5.4194 C   0  0  0  0  0  0  0  0  0  0  0  0
    0.8994   -4.8657   -4.8172 F   0  0  0  0  0  0  0  0  0  0  0  0
    1.4007   -3.6632   -6.8030 C   0  0  0  0  0  0  0  0  0  0  0  0
    1.2435   -4.8091   -7.5158 F   0  0  0  0  0  0  0  0  0  0  0  0
    1.7844   -2.4783   -7.4542 C   0  0  0  0  0  0  0  0  0  0  0  0
    1.9776   -1.3129   -6.6889 C   0  0  0  0  0  0  0  0  0  0  0  0
    2.4687   -0.1762   -7.2556 N   0  0  0  0  0  0  0  0  0  0  0  0
    2.5614    0.9916   -6.5716 C   0  0  0  0  0  0  0  0  0  0  0  0
    3.1524    2.1429   -7.2547 C   0  0  0  0  0  0  0  0  0  0  0  0
    4.7963    2.3043   -7.5861 S   0  0  0  0  0  0  0  0  0  0  0  0
    4.6648    3.7870   -8.3797 C   0  0  0  0  0  0  0  0  0  0  0  0
    5.8139    4.6211   -8.8832 C   0  0  0  0  0  0  0  0  0  0  0  0
    6.8807    3.7715   -9.5617 C   0  0  0  0  0  0  0  0  0  0  0  0
    3.3235    4.1728   -8.3689 C   0  0  0  0  0  0  0  0  0  0  0  0
    2.4719    3.2511   -7.7457 C   0  0  0  0  0  0  0  0  0  0  0  0
    2.8833    5.3447   -8.8944 F   0  0  0  0  0  0  0  0  0  0  0  0
    2.0993    1.0365   -5.2410 C   0  0  0  0  0  0  0  0  0  0  0  0
    1.6860   -0.1201   -4.6536 N   0  0  0  0  0  0  0  0  0  0  0  0
    1.6645   -1.3072   -5.3202 C   0  0  0  0  0  0  0  0  0  0  0  0
    1.9961    2.2860   -4.4679 C   0  0  0  0  0  0  0  0  0  0  0  0
    2.9458    3.3021   -4.3666 C   0  0  0  0  0  0  0  0  0  0  0  0
    2.5087    4.3837   -3.5905 C   0  0  0  0  0  0  0  0  0  0  0  0
    3.2662    5.4879   -3.3840 F   0  0  0  0  0  0  0  0  0  0  0  0
    1.2371    4.2149   -3.0559 C   0  0  0  0  0  0  0  0  0  0  0  0
    0.4566    5.2314   -2.2827 C   0  0  0  0  0  0  0  0  0  0  0  0
   -0.3359    6.1261   -3.2313 C   0  0  0  0  0  0  0  0  0  0  0  0
    0.6379    2.7276   -3.5690 S   0  0  0  0  0  0  0  0  0  0  0  0
    2.0260   -2.4854   -8.9144 C   0  0  0  0  0  0  0  0  0  0  0  0
    1.4572   -1.6071   -9.7673 C   0  0  0  0  0  0  0  0  0  0  0  0
    0.4710   -0.5777   -9.4118 C   0  0  0  0  0  0  0  0  0  0  0  0
   -0.2883   -0.5928   -8.4051 O   0  0  0  0  0  0  0  0  0  0  0  0
    0.4727    0.4375  -10.4483 C   0  0  0  0  0  0  0  0  0  0  0  0
   -0.1308    1.7047  -10.4479 C   0  0  0  0  0  0  0  0  0  0  0  0
   -1.1824    2.2390   -9.1436 Cl  0  0  0  0  0  0  0  0  0  0  0  0
    0.1703    2.5816  -11.5016 C   0  0  0  0  0  0  0  0  0  0  0  0
    1.0680    2.2008  -12.5126 C   0  0  0  0  0  0  0  0  0  0  0  0
    1.6572    0.9260  -12.4973 C   0  0  0  0  0  0  0  0  0  0  0  0
    1.3150    0.0335  -11.4711 C   0  0  0  0  0  0  0  0  0  0  0  0
    1.8530   -1.3190  -11.1783 C   0  0  0  0  0  0  0  0  0  0  0  0
    2.3299   -2.1981  -12.0921 C   0  0  0  0  0  0  0  0  0  0  0  0
    2.2671   -1.9099  -13.5019 C   0  0  0  0  0  0  0  0  0  0  0  0
    2.1858   -1.6881  -14.6338 N   0  0  0  0  0  0  0  0  0  0  0  0
    2.7568   -3.5295  -11.7489 C   0  0  0  0  0  0  0  0  0  0  0  0
    3.1128   -4.5929  -11.4748 N   0  0  0  0  0  0  0  0  0  0  0  0
   -1.0021    2.0978    8.3397 H   0  0  0  0  0  0  0  0  0  0  0  0
   -0.2859    4.5897    2.6546 H   0  0  0  0  0  0  0  0  0  0  0  0
   -3.0682    7.5685   -0.5461 H   0  0  0  0  0  0  0  0  0  0  0  0
   -1.5682    8.5802   -0.4123 H   0  0  0  0  0  0  0  0  0  0  0  0
   -3.1663    9.2807    0.0445 H   0  0  0  0  0  0  0  0  0  0  0  0
   -2.8231    7.8617    3.9109 H   0  0  0  0  0  0  0  0  0  0  0  0
   -2.7796    7.0306    6.2017 H   0  0  0  0  0  0  0  0  0  0  0  0
   -5.4355   -7.3708    4.7160 H   0  0  0  0  0  0  0  0  0  0  0  0
   -5.4919   -7.0084    6.4747 H   0  0  0  0  0  0  0  0  0  0  0  0
   -7.3060   -5.3787    6.1568 H   0  0  0  0  0  0  0  0  0  0  0  0
   -7.1617   -5.5000    4.3549 H   0  0  0  0  0  0  0  0  0  0  0  0
   -7.7572   -6.9095    5.3083 H   0  0  0  0  0  0  0  0  0  0  0  0
   -2.6551   -3.5855    3.3183 H   0  0  0  0  0  0  0  0  0  0  0  0
   -3.8715   -2.5856    8.9810 H   0  0  0  0  0  0  0  0  0  0  0  0
   -8.2094    0.4360    7.4989 H   0  0  0  0  0  0  0  0  0  0  0  0
   -8.4037   -0.6430    8.9256 H   0  0  0  0  0  0  0  0  0  0  0  0
   -8.4987    1.6499    9.7204 H   0  0  0  0  0  0  0  0  0  0  0  0
   -7.0091    2.1015    8.8162 H   0  0  0  0  0  0  0  0  0  0  0  0
   -6.8988    0.9970   10.2464 H   0  0  0  0  0  0  0  0  0  0  0  0
   -0.1360   -3.1177    3.3461 H   0  0  0  0  0  0  0  0  0  0  0  0
    0.7613   -5.4421    2.1111 H   0  0  0  0  0  0  0  0  0  0  0  0
   -0.7510   -7.3446    2.3126 H   0  0  0  0  0  0  0  0  0  0  0  0
   -2.4517   -8.9154    2.5170 H   0  0  0  0  0  0  0  0  0  0  0  0
   -3.6480   -9.6034    1.3775 H   0  0  0  0  0  0  0  0  0  0  0  0
   -0.6519   -9.1893    0.8744 H   0  0  0  0  0  0  0  0  0  0  0  0
   -1.8266   -9.4347   -0.4735 H   0  0  0  0  0  0  0  0  0  0  0  0
   -1.6085  -10.7026    0.7994 H   0  0  0  0  0  0  0  0  0  0  0  0
   -2.0541   -3.4206   -0.4244 H   0  0  0  0  0  0  0  0  0  0  0  0
    2.8032    1.2636    0.6383 H   0  0  0  0  0  0  0  0  0  0  0  0
    4.6988    2.7348    0.2139 H   0  0  0  0  0  0  0  0  0  0  0  0
    8.0798    3.8014   -1.1007 H   0  0  0  0  0  0  0  0  0  0  0  0
    6.3193    3.9777   -0.8294 H   0  0  0  0  0  0  0  0  0  0  0  0
    7.7739    4.5246    1.2067 H   0  0  0  0  0  0  0  0  0  0  0  0
    8.3515    2.8075    1.2041 H   0  0  0  0  0  0  0  0  0  0  0  0
    6.6151    3.1862    1.5334 H   0  0  0  0  0  0  0  0  0  0  0  0
    4.9387   -2.0445   -1.0832 H   0  0  0  0  0  0  0  0  0  0  0  0
    2.9432   -1.1748   -2.7183 H   0  0  0  0  0  0  0  0  0  0  0  0
    5.4377    5.3620   -9.6133 H   0  0  0  0  0  0  0  0  0  0  0  0
    6.2598    5.1655   -8.0257 H   0  0  0  0  0  0  0  0  0  0  0  0
    7.2950    3.0139   -8.8575 H   0  0  0  0  0  0  0  0  0  0  0  0
    6.4579    3.2530  -10.4494 H   0  0  0  0  0  0  0  0  0  0  0  0
    7.7129    4.4234   -9.9019 H   0  0  0  0  0  0  0  0  0  0  0  0
    1.4022    3.3905   -7.6617 H   0  0  0  0  0  0  0  0  0  0  0  0
    3.9250    3.2669   -4.8317 H   0  0  0  0  0  0  0  0  0  0  0  0
   -0.2450    4.7103   -1.5954 H   0  0  0  0  0  0  0  0  0  0  0  0
    1.1454    5.8511   -1.6721 H   0  0  0  0  0  0  0  0  0  0  0  0
   -0.9187    6.8752   -2.6495 H   0  0  0  0  0  0  0  0  0  0  0  0
   -1.0468    5.5150   -3.8257 H   0  0  0  0  0  0  0  0  0  0  0  0
    0.3506    6.6640   -3.9150 H   0  0  0  0  0  0  0  0  0  0  0  0
    2.7697   -3.1847   -9.2519 H   0  0  0  0  0  0  0  0  0  0  0  0
   -0.2675    3.5761  -11.5173 H   0  0  0  0  0  0  0  0  0  0  0  0
    1.3184    2.9071  -13.2937 H   0  0  0  0  0  0  0  0  0  0  0  0
    2.3861    0.6799  -13.2517 H   0  0  0  0  0  0  0  0  0  0  0  0
  1  2  2  3
  2  3  1  0
  3  4  2  0
  3  5  1  0
  5  6  2  0
  6  7  1  0
  7  8  1  0
  8  9  2  0
  8 10  1  0
 10 11  1  0
  7 12  2  0
 12 13  1  0
 13 14  2  0
 14 15  1  0
 15 16  2  3
 16 17  1  0
 17 18  3  0
 16 19  1  0
 19 20  3  0
  1 21  1  0
 21 22  2  0
 22 23  1  0
 22 24  1  0
 24 25  1  0
 24 26  2  0
 26 27  1  0
 27 28  2  0
 28 29  1  0
 29 30  1  0
 30 31  1  0
 31 32  1  0
 32 33  1  0
 33 34  1  0
 32 35  2  0
 35 36  1  0
 35 37  1  0
 29 38  2  0
 38 39  1  0
 39 40  2  0
 38 41  1  0
 41 42  2  0
 42 43  1  0
 43 44  1  0
 43 45  2  0
 45 46  1  0
 46 47  1  0
 45 48  1  0
 26 49  1  0
 49 50  2  0
 50 51  1  0
 51 52  2  0
 52 53  1  0
 53 54  2  0
 54 55  1  0
 55 56  2  0
 56 57  1  0
 57 58  1  0
 58 59  1  0
 56 60  1  0
 60 61  1  0
 61 62  1  0
 61 63  1  0
 61 64  1  0
 60 65  2  0
 52 66  1  0
 66 67  2  0
 67 68  1  0
 68 69  1  0
 69 70  2  0
 70 71  1  0
 71 72  2  0
 72 73  1  0
 73 74  1  0
 74 75  1  0
 72 76  1  0
 76 77  2  0
 76 78  1  0
 78 79  1  0
 78 80  1  0
 78 81  1  0
 68 82  2  0
 82 83  1  0
 67 84  1  0
 84 85  2  0
 85 86  1  0
 85 87  1  0
 87 88  2  0
 88 89  1  0
 88 90  1  0
 90 91  1  0
 90 92  2  0
 92 93  1  0
 93 94  2  0
 94 95  1  0
 95 96  1  0
 96 97  1  0
 97 98  1  0
 98 99  1  0
 99100  1  0
 98101  2  0
101102  1  0
101103  1  0
 95104  2  0
104105  1  0
105106  2  0
104107  1  0
107108  2  0
108109  1  0
109110  1  0
109111  2  0
111112  1  0
112113  1  0
111114  1  0
 92115  1  0
115116  2  3
116117  1  0
117118  2  0
117119  1  0
119120  2  0
120121  1  0
120122  1  0
122123  2  0
123124  1  0
124125  2  0
125126  1  0
126127  2  3
127128  1  0
128129  3  0
127130  1  0
130131  3  0
 15  2  1  0
 40 21  1  0
 48 41  1  0
 83 49  1  0
106 87  1  0
114107  1  0
126116  1  0
 14  5  1  0
 40 27  1  0
 82 51  1  0
106 93  1  0
125119  1  0
 36 30  2  0
 65 53  1  0
 86 66  1  0
102 96  2  0
 77 69  1  0
  1132  1  0
  6133  1  0
 11134  1  0
 11135  1  0
 11136  1  0
 12137  1  0
 13138  1  0
 33139  1  0
 33140  1  0
 34141  1  0
 34142  1  0
 34143  1  0
 36144  1  0
 42145  1  0
 46146  1  0
 46147  1  0
 47148  1  0
 47149  1  0
 47150  1  0
 50151  1  0
 54152  1  0
 55153  1  0
 58154  1  0
 58155  1  0
 59156  1  0
 59157  1  0
 59158  1  0
 65159  1  0
 70160  1  0
 71161  1  0
 74162  1  0
 74163  1  0
 75164  1  0
 75165  1  0
 75166  1  0
 77167  1  0
 84168  1  0
 99169  1  0
 99170  1  0
100171  1  0
100172  1  0
100173  1  0
102174  1  0
108175  1  0
112176  1  0
112177  1  0
113178  1  0
113179  1  0
113180  1  0
115181  1  0
122182  1  0
123183  1  0
124184  1  0
M  END

