
     RDKit          3D

222240  0  0  0  0  0  0  0  0999 V2000
    5.1422    5.0364   -4.2681 C   0  0  0  0  0  0  0  0  0  0  0  0
    6.3412    5.1234   -3.6577 C   0  0  0  0  0  0  0  0  0  0  0  0
    6.7824    4.3767   -2.4714 C   0  0  0  0  0  0  0  0  0  0  0  0
    6.5364    3.1686   -2.2129 O   0  0  0  0  0  0  0  0  0  0  0  0
    7.7204    5.2062   -1.7389 C   0  0  0  0  0  0  0  0  0  0  0  0
    8.1959    5.0212   -0.4407 C   0  0  0  0  0  0  0  0  0  0  0  0
    8.9866    6.0406    0.1352 C   0  0  0  0  0  0  0  0  0  0  0  0
    9.4828    5.9462    1.4449 O   0  0  0  0  0  0  0  0  0  0  0  0
    8.7920    5.3589    2.5084 C   0  0  0  0  0  0  0  0  0  0  0  0
    7.5485    5.1406    2.4388 O   0  0  0  0  0  0  0  0  0  0  0  0
    9.5120    5.0986    3.7874 C   0  0  0  0  0  0  0  0  0  0  0  0
    9.2993    7.1862   -0.6184 C   0  0  0  0  0  0  0  0  0  0  0  0
    8.7954    7.3539   -1.9202 C   0  0  0  0  0  0  0  0  0  0  0  0
    8.0066    6.3356   -2.4793 C   0  0  0  0  0  0  0  0  0  0  0  0
    7.2834    6.2733   -3.7811 C   0  0  0  0  0  0  0  0  0  0  0  0
    7.5716    6.9701   -4.9126 C   0  0  0  0  0  0  0  0  0  0  0  0
    6.9488    6.6640   -6.1766 C   0  0  0  0  0  0  0  0  0  0  0  0
    6.4490    6.4271   -7.1975 N   0  0  0  0  0  0  0  0  0  0  0  0
    8.5808    7.9917   -4.9568 C   0  0  0  0  0  0  0  0  0  0  0  0
    9.3918    8.8174   -5.0111 N   0  0  0  0  0  0  0  0  0  0  0  0
    3.9998    4.1987   -3.8241 C   0  0  0  0  0  0  0  0  0  0  0  0
    3.6847    3.7446   -2.2433 S   0  0  0  0  0  0  0  0  0  0  0  0
    2.1143    3.1977   -2.4230 C   0  0  0  0  0  0  0  0  0  0  0  0
    1.7812    3.3864   -3.7799 C   0  0  0  0  0  0  0  0  0  0  0  0
    0.4576    3.1575   -4.4201 C   0  0  0  0  0  0  0  0  0  0  0  0
   -0.6028    3.1752   -3.7456 O   0  0  0  0  0  0  0  0  0  0  0  0
    0.3962    3.0898   -5.8971 C   0  0  0  0  0  0  0  0  0  0  0  0
   -0.6690    2.5884   -6.6555 C   0  0  0  0  0  0  0  0  0  0  0  0
   -1.9577    1.9971   -6.1683 C   0  0  0  0  0  0  0  0  0  0  0  0
   -3.0459    3.0651   -6.0780 C   0  0  0  0  0  0  0  0  0  0  0  0
   -0.2738    2.7523   -8.2821 S   0  0  0  0  0  0  0  0  0  0  0  0
    1.2394    3.4512   -8.0610 C   0  0  0  0  0  0  0  0  0  0  0  0
    2.1764    3.7670   -9.1885 C   0  0  0  0  0  0  0  0  0  0  0  0
    3.1621    2.6251   -9.4175 C   0  0  0  0  0  0  0  0  0  0  0  0
    1.4737    3.5543   -6.6829 C   0  0  0  0  0  0  0  0  0  0  0  0
    2.7125    4.0411   -6.0352 C   0  0  0  0  0  0  0  0  0  0  0  0
    3.6622    4.4954   -6.7280 O   0  0  0  0  0  0  0  0  0  0  0  0
    2.8417    3.9149   -4.5583 C   0  0  0  0  0  0  0  0  0  0  0  0
    1.3945    2.4672   -1.3475 C   0  0  0  0  0  0  0  0  0  0  0  0
    1.8224    2.3415   -0.0009 C   0  0  0  0  0  0  0  0  0  0  0  0
    2.5818    3.3619    0.6789 N   0  0  0  0  0  0  0  0  0  0  0  0
    2.1608    4.7400    0.5257 C   0  0  0  0  0  0  0  0  0  0  0  0
    3.1084    5.7528    0.2863 C   0  0  0  0  0  0  0  0  0  0  0  0
    2.6914    7.0520   -0.0105 C   0  0  0  0  0  0  0  0  0  0  0  0
    1.3276    7.3612   -0.0540 C   0  0  0  0  0  0  0  0  0  0  0  0
    0.7965    9.0100   -0.5175 S   0  0  0  0  0  0  0  0  0  0  0  0
    0.7384    8.6139   -2.2930 C   0  0  0  0  0  0  0  0  0  0  0  0
    0.3811    6.3756    0.2405 C   0  0  0  0  0  0  0  0  0  0  0  0
    0.7924    5.0700    0.5233 C   0  0  0  0  0  0  0  0  0  0  0  0
    3.6768    3.0142    1.5590 C   0  0  0  0  0  0  0  0  0  0  0  0
    4.4728    1.8830    1.3018 C   0  0  0  0  0  0  0  0  0  0  0  0
    5.5521    1.5716    2.1394 C   0  0  0  0  0  0  0  0  0  0  0  0
    5.8566    2.3886    3.2320 C   0  0  0  0  0  0  0  0  0  0  0  0
    7.2847    2.0294    4.2547 S   0  0  0  0  0  0  0  0  0  0  0  0
    6.2991    1.3895    5.6459 C   0  0  0  0  0  0  0  0  0  0  0  0
    5.0644    3.5098    3.5014 C   0  0  0  0  0  0  0  0  0  0  0  0
    3.9771    3.8146    2.6811 C   0  0  0  0  0  0  0  0  0  0  0  0
    1.0364    1.4148    0.6925 C   0  0  0  0  0  0  0  0  0  0  0  0
    1.0844    0.6794    2.1986 S   0  0  0  0  0  0  0  0  0  0  0  0
   -0.3525   -0.2265    1.9901 C   0  0  0  0  0  0  0  0  0  0  0  0
   -0.9277    0.1562    0.7461 C   0  0  0  0  0  0  0  0  0  0  0  0
   -2.3477    0.0884    0.4227 N   0  0  0  0  0  0  0  0  0  0  0  0
   -3.3195   -0.3046    1.4046 C   0  0  0  0  0  0  0  0  0  0  0  0
   -4.2786   -1.2812    1.0897 C   0  0  0  0  0  0  0  0  0  0  0  0
   -5.3003   -1.5812    1.9962 C   0  0  0  0  0  0  0  0  0  0  0  0
   -5.3679   -0.9201    3.2279 C   0  0  0  0  0  0  0  0  0  0  0  0
   -6.6559   -1.3418    4.4045 S   0  0  0  0  0  0  0  0  0  0  0  0
   -7.9408   -0.3993    3.5260 C   0  0  0  0  0  0  0  0  0  0  0  0
   -4.4378    0.0775    3.5339 C   0  0  0  0  0  0  0  0  0  0  0  0
   -3.4263    0.3977    2.6211 C   0  0  0  0  0  0  0  0  0  0  0  0
   -2.8912    1.0134   -0.5364 C   0  0  0  0  0  0  0  0  0  0  0  0
   -3.4351    0.5529   -1.7472 C   0  0  0  0  0  0  0  0  0  0  0  0
   -4.0755    1.4473   -2.6139 C   0  0  0  0  0  0  0  0  0  0  0  0
   -4.1823    2.8030   -2.2695 C   0  0  0  0  0  0  0  0  0  0  0  0
   -5.0711    3.9458   -3.3309 S   0  0  0  0  0  0  0  0  0  0  0  0
   -6.6735    3.6440   -2.5234 C   0  0  0  0  0  0  0  0  0  0  0  0
   -3.6103    3.2699   -1.0822 C   0  0  0  0  0  0  0  0  0  0  0  0
   -2.9732    2.3798   -0.2158 C   0  0  0  0  0  0  0  0  0  0  0  0
   -0.0326    0.9465    0.0167 C   0  0  0  0  0  0  0  0  0  0  0  0
    0.0187    1.4934   -1.5642 S   0  0  0  0  0  0  0  0  0  0  0  0
   -0.4303   -1.6231    2.4690 C   0  0  0  0  0  0  0  0  0  0  0  0
    0.3447   -2.6581    1.9079 C   0  0  0  0  0  0  0  0  0  0  0  0
    1.7522   -2.5406    1.6480 N   0  0  0  0  0  0  0  0  0  0  0  0
    2.6398   -2.4499    2.7893 C   0  0  0  0  0  0  0  0  0  0  0  0
    2.3280   -3.1120    3.9959 C   0  0  0  0  0  0  0  0  0  0  0  0
    3.1785   -3.0249    5.0990 C   0  0  0  0  0  0  0  0  0  0  0  0
    4.3458   -2.2634    5.0233 C   0  0  0  0  0  0  0  0  0  0  0  0
    5.4273   -2.1416    6.4507 S   0  0  0  0  0  0  0  0  0  0  0  0
    4.3120   -1.0427    7.3875 C   0  0  0  0  0  0  0  0  0  0  0  0
    4.6741   -1.6116    3.8268 C   0  0  0  0  0  0  0  0  0  0  0  0
    3.8218   -1.6937    2.7177 C   0  0  0  0  0  0  0  0  0  0  0  0
    2.2529   -2.7681    0.3108 C   0  0  0  0  0  0  0  0  0  0  0  0
    3.4648   -3.4574    0.0998 C   0  0  0  0  0  0  0  0  0  0  0  0
    3.9340   -3.6895   -1.1989 C   0  0  0  0  0  0  0  0  0  0  0  0
    3.1982   -3.2427   -2.3011 C   0  0  0  0  0  0  0  0  0  0  0  0
    3.8018   -3.5317   -3.9645 S   0  0  0  0  0  0  0  0  0  0  0  0
    2.8393   -5.0640   -4.1839 C   0  0  0  0  0  0  0  0  0  0  0  0
    1.9921   -2.5643   -2.1041 C   0  0  0  0  0  0  0  0  0  0  0  0
    1.5152   -2.3396   -0.8060 C   0  0  0  0  0  0  0  0  0  0  0  0
   -0.2760   -3.8968    2.0426 C   0  0  0  0  0  0  0  0  0  0  0  0
   -0.0045   -5.4287    1.4032 S   0  0  0  0  0  0  0  0  0  0  0  0
   -1.4550   -6.0624    2.0345 C   0  0  0  0  0  0  0  0  0  0  0  0
   -2.1099   -5.0778    2.7825 C   0  0  0  0  0  0  0  0  0  0  0  0
   -3.3035   -5.2837    3.5470 N   0  0  0  0  0  0  0  0  0  0  0  0
   -4.5989   -5.3817    2.9188 C   0  0  0  0  0  0  0  0  0  0  0  0
   -5.6714   -6.0153    3.5756 C   0  0  0  0  0  0  0  0  0  0  0  0
   -6.9325   -6.0864    2.9758 C   0  0  0  0  0  0  0  0  0  0  0  0
   -7.1364   -5.5272    1.7109 C   0  0  0  0  0  0  0  0  0  0  0  0
   -8.7643   -5.5542    0.9682 S   0  0  0  0  0  0  0  0  0  0  0  0
   -9.2515   -3.9814    1.7466 C   0  0  0  0  0  0  0  0  0  0  0  0
   -6.0766   -4.9217    1.0372 C   0  0  0  0  0  0  0  0  0  0  0  0
   -4.8175   -4.8457    1.6348 C   0  0  0  0  0  0  0  0  0  0  0  0
   -3.1392   -5.4093    4.9653 C   0  0  0  0  0  0  0  0  0  0  0  0
   -3.3867   -4.3151    5.8031 C   0  0  0  0  0  0  0  0  0  0  0  0
   -3.0238   -4.3695    7.1541 C   0  0  0  0  0  0  0  0  0  0  0  0
   -2.4186   -5.5227    7.6711 C   0  0  0  0  0  0  0  0  0  0  0  0
   -1.8213   -5.5460    9.3598 S   0  0  0  0  0  0  0  0  0  0  0  0
   -0.1186   -5.1035    8.8816 C   0  0  0  0  0  0  0  0  0  0  0  0
   -2.2318   -6.6403    6.8495 C   0  0  0  0  0  0  0  0  0  0  0  0
   -2.5816   -6.5802    5.4991 C   0  0  0  0  0  0  0  0  0  0  0  0
   -1.4269   -3.8797    2.7436 C   0  0  0  0  0  0  0  0  0  0  0  0
   -1.8019   -2.3157    3.2052 S   0  0  0  0  0  0  0  0  0  0  0  0
   -2.0932   -7.3187    1.6234 C   0  0  0  0  0  0  0  0  0  0  0  0
   -2.7713   -7.4201    0.4616 C   0  0  0  0  0  0  0  0  0  0  0  0
   -2.8862   -6.3658   -0.5572 C   0  0  0  0  0  0  0  0  0  0  0  0
   -2.0838   -5.4133   -0.7527 O   0  0  0  0  0  0  0  0  0  0  0  0
   -4.1253   -6.5568   -1.2793 C   0  0  0  0  0  0  0  0  0  0  0  0
   -4.7274   -5.6858   -2.1837 C   0  0  0  0  0  0  0  0  0  0  0  0
   -6.0370   -5.9689   -2.6266 C   0  0  0  0  0  0  0  0  0  0  0  0
   -6.7110   -5.1365   -3.5331 O   0  0  0  0  0  0  0  0  0  0  0  0
   -6.5093   -3.7560   -3.6638 C   0  0  0  0  0  0  0  0  0  0  0  0
   -5.9737   -3.0826   -2.7430 O   0  0  0  0  0  0  0  0  0  0  0  0
   -7.0002   -3.0614   -4.8880 C   0  0  0  0  0  0  0  0  0  0  0  0
   -6.6884   -7.1262   -2.1600 C   0  0  0  0  0  0  0  0  0  0  0  0
   -6.0610   -7.9884   -1.2458 C   0  0  0  0  0  0  0  0  0  0  0  0
   -4.7556   -7.6987   -0.8224 C   0  0  0  0  0  0  0  0  0  0  0  0
   -3.8840   -8.3749    0.1826 C   0  0  0  0  0  0  0  0  0  0  0  0
   -3.9774   -9.6595    0.6062 C   0  0  0  0  0  0  0  0  0  0  0  0
   -2.9519  -10.2720    1.4078 C   0  0  0  0  0  0  0  0  0  0  0  0
   -2.1281  -10.7689    2.0538 N   0  0  0  0  0  0  0  0  0  0  0  0
   -5.0372  -10.5362    0.1767 C   0  0  0  0  0  0  0  0  0  0  0  0
   -5.8826  -11.2532   -0.1619 N   0  0  0  0  0  0  0  0  0  0  0  0
    4.9041    5.7587   -5.0255 H   0  0  0  0  0  0  0  0  0  0  0  0
    7.9427    4.1231    0.1073 H   0  0  0  0  0  0  0  0  0  0  0  0
    8.8785    4.5055    4.4796 H   0  0  0  0  0  0  0  0  0  0  0  0
    9.7656    6.0648    4.2716 H   0  0  0  0  0  0  0  0  0  0  0  0
   10.4474    4.5381    3.5834 H   0  0  0  0  0  0  0  0  0  0  0  0
    9.8940    7.9693   -0.1743 H   0  0  0  0  0  0  0  0  0  0  0  0
    8.9895    8.2781   -2.4333 H   0  0  0  0  0  0  0  0  0  0  0  0
   -1.8221    1.5124   -5.1788 H   0  0  0  0  0  0  0  0  0  0  0  0
   -2.2831    1.2070   -6.8781 H   0  0  0  0  0  0  0  0  0  0  0  0
   -2.7737    3.8324   -5.3229 H   0  0  0  0  0  0  0  0  0  0  0  0
   -3.1887    3.5622   -7.0601 H   0  0  0  0  0  0  0  0  0  0  0  0
   -4.0029    2.5900   -5.7839 H   0  0  0  0  0  0  0  0  0  0  0  0
    2.7176    4.7144   -8.9946 H   0  0  0  0  0  0  0  0  0  0  0  0
    1.5807    3.9261  -10.1172 H   0  0  0  0  0  0  0  0  0  0  0  0
    3.8145    2.8724  -10.2796 H   0  0  0  0  0  0  0  0  0  0  0  0
    3.8055    2.4757   -8.5229 H   0  0  0  0  0  0  0  0  0  0  0  0
    2.6197    1.6816   -9.6430 H   0  0  0  0  0  0  0  0  0  0  0  0
    4.1654    5.5209    0.2772 H   0  0  0  0  0  0  0  0  0  0  0  0
    3.4303    7.8105   -0.2390 H   0  0  0  0  0  0  0  0  0  0  0  0
    0.4359    9.5206   -2.8606 H   0  0  0  0  0  0  0  0  0  0  0  0
   -0.0065    7.8137   -2.4836 H   0  0  0  0  0  0  0  0  0  0  0  0
    1.7362    8.2877   -2.6504 H   0  0  0  0  0  0  0  0  0  0  0  0
   -0.6772    6.6118    0.2316 H   0  0  0  0  0  0  0  0  0  0  0  0
    0.0429    4.3148    0.7166 H   0  0  0  0  0  0  0  0  0  0  0  0
    4.2737    1.2527    0.4450 H   0  0  0  0  0  0  0  0  0  0  0  0
    6.1627    0.7046    1.9223 H   0  0  0  0  0  0  0  0  0  0  0  0
    5.5282    0.6950    5.2766 H   0  0  0  0  0  0  0  0  0  0  0  0
    6.9688    0.8521    6.3508 H   0  0  0  0  0  0  0  0  0  0  0  0
    5.8064    2.2277    6.1803 H   0  0  0  0  0  0  0  0  0  0  0  0
    5.2848    4.1432    4.3504 H   0  0  0  0  0  0  0  0  0  0  0  0
    3.3686    4.6781    2.9199 H   0  0  0  0  0  0  0  0  0  0  0  0
   -4.2450   -1.7911    0.1340 H   0  0  0  0  0  0  0  0  0  0  0  0
   -6.0534   -2.3080    1.7364 H   0  0  0  0  0  0  0  0  0  0  0  0
   -7.5871    0.6255    3.2891 H   0  0  0  0  0  0  0  0  0  0  0  0
   -8.8445   -0.3301    4.1636 H   0  0  0  0  0  0  0  0  0  0  0  0
   -8.2036   -0.9323    2.5894 H   0  0  0  0  0  0  0  0  0  0  0  0
   -4.4962    0.6111    4.4729 H   0  0  0  0  0  0  0  0  0  0  0  0
   -2.7253    1.1858    2.8590 H   0  0  0  0  0  0  0  0  0  0  0  0
   -3.3878   -0.5015   -1.9990 H   0  0  0  0  0  0  0  0  0  0  0  0
   -4.5106    1.0838   -3.5327 H   0  0  0  0  0  0  0  0  0  0  0  0
   -7.4331    4.3110   -2.9825 H   0  0  0  0  0  0  0  0  0  0  0  0
   -6.6137    3.8670   -1.4384 H   0  0  0  0  0  0  0  0  0  0  0  0
   -6.9854    2.5880   -2.6721 H   0  0  0  0  0  0  0  0  0  0  0  0
   -3.6791    4.3165   -0.8157 H   0  0  0  0  0  0  0  0  0  0  0  0
   -2.5597    2.7454    0.7157 H   0  0  0  0  0  0  0  0  0  0  0  0
    1.4330   -3.7096    4.0971 H   0  0  0  0  0  0  0  0  0  0  0  0
    2.9201   -3.5330    6.0170 H   0  0  0  0  0  0  0  0  0  0  0  0
    3.4220   -1.6100    7.7328 H   0  0  0  0  0  0  0  0  0  0  0  0
    3.9751   -0.1896    6.7663 H   0  0  0  0  0  0  0  0  0  0  0  0
    4.8501   -0.6514    8.2763 H   0  0  0  0  0  0  0  0  0  0  0  0
    5.5940   -1.0486    3.7478 H   0  0  0  0  0  0  0  0  0  0  0  0
    4.0853   -1.1742    1.8072 H   0  0  0  0  0  0  0  0  0  0  0  0
    4.0404   -3.8359    0.9370 H   0  0  0  0  0  0  0  0  0  0  0  0
    4.8674   -4.2183   -1.3409 H   0  0  0  0  0  0  0  0  0  0  0  0
    1.7521   -4.8605   -4.0658 H   0  0  0  0  0  0  0  0  0  0  0  0
    3.0123   -5.4583   -5.2066 H   0  0  0  0  0  0  0  0  0  0  0  0
    3.1560   -5.8245   -3.4415 H   0  0  0  0  0  0  0  0  0  0  0  0
    1.4093   -2.2248   -2.9495 H   0  0  0  0  0  0  0  0  0  0  0  0
    0.5729   -1.8279   -0.6795 H   0  0  0  0  0  0  0  0  0  0  0  0
   -5.5374   -6.4524    4.5590 H   0  0  0  0  0  0  0  0  0  0  0  0
   -7.7463   -6.5697    3.4955 H   0  0  0  0  0  0  0  0  0  0  0  0
  -10.2706   -3.7083    1.4031 H   0  0  0  0  0  0  0  0  0  0  0  0
   -9.2599   -4.0916    2.8503 H   0  0  0  0  0  0  0  0  0  0  0  0
   -8.5449   -3.1719    1.4593 H   0  0  0  0  0  0  0  0  0  0  0  0
   -6.2250   -4.4899    0.0547 H   0  0  0  0  0  0  0  0  0  0  0  0
   -4.0175   -4.3446    1.1042 H   0  0  0  0  0  0  0  0  0  0  0  0
   -3.8059   -3.4006    5.3951 H   0  0  0  0  0  0  0  0  0  0  0  0
   -3.1877   -3.5057    7.7850 H   0  0  0  0  0  0  0  0  0  0  0  0
    0.3415   -5.9278    8.2954 H   0  0  0  0  0  0  0  0  0  0  0  0
   -0.1128   -4.1715    8.2801 H   0  0  0  0  0  0  0  0  0  0  0  0
    0.4923   -4.9441    9.7966 H   0  0  0  0  0  0  0  0  0  0  0  0
   -1.7694   -7.5375    7.2424 H   0  0  0  0  0  0  0  0  0  0  0  0
   -2.3770   -7.4284    4.8580 H   0  0  0  0  0  0  0  0  0  0  0  0
   -2.2692   -8.0317    2.4106 H   0  0  0  0  0  0  0  0  0  0  0  0
   -4.1901   -4.8082   -2.5194 H   0  0  0  0  0  0  0  0  0  0  0  0
   -7.4776   -3.7864   -5.5776 H   0  0  0  0  0  0  0  0  0  0  0  0
   -7.7419   -2.2831   -4.6062 H   0  0  0  0  0  0  0  0  0  0  0  0
   -6.1469   -2.5767   -5.4060 H   0  0  0  0  0  0  0  0  0  0  0  0
   -7.7003   -7.3388   -2.4824 H   0  0  0  0  0  0  0  0  0  0  0  0
   -6.6167   -8.8257   -0.8636 H   0  0  0  0  0  0  0  0  0  0  0  0
  1  2  2  3
  2  3  1  0
  3  4  2  0
  3  5  1  0
  5  6  2  0
  6  7  1  0
  7  8  1  0
  8  9  1  0
  9 10  2  0
  9 11  1  0
  7 12  2  0
 12 13  1  0
 13 14  2  0
 14 15  1  0
 15 16  2  3
 16 17  1  0
 17 18  3  0
 16 19  1  0
 19 20  3  0
  1 21  1  0
 21 22  1  0
 22 23  1  0
 23 24  2  0
 24 25  1  0
 25 26  2  0
 25 27  1  0
 27 28  2  0
 28 29  1  0
 29 30  1  0
 28 31  1  0
 31 32  1  0
 32 33  1  0
 33 34  1  0
 32 35  2  0
 35 36  1  0
 36 37  2  0
 36 38  1  0
 23 39  1  0
 39 40  2  0
 40 41  1  0
 41 42  1  0
 42 43  2  0
 43 44  1  0
 44 45  2  0
 45 46  1  0
 46 47  1  0
 45 48  1  0
 48 49  2  0
 41 50  1  0
 50 51  2  0
 51 52  1  0
 52 53  2  0
 53 54  1  0
 54 55  1  0
 53 56  1  0
 56 57  2  0
 40 58  1  0
 58 59  1  0
 59 60  1  0
 60 61  2  0
 61 62  1  0
 62 63  1  0
 63 64  2  0
 64 65  1  0
 65 66  2  0
 66 67  1  0
 67 68  1  0
 66 69  1  0
 69 70  2  0
 62 71  1  0
 71 72  2  0
 72 73  1  0
 73 74  2  0
 74 75  1  0
 75 76  1  0
 74 77  1  0
 77 78  2  0
 61 79  1  0
 79 80  1  0
 60 81  1  0
 81 82  2  0
 82 83  1  0
 83 84  1  0
 84 85  2  0
 85 86  1  0
 86 87  2  0
 87 88  1  0
 88 89  1  0
 87 90  1  0
 90 91  2  0
 83 92  1  0
 92 93  2  0
 93 94  1  0
 94 95  2  0
 95 96  1  0
 96 97  1  0
 95 98  1  0
 98 99  2  0
 82100  1  0
100101  1  0
101102  1  0
102103  2  0
103104  1  0
104105  1  0
105106  2  0
106107  1  0
107108  2  0
108109  1  0
109110  1  0
108111  1  0
111112  2  0
104113  1  0
113114  2  0
114115  1  0
115116  2  0
116117  1  0
117118  1  0
116119  1  0
119120  2  0
103121  1  0
121122  1  0
102123  1  0
123124  2  3
124125  1  0
125126  2  0
125127  1  0
127128  2  0
128129  1  0
129130  1  0
130131  1  0
131132  2  0
131133  1  0
129134  2  0
134135  1  0
135136  2  0
136137  1  0
137138  2  3
138139  1  0
139140  3  0
138141  1  0
141142  3  0
 15  2  1  0
 38 21  2  0
 80 39  1  0
122 81  1  0
137124  1  0
 14  5  1  0
 38 24  1  0
 49 42  1  0
 57 50  1  0
 79 58  2  0
 91 84  1  0
 99 92  1  0
121100  2  0
136127  1  0
 35 27  1  0
 70 63  1  0
 78 71  1  0
112105  1  0
120113  1  0
  1143  1  0
  6144  1  0
 11145  1  0
 11146  1  0
 11147  1  0
 12148  1  0
 13149  1  0
 29150  1  0
 29151  1  0
 30152  1  0
 30153  1  0
 30154  1  0
 33155  1  0
 33156  1  0
 34157  1  0
 34158  1  0
 34159  1  0
 43160  1  0
 44161  1  0
 47162  1  0
 47163  1  0
 47164  1  0
 48165  1  0
 49166  1  0
 51167  1  0
 52168  1  0
 55169  1  0
 55170  1  0
 55171  1  0
 56172  1  0
 57173  1  0
 64174  1  0
 65175  1  0
 68176  1  0
 68177  1  0
 68178  1  0
 69179  1  0
 70180  1  0
 72181  1  0
 73182  1  0
 76183  1  0
 76184  1  0
 76185  1  0
 77186  1  0
 78187  1  0
 85188  1  0
 86189  1  0
 89190  1  0
 89191  1  0
 89192  1  0
 90193  1  0
 91194  1  0
 93195  1  0
 94196  1  0
 97197  1  0
 97198  1  0
 97199  1  0
 98200  1  0
 99201  1  0
106202  1  0
107203  1  0
110204  1  0
110205  1  0
110206  1  0
111207  1  0
112208  1  0
114209  1  0
115210  1  0
118211  1  0
118212  1  0
118213  1  0
119214  1  0
120215  1  0
123216  1  0
128217  1  0
133218  1  0
133219  1  0
133220  1  0
134221  1  0
135222  1  0
M  END

