
     RDKit          3D

142157  0  0  0  0  0  0  0  0999 V2000
    4.2762    3.1963   -5.2852 C   0  0  0  0  0  0  0  0  0  0  0  0
    5.3033    2.8104   -4.4939 C   0  0  0  0  0  0  0  0  0  0  0  0
    5.1847    2.2604   -3.1325 C   0  0  0  0  0  0  0  0  0  0  0  0
    4.1344    2.1768   -2.4365 O   0  0  0  0  0  0  0  0  0  0  0  0
    6.4773    1.7899   -2.7022 C   0  0  0  0  0  0  0  0  0  0  0  0
    6.8168    1.2728   -1.4493 C   0  0  0  0  0  0  0  0  0  0  0  0
    8.1524    0.8913   -1.2231 C   0  0  0  0  0  0  0  0  0  0  0  0
    8.5681    0.3462   -0.0007 O   0  0  0  0  0  0  0  0  0  0  0  0
    8.0336    0.6893    1.2526 C   0  0  0  0  0  0  0  0  0  0  0  0
    7.3781    1.7610    1.4042 O   0  0  0  0  0  0  0  0  0  0  0  0
    8.4048   -0.1202    2.4508 C   0  0  0  0  0  0  0  0  0  0  0  0
    9.0959    1.0243   -2.2551 C   0  0  0  0  0  0  0  0  0  0  0  0
    8.7338    1.5652   -3.5032 C   0  0  0  0  0  0  0  0  0  0  0  0
    7.4005    1.9581   -3.7166 C   0  0  0  0  0  0  0  0  0  0  0  0
    6.7457    2.6395   -4.8793 C   0  0  0  0  0  0  0  0  0  0  0  0
    7.3558    3.0933   -6.0094 C   0  0  0  0  0  0  0  0  0  0  0  0
    8.6837    2.6926   -6.3849 C   0  0  0  0  0  0  0  0  0  0  0  0
    9.7490    2.3523   -6.7032 N   0  0  0  0  0  0  0  0  0  0  0  0
    6.7314    4.0278   -6.9073 C   0  0  0  0  0  0  0  0  0  0  0  0
    6.2425    4.7807   -7.6406 N   0  0  0  0  0  0  0  0  0  0  0  0
    2.8723    3.2974   -4.8258 C   0  0  0  0  0  0  0  0  0  0  0  0
    1.8347    2.7046   -5.5538 C   0  0  0  0  0  0  0  0  0  0  0  0
    0.5075    2.6511   -5.0448 C   0  0  0  0  0  0  0  0  0  0  0  0
   -0.4435    2.1105   -5.9660 N   0  0  0  0  0  0  0  0  0  0  0  0
    0.5004    1.7299   -7.1974 S   0  0  0  0  0  4  0  0  0  0  0  0
    2.0037    2.1253   -6.8543 N   0  0  0  0  0  0  0  0  0  0  0  0
    0.1918    3.1311   -3.7542 C   0  0  0  0  0  0  0  0  0  0  0  0
    1.1857    3.9513   -3.1502 C   0  0  0  0  0  0  0  0  0  0  0  0
    0.9725    4.7065   -2.0360 N   0  0  0  0  0  0  0  0  0  0  0  0
    2.4428    5.4282   -1.8325 S   0  0  0  0  0  0  0  0  0  0  0  0
    3.3848    4.8696   -3.0587 N   0  0  0  0  0  0  0  0  0  0  0  0
    2.5091    4.0449   -3.6981 C   0  0  0  0  0  0  0  0  0  0  0  0
   -1.0367    2.6933   -2.9945 C   0  0  0  0  0  0  0  0  0  0  0  0
   -1.7647    1.4666   -3.1188 C   0  0  0  0  0  0  0  0  0  0  0  0
   -1.5184    0.4190   -4.0789 N   0  0  0  0  0  0  0  0  0  0  0  0
   -0.5979   -0.6398   -3.6953 C   0  0  0  0  0  0  0  0  0  0  0  0
    0.5403   -0.3495   -2.9057 C   0  0  0  0  0  0  0  0  0  0  0  0
    1.3599   -1.3761   -2.4262 C   0  0  0  0  0  0  0  0  0  0  0  0
    1.0786   -2.7076   -2.7490 C   0  0  0  0  0  0  0  0  0  0  0  0
    2.1565   -4.0202   -2.1808 S   0  0  0  0  0  0  0  0  0  0  0  0
    3.3409   -3.8079   -3.5528 C   0  0  0  0  0  0  0  0  0  0  0  0
   -0.0520   -3.0151   -3.5084 C   0  0  0  0  0  0  0  0  0  0  0  0
   -0.8932   -1.9946   -3.9647 C   0  0  0  0  0  0  0  0  0  0  0  0
   -2.4976    0.2098   -5.1379 C   0  0  0  0  0  0  0  0  0  0  0  0
   -3.8299    0.6485   -5.0013 C   0  0  0  0  0  0  0  0  0  0  0  0
   -4.7554    0.4526   -6.0303 C   0  0  0  0  0  0  0  0  0  0  0  0
   -4.3651   -0.1686   -7.2195 C   0  0  0  0  0  0  0  0  0  0  0  0
   -5.5439   -0.3612   -8.5594 S   0  0  0  0  0  0  0  0  0  0  0  0
   -6.0933   -2.0146   -8.0300 C   0  0  0  0  0  0  0  0  0  0  0  0
   -3.0469   -0.5975   -7.3744 C   0  0  0  0  0  0  0  0  0  0  0  0
   -2.1167   -0.4043   -6.3473 C   0  0  0  0  0  0  0  0  0  0  0  0
   -2.5363    1.1988   -1.9797 C   0  0  0  0  0  0  0  0  0  0  0  0
   -3.1717   -0.2368   -1.3905 S   0  0  0  0  0  0  0  0  0  0  0  0
   -3.2750    0.2863    0.2303 C   0  0  0  0  0  0  0  0  0  0  0  0
   -2.7918    1.6138    0.2997 C   0  0  0  0  0  0  0  0  0  0  0  0
   -2.4411    2.3132    1.5107 N   0  0  0  0  0  0  0  0  0  0  0  0
   -1.6722    1.6520    2.5356 C   0  0  0  0  0  0  0  0  0  0  0  0
   -1.9952    1.8463    3.8892 C   0  0  0  0  0  0  0  0  0  0  0  0
   -1.2354    1.2380    4.8907 C   0  0  0  0  0  0  0  0  0  0  0  0
   -0.1085    0.4748    4.5606 C   0  0  0  0  0  0  0  0  0  0  0  0
    0.8714   -0.3006    5.8507 S   0  0  0  0  0  0  0  0  0  0  0  0
    1.7662    1.2167    6.2979 C   0  0  0  0  0  0  0  0  0  0  0  0
    0.2472    0.3110    3.2125 C   0  0  0  0  0  0  0  0  0  0  0  0
   -0.5408    0.8806    2.2011 C   0  0  0  0  0  0  0  0  0  0  0  0
   -2.6356    3.7436    1.5736 C   0  0  0  0  0  0  0  0  0  0  0  0
   -1.6312    4.5796    2.1012 C   0  0  0  0  0  0  0  0  0  0  0  0
   -1.7654    5.9670    2.0487 C   0  0  0  0  0  0  0  0  0  0  0  0
   -2.8847    6.5466    1.4426 C   0  0  0  0  0  0  0  0  0  0  0  0
   -2.9805    8.3258    1.2477 S   0  0  0  0  0  0  0  0  0  0  0  0
   -1.9332    8.3160   -0.2431 C   0  0  0  0  0  0  0  0  0  0  0  0
   -3.9042    5.7274    0.9355 C   0  0  0  0  0  0  0  0  0  0  0  0
   -3.7841    4.3366    1.0063 C   0  0  0  0  0  0  0  0  0  0  0  0
   -2.4316    2.0901   -0.9652 C   0  0  0  0  0  0  0  0  0  0  0  0
   -1.4192    3.3120   -1.4461 S   0  0  0  0  0  0  0  0  0  0  0  0
   -3.5580   -0.6080    1.3792 C   0  0  0  0  0  0  0  0  0  0  0  0
   -4.2476   -0.1490    2.5128 C   0  0  0  0  0  0  0  0  0  0  0  0
   -4.3068   -0.9155    3.7000 C   0  0  0  0  0  0  0  0  0  0  0  0
   -5.0063   -0.2927    4.7855 N   0  0  0  0  0  0  0  0  0  0  0  0
   -5.4539    1.0731    4.0941 S   0  0  0  0  0  4  0  0  0  0  0  0
   -4.9191    1.1159    2.5928 N   0  0  0  0  0  0  0  0  0  0  0  0
   -3.7088   -2.1818    3.7844 C   0  0  0  0  0  0  0  0  0  0  0  0
   -3.1879   -2.7315    2.5963 C   0  0  0  0  0  0  0  0  0  0  0  0
   -2.7281   -4.0145    2.5191 N   0  0  0  0  0  0  0  0  0  0  0  0
   -2.1833   -4.0444    0.9609 S   0  0  0  0  0  0  0  0  0  0  0  0
   -2.4944   -2.5497    0.3445 N   0  0  0  0  0  0  0  0  0  0  0  0
   -3.0858   -1.9395    1.4108 C   0  0  0  0  0  0  0  0  0  0  0  0
   -3.6754   -2.9139    5.0779 C   0  0  0  0  0  0  0  0  0  0  0  0
   -2.5502   -3.4191    5.6382 C   0  0  0  0  0  0  0  0  0  0  0  0
   -1.1740   -3.2774    5.1278 C   0  0  0  0  0  0  0  0  0  0  0  0
   -0.8223   -2.6446    4.0951 O   0  0  0  0  0  0  0  0  0  0  0  0
   -0.2589   -3.8728    6.0839 C   0  0  0  0  0  0  0  0  0  0  0  0
    1.1437   -3.8745    6.0619 C   0  0  0  0  0  0  0  0  0  0  0  0
    2.0305   -3.4038    4.6084 Cl  0  0  0  0  0  0  0  0  0  0  0  0
    1.8334   -4.2836    7.2197 C   0  0  0  0  0  0  0  0  0  0  0  0
    3.5994   -4.3008    7.2304 Cl  0  0  0  0  0  0  0  0  0  0  0  0
    1.1122   -4.6092    8.3953 C   0  0  0  0  0  0  0  0  0  0  0  0
    1.9950   -4.9834    9.8825 Cl  0  0  0  0  0  0  0  0  0  0  0  0
   -0.3003   -4.5939    8.3905 C   0  0  0  0  0  0  0  0  0  0  0  0
   -1.1729   -4.6882    9.9198 Cl  0  0  0  0  0  0  0  0  0  0  0  0
   -0.9718   -4.3180    7.1811 C   0  0  0  0  0  0  0  0  0  0  0  0
   -2.4318   -4.1920    6.9129 C   0  0  0  0  0  0  0  0  0  0  0  0
   -3.3912   -4.9806    7.4768 C   0  0  0  0  0  0  0  0  0  0  0  0
   -3.0416   -6.2491    8.0535 C   0  0  0  0  0  0  0  0  0  0  0  0
   -2.7623   -7.2814    8.4918 N   0  0  0  0  0  0  0  0  0  0  0  0
   -4.8004   -4.7674    7.2858 C   0  0  0  0  0  0  0  0  0  0  0  0
   -5.9360   -4.6034    7.1409 N   0  0  0  0  0  0  0  0  0  0  0  0
    4.4267    3.3025   -6.3512 H   0  0  0  0  0  0  0  0  0  0  0  0
    6.0613    1.1637   -0.6833 H   0  0  0  0  0  0  0  0  0  0  0  0
    7.6297   -0.0156    3.2414 H   0  0  0  0  0  0  0  0  0  0  0  0
    9.3713    0.2517    2.8506 H   0  0  0  0  0  0  0  0  0  0  0  0
    8.4967   -1.1909    2.1668 H   0  0  0  0  0  0  0  0  0  0  0  0
   10.1243    0.7244   -2.0834 H   0  0  0  0  0  0  0  0  0  0  0  0
    9.5018    1.6652   -4.2505 H   0  0  0  0  0  0  0  0  0  0  0  0
    0.8131    0.6672   -2.6652 H   0  0  0  0  0  0  0  0  0  0  0  0
    2.2129   -1.1332   -1.7996 H   0  0  0  0  0  0  0  0  0  0  0  0
    2.8168   -3.5741   -4.5009 H   0  0  0  0  0  0  0  0  0  0  0  0
    4.0370   -2.9724   -3.3141 H   0  0  0  0  0  0  0  0  0  0  0  0
    3.9221   -4.7388   -3.6897 H   0  0  0  0  0  0  0  0  0  0  0  0
   -0.3077   -4.0443   -3.7114 H   0  0  0  0  0  0  0  0  0  0  0  0
   -1.7858   -2.2755   -4.5151 H   0  0  0  0  0  0  0  0  0  0  0  0
   -4.1761    1.1259   -4.0934 H   0  0  0  0  0  0  0  0  0  0  0  0
   -5.7809    0.7842   -5.9001 H   0  0  0  0  0  0  0  0  0  0  0  0
   -6.8453   -2.3975   -8.7524 H   0  0  0  0  0  0  0  0  0  0  0  0
   -5.2335   -2.7183   -8.0073 H   0  0  0  0  0  0  0  0  0  0  0  0
   -6.5539   -1.9641   -7.0217 H   0  0  0  0  0  0  0  0  0  0  0  0
   -2.7345   -1.0715   -8.2963 H   0  0  0  0  0  0  0  0  0  0  0  0
   -1.1006   -0.7446   -6.4902 H   0  0  0  0  0  0  0  0  0  0  0  0
   -2.8409    2.4701    4.1605 H   0  0  0  0  0  0  0  0  0  0  0  0
   -1.5123    1.3744    5.9287 H   0  0  0  0  0  0  0  0  0  0  0  0
    2.0552    1.8028    5.4026 H   0  0  0  0  0  0  0  0  0  0  0  0
    2.6781    0.9473    6.8656 H   0  0  0  0  0  0  0  0  0  0  0  0
    1.1020    1.8247    6.9592 H   0  0  0  0  0  0  0  0  0  0  0  0
    1.1192   -0.2734    2.9501 H   0  0  0  0  0  0  0  0  0  0  0  0
   -0.2508    0.7461    1.1640 H   0  0  0  0  0  0  0  0  0  0  0  0
   -0.7199    4.1549    2.5088 H   0  0  0  0  0  0  0  0  0  0  0  0
   -0.9641    6.5914    2.4302 H   0  0  0  0  0  0  0  0  0  0  0  0
   -0.9090    7.9773    0.0166 H   0  0  0  0  0  0  0  0  0  0  0  0
   -2.3606    7.6440   -1.0145 H   0  0  0  0  0  0  0  0  0  0  0  0
   -1.8738    9.3457   -0.6573 H   0  0  0  0  0  0  0  0  0  0  0  0
   -4.7737    6.1737    0.4644 H   0  0  0  0  0  0  0  0  0  0  0  0
   -4.5724    3.7213    0.5826 H   0  0  0  0  0  0  0  0  0  0  0  0
   -4.5990   -2.9137    5.6200 H   0  0  0  0  0  0  0  0  0  0  0  0
  1  2  2  3
  2  3  1  0
  3  4  2  0
  3  5  1  0
  5  6  2  0
  6  7  1  0
  7  8  1  0
  8  9  1  0
  9 10  2  0
  9 11  1  0
  7 12  2  0
 12 13  1  0
 13 14  2  0
 14 15  1  0
 15 16  2  3
 16 17  1  0
 17 18  3  0
 16 19  1  0
 19 20  3  0
  1 21  1  0
 21 22  2  0
 22 23  1  0
 23 24  1  0
 24 25  2  0
 25 26  2  0
 23 27  2  0
 27 28  1  0
 28 29  2  0
 29 30  1  0
 30 31  1  0
 31 32  2  0
 27 33  1  0
 33 34  2  0
 34 35  1  0
 35 36  1  0
 36 37  2  0
 37 38  1  0
 38 39  2  0
 39 40  1  0
 40 41  1  0
 39 42  1  0
 42 43  2  0
 35 44  1  0
 44 45  2  0
 45 46  1  0
 46 47  2  0
 47 48  1  0
 48 49  1  0
 47 50  1  0
 50 51  2  0
 34 52  1  0
 52 53  1  0
 53 54  1  0
 54 55  2  0
 55 56  1  0
 56 57  1  0
 57 58  2  0
 58 59  1  0
 59 60  2  0
 60 61  1  0
 61 62  1  0
 60 63  1  0
 63 64  2  0
 56 65  1  0
 65 66  2  0
 66 67  1  0
 67 68  2  0
 68 69  1  0
 69 70  1  0
 68 71  1  0
 71 72  2  0
 55 73  1  0
 73 74  1  0
 54 75  1  0
 75 76  2  0
 76 77  1  0
 77 78  1  0
 78 79  2  0
 79 80  2  0
 77 81  2  0
 81 82  1  0
 82 83  2  0
 83 84  1  0
 84 85  1  0
 85 86  2  0
 81 87  1  0
 87 88  2  3
 88 89  1  0
 89 90  2  0
 89 91  1  0
 91 92  2  0
 92 93  1  0
 92 94  1  0
 94 95  1  0
 94 96  2  0
 96 97  1  0
 96 98  1  0
 98 99  1  0
 98100  2  0
100101  1  0
101102  2  3
102103  1  0
103104  3  0
102105  1  0
105106  3  0
 15  2  1  0
 32 21  1  0
 74 33  1  0
 86 75  1  0
101 88  1  0
 14  5  1  0
 26 22  1  0
 32 28  1  0
 43 36  1  0
 51 44  1  0
 73 52  2  0
 80 76  1  0
 86 82  1  0
100 91  1  0
 64 57  1  0
 72 65  1  0
  1107  1  0
  6108  1  0
 11109  1  0
 11110  1  0
 11111  1  0
 12112  1  0
 13113  1  0
 37114  1  0
 38115  1  0
 41116  1  0
 41117  1  0
 41118  1  0
 42119  1  0
 43120  1  0
 45121  1  0
 46122  1  0
 49123  1  0
 49124  1  0
 49125  1  0
 50126  1  0
 51127  1  0
 58128  1  0
 59129  1  0
 62130  1  0
 62131  1  0
 62132  1  0
 63133  1  0
 64134  1  0
 66135  1  0
 67136  1  0
 70137  1  0
 70138  1  0
 70139  1  0
 71140  1  0
 72141  1  0
 87142  1  0
M  END

