
     RDKit          3D

205222  0  0  0  0  0  0  0  0999 V2000
   -1.4453   -6.5042   -0.0099 C   0  0  0  0  0  0  0  0  0  0  0  0
   -2.2762   -6.8777    0.9799 C   0  0  0  0  0  0  0  0  0  0  0  0
   -3.2722   -6.0055    1.6129 C   0  0  0  0  0  0  0  0  0  0  0  0
   -3.6356   -4.8650    1.2134 O   0  0  0  0  0  0  0  0  0  0  0  0
   -3.8052   -6.6838    2.7714 C   0  0  0  0  0  0  0  0  0  0  0  0
   -4.7344   -6.1983    3.6911 C   0  0  0  0  0  0  0  0  0  0  0  0
   -5.0940   -7.0118    4.7853 C   0  0  0  0  0  0  0  0  0  0  0  0
   -6.0619   -6.6285    5.7287 O   0  0  0  0  0  0  0  0  0  0  0  0
   -6.3928   -5.3112    6.0737 C   0  0  0  0  0  0  0  0  0  0  0  0
   -5.6260   -4.3492    5.7901 O   0  0  0  0  0  0  0  0  0  0  0  0
   -7.6161   -5.0588    6.8886 C   0  0  0  0  0  0  0  0  0  0  0  0
   -4.4955   -8.2804    4.9239 C   0  0  0  0  0  0  0  0  0  0  0  0
   -3.5571   -8.7436    3.9885 C   0  0  0  0  0  0  0  0  0  0  0  0
   -3.2362   -7.9376    2.8831 C   0  0  0  0  0  0  0  0  0  0  0  0
   -2.3212   -8.1812    1.7234 C   0  0  0  0  0  0  0  0  0  0  0  0
   -1.7888   -9.3750    1.3464 C   0  0  0  0  0  0  0  0  0  0  0  0
   -1.0216   -9.5480    0.1362 C   0  0  0  0  0  0  0  0  0  0  0  0
   -0.4190   -9.7040   -0.8365 N   0  0  0  0  0  0  0  0  0  0  0  0
   -2.0568  -10.6031    2.0494 C   0  0  0  0  0  0  0  0  0  0  0  0
   -2.2774  -11.6030    2.5905 N   0  0  0  0  0  0  0  0  0  0  0  0
   -1.3698   -5.1175   -0.4815 C   0  0  0  0  0  0  0  0  0  0  0  0
   -0.8746   -4.0493    0.2704 C   0  0  0  0  0  0  0  0  0  0  0  0
   -0.0969   -4.1972    1.4699 N   0  0  0  0  0  0  0  0  0  0  0  0
    1.3360   -4.3780    1.3749 C   0  0  0  0  0  0  0  0  0  0  0  0
    2.1939   -3.7669    2.3106 C   0  0  0  0  0  0  0  0  0  0  0  0
    3.5780   -3.9663    2.2384 C   0  0  0  0  0  0  0  0  0  0  0  0
    4.1222   -4.7758    1.2342 C   0  0  0  0  0  0  0  0  0  0  0  0
    5.8868   -5.0965    1.1840 S   0  0  0  0  0  0  0  0  0  0  0  0
    6.2051   -3.8535   -0.1070 C   0  0  0  0  0  0  0  0  0  0  0  0
    3.2781   -5.3733    0.2891 C   0  0  0  0  0  0  0  0  0  0  0  0
    1.8982   -5.1602    0.3473 C   0  0  0  0  0  0  0  0  0  0  0  0
   -0.7426   -4.1829    2.7547 C   0  0  0  0  0  0  0  0  0  0  0  0
   -1.6154   -3.1414    3.1143 C   0  0  0  0  0  0  0  0  0  0  0  0
   -2.2042   -3.1186    4.3830 C   0  0  0  0  0  0  0  0  0  0  0  0
   -1.9239   -4.1381    5.2990 C   0  0  0  0  0  0  0  0  0  0  0  0
   -2.6334   -4.0899    6.9468 S   0  0  0  0  0  0  0  0  0  0  0  0
   -1.3514   -2.9783    7.6142 C   0  0  0  0  0  0  0  0  0  0  0  0
   -1.0729   -5.1865    4.9416 C   0  0  0  0  0  0  0  0  0  0  0  0
   -0.4873   -5.2096    3.6777 C   0  0  0  0  0  0  0  0  0  0  0  0
   -0.9531   -2.8703   -0.4447 C   0  0  0  0  0  0  0  0  0  0  0  0
   -0.5831   -1.2953   -0.0807 S   0  0  0  0  0  0  0  0  0  0  0  0
   -1.0834   -0.6985   -1.5965 C   0  0  0  0  0  0  0  0  0  0  0  0
   -1.4312   -1.7645   -2.4517 C   0  0  0  0  0  0  0  0  0  0  0  0
   -1.1530   -1.7222   -3.8601 N   0  0  0  0  0  0  0  0  0  0  0  0
    0.2058   -1.9374   -4.2937 C   0  0  0  0  0  0  0  0  0  0  0  0
    0.9695   -0.8706   -4.7983 C   0  0  0  0  0  0  0  0  0  0  0  0
    2.3496   -1.0096   -4.9802 C   0  0  0  0  0  0  0  0  0  0  0  0
    2.9770   -2.2249   -4.6788 C   0  0  0  0  0  0  0  0  0  0  0  0
    4.7574   -2.3678   -4.7751 S   0  0  0  0  0  0  0  0  0  0  0  0
    5.0012   -1.8054   -3.0611 C   0  0  0  0  0  0  0  0  0  0  0  0
    2.2119   -3.3179   -4.2640 C   0  0  0  0  0  0  0  0  0  0  0  0
    0.8317   -3.1762   -4.0790 C   0  0  0  0  0  0  0  0  0  0  0  0
   -2.2108   -1.6384   -4.8212 C   0  0  0  0  0  0  0  0  0  0  0  0
   -3.0357   -2.7460   -5.0637 C   0  0  0  0  0  0  0  0  0  0  0  0
   -3.9787   -2.7131   -6.0963 C   0  0  0  0  0  0  0  0  0  0  0  0
   -4.0888   -1.5738   -6.9029 C   0  0  0  0  0  0  0  0  0  0  0  0
   -5.2040   -1.5799   -8.3082 S   0  0  0  0  0  0  0  0  0  0  0  0
   -3.9510   -2.2871   -9.4291 C   0  0  0  0  0  0  0  0  0  0  0  0
   -3.3009   -0.4485   -6.6406 C   0  0  0  0  0  0  0  0  0  0  0  0
   -2.3627   -0.4813   -5.6021 C   0  0  0  0  0  0  0  0  0  0  0  0
   -1.4234   -2.9653   -1.7181 C   0  0  0  0  0  0  0  0  0  0  0  0
   -1.8057   -4.5757   -2.0369 S   0  0  0  0  0  0  0  0  0  0  0  0
   -1.2951    0.7386   -1.8211 C   0  0  0  0  0  0  0  0  0  0  0  0
   -1.7803    1.5861   -0.8008 C   0  0  0  0  0  0  0  0  0  0  0  0
   -2.6402    1.1395    0.2649 N   0  0  0  0  0  0  0  0  0  0  0  0
   -2.4887    1.6373    1.5995 C   0  0  0  0  0  0  0  0  0  0  0  0
   -1.5327    1.0754    2.4666 C   0  0  0  0  0  0  0  0  0  0  0  0
   -1.4318    1.5305    3.7854 C   0  0  0  0  0  0  0  0  0  0  0  0
   -2.2592    2.5640    4.2363 C   0  0  0  0  0  0  0  0  0  0  0  0
   -2.0840    3.1765    5.9143 S   0  0  0  0  0  0  0  0  0  0  0  0
   -3.4897    2.2054    6.5658 C   0  0  0  0  0  0  0  0  0  0  0  0
   -3.1984    3.1355    3.3726 C   0  0  0  0  0  0  0  0  0  0  0  0
   -3.3296    2.6597    2.0670 C   0  0  0  0  0  0  0  0  0  0  0  0
   -3.8585    0.4595   -0.0770 C   0  0  0  0  0  0  0  0  0  0  0  0
   -4.8487    1.1166   -0.8319 C   0  0  0  0  0  0  0  0  0  0  0  0
   -6.0774    0.5005   -1.0786 C   0  0  0  0  0  0  0  0  0  0  0  0
   -6.3173   -0.7952   -0.6042 C   0  0  0  0  0  0  0  0  0  0  0  0
   -7.9102   -1.5776   -0.8684 S   0  0  0  0  0  0  0  0  0  0  0  0
   -7.5567   -2.0315   -2.6008 C   0  0  0  0  0  0  0  0  0  0  0  0
   -5.3222   -1.4646    0.1234 C   0  0  0  0  0  0  0  0  0  0  0  0
   -4.1010   -0.8390    0.3892 C   0  0  0  0  0  0  0  0  0  0  0  0
   -1.3480    2.8985   -0.9732 C   0  0  0  0  0  0  0  0  0  0  0  0
   -1.1267    4.1762    0.0868 S   0  0  0  0  0  0  0  0  0  0  0  0
   -0.0729    5.0471   -0.9234 C   0  0  0  0  0  0  0  0  0  0  0  0
    0.0870    4.3181   -2.1187 C   0  0  0  0  0  0  0  0  0  0  0  0
    0.7668    4.8042   -3.2874 N   0  0  0  0  0  0  0  0  0  0  0  0
    0.0016    5.1831   -4.4607 C   0  0  0  0  0  0  0  0  0  0  0  0
    0.6086    5.2621   -5.7351 C   0  0  0  0  0  0  0  0  0  0  0  0
   -0.1490    5.5800   -6.8671 C   0  0  0  0  0  0  0  0  0  0  0  0
   -1.5232    5.8143   -6.7497 C   0  0  0  0  0  0  0  0  0  0  0  0
   -2.5058    6.2063   -8.1967 S   0  0  0  0  0  0  0  0  0  0  0  0
   -2.8854    4.4620   -8.5667 C   0  0  0  0  0  0  0  0  0  0  0  0
   -2.1331    5.7699   -5.4927 C   0  0  0  0  0  0  0  0  0  0  0  0
   -1.3813    5.4591   -4.3594 C   0  0  0  0  0  0  0  0  0  0  0  0
    2.1996    4.7752   -3.3192 C   0  0  0  0  0  0  0  0  0  0  0  0
    2.9298    5.9738   -3.2404 C   0  0  0  0  0  0  0  0  0  0  0  0
    4.3255    5.9408   -3.2360 C   0  0  0  0  0  0  0  0  0  0  0  0
    5.0020    4.7109   -3.3424 C   0  0  0  0  0  0  0  0  0  0  0  0
    6.7935    4.6617   -3.3345 S   0  0  0  0  0  0  0  0  0  0  0  0
    6.8868    4.2903   -1.5549 C   0  0  0  0  0  0  0  0  0  0  0  0
    4.2735    3.5203   -3.4514 C   0  0  0  0  0  0  0  0  0  0  0  0
    2.8805    3.5493   -3.4276 C   0  0  0  0  0  0  0  0  0  0  0  0
   -0.6218    3.1195   -2.0973 C   0  0  0  0  0  0  0  0  0  0  0  0
   -0.4004    1.6755   -2.9285 S   0  0  0  0  0  0  0  0  0  0  0  0
    0.9971    5.8597   -0.3273 C   0  0  0  0  0  0  0  0  0  0  0  0
    2.2591    5.2652   -0.1494 C   0  0  0  0  0  0  0  0  0  0  0  0
    3.2724    5.9151    0.5529 C   0  0  0  0  0  0  0  0  0  0  0  0
    4.4767    5.3024    0.6875 F   0  0  0  0  0  0  0  0  0  0  0  0
    3.0417    7.1716    1.1417 C   0  0  0  0  0  0  0  0  0  0  0  0
    1.7903    7.7788    0.9819 C   0  0  0  0  0  0  0  0  0  0  0  0
    0.7566    7.1141    0.2537 C   0  0  0  0  0  0  0  0  0  0  0  0
   -0.4415    7.7492    0.1859 N   0  0  0  0  0  0  0  0  0  0  0  0
   -0.1000    9.1239    1.0365 S   0  0  0  0  0  0  0  0  0  0  0  0
    1.4788    8.9861    1.5170 N   0  0  0  0  0  0  0  0  0  0  0  0
    4.1296    7.8174    1.8986 C   0  0  0  0  0  0  0  0  0  0  0  0
    4.6478    7.2561    3.0119 C   0  0  0  0  0  0  0  0  0  0  0  0
    4.0605    6.1039    3.7083 C   0  0  0  0  0  0  0  0  0  0  0  0
    2.8735    5.6865    3.5974 O   0  0  0  0  0  0  0  0  0  0  0  0
    5.0588    5.5238    4.5699 C   0  0  0  0  0  0  0  0  0  0  0  0
    4.9380    4.3704    5.3453 C   0  0  0  0  0  0  0  0  0  0  0  0
    6.0586    3.9215    6.0713 C   0  0  0  0  0  0  0  0  0  0  0  0
    6.0167    2.7839    6.8975 O   0  0  0  0  0  0  0  0  0  0  0  0
    5.0846    1.7460    6.8028 C   0  0  0  0  0  0  0  0  0  0  0  0
    4.4999    1.4954    5.7141 O   0  0  0  0  0  0  0  0  0  0  0  0
    4.8492    0.8650    7.9762 C   0  0  0  0  0  0  0  0  0  0  0  0
    7.2540    4.6632    6.0103 C   0  0  0  0  0  0  0  0  0  0  0  0
    7.3470    5.8264    5.2271 C   0  0  0  0  0  0  0  0  0  0  0  0
    6.2298    6.2569    4.4970 C   0  0  0  0  0  0  0  0  0  0  0  0
    6.0288    7.4351    3.5846 C   0  0  0  0  0  0  0  0  0  0  0  0
    6.9133    8.4399    3.3293 C   0  0  0  0  0  0  0  0  0  0  0  0
    8.2790    8.4175    3.8011 C   0  0  0  0  0  0  0  0  0  0  0  0
    9.3774    8.4259    4.1744 N   0  0  0  0  0  0  0  0  0  0  0  0
    6.5721    9.5807    2.5194 C   0  0  0  0  0  0  0  0  0  0  0  0
    6.2964   10.4730    1.8431 N   0  0  0  0  0  0  0  0  0  0  0  0
   -0.7295   -7.1715   -0.4384 H   0  0  0  0  0  0  0  0  0  0  0  0
   -5.1867   -5.2289    3.5386 H   0  0  0  0  0  0  0  0  0  0  0  0
   -8.4405   -5.7145    6.5383 H   0  0  0  0  0  0  0  0  0  0  0  0
   -7.3980   -5.2821    7.9549 H   0  0  0  0  0  0  0  0  0  0  0  0
   -7.9359   -4.0004    6.7930 H   0  0  0  0  0  0  0  0  0  0  0  0
   -4.7510   -8.9040    5.7721 H   0  0  0  0  0  0  0  0  0  0  0  0
   -3.0912   -9.6992    4.1622 H   0  0  0  0  0  0  0  0  0  0  0  0
    1.7947   -3.1424    3.1013 H   0  0  0  0  0  0  0  0  0  0  0  0
    4.2260   -3.5020    2.9738 H   0  0  0  0  0  0  0  0  0  0  0  0
    5.8907   -2.8463    0.2376 H   0  0  0  0  0  0  0  0  0  0  0  0
    5.6535   -4.1239   -1.0324 H   0  0  0  0  0  0  0  0  0  0  0  0
    7.2917   -3.8350   -0.3322 H   0  0  0  0  0  0  0  0  0  0  0  0
    3.6876   -5.9980   -0.4953 H   0  0  0  0  0  0  0  0  0  0  0  0
    1.2745   -5.6364   -0.3921 H   0  0  0  0  0  0  0  0  0  0  0  0
   -1.7995   -2.3249    2.4322 H   0  0  0  0  0  0  0  0  0  0  0  0
   -2.8579   -2.3019    4.6554 H   0  0  0  0  0  0  0  0  0  0  0  0
   -0.3395   -3.2932    7.2793 H   0  0  0  0  0  0  0  0  0  0  0  0
   -1.5539   -1.9369    7.2860 H   0  0  0  0  0  0  0  0  0  0  0  0
   -1.3882   -3.0081    8.7240 H   0  0  0  0  0  0  0  0  0  0  0  0
   -0.8637   -5.9795    5.6448 H   0  0  0  0  0  0  0  0  0  0  0  0
    0.1704   -6.0324    3.4113 H   0  0  0  0  0  0  0  0  0  0  0  0
    0.5136    0.0850   -4.9994 H   0  0  0  0  0  0  0  0  0  0  0  0
    2.9350   -0.1613   -5.3119 H   0  0  0  0  0  0  0  0  0  0  0  0
    4.7042   -0.7400   -2.9721 H   0  0  0  0  0  0  0  0  0  0  0  0
    6.0707   -1.9131   -2.7895 H   0  0  0  0  0  0  0  0  0  0  0  0
    4.3916   -2.4226   -2.3659 H   0  0  0  0  0  0  0  0  0  0  0  0
    2.6879   -4.2678   -4.0478 H   0  0  0  0  0  0  0  0  0  0  0  0
    0.2661   -4.0261   -3.7330 H   0  0  0  0  0  0  0  0  0  0  0  0
   -2.9172   -3.6521   -4.4906 H   0  0  0  0  0  0  0  0  0  0  0  0
   -4.5844   -3.5847   -6.2960 H   0  0  0  0  0  0  0  0  0  0  0  0
   -3.0634   -1.6217   -9.4876 H   0  0  0  0  0  0  0  0  0  0  0  0
   -4.3920   -2.3924  -10.4430 H   0  0  0  0  0  0  0  0  0  0  0  0
   -3.6404   -3.2919   -9.0663 H   0  0  0  0  0  0  0  0  0  0  0  0
   -3.3868    0.4404   -7.2586 H   0  0  0  0  0  0  0  0  0  0  0  0
   -1.7468    0.3867   -5.4220 H   0  0  0  0  0  0  0  0  0  0  0  0
   -0.8894    0.2781    2.1401 H   0  0  0  0  0  0  0  0  0  0  0  0
   -0.7064    1.0831    4.4547 H   0  0  0  0  0  0  0  0  0  0  0  0
   -3.5225    1.1750    6.1442 H   0  0  0  0  0  0  0  0  0  0  0  0
   -4.4386    2.7332    6.3282 H   0  0  0  0  0  0  0  0  0  0  0  0
   -3.3921    2.1313    7.6694 H   0  0  0  0  0  0  0  0  0  0  0  0
   -3.8497    3.9304    3.7193 H   0  0  0  0  0  0  0  0  0  0  0  0
   -4.0794    3.0938    1.4166 H   0  0  0  0  0  0  0  0  0  0  0  0
   -4.6768    2.1140   -1.2023 H   0  0  0  0  0  0  0  0  0  0  0  0
   -6.8411    1.0329   -1.6303 H   0  0  0  0  0  0  0  0  0  0  0  0
   -7.5742   -1.1211   -3.2381 H   0  0  0  0  0  0  0  0  0  0  0  0
   -6.5672   -2.5323   -2.6915 H   0  0  0  0  0  0  0  0  0  0  0  0
   -8.3443   -2.7277   -2.9583 H   0  0  0  0  0  0  0  0  0  0  0  0
   -5.5051   -2.4602    0.5033 H   0  0  0  0  0  0  0  0  0  0  0  0
   -3.3599   -1.3502    0.9864 H   0  0  0  0  0  0  0  0  0  0  0  0
    1.6638    5.0534   -5.8622 H   0  0  0  0  0  0  0  0  0  0  0  0
    0.3283    5.6287   -7.8373 H   0  0  0  0  0  0  0  0  0  0  0  0
   -3.6284    4.4192   -9.3894 H   0  0  0  0  0  0  0  0  0  0  0  0
   -1.9618    3.9319   -8.8830 H   0  0  0  0  0  0  0  0  0  0  0  0
   -3.3199    3.9525   -7.6800 H   0  0  0  0  0  0  0  0  0  0  0  0
   -3.1906    5.9831   -5.3912 H   0  0  0  0  0  0  0  0  0  0  0  0
   -1.8771    5.4534   -3.4032 H   0  0  0  0  0  0  0  0  0  0  0  0
    2.4106    6.9199   -3.1630 H   0  0  0  0  0  0  0  0  0  0  0  0
    4.8850    6.8663   -3.1606 H   0  0  0  0  0  0  0  0  0  0  0  0
    7.9501    4.1645   -1.2653 H   0  0  0  0  0  0  0  0  0  0  0  0
    6.3460    3.3453   -1.3317 H   0  0  0  0  0  0  0  0  0  0  0  0
    6.4511    5.1287   -0.9732 H   0  0  0  0  0  0  0  0  0  0  0  0
    4.7943    2.5733   -3.5383 H   0  0  0  0  0  0  0  0  0  0  0  0
    2.3290    2.6263   -3.5001 H   0  0  0  0  0  0  0  0  0  0  0  0
    2.4501    4.2740   -0.5403 H   0  0  0  0  0  0  0  0  0  0  0  0
    4.6064    8.6304    1.3956 H   0  0  0  0  0  0  0  0  0  0  0  0
    3.9921    3.8595    5.3881 H   0  0  0  0  0  0  0  0  0  0  0  0
    3.7622    0.6962    8.1103 H   0  0  0  0  0  0  0  0  0  0  0  0
    5.3552   -0.1136    7.8196 H   0  0  0  0  0  0  0  0  0  0  0  0
    5.2541    1.3412    8.8952 H   0  0  0  0  0  0  0  0  0  0  0  0
    8.1168    4.3402    6.5837 H   0  0  0  0  0  0  0  0  0  0  0  0
    8.2823    6.3501    5.2206 H   0  0  0  0  0  0  0  0  0  0  0  0
  1  2  2  3
  2  3  1  0
  3  4  2  0
  3  5  1  0
  5  6  2  0
  6  7  1  0
  7  8  1  0
  8  9  1  0
  9 10  2  0
  9 11  1  0
  7 12  2  0
 12 13  1  0
 13 14  2  0
 14 15  1  0
 15 16  2  3
 16 17  1  0
 17 18  3  0
 16 19  1  0
 19 20  3  0
  1 21  1  0
 21 22  2  0
 22 23  1  0
 23 24  1  0
 24 25  2  0
 25 26  1  0
 26 27  2  0
 27 28  1  0
 28 29  1  0
 27 30  1  0
 30 31  2  0
 23 32  1  0
 32 33  2  0
 33 34  1  0
 34 35  2  0
 35 36  1  0
 36 37  1  0
 35 38  1  0
 38 39  2  0
 22 40  1  0
 40 41  1  0
 41 42  1  0
 42 43  2  0
 43 44  1  0
 44 45  1  0
 45 46  2  0
 46 47  1  0
 47 48  2  0
 48 49  1  0
 49 50  1  0
 48 51  1  0
 51 52  2  0
 44 53  1  0
 53 54  2  0
 54 55  1  0
 55 56  2  0
 56 57  1  0
 57 58  1  0
 56 59  1  0
 59 60  2  0
 43 61  1  0
 61 62  1  0
 42 63  1  0
 63 64  2  0
 64 65  1  0
 65 66  1  0
 66 67  2  0
 67 68  1  0
 68 69  2  0
 69 70  1  0
 70 71  1  0
 69 72  1  0
 72 73  2  0
 65 74  1  0
 74 75  2  0
 75 76  1  0
 76 77  2  0
 77 78  1  0
 78 79  1  0
 77 80  1  0
 80 81  2  0
 64 82  1  0
 82 83  1  0
 83 84  1  0
 84 85  2  0
 85 86  1  0
 86 87  1  0
 87 88  2  0
 88 89  1  0
 89 90  2  0
 90 91  1  0
 91 92  1  0
 90 93  1  0
 93 94  2  0
 86 95  1  0
 95 96  2  0
 96 97  1  0
 97 98  2  0
 98 99  1  0
 99100  1  0
 98101  1  0
101102  2  0
 85103  1  0
103104  1  0
 84105  1  0
105106  2  0
106107  1  0
107108  1  0
107109  2  0
109110  1  0
110111  1  0
111112  2  0
112113  1  0
113114  1  0
109115  1  0
115116  2  3
116117  1  0
117118  2  0
117119  1  0
119120  2  0
120121  1  0
121122  1  0
122123  1  0
123124  2  0
123125  1  0
121126  2  0
126127  1  0
127128  2  0
128129  1  0
129130  2  3
130131  1  0
131132  3  0
130133  1  0
133134  3  0
 15  2  1  0
 62 21  1  0
104 63  1  0
111105  1  0
129116  1  0
 14  5  1  0
 31 24  1  0
 39 32  1  0
 61 40  2  0
 73 66  1  0
 81 74  1  0
103 82  2  0
114110  2  0
128119  1  0
 52 45  1  0
 60 53  1  0
 94 87  1  0
102 95  1  0
  1135  1  0
  6136  1  0
 11137  1  0
 11138  1  0
 11139  1  0
 12140  1  0
 13141  1  0
 25142  1  0
 26143  1  0
 29144  1  0
 29145  1  0
 29146  1  0
 30147  1  0
 31148  1  0
 33149  1  0
 34150  1  0
 37151  1  0
 37152  1  0
 37153  1  0
 38154  1  0
 39155  1  0
 46156  1  0
 47157  1  0
 50158  1  0
 50159  1  0
 50160  1  0
 51161  1  0
 52162  1  0
 54163  1  0
 55164  1  0
 58165  1  0
 58166  1  0
 58167  1  0
 59168  1  0
 60169  1  0
 67170  1  0
 68171  1  0
 71172  1  0
 71173  1  0
 71174  1  0
 72175  1  0
 73176  1  0
 75177  1  0
 76178  1  0
 79179  1  0
 79180  1  0
 79181  1  0
 80182  1  0
 81183  1  0
 88184  1  0
 89185  1  0
 92186  1  0
 92187  1  0
 92188  1  0
 93189  1  0
 94190  1  0
 96191  1  0
 97192  1  0
100193  1  0
100194  1  0
100195  1  0
101196  1  0
102197  1  0
106198  1  0
115199  1  0
120200  1  0
125201  1  0
125202  1  0
125203  1  0
126204  1  0
127205  1  0
M  END

