
     RDKit          3D

208226  0  0  0  0  0  0  0  0999 V2000
    8.2427   -1.7195    3.4138 C   0  0  0  0  0  0  0  0  0  0  0  0
    8.4400   -0.4251    3.7427 C   0  0  0  0  0  0  0  0  0  0  0  0
    8.1318    0.6974    2.8565 C   0  0  0  0  0  0  0  0  0  0  0  0
    8.3456    0.7325    1.6160 O   0  0  0  0  0  0  0  0  0  0  0  0
    7.5006    1.7422    3.6296 C   0  0  0  0  0  0  0  0  0  0  0  0
    6.7941    2.8421    3.1514 C   0  0  0  0  0  0  0  0  0  0  0  0
    6.0297    3.5940    4.0572 C   0  0  0  0  0  0  0  0  0  0  0  0
    5.2549    4.6734    3.6064 C   0  0  0  0  0  0  0  0  0  0  0  0
    4.4368    5.3687    4.4980 C   0  0  0  0  0  0  0  0  0  0  0  0
    4.3831    4.9950    5.8435 C   0  0  0  0  0  0  0  0  0  0  0  0
    5.1515    3.9249    6.3113 C   0  0  0  0  0  0  0  0  0  0  0  0
    5.9810    3.2157    5.4306 C   0  0  0  0  0  0  0  0  0  0  0  0
    6.7185    2.1003    5.8843 C   0  0  0  0  0  0  0  0  0  0  0  0
    7.5000    1.3795    4.9668 C   0  0  0  0  0  0  0  0  0  0  0  0
    8.2371    0.0974    5.1261 C   0  0  0  0  0  0  0  0  0  0  0  0
    8.7384   -0.4235    6.2693 C   0  0  0  0  0  0  0  0  0  0  0  0
    8.4942    0.1707    7.5564 C   0  0  0  0  0  0  0  0  0  0  0  0
    8.2860    0.6375    8.5991 N   0  0  0  0  0  0  0  0  0  0  0  0
    9.6207   -1.5621    6.2573 C   0  0  0  0  0  0  0  0  0  0  0  0
   10.3342   -2.4777    6.2410 N   0  0  0  0  0  0  0  0  0  0  0  0
    7.3193   -2.1318    2.3345 C   0  0  0  0  0  0  0  0  0  0  0  0
    7.1524   -3.4242    1.8507 C   0  0  0  0  0  0  0  0  0  0  0  0
    5.9693   -3.6097    1.1041 C   0  0  0  0  0  0  0  0  0  0  0  0
    5.6541   -5.1633    0.2624 S   0  0  0  0  0  0  0  0  0  0  0  0
    4.5147   -5.8428    1.5113 C   0  0  0  0  0  0  0  0  0  0  0  0
    5.2738   -6.6154    2.5803 C   0  0  0  0  0  0  0  0  0  0  0  0
    5.1513   -2.4720    1.0510 C   0  0  0  0  0  0  0  0  0  0  0  0
    5.9688   -1.2616    1.8672 S   0  0  0  0  0  0  0  0  0  0  0  0
    3.7753   -2.3102    0.5065 C   0  0  0  0  0  0  0  0  0  0  0  0
    2.9640   -1.1563    0.6348 C   0  0  0  0  0  0  0  0  0  0  0  0
    3.1864   -0.0722    1.5696 N   0  0  0  0  0  0  0  0  0  0  0  0
    3.0454    1.2703    1.0681 C   0  0  0  0  0  0  0  0  0  0  0  0
    3.9850    1.7932    0.1652 C   0  0  0  0  0  0  0  0  0  0  0  0
    3.8141    3.0798   -0.3590 C   0  0  0  0  0  0  0  0  0  0  0  0
    2.6970    3.8440    0.0016 C   0  0  0  0  0  0  0  0  0  0  0  0
    2.4262    5.4532   -0.7384 S   0  0  0  0  0  0  0  0  0  0  0  0
    3.1707    6.3605    0.6529 C   0  0  0  0  0  0  0  0  0  0  0  0
    1.7676    3.3320    0.9142 C   0  0  0  0  0  0  0  0  0  0  0  0
    1.9499    2.0587    1.4592 C   0  0  0  0  0  0  0  0  0  0  0  0
    3.2006   -0.3110    3.0073 C   0  0  0  0  0  0  0  0  0  0  0  0
    3.5486    0.7219    3.9065 C   0  0  0  0  0  0  0  0  0  0  0  0
    3.5997    0.4885    5.2814 C   0  0  0  0  0  0  0  0  0  0  0  0
    3.3490   -0.7863    5.7906 C   0  0  0  0  0  0  0  0  0  0  0  0
    3.4961   -1.0968    7.5482 S   0  0  0  0  0  0  0  0  0  0  0  0
    1.7290   -0.8114    7.8816 C   0  0  0  0  0  0  0  0  0  0  0  0
    3.0113   -1.8281    4.9139 C   0  0  0  0  0  0  0  0  0  0  0  0
    2.9093   -1.5853    3.5432 C   0  0  0  0  0  0  0  0  0  0  0  0
    1.7184   -1.3489    0.0478 C   0  0  0  0  0  0  0  0  0  0  0  0
    0.3266   -0.4300    0.0172 S   0  0  0  0  0  0  0  0  0  0  0  0
   -0.6398   -1.6749   -0.5978 C   0  0  0  0  0  0  0  0  0  0  0  0
    0.1138   -2.8564   -0.7142 C   0  0  0  0  0  0  0  0  0  0  0  0
   -0.4767   -4.1692   -0.6385 N   0  0  0  0  0  0  0  0  0  0  0  0
    0.1342   -5.2867   -1.3115 C   0  0  0  0  0  0  0  0  0  0  0  0
    0.6667   -5.1346   -2.6032 C   0  0  0  0  0  0  0  0  0  0  0  0
    1.1893   -6.2319   -3.2945 C   0  0  0  0  0  0  0  0  0  0  0  0
    1.2084   -7.4967   -2.6898 C   0  0  0  0  0  0  0  0  0  0  0  0
    1.7946   -8.9226   -3.6043 S   0  0  0  0  0  0  0  0  0  0  0  0
    0.1372   -9.3356   -4.2306 C   0  0  0  0  0  0  0  0  0  0  0  0
    0.7338   -7.6506   -1.3823 C   0  0  0  0  0  0  0  0  0  0  0  0
    0.1963   -6.5554   -0.6987 C   0  0  0  0  0  0  0  0  0  0  0  0
   -1.5693   -4.3898    0.2841 C   0  0  0  0  0  0  0  0  0  0  0  0
   -2.6827   -5.1543   -0.1008 C   0  0  0  0  0  0  0  0  0  0  0  0
   -3.7620   -5.3198    0.7726 C   0  0  0  0  0  0  0  0  0  0  0  0
   -3.7268   -4.7481    2.0503 C   0  0  0  0  0  0  0  0  0  0  0  0
   -5.1127   -4.9619    3.1734 S   0  0  0  0  0  0  0  0  0  0  0  0
   -5.9036   -3.3975    2.6876 C   0  0  0  0  0  0  0  0  0  0  0  0
   -2.6045   -4.0182    2.4559 C   0  0  0  0  0  0  0  0  0  0  0  0
   -1.5330   -3.8380    1.5777 C   0  0  0  0  0  0  0  0  0  0  0  0
    1.4562   -2.5999   -0.4110 C   0  0  0  0  0  0  0  0  0  0  0  0
    2.8244   -3.5397   -0.2047 S   0  0  0  0  0  0  0  0  0  0  0  0
   -2.0299   -1.4456   -0.9907 C   0  0  0  0  0  0  0  0  0  0  0  0
   -2.4460   -1.3582   -2.3278 C   0  0  0  0  0  0  0  0  0  0  0  0
   -1.7838   -1.9640   -3.4560 N   0  0  0  0  0  0  0  0  0  0  0  0
   -0.5193   -1.4504   -3.9432 C   0  0  0  0  0  0  0  0  0  0  0  0
    0.2521   -2.1946   -4.8602 C   0  0  0  0  0  0  0  0  0  0  0  0
    1.3783   -1.6321   -5.4659 C   0  0  0  0  0  0  0  0  0  0  0  0
    1.7437   -0.3142   -5.1771 C   0  0  0  0  0  0  0  0  0  0  0  0
    3.0661    0.4774   -6.1008 S   0  0  0  0  0  0  0  0  0  0  0  0
    1.9283    1.1850   -7.3343 C   0  0  0  0  0  0  0  0  0  0  0  0
    1.0294    0.4155   -4.2207 C   0  0  0  0  0  0  0  0  0  0  0  0
   -0.0914   -0.1484   -3.6079 C   0  0  0  0  0  0  0  0  0  0  0  0
   -2.6251   -2.7720   -4.3116 C   0  0  0  0  0  0  0  0  0  0  0  0
   -3.4205   -3.7868   -3.7519 C   0  0  0  0  0  0  0  0  0  0  0  0
   -4.3455   -4.4802   -4.5360 C   0  0  0  0  0  0  0  0  0  0  0  0
   -4.4983   -4.1614   -5.8900 C   0  0  0  0  0  0  0  0  0  0  0  0
   -5.7239   -5.0182   -6.8830 S   0  0  0  0  0  0  0  0  0  0  0  0
   -7.0600   -3.8596   -6.4492 C   0  0  0  0  0  0  0  0  0  0  0  0
   -3.7069   -3.1573   -6.4603 C   0  0  0  0  0  0  0  0  0  0  0  0
   -2.7762   -2.4649   -5.6773 C   0  0  0  0  0  0  0  0  0  0  0  0
   -3.4969   -0.4553   -2.4853 C   0  0  0  0  0  0  0  0  0  0  0  0
   -3.9583    0.4339   -3.8174 S   0  0  0  0  0  0  0  0  0  0  0  0
   -4.7986    1.6030   -2.9217 C   0  0  0  0  0  0  0  0  0  0  0  0
   -4.7478    1.2859   -1.5467 C   0  0  0  0  0  0  0  0  0  0  0  0
   -5.2560    2.1353   -0.4881 N   0  0  0  0  0  0  0  0  0  0  0  0
   -4.8479    1.9347    0.8723 C   0  0  0  0  0  0  0  0  0  0  0  0
   -5.5110    0.9883    1.6693 C   0  0  0  0  0  0  0  0  0  0  0  0
   -5.0069    0.6557    2.9298 C   0  0  0  0  0  0  0  0  0  0  0  0
   -3.8339    1.2644    3.3967 C   0  0  0  0  0  0  0  0  0  0  0  0
   -3.1318    0.7460    4.9653 S   0  0  0  0  0  0  0  0  0  0  0  0
   -1.9784   -0.4403    4.2026 C   0  0  0  0  0  0  0  0  0  0  0  0
   -3.1986    2.2441    2.6247 C   0  0  0  0  0  0  0  0  0  0  0  0
   -3.7083    2.5845    1.3669 C   0  0  0  0  0  0  0  0  0  0  0  0
   -6.3876    2.9831   -0.7140 C   0  0  0  0  0  0  0  0  0  0  0  0
   -6.2294    4.3784   -0.7366 C   0  0  0  0  0  0  0  0  0  0  0  0
   -7.3384    5.2066   -0.9453 C   0  0  0  0  0  0  0  0  0  0  0  0
   -8.6121    4.6452   -1.1170 C   0  0  0  0  0  0  0  0  0  0  0  0
  -10.0489    5.7038   -1.2870 S   0  0  0  0  0  0  0  0  0  0  0  0
  -10.4293    5.6634    0.4929 C   0  0  0  0  0  0  0  0  0  0  0  0
   -8.7688    3.2518   -1.1061 C   0  0  0  0  0  0  0  0  0  0  0  0
   -7.6555    2.4256   -0.9288 C   0  0  0  0  0  0  0  0  0  0  0  0
   -3.9646    0.1317   -1.3512 C   0  0  0  0  0  0  0  0  0  0  0  0
   -3.0446   -0.4370   -0.0655 S   0  0  0  0  0  0  0  0  0  0  0  0
   -5.3537    2.8059   -3.5501 C   0  0  0  0  0  0  0  0  0  0  0  0
   -4.6007    3.6986   -4.2056 C   0  0  0  0  0  0  0  0  0  0  0  0
   -5.1000    4.5305   -5.3049 C   0  0  0  0  0  0  0  0  0  0  0  0
   -6.2907    4.5849   -5.7143 O   0  0  0  0  0  0  0  0  0  0  0  0
   -3.9728    5.2131   -5.9101 C   0  0  0  0  0  0  0  0  0  0  0  0
   -3.9297    6.0550   -7.0237 C   0  0  0  0  0  0  0  0  0  0  0  0
   -2.6859    6.5995   -7.4014 C   0  0  0  0  0  0  0  0  0  0  0  0
   -2.5862    7.4696   -8.4993 C   0  0  0  0  0  0  0  0  0  0  0  0
   -1.3496    8.0175   -8.8478 C   0  0  0  0  0  0  0  0  0  0  0  0
   -0.1975    7.6954   -8.1201 C   0  0  0  0  0  0  0  0  0  0  0  0
   -0.2711    6.8187   -7.0357 C   0  0  0  0  0  0  0  0  0  0  0  0
   -1.5055    6.2672   -6.6640 C   0  0  0  0  0  0  0  0  0  0  0  0
   -1.5913    5.3963   -5.5653 C   0  0  0  0  0  0  0  0  0  0  0  0
   -2.8393    4.8904   -5.1984 C   0  0  0  0  0  0  0  0  0  0  0  0
   -3.1295    3.9822   -4.0608 C   0  0  0  0  0  0  0  0  0  0  0  0
   -2.5715    4.1931   -2.8567 C   0  0  0  0  0  0  0  0  0  0  0  0
   -2.1272    3.1026   -2.0397 C   0  0  0  0  0  0  0  0  0  0  0  0
   -1.7397    2.2509   -1.3644 N   0  0  0  0  0  0  0  0  0  0  0  0
   -2.0524    5.4880   -2.4868 C   0  0  0  0  0  0  0  0  0  0  0  0
   -1.6516    6.5302   -2.1666 N   0  0  0  0  0  0  0  0  0  0  0  0
    8.4626   -2.4929    4.1357 H   0  0  0  0  0  0  0  0  0  0  0  0
    6.7943    3.0728    2.0908 H   0  0  0  0  0  0  0  0  0  0  0  0
    5.2797    4.9705    2.5652 H   0  0  0  0  0  0  0  0  0  0  0  0
    3.8358    6.1956    4.1445 H   0  0  0  0  0  0  0  0  0  0  0  0
    3.7323    5.5281    6.5244 H   0  0  0  0  0  0  0  0  0  0  0  0
    5.0858    3.6377    7.3570 H   0  0  0  0  0  0  0  0  0  0  0  0
    6.6167    1.7790    6.9111 H   0  0  0  0  0  0  0  0  0  0  0  0
    7.8665   -4.2206    2.0393 H   0  0  0  0  0  0  0  0  0  0  0  0
    3.8165   -6.5358    0.9969 H   0  0  0  0  0  0  0  0  0  0  0  0
    3.9094   -5.0410    1.9858 H   0  0  0  0  0  0  0  0  0  0  0  0
    5.8643   -5.9219    3.2083 H   0  0  0  0  0  0  0  0  0  0  0  0
    5.9509   -7.3574    2.1085 H   0  0  0  0  0  0  0  0  0  0  0  0
    4.5463   -7.1569    3.2215 H   0  0  0  0  0  0  0  0  0  0  0  0
    4.8334    1.2005   -0.1399 H   0  0  0  0  0  0  0  0  0  0  0  0
    4.5292    3.4659   -1.0712 H   0  0  0  0  0  0  0  0  0  0  0  0
    4.2553    6.1416    0.6952 H   0  0  0  0  0  0  0  0  0  0  0  0
    2.6847    6.0776    1.6098 H   0  0  0  0  0  0  0  0  0  0  0  0
    3.0347    7.4508    0.4942 H   0  0  0  0  0  0  0  0  0  0  0  0
    0.8976    3.9128    1.1980 H   0  0  0  0  0  0  0  0  0  0  0  0
    1.2260    1.6716    2.1622 H   0  0  0  0  0  0  0  0  0  0  0  0
    3.7937    1.7127    3.5489 H   0  0  0  0  0  0  0  0  0  0  0  0
    3.8559    1.3018    5.9493 H   0  0  0  0  0  0  0  0  0  0  0  0
    1.4427    0.2155    7.5745 H   0  0  0  0  0  0  0  0  0  0  0  0
    1.5480   -0.9220    8.9697 H   0  0  0  0  0  0  0  0  0  0  0  0
    1.1087   -1.5545    7.3402 H   0  0  0  0  0  0  0  0  0  0  0  0
    2.8277   -2.8232    5.2983 H   0  0  0  0  0  0  0  0  0  0  0  0
    2.6253   -2.4154    2.9107 H   0  0  0  0  0  0  0  0  0  0  0  0
    0.6542   -4.1640   -3.0698 H   0  0  0  0  0  0  0  0  0  0  0  0
    1.5581   -6.1036   -4.3028 H   0  0  0  0  0  0  0  0  0  0  0  0
   -0.2742   -8.4920   -4.8303 H   0  0  0  0  0  0  0  0  0  0  0  0
    0.2016  -10.2375   -4.8659 H   0  0  0  0  0  0  0  0  0  0  0  0
   -0.5417   -9.5520   -3.3789 H   0  0  0  0  0  0  0  0  0  0  0  0
    0.7596   -8.6203   -0.8999 H   0  0  0  0  0  0  0  0  0  0  0  0
   -0.1790   -6.6935    0.3065 H   0  0  0  0  0  0  0  0  0  0  0  0
   -2.7197   -5.6091   -1.0821 H   0  0  0  0  0  0  0  0  0  0  0  0
   -4.6240   -5.8979    0.4589 H   0  0  0  0  0  0  0  0  0  0  0  0
   -6.8980   -3.3266    3.1718 H   0  0  0  0  0  0  0  0  0  0  0  0
   -6.0407   -3.3585    1.5886 H   0  0  0  0  0  0  0  0  0  0  0  0
   -5.2796   -2.5448    3.0199 H   0  0  0  0  0  0  0  0  0  0  0  0
   -2.5615   -3.5908    3.4520 H   0  0  0  0  0  0  0  0  0  0  0  0
   -0.6768   -3.2654    1.9061 H   0  0  0  0  0  0  0  0  0  0  0  0
   -0.0434   -3.1974   -5.1427 H   0  0  0  0  0  0  0  0  0  0  0  0
    1.9310   -2.2041   -6.1989 H   0  0  0  0  0  0  0  0  0  0  0  0
    2.5039    1.7543   -8.0878 H   0  0  0  0  0  0  0  0  0  0  0  0
    1.3695    0.3740   -7.8505 H   0  0  0  0  0  0  0  0  0  0  0  0
    1.2148    1.8797   -6.8397 H   0  0  0  0  0  0  0  0  0  0  0  0
    1.3097    1.4374   -3.9934 H   0  0  0  0  0  0  0  0  0  0  0  0
   -0.6609    0.4552   -2.9237 H   0  0  0  0  0  0  0  0  0  0  0  0
   -3.3475   -4.0096   -2.6957 H   0  0  0  0  0  0  0  0  0  0  0  0
   -4.9631   -5.2482   -4.0859 H   0  0  0  0  0  0  0  0  0  0  0  0
   -6.7988   -2.8317   -6.7729 H   0  0  0  0  0  0  0  0  0  0  0  0
   -7.2381   -3.8725   -5.3537 H   0  0  0  0  0  0  0  0  0  0  0  0
   -7.9887   -4.1717   -6.9664 H   0  0  0  0  0  0  0  0  0  0  0  0
   -3.8220   -2.9023   -7.5079 H   0  0  0  0  0  0  0  0  0  0  0  0
   -2.2189   -1.6513   -6.1243 H   0  0  0  0  0  0  0  0  0  0  0  0
   -6.3837    0.4675    1.2927 H   0  0  0  0  0  0  0  0  0  0  0  0
   -5.5093   -0.0959    3.5241 H   0  0  0  0  0  0  0  0  0  0  0  0
   -2.4840   -1.0460    3.4215 H   0  0  0  0  0  0  0  0  0  0  0  0
   -1.5862   -1.1245    4.9810 H   0  0  0  0  0  0  0  0  0  0  0  0
   -1.1265    0.1102    3.7533 H   0  0  0  0  0  0  0  0  0  0  0  0
   -2.2903    2.7166    2.9793 H   0  0  0  0  0  0  0  0  0  0  0  0
   -3.1958    3.3143    0.7564 H   0  0  0  0  0  0  0  0  0  0  0  0
   -5.2543    4.8173   -0.5827 H   0  0  0  0  0  0  0  0  0  0  0  0
   -7.2062    6.2819   -0.9650 H   0  0  0  0  0  0  0  0  0  0  0  0
  -11.3343    6.2740    0.6882 H   0  0  0  0  0  0  0  0  0  0  0  0
  -10.6382    4.6221    0.8124 H   0  0  0  0  0  0  0  0  0  0  0  0
   -9.5811    6.0810    1.0767 H   0  0  0  0  0  0  0  0  0  0  0  0
   -9.7508    2.8120   -1.2298 H   0  0  0  0  0  0  0  0  0  0  0  0
   -7.7896    1.3525   -0.9174 H   0  0  0  0  0  0  0  0  0  0  0  0
   -6.4240    2.8374   -3.6554 H   0  0  0  0  0  0  0  0  0  0  0  0
   -4.8405    6.2770   -7.5754 H   0  0  0  0  0  0  0  0  0  0  0  0
   -3.4633    7.7317   -9.0778 H   0  0  0  0  0  0  0  0  0  0  0  0
   -1.2754    8.6983   -9.6931 H   0  0  0  0  0  0  0  0  0  0  0  0
    0.7502    8.1306   -8.3933 H   0  0  0  0  0  0  0  0  0  0  0  0
    0.6336    6.5737   -6.4954 H   0  0  0  0  0  0  0  0  0  0  0  0
   -0.7079    5.1187   -5.0004 H   0  0  0  0  0  0  0  0  0  0  0  0
  1  2  2  3
  2  3  1  0
  3  4  2  0
  3  5  1  0
  5  6  2  0
  6  7  1  0
  7  8  2  0
  8  9  1  0
  9 10  2  0
 10 11  1  0
 11 12  2  0
 12 13  1  0
 13 14  2  0
 14 15  1  0
 15 16  2  3
 16 17  1  0
 17 18  3  0
 16 19  1  0
 19 20  3  0
  1 21  1  0
 21 22  2  0
 22 23  1  0
 23 24  1  0
 24 25  1  0
 25 26  1  0
 23 27  2  0
 27 28  1  0
 27 29  1  0
 29 30  2  0
 30 31  1  0
 31 32  1  0
 32 33  2  0
 33 34  1  0
 34 35  2  0
 35 36  1  0
 36 37  1  0
 35 38  1  0
 38 39  2  0
 31 40  1  0
 40 41  2  0
 41 42  1  0
 42 43  2  0
 43 44  1  0
 44 45  1  0
 43 46  1  0
 46 47  2  0
 30 48  1  0
 48 49  1  0
 49 50  1  0
 50 51  2  0
 51 52  1  0
 52 53  1  0
 53 54  2  0
 54 55  1  0
 55 56  2  0
 56 57  1  0
 57 58  1  0
 56 59  1  0
 59 60  2  0
 52 61  1  0
 61 62  2  0
 62 63  1  0
 63 64  2  0
 64 65  1  0
 65 66  1  0
 64 67  1  0
 67 68  2  0
 51 69  1  0
 69 70  1  0
 50 71  1  0
 71 72  2  0
 72 73  1  0
 73 74  1  0
 74 75  2  0
 75 76  1  0
 76 77  2  0
 77 78  1  0
 78 79  1  0
 77 80  1  0
 80 81  2  0
 73 82  1  0
 82 83  2  0
 83 84  1  0
 84 85  2  0
 85 86  1  0
 86 87  1  0
 85 88  1  0
 88 89  2  0
 72 90  1  0
 90 91  1  0
 91 92  1  0
 92 93  2  0
 93 94  1  0
 94 95  1  0
 95 96  2  0
 96 97  1  0
 97 98  2  0
 98 99  1  0
 99100  1  0
 98101  1  0
101102  2  0
 94103  1  0
103104  2  0
104105  1  0
105106  2  0
106107  1  0
107108  1  0
106109  1  0
109110  2  0
 93111  1  0
111112  1  0
 92113  1  0
113114  2  3
114115  1  0
115116  2  0
115117  1  0
117118  2  0
118119  1  0
119120  2  0
120121  1  0
121122  2  0
122123  1  0
123124  2  0
124125  1  0
125126  2  0
126127  1  0
127128  2  3
128129  1  0
129130  3  0
128131  1  0
131132  3  0
 15  2  1  0
 28 21  1  0
 70 29  1  0
112 71  1  0
127114  1  0
 14  5  1  0
 39 32  1  0
 47 40  1  0
 69 48  2  0
 81 74  1  0
 89 82  1  0
111 90  2  0
126117  1  0
 12  7  1  0
 60 53  1  0
 68 61  1  0
102 95  1  0
110103  1  0
124119  1  0
  1133  1  0
  6134  1  0
  8135  1  0
  9136  1  0
 10137  1  0
 11138  1  0
 13139  1  0
 22140  1  0
 25141  1  0
 25142  1  0
 26143  1  0
 26144  1  0
 26145  1  0
 33146  1  0
 34147  1  0
 37148  1  0
 37149  1  0
 37150  1  0
 38151  1  0
 39152  1  0
 41153  1  0
 42154  1  0
 45155  1  0
 45156  1  0
 45157  1  0
 46158  1  0
 47159  1  0
 54160  1  0
 55161  1  0
 58162  1  0
 58163  1  0
 58164  1  0
 59165  1  0
 60166  1  0
 62167  1  0
 63168  1  0
 66169  1  0
 66170  1  0
 66171  1  0
 67172  1  0
 68173  1  0
 75174  1  0
 76175  1  0
 79176  1  0
 79177  1  0
 79178  1  0
 80179  1  0
 81180  1  0
 83181  1  0
 84182  1  0
 87183  1  0
 87184  1  0
 87185  1  0
 88186  1  0
 89187  1  0
 96188  1  0
 97189  1  0
100190  1  0
100191  1  0
100192  1  0
101193  1  0
102194  1  0
104195  1  0
105196  1  0
108197  1  0
108198  1  0
108199  1  0
109200  1  0
110201  1  0
113202  1  0
118203  1  0
120204  1  0
121205  1  0
122206  1  0
123207  1  0
125208  1  0
M  END

