
     RDKit          3D

214228  0  0  0  0  0  0  0  0999 V2000
    5.7694   -4.0726    5.3894 C   0  0  0  0  0  0  0  0  0  0  0  0
    6.6924   -5.0254    5.1309 C   0  0  0  0  0  0  0  0  0  0  0  0
    6.3800   -6.2729    4.4032 C   0  0  0  0  0  0  0  0  0  0  0  0
    5.1895   -6.6854    4.3421 O   0  0  0  0  0  0  0  0  0  0  0  0
    7.4410   -7.0605    3.8281 N   0  0  0  0  0  0  0  0  0  0  0  0
    7.1027   -8.0353    2.7743 C   0  0  0  0  0  0  0  0  0  0  0  0
    7.3006   -7.4159    1.3931 C   0  0  0  0  0  0  0  0  0  0  0  0
    8.8175   -6.7958    4.2000 C   0  0  0  0  0  0  0  0  0  0  0  0
   10.0179   -7.8104    3.6863 S   0  0  0  0  0  0  0  0  0  0  0  0
    9.1378   -5.6749    5.0652 N   0  0  0  0  0  0  0  0  0  0  0  0
   10.5307   -5.3519    5.4304 C   0  0  0  0  0  0  0  0  0  0  0  0
   10.9602   -6.1329    6.6708 C   0  0  0  0  0  0  0  0  0  0  0  0
    8.0803   -4.8536    5.6004 C   0  0  0  0  0  0  0  0  0  0  0  0
    8.3445   -3.9595    6.4561 O   0  0  0  0  0  0  0  0  0  0  0  0
    4.4401   -3.9796    4.7412 C   0  0  0  0  0  0  0  0  0  0  0  0
    3.2971   -3.6240    5.4872 C   0  0  0  0  0  0  0  0  0  0  0  0
    3.3337   -3.5454    6.8859 O   0  0  0  0  0  0  0  0  0  0  0  0
    3.6061   -4.6637    7.7271 C   0  0  0  0  0  0  0  0  0  0  0  0
    2.5250   -5.7275    7.5753 C   0  0  0  0  0  0  0  0  0  0  0  0
    2.0852   -3.3433    4.8334 C   0  0  0  0  0  0  0  0  0  0  0  0
    0.9640   -3.0362    5.6100 O   0  0  0  0  0  0  0  0  0  0  0  0
   -0.2027   -3.8510    5.5971 C   0  0  0  0  0  0  0  0  0  0  0  0
   -1.0922   -3.4939    6.7786 C   0  0  0  0  0  0  0  0  0  0  0  0
    2.0184   -3.3933    3.4245 C   0  0  0  0  0  0  0  0  0  0  0  0
    3.1470   -3.7890    2.6961 C   0  0  0  0  0  0  0  0  0  0  0  0
    4.3489   -4.0629    3.3436 C   0  0  0  0  0  0  0  0  0  0  0  0
    0.8733   -2.8472    2.6709 C   0  0  0  0  0  0  0  0  0  0  0  0
    0.4610   -1.5033    2.6836 C   0  0  0  0  0  0  0  0  0  0  0  0
    0.8281   -0.5284    3.6760 N   0  0  0  0  0  0  0  0  0  0  0  0
   -0.2276    0.1891    4.3653 C   0  0  0  0  0  0  0  0  0  0  0  0
   -1.4675   -0.4366    4.6058 C   0  0  0  0  0  0  0  0  0  0  0  0
   -2.5178    0.2629    5.2003 C   0  0  0  0  0  0  0  0  0  0  0  0
   -2.3438    1.6000    5.5775 C   0  0  0  0  0  0  0  0  0  0  0  0
   -3.7032    2.5013    6.3201 S   0  0  0  0  0  0  0  0  0  0  0  0
   -3.2977    1.9504    8.0056 C   0  0  0  0  0  0  0  0  0  0  0  0
   -1.1160    2.2327    5.3503 C   0  0  0  0  0  0  0  0  0  0  0  0
   -0.0703    1.5398    4.7370 C   0  0  0  0  0  0  0  0  0  0  0  0
    2.2205   -0.2113    3.8903 C   0  0  0  0  0  0  0  0  0  0  0  0
    2.7116    0.0387    5.1856 C   0  0  0  0  0  0  0  0  0  0  0  0
    4.0554    0.3725    5.3805 C   0  0  0  0  0  0  0  0  0  0  0  0
    4.9252    0.4519    4.2845 C   0  0  0  0  0  0  0  0  0  0  0  0
    6.6310    0.9482    4.5210 S   0  0  0  0  0  0  0  0  0  0  0  0
    7.2311   -0.7510    4.7665 C   0  0  0  0  0  0  0  0  0  0  0  0
    4.4527    0.1793    2.9967 C   0  0  0  0  0  0  0  0  0  0  0  0
    3.1094   -0.1525    2.8018 C   0  0  0  0  0  0  0  0  0  0  0  0
   -0.4099   -1.2281    1.6426 C   0  0  0  0  0  0  0  0  0  0  0  0
   -1.0878    0.1746    1.0585 S   0  0  0  0  0  0  0  0  0  0  0  0
   -1.8612   -0.5888   -0.2570 C   0  0  0  0  0  0  0  0  0  0  0  0
   -1.6028   -1.9790   -0.2102 C   0  0  0  0  0  0  0  0  0  0  0  0
   -2.3307   -2.9821   -0.9506 N   0  0  0  0  0  0  0  0  0  0  0  0
   -1.6211   -4.1487   -1.4292 C   0  0  0  0  0  0  0  0  0  0  0  0
   -2.1892   -5.4328   -1.3365 C   0  0  0  0  0  0  0  0  0  0  0  0
   -1.5161   -6.5439   -1.8476 C   0  0  0  0  0  0  0  0  0  0  0  0
   -0.2575   -6.3928   -2.4349 C   0  0  0  0  0  0  0  0  0  0  0  0
    0.5888   -7.8129   -3.1305 S   0  0  0  0  0  0  0  0  0  0  0  0
   -0.0444   -7.5137   -4.8084 C   0  0  0  0  0  0  0  0  0  0  0  0
    0.3418   -5.1290   -2.4835 C   0  0  0  0  0  0  0  0  0  0  0  0
   -0.3345   -4.0146   -1.9800 C   0  0  0  0  0  0  0  0  0  0  0  0
   -3.7782   -2.8894   -1.0455 C   0  0  0  0  0  0  0  0  0  0  0  0
   -4.5272   -2.2131   -0.0579 C   0  0  0  0  0  0  0  0  0  0  0  0
   -5.9069   -2.0510   -0.1958 C   0  0  0  0  0  0  0  0  0  0  0  0
   -6.5682   -2.5837   -1.3077 C   0  0  0  0  0  0  0  0  0  0  0  0
   -8.3383   -2.3375   -1.4994 S   0  0  0  0  0  0  0  0  0  0  0  0
   -8.1280   -0.8553   -2.5339 C   0  0  0  0  0  0  0  0  0  0  0  0
   -5.8532   -3.3122   -2.2579 C   0  0  0  0  0  0  0  0  0  0  0  0
   -4.4703   -3.4633   -2.1302 C   0  0  0  0  0  0  0  0  0  0  0  0
   -0.7409   -2.2783    0.8535 C   0  0  0  0  0  0  0  0  0  0  0  0
    0.0821   -3.6492    1.3880 S   0  0  0  0  0  0  0  0  0  0  0  0
   -2.5726    0.1949   -1.2853 C   0  0  0  0  0  0  0  0  0  0  0  0
   -2.4006    0.1413   -2.6885 C   0  0  0  0  0  0  0  0  0  0  0  0
   -1.6250   -0.8299   -3.4111 N   0  0  0  0  0  0  0  0  0  0  0  0
   -0.2548   -0.4739   -3.6975 C   0  0  0  0  0  0  0  0  0  0  0  0
    0.1457   -0.2069   -5.0177 C   0  0  0  0  0  0  0  0  0  0  0  0
    1.4797    0.0982   -5.3077 C   0  0  0  0  0  0  0  0  0  0  0  0
    2.4245    0.1459   -4.2774 C   0  0  0  0  0  0  0  0  0  0  0  0
    4.1492    0.4846   -4.6507 S   0  0  0  0  0  0  0  0  0  0  0  0
    3.9471    2.2835   -4.4901 C   0  0  0  0  0  0  0  0  0  0  0  0
    2.0258   -0.0841   -2.9562 C   0  0  0  0  0  0  0  0  0  0  0  0
    0.6940   -0.3803   -2.6666 C   0  0  0  0  0  0  0  0  0  0  0  0
   -2.2895   -1.8144   -4.2484 C   0  0  0  0  0  0  0  0  0  0  0  0
   -3.6576   -1.6945   -4.5870 C   0  0  0  0  0  0  0  0  0  0  0  0
   -4.2758   -2.6385   -5.4139 C   0  0  0  0  0  0  0  0  0  0  0  0
   -3.5464   -3.7204   -5.9123 C   0  0  0  0  0  0  0  0  0  0  0  0
   -4.3424   -4.9287   -6.9753 S   0  0  0  0  0  0  0  0  0  0  0  0
   -4.7809   -6.0308   -5.5944 C   0  0  0  0  0  0  0  0  0  0  0  0
   -2.1921   -3.8531   -5.5873 C   0  0  0  0  0  0  0  0  0  0  0  0
   -1.5677   -2.9086   -4.7674 C   0  0  0  0  0  0  0  0  0  0  0  0
   -2.9003    1.2926   -3.2992 C   0  0  0  0  0  0  0  0  0  0  0  0
   -2.8055    1.9119   -4.8568 S   0  0  0  0  0  0  0  0  0  0  0  0
   -3.4723    3.4257   -4.4214 C   0  0  0  0  0  0  0  0  0  0  0  0
   -3.7751    3.4254   -3.0533 C   0  0  0  0  0  0  0  0  0  0  0  0
   -4.2202    4.5754   -2.3111 N   0  0  0  0  0  0  0  0  0  0  0  0
   -3.4110    5.0680   -1.2195 C   0  0  0  0  0  0  0  0  0  0  0  0
   -4.0027    5.4890   -0.0161 C   0  0  0  0  0  0  0  0  0  0  0  0
   -3.2052    5.9047    1.0592 C   0  0  0  0  0  0  0  0  0  0  0  0
   -1.8125    5.9015    0.9413 C   0  0  0  0  0  0  0  0  0  0  0  0
   -0.7871    6.4170    2.3203 S   0  0  0  0  0  0  0  0  0  0  0  0
   -0.6649    4.7379    3.0099 C   0  0  0  0  0  0  0  0  0  0  0  0
   -1.2156    5.4968   -0.2578 C   0  0  0  0  0  0  0  0  0  0  0  0
   -2.0070    5.0828   -1.3278 C   0  0  0  0  0  0  0  0  0  0  0  0
   -5.4742    5.1943   -2.6600 C   0  0  0  0  0  0  0  0  0  0  0  0
   -6.5640    4.4016   -3.0607 C   0  0  0  0  0  0  0  0  0  0  0  0
   -7.7755    4.9933   -3.4323 C   0  0  0  0  0  0  0  0  0  0  0  0
   -7.9169    6.3825   -3.3963 C   0  0  0  0  0  0  0  0  0  0  0  0
   -9.4707    7.1407   -3.8775 S   0  0  0  0  0  0  0  0  0  0  0  0
  -10.2003    6.9829   -2.2189 C   0  0  0  0  0  0  0  0  0  0  0  0
   -6.8381    7.1823   -2.9931 C   0  0  0  0  0  0  0  0  0  0  0  0
   -5.6223    6.5940   -2.6283 C   0  0  0  0  0  0  0  0  0  0  0  0
   -3.4384    2.2129   -2.4665 C   0  0  0  0  0  0  0  0  0  0  0  0
   -3.3360    1.6694   -0.8891 S   0  0  0  0  0  0  0  0  0  0  0  0
   -3.5907    4.5971   -5.3093 C   0  0  0  0  0  0  0  0  0  0  0  0
   -2.5560    5.1814   -5.9565 C   0  0  0  0  0  0  0  0  0  0  0  0
   -1.1391    4.7942   -5.7535 C   0  0  0  0  0  0  0  0  0  0  0  0
   -0.7922    4.1624   -4.7185 O   0  0  0  0  0  0  0  0  0  0  0  0
   -0.1376    5.1915   -6.7056 N   0  0  0  0  0  0  0  0  0  0  0  0
    1.2068    4.5932   -6.6157 C   0  0  0  0  0  0  0  0  0  0  0  0
    2.1138    5.4535   -5.7391 C   0  0  0  0  0  0  0  0  0  0  0  0
   -0.4315    6.2606   -7.6407 C   0  0  0  0  0  0  0  0  0  0  0  0
    0.6898    6.7098   -8.7732 S   0  0  0  0  0  0  0  0  0  0  0  0
   -1.7133    6.9338   -7.5817 N   0  0  0  0  0  0  0  0  0  0  0  0
   -1.9413    8.2119   -8.2810 C   0  0  0  0  0  0  0  0  0  0  0  0
   -2.4642    7.9687   -9.6947 C   0  0  0  0  0  0  0  0  0  0  0  0
   -2.8020    6.3248   -6.8613 C   0  0  0  0  0  0  0  0  0  0  0  0
   -3.9720    6.7775   -7.0014 O   0  0  0  0  0  0  0  0  0  0  0  0
    6.0175   -3.2609    6.0609 H   0  0  0  0  0  0  0  0  0  0  0  0
    7.7165   -8.9567    2.8667 H   0  0  0  0  0  0  0  0  0  0  0  0
    6.0452   -8.3750    2.8601 H   0  0  0  0  0  0  0  0  0  0  0  0
    8.3747   -7.2004    1.2145 H   0  0  0  0  0  0  0  0  0  0  0  0
    6.9462   -8.1202    0.6118 H   0  0  0  0  0  0  0  0  0  0  0  0
    6.7248   -6.4707    1.3138 H   0  0  0  0  0  0  0  0  0  0  0  0
   10.6438   -4.2637    5.6372 H   0  0  0  0  0  0  0  0  0  0  0  0
   11.2266   -5.5657    4.5893 H   0  0  0  0  0  0  0  0  0  0  0  0
   10.2733   -5.9192    7.5152 H   0  0  0  0  0  0  0  0  0  0  0  0
   11.9892   -5.8372    6.9656 H   0  0  0  0  0  0  0  0  0  0  0  0
   10.9512   -7.2227    6.4600 H   0  0  0  0  0  0  0  0  0  0  0  0
    4.5964   -5.1098    7.4975 H   0  0  0  0  0  0  0  0  0  0  0  0
    3.6288   -4.3101    8.7789 H   0  0  0  0  0  0  0  0  0  0  0  0
    1.5308   -5.2981    7.8259 H   0  0  0  0  0  0  0  0  0  0  0  0
    2.7287   -6.5722    8.2649 H   0  0  0  0  0  0  0  0  0  0  0  0
    2.5080   -6.1148    6.5374 H   0  0  0  0  0  0  0  0  0  0  0  0
    0.0868   -4.9188    5.6867 H   0  0  0  0  0  0  0  0  0  0  0  0
   -0.7614   -3.7112    4.6511 H   0  0  0  0  0  0  0  0  0  0  0  0
   -1.5616   -2.4966    6.6190 H   0  0  0  0  0  0  0  0  0  0  0  0
   -1.8979   -4.2510    6.8902 H   0  0  0  0  0  0  0  0  0  0  0  0
   -0.4878   -3.4645    7.7148 H   0  0  0  0  0  0  0  0  0  0  0  0
    3.1177   -3.8126    1.6133 H   0  0  0  0  0  0  0  0  0  0  0  0
    5.2230   -4.2939    2.7458 H   0  0  0  0  0  0  0  0  0  0  0  0
   -1.6319   -1.4635    4.3169 H   0  0  0  0  0  0  0  0  0  0  0  0
   -3.4621   -0.2284    5.3640 H   0  0  0  0  0  0  0  0  0  0  0  0
   -2.2809    2.2938    8.2796 H   0  0  0  0  0  0  0  0  0  0  0  0
   -3.3501    0.8428    8.0665 H   0  0  0  0  0  0  0  0  0  0  0  0
   -4.0291    2.3838    8.7154 H   0  0  0  0  0  0  0  0  0  0  0  0
   -0.9802    3.2660    5.6374 H   0  0  0  0  0  0  0  0  0  0  0  0
    0.8545    2.0629    4.5327 H   0  0  0  0  0  0  0  0  0  0  0  0
    2.0495   -0.0255    6.0398 H   0  0  0  0  0  0  0  0  0  0  0  0
    4.4153    0.5839    6.3785 H   0  0  0  0  0  0  0  0  0  0  0  0
    6.9136   -1.1069    5.7666 H   0  0  0  0  0  0  0  0  0  0  0  0
    6.8398   -1.4279    3.9789 H   0  0  0  0  0  0  0  0  0  0  0  0
    8.3379   -0.7515    4.7220 H   0  0  0  0  0  0  0  0  0  0  0  0
    5.1174    0.2374    2.1489 H   0  0  0  0  0  0  0  0  0  0  0  0
    2.7566   -0.3497    1.7968 H   0  0  0  0  0  0  0  0  0  0  0  0
   -3.1602   -5.5730   -0.8674 H   0  0  0  0  0  0  0  0  0  0  0  0
   -1.9775   -7.5207   -1.7881 H   0  0  0  0  0  0  0  0  0  0  0  0
    0.2846   -8.3416   -5.4694 H   0  0  0  0  0  0  0  0  0  0  0  0
    0.3637   -6.5575   -5.1995 H   0  0  0  0  0  0  0  0  0  0  0  0
   -1.1540   -7.4731   -4.8040 H   0  0  0  0  0  0  0  0  0  0  0  0
    1.3176   -5.0050   -2.9294 H   0  0  0  0  0  0  0  0  0  0  0  0
    0.1365   -3.0462   -2.0417 H   0  0  0  0  0  0  0  0  0  0  0  0
   -4.0498   -1.8059    0.8217 H   0  0  0  0  0  0  0  0  0  0  0  0
   -6.4591   -1.5061    0.5623 H   0  0  0  0  0  0  0  0  0  0  0  0
   -7.5520   -0.0821   -1.9864 H   0  0  0  0  0  0  0  0  0  0  0  0
   -7.5981   -1.1251   -3.4703 H   0  0  0  0  0  0  0  0  0  0  0  0
   -9.1268   -0.4477   -2.7897 H   0  0  0  0  0  0  0  0  0  0  0  0
   -6.3630   -3.7426   -3.1071 H   0  0  0  0  0  0  0  0  0  0  0  0
   -3.9350   -4.0113   -2.8947 H   0  0  0  0  0  0  0  0  0  0  0  0
   -0.5712   -0.2397   -5.8267 H   0  0  0  0  0  0  0  0  0  0  0  0
    1.7785    0.2859   -6.3305 H   0  0  0  0  0  0  0  0  0  0  0  0
    3.6236    2.5397   -3.4594 H   0  0  0  0  0  0  0  0  0  0  0  0
    4.9130    2.7847   -4.7011 H   0  0  0  0  0  0  0  0  0  0  0  0
    3.1896    2.6387   -5.2166 H   0  0  0  0  0  0  0  0  0  0  0  0
    2.7551   -0.0465   -2.1532 H   0  0  0  0  0  0  0  0  0  0  0  0
    0.4163   -0.5676   -1.6450 H   0  0  0  0  0  0  0  0  0  0  0  0
   -4.2578   -0.8777   -4.2118 H   0  0  0  0  0  0  0  0  0  0  0  0
   -5.3252   -2.5283   -5.6573 H   0  0  0  0  0  0  0  0  0  0  0  0
   -3.8619   -6.3762   -5.0765 H   0  0  0  0  0  0  0  0  0  0  0  0
   -5.3167   -6.9135   -5.9959 H   0  0  0  0  0  0  0  0  0  0  0  0
   -5.4403   -5.5010   -4.8760 H   0  0  0  0  0  0  0  0  0  0  0  0
   -1.6216   -4.6893   -5.9750 H   0  0  0  0  0  0  0  0  0  0  0  0
   -0.5182   -3.0313   -4.5485 H   0  0  0  0  0  0  0  0  0  0  0  0
   -5.0761    5.4694    0.1021 H   0  0  0  0  0  0  0  0  0  0  0  0
   -3.6718    6.2196    1.9823 H   0  0  0  0  0  0  0  0  0  0  0  0
   -1.6657    4.3934    3.3363 H   0  0  0  0  0  0  0  0  0  0  0  0
    0.0174    4.7533    3.8838 H   0  0  0  0  0  0  0  0  0  0  0  0
   -0.2586    4.0354    2.2537 H   0  0  0  0  0  0  0  0  0  0  0  0
   -0.1360    5.4985   -0.3548 H   0  0  0  0  0  0  0  0  0  0  0  0
   -1.5240    4.7631   -2.2435 H   0  0  0  0  0  0  0  0  0  0  0  0
   -6.4808    3.3211   -3.0788 H   0  0  0  0  0  0  0  0  0  0  0  0
   -8.6011    4.3664   -3.7431 H   0  0  0  0  0  0  0  0  0  0  0  0
   -9.5925    7.5460   -1.4813 H   0  0  0  0  0  0  0  0  0  0  0  0
  -11.2274    7.4009   -2.2341 H   0  0  0  0  0  0  0  0  0  0  0  0
  -10.2534    5.9139   -1.9252 H   0  0  0  0  0  0  0  0  0  0  0  0
   -6.9351    8.2601   -2.9706 H   0  0  0  0  0  0  0  0  0  0  0  0
   -4.7950    7.2250   -2.3345 H   0  0  0  0  0  0  0  0  0  0  0  0
   -4.5862    5.0055   -5.4168 H   0  0  0  0  0  0  0  0  0  0  0  0
    1.6568    4.4752   -7.6223 H   0  0  0  0  0  0  0  0  0  0  0  0
    1.1477    3.5706   -6.1922 H   0  0  0  0  0  0  0  0  0  0  0  0
    1.7501    5.4602   -4.6868 H   0  0  0  0  0  0  0  0  0  0  0  0
    2.1503    6.4987   -6.1123 H   0  0  0  0  0  0  0  0  0  0  0  0
    3.1467    5.0388   -5.7546 H   0  0  0  0  0  0  0  0  0  0  0  0
   -1.0035    8.8110   -8.3250 H   0  0  0  0  0  0  0  0  0  0  0  0
   -2.6682    8.8362   -7.7198 H   0  0  0  0  0  0  0  0  0  0  0  0
   -1.7600    7.3343  -10.2667 H   0  0  0  0  0  0  0  0  0  0  0  0
   -3.4530    7.4670   -9.6557 H   0  0  0  0  0  0  0  0  0  0  0  0
   -2.5786    8.9449  -10.2151 H   0  0  0  0  0  0  0  0  0  0  0  0
  1  2  2  3
  2  3  1  0
  3  4  2  0
  3  5  1  0
  5  6  1  0
  6  7  1  0
  5  8  1  0
  8  9  2  0
  8 10  1  0
 10 11  1  0
 11 12  1  0
 10 13  1  0
 13 14  2  0
  1 15  1  0
 15 16  2  0
 16 17  1  0
 17 18  1  0
 18 19  1  0
 16 20  1  0
 20 21  1  0
 21 22  1  0
 22 23  1  0
 20 24  2  0
 24 25  1  0
 25 26  2  0
 24 27  1  0
 27 28  2  0
 28 29  1  0
 29 30  1  0
 30 31  2  0
 31 32  1  0
 32 33  2  0
 33 34  1  0
 34 35  1  0
 33 36  1  0
 36 37  2  0
 29 38  1  0
 38 39  2  0
 39 40  1  0
 40 41  2  0
 41 42  1  0
 42 43  1  0
 41 44  1  0
 44 45  2  0
 28 46  1  0
 46 47  1  0
 47 48  1  0
 48 49  2  0
 49 50  1  0
 50 51  1  0
 51 52  2  0
 52 53  1  0
 53 54  2  0
 54 55  1  0
 55 56  1  0
 54 57  1  0
 57 58  2  0
 50 59  1  0
 59 60  2  0
 60 61  1  0
 61 62  2  0
 62 63  1  0
 63 64  1  0
 62 65  1  0
 65 66  2  0
 49 67  1  0
 67 68  1  0
 48 69  1  0
 69 70  2  0
 70 71  1  0
 71 72  1  0
 72 73  2  0
 73 74  1  0
 74 75  2  0
 75 76  1  0
 76 77  1  0
 75 78  1  0
 78 79  2  0
 71 80  1  0
 80 81  2  0
 81 82  1  0
 82 83  2  0
 83 84  1  0
 84 85  1  0
 83 86  1  0
 86 87  2  0
 70 88  1  0
 88 89  1  0
 89 90  1  0
 90 91  2  0
 91 92  1  0
 92 93  1  0
 93 94  2  0
 94 95  1  0
 95 96  2  0
 96 97  1  0
 97 98  1  0
 96 99  1  0
 99100  2  0
 92101  1  0
101102  2  0
102103  1  0
103104  2  0
104105  1  0
105106  1  0
104107  1  0
107108  2  0
 91109  1  0
109110  1  0
 90111  1  0
111112  2  3
112113  1  0
113114  2  0
113115  1  0
115116  1  0
116117  1  0
115118  1  0
118119  2  0
118120  1  0
120121  1  0
121122  1  0
120123  1  0
123124  2  0
 13  2  1  0
 26 15  1  0
 68 27  1  0
110 69  1  0
123112  1  0
 37 30  1  0
 45 38  1  0
 67 46  2  0
 79 72  1  0
 87 80  1  0
109 88  2  0
 58 51  1  0
 66 59  1  0
100 93  1  0
108101  1  0
  1125  1  0
  6126  1  0
  6127  1  0
  7128  1  0
  7129  1  0
  7130  1  0
 11131  1  0
 11132  1  0
 12133  1  0
 12134  1  0
 12135  1  0
 18136  1  0
 18137  1  0
 19138  1  0
 19139  1  0
 19140  1  0
 22141  1  0
 22142  1  0
 23143  1  0
 23144  1  0
 23145  1  0
 25146  1  0
 26147  1  0
 31148  1  0
 32149  1  0
 35150  1  0
 35151  1  0
 35152  1  0
 36153  1  0
 37154  1  0
 39155  1  0
 40156  1  0
 43157  1  0
 43158  1  0
 43159  1  0
 44160  1  0
 45161  1  0
 52162  1  0
 53163  1  0
 56164  1  0
 56165  1  0
 56166  1  0
 57167  1  0
 58168  1  0
 60169  1  0
 61170  1  0
 64171  1  0
 64172  1  0
 64173  1  0
 65174  1  0
 66175  1  0
 73176  1  0
 74177  1  0
 77178  1  0
 77179  1  0
 77180  1  0
 78181  1  0
 79182  1  0
 81183  1  0
 82184  1  0
 85185  1  0
 85186  1  0
 85187  1  0
 86188  1  0
 87189  1  0
 94190  1  0
 95191  1  0
 98192  1  0
 98193  1  0
 98194  1  0
 99195  1  0
100196  1  0
102197  1  0
103198  1  0
106199  1  0
106200  1  0
106201  1  0
107202  1  0
108203  1  0
111204  1  0
116205  1  0
116206  1  0
117207  1  0
117208  1  0
117209  1  0
121210  1  0
121211  1  0
122212  1  0
122213  1  0
122214  1  0
M  END

