
     RDKit          3D

172184  0  0  0  0  0  0  0  0999 V2000
   -2.5359    1.0560   11.0586 C   0  0  0  0  0  0  0  0  0  0  0  0
   -3.3328    2.1386   10.8907 C   0  0  0  0  0  0  0  0  0  0  0  0
   -3.3991    2.9076    9.6220 C   0  0  0  0  0  0  0  0  0  0  0  0
   -2.5057    2.7588    8.7429 O   0  0  0  0  0  0  0  0  0  0  0  0
   -4.4586    3.8569    9.4008 N   0  0  0  0  0  0  0  0  0  0  0  0
   -4.6624    4.3794    8.0353 C   0  0  0  0  0  0  0  0  0  0  0  0
   -3.7892    5.6094    7.7892 C   0  0  0  0  0  0  0  0  0  0  0  0
   -5.2378    4.3374   10.5255 C   0  0  0  0  0  0  0  0  0  0  0  0
   -6.2646    5.6177   10.3259 S   0  0  0  0  0  0  0  0  0  0  0  0
   -5.0847    3.7198   11.8313 N   0  0  0  0  0  0  0  0  0  0  0  0
   -5.7745    4.2612   13.0196 C   0  0  0  0  0  0  0  0  0  0  0  0
   -4.9389    5.3641   13.6660 C   0  0  0  0  0  0  0  0  0  0  0  0
   -4.1745    2.6145   12.0075 C   0  0  0  0  0  0  0  0  0  0  0  0
   -4.0960    2.0414   13.1358 O   0  0  0  0  0  0  0  0  0  0  0  0
   -1.7443    0.4485    9.9772 C   0  0  0  0  0  0  0  0  0  0  0  0
   -2.3903   -0.3033    8.9723 C   0  0  0  0  0  0  0  0  0  0  0  0
   -1.6301   -0.7496    7.8884 C   0  0  0  0  0  0  0  0  0  0  0  0
   -2.0640   -1.3856    6.7691 N   0  0  0  0  0  0  0  0  0  0  0  0
   -3.4319   -1.8358    6.4807 C   0  0  0  0  0  0  0  0  0  0  0  0
   -3.6797   -3.1999    7.1120 C   0  0  0  0  0  0  0  0  0  0  0  0
   -0.9661   -1.4930    5.9759 C   0  0  0  0  0  0  0  0  0  0  0  0
    0.1368   -0.9276    6.5838 C   0  0  0  0  0  0  0  0  0  0  0  0
   -0.2846   -0.4628    7.8076 C   0  0  0  0  0  0  0  0  0  0  0  0
    0.3896    0.2447    8.8004 C   0  0  0  0  0  0  0  0  0  0  0  0
   -0.3528    0.6948    9.9027 C   0  0  0  0  0  0  0  0  0  0  0  0
    1.3587   -0.7952    5.9337 C   0  0  0  0  0  0  0  0  0  0  0  0
    1.4401   -1.2285    4.6046 C   0  0  0  0  0  0  0  0  0  0  0  0
    0.3259   -1.8200    3.9511 C   0  0  0  0  0  0  0  0  0  0  0  0
   -0.8893   -1.9848    4.6660 C   0  0  0  0  0  0  0  0  0  0  0  0
    0.4005   -2.0866    2.4849 C   0  0  0  0  0  0  0  0  0  0  0  0
   -0.6134   -1.6096    1.6360 C   0  0  0  0  0  0  0  0  0  0  0  0
   -1.7613   -1.0851    2.1372 F   0  0  0  0  0  0  0  0  0  0  0  0
   -0.4070   -1.5344    0.2568 C   0  0  0  0  0  0  0  0  0  0  0  0
   -1.3994   -1.0302   -0.5186 F   0  0  0  0  0  0  0  0  0  0  0  0
    0.8250   -1.8946   -0.3120 C   0  0  0  0  0  0  0  0  0  0  0  0
    1.7891   -2.5236    0.5077 C   0  0  0  0  0  0  0  0  0  0  0  0
    2.9665   -2.9836   -0.0036 N   0  0  0  0  0  0  0  0  0  0  0  0
    3.9166   -3.5784    0.7767 C   0  0  0  0  0  0  0  0  0  0  0  0
    5.1909   -4.0517    0.1189 C   0  0  0  0  0  0  0  0  0  0  0  0
    5.2714   -5.5741    0.0069 C   0  0  0  0  0  0  0  0  0  0  0  0
    3.6742   -3.7038    2.1672 C   0  0  0  0  0  0  0  0  0  0  0  0
    2.5114   -3.2172    2.6757 N   0  0  0  0  0  0  0  0  0  0  0  0
    1.5649   -2.6299    1.8990 C   0  0  0  0  0  0  0  0  0  0  0  0
    4.6346   -4.3521    3.1300 C   0  0  0  0  0  0  0  0  0  0  0  0
    4.1116   -5.7169    3.5782 C   0  0  0  0  0  0  0  0  0  0  0  0
    1.1426   -1.3735   -1.6639 C   0  0  0  0  0  0  0  0  0  0  0  0
    1.7175   -2.0373   -2.7700 C   0  0  0  0  0  0  0  0  0  0  0  0
    2.0090   -3.4452   -2.8317 N   0  0  0  0  0  0  0  0  0  0  0  0
    0.9872   -4.3838   -2.4308 C   0  0  0  0  0  0  0  0  0  0  0  0
    1.3191   -5.4951   -1.6454 C   0  0  0  0  0  0  0  0  0  0  0  0
    0.3456   -6.4313   -1.2919 C   0  0  0  0  0  0  0  0  0  0  0  0
   -0.9775   -6.2601   -1.7152 C   0  0  0  0  0  0  0  0  0  0  0  0
   -2.2126   -7.5059   -1.3308 S   0  0  0  0  0  0  0  0  0  0  0  0
   -2.6908   -6.7286    0.2438 C   0  0  0  0  0  0  0  0  0  0  0  0
   -1.3244   -5.1390   -2.4776 C   0  0  0  0  0  0  0  0  0  0  0  0
   -0.3477   -4.2025   -2.8312 C   0  0  0  0  0  0  0  0  0  0  0  0
    3.2433   -3.8921   -3.4520 C   0  0  0  0  0  0  0  0  0  0  0  0
    4.4002   -3.0902   -3.3913 C   0  0  0  0  0  0  0  0  0  0  0  0
    5.5897   -3.5049   -3.9983 C   0  0  0  0  0  0  0  0  0  0  0  0
    5.6349   -4.7193   -4.6925 C   0  0  0  0  0  0  0  0  0  0  0  0
    7.1668   -5.2626   -5.4522 S   0  0  0  0  0  0  0  0  0  0  0  0
    6.9016   -4.3176   -6.9845 C   0  0  0  0  0  0  0  0  0  0  0  0
    4.4911   -5.5170   -4.7748 C   0  0  0  0  0  0  0  0  0  0  0  0
    3.3054   -5.1104   -4.1581 C   0  0  0  0  0  0  0  0  0  0  0  0
    1.7770   -1.1939   -3.8863 C   0  0  0  0  0  0  0  0  0  0  0  0
    2.1442   -1.4129   -5.5164 S   0  0  0  0  0  0  0  0  0  0  0  0
    1.6163    0.1453   -5.9720 C   0  0  0  0  0  0  0  0  0  0  0  0
    1.1621    0.8404   -4.8432 C   0  0  0  0  0  0  0  0  0  0  0  0
    0.4794    2.1113   -4.8846 N   0  0  0  0  0  0  0  0  0  0  0  0
   -0.8136    2.2384   -4.2539 C   0  0  0  0  0  0  0  0  0  0  0  0
   -1.7543    1.1963   -4.3486 C   0  0  0  0  0  0  0  0  0  0  0  0
   -2.9702    1.2757   -3.6662 C   0  0  0  0  0  0  0  0  0  0  0  0
   -3.2595    2.3939   -2.8777 C   0  0  0  0  0  0  0  0  0  0  0  0
   -4.7931    2.4646   -1.9441 S   0  0  0  0  0  0  0  0  0  0  0  0
   -4.1015    1.5502   -0.5273 C   0  0  0  0  0  0  0  0  0  0  0  0
   -2.3426    3.4482   -2.7997 C   0  0  0  0  0  0  0  0  0  0  0  0
   -1.1245    3.3704   -3.4786 C   0  0  0  0  0  0  0  0  0  0  0  0
    1.1194    3.2494   -5.5032 C   0  0  0  0  0  0  0  0  0  0  0  0
    2.5097    3.4314   -5.3887 C   0  0  0  0  0  0  0  0  0  0  0  0
    3.1282    4.5318   -5.9876 C   0  0  0  0  0  0  0  0  0  0  0  0
    2.3695    5.4674   -6.6975 C   0  0  0  0  0  0  0  0  0  0  0  0
    3.1656    6.8819   -7.4637 S   0  0  0  0  0  0  0  0  0  0  0  0
    3.0257    7.9171   -5.9690 C   0  0  0  0  0  0  0  0  0  0  0  0
    0.9889    5.2887   -6.8218 C   0  0  0  0  0  0  0  0  0  0  0  0
    0.3631    4.1868   -6.2311 C   0  0  0  0  0  0  0  0  0  0  0  0
    1.2774    0.0542   -3.7007 C   0  0  0  0  0  0  0  0  0  0  0  0
    0.7492    0.2222   -2.1253 S   0  0  0  0  0  0  0  0  0  0  0  0
    1.4875    0.6291   -7.3531 C   0  0  0  0  0  0  0  0  0  0  0  0
    0.5019    0.2709   -8.2106 C   0  0  0  0  0  0  0  0  0  0  0  0
   -0.5514   -0.7297   -7.8878 C   0  0  0  0  0  0  0  0  0  0  0  0
   -0.5638   -1.3083   -6.7704 O   0  0  0  0  0  0  0  0  0  0  0  0
   -1.5802   -1.0473   -8.8453 N   0  0  0  0  0  0  0  0  0  0  0  0
   -2.4559   -2.2059   -8.5914 C   0  0  0  0  0  0  0  0  0  0  0  0
   -3.6287   -1.8215   -7.6911 C   0  0  0  0  0  0  0  0  0  0  0  0
   -1.7333   -0.2303  -10.0264 C   0  0  0  0  0  0  0  0  0  0  0  0
   -3.1762   -0.2087  -10.8314 S   0  0  0  0  0  0  0  0  0  0  0  0
   -0.6502    0.6295  -10.4508 N   0  0  0  0  0  0  0  0  0  0  0  0
   -0.6405    1.2471  -11.7905 C   0  0  0  0  0  0  0  0  0  0  0  0
   -1.2354    2.6551  -11.7448 C   0  0  0  0  0  0  0  0  0  0  0  0
    0.4246    0.9292   -9.5377 C   0  0  0  0  0  0  0  0  0  0  0  0
    1.3056    1.7754   -9.8723 O   0  0  0  0  0  0  0  0  0  0  0  0
   -2.4747    0.5694   12.0230 H   0  0  0  0  0  0  0  0  0  0  0  0
   -5.7301    4.6341    7.8656 H   0  0  0  0  0  0  0  0  0  0  0  0
   -4.4187    3.5998    7.2816 H   0  0  0  0  0  0  0  0  0  0  0  0
   -3.9764    6.3828    8.5684 H   0  0  0  0  0  0  0  0  0  0  0  0
   -4.0331    6.0456    6.7963 H   0  0  0  0  0  0  0  0  0  0  0  0
   -2.7108    5.3300    7.8075 H   0  0  0  0  0  0  0  0  0  0  0  0
   -5.9639    3.4622   13.7695 H   0  0  0  0  0  0  0  0  0  0  0  0
   -6.7775    4.6545   12.7590 H   0  0  0  0  0  0  0  0  0  0  0  0
   -4.7474    6.1809   12.9367 H   0  0  0  0  0  0  0  0  0  0  0  0
   -5.4774    5.7843   14.5399 H   0  0  0  0  0  0  0  0  0  0  0  0
   -3.9615    4.9513   14.0123 H   0  0  0  0  0  0  0  0  0  0  0  0
   -3.4561   -0.4807    9.0212 H   0  0  0  0  0  0  0  0  0  0  0  0
   -3.6021   -1.8954    5.3856 H   0  0  0  0  0  0  0  0  0  0  0  0
   -4.1617   -1.1021    6.8785 H   0  0  0  0  0  0  0  0  0  0  0  0
   -2.9628   -3.9423    6.6997 H   0  0  0  0  0  0  0  0  0  0  0  0
   -4.7148   -3.5311    6.8886 H   0  0  0  0  0  0  0  0  0  0  0  0
   -3.5508   -3.1374    8.2160 H   0  0  0  0  0  0  0  0  0  0  0  0
    1.4481    0.4710    8.7136 H   0  0  0  0  0  0  0  0  0  0  0  0
    0.1389    1.2733   10.6716 H   0  0  0  0  0  0  0  0  0  0  0  0
    2.2032   -0.3130    6.4145 H   0  0  0  0  0  0  0  0  0  0  0  0
    2.3589   -1.0413    4.0646 H   0  0  0  0  0  0  0  0  0  0  0  0
   -1.7519   -2.4273    4.1886 H   0  0  0  0  0  0  0  0  0  0  0  0
    6.0803   -3.6583    0.6578 H   0  0  0  0  0  0  0  0  0  0  0  0
    5.2504   -3.6276   -0.9020 H   0  0  0  0  0  0  0  0  0  0  0  0
    5.5286   -6.0354    0.9835 H   0  0  0  0  0  0  0  0  0  0  0  0
    4.3100   -5.9969   -0.3452 H   0  0  0  0  0  0  0  0  0  0  0  0
    6.0633   -5.8488   -0.7250 H   0  0  0  0  0  0  0  0  0  0  0  0
    5.6542   -4.4607    2.7106 H   0  0  0  0  0  0  0  0  0  0  0  0
    4.7425   -3.7009    4.0271 H   0  0  0  0  0  0  0  0  0  0  0  0
    3.2668   -5.5853    4.2856 H   0  0  0  0  0  0  0  0  0  0  0  0
    4.9226   -6.2742    4.0931 H   0  0  0  0  0  0  0  0  0  0  0  0
    3.7611   -6.3106    2.7091 H   0  0  0  0  0  0  0  0  0  0  0  0
    2.3358   -5.6406   -1.3165 H   0  0  0  0  0  0  0  0  0  0  0  0
    0.6198   -7.2918   -0.6969 H   0  0  0  0  0  0  0  0  0  0  0  0
   -1.8185   -6.6860    0.9263 H   0  0  0  0  0  0  0  0  0  0  0  0
   -3.4914   -7.3341    0.7167 H   0  0  0  0  0  0  0  0  0  0  0  0
   -3.0750   -5.7050    0.0606 H   0  0  0  0  0  0  0  0  0  0  0  0
   -2.3429   -5.0016   -2.8121 H   0  0  0  0  0  0  0  0  0  0  0  0
   -0.6281   -3.3534   -3.4413 H   0  0  0  0  0  0  0  0  0  0  0  0
    4.3931   -2.1501   -2.8566 H   0  0  0  0  0  0  0  0  0  0  0  0
    6.4732   -2.8829   -3.9349 H   0  0  0  0  0  0  0  0  0  0  0  0
    5.9427   -4.6102   -7.4602 H   0  0  0  0  0  0  0  0  0  0  0  0
    6.8888   -3.2329   -6.7553 H   0  0  0  0  0  0  0  0  0  0  0  0
    7.7342   -4.5241   -7.6912 H   0  0  0  0  0  0  0  0  0  0  0  0
    4.5213   -6.4592   -5.3030 H   0  0  0  0  0  0  0  0  0  0  0  0
    2.4316   -5.7404   -4.2522 H   0  0  0  0  0  0  0  0  0  0  0  0
   -1.5396    0.3167   -4.9344 H   0  0  0  0  0  0  0  0  0  0  0  0
   -3.6758    0.4573   -3.7346 H   0  0  0  0  0  0  0  0  0  0  0  0
   -4.8635    1.4944    0.2782 H   0  0  0  0  0  0  0  0  0  0  0  0
   -3.1966    2.0644   -0.1356 H   0  0  0  0  0  0  0  0  0  0  0  0
   -3.8383    0.5169   -0.8417 H   0  0  0  0  0  0  0  0  0  0  0  0
   -2.5684    4.3179   -2.1947 H   0  0  0  0  0  0  0  0  0  0  0  0
   -0.4177    4.1841   -3.3790 H   0  0  0  0  0  0  0  0  0  0  0  0
    3.1136    2.7260   -4.8278 H   0  0  0  0  0  0  0  0  0  0  0  0
    4.1984    4.6598   -5.8926 H   0  0  0  0  0  0  0  0  0  0  0  0
    3.6538    7.4948   -5.1590 H   0  0  0  0  0  0  0  0  0  0  0  0
    1.9701    7.9700   -5.6315 H   0  0  0  0  0  0  0  0  0  0  0  0
    3.3823    8.9420   -6.2061 H   0  0  0  0  0  0  0  0  0  0  0  0
    0.3975    6.0034   -7.3776 H   0  0  0  0  0  0  0  0  0  0  0  0
   -0.7052    4.0607   -6.3459 H   0  0  0  0  0  0  0  0  0  0  0  0
    2.1956    1.3983   -7.6368 H   0  0  0  0  0  0  0  0  0  0  0  0
   -1.8796   -3.0205   -8.1051 H   0  0  0  0  0  0  0  0  0  0  0  0
   -2.8396   -2.6326   -9.5414 H   0  0  0  0  0  0  0  0  0  0  0  0
   -4.2956   -1.0985   -8.2092 H   0  0  0  0  0  0  0  0  0  0  0  0
   -4.2210   -2.7271   -7.4479 H   0  0  0  0  0  0  0  0  0  0  0  0
   -3.2667   -1.3762   -6.7427 H   0  0  0  0  0  0  0  0  0  0  0  0
    0.4011    1.3020  -12.1809 H   0  0  0  0  0  0  0  0  0  0  0  0
   -1.2068    0.6277  -12.5141 H   0  0  0  0  0  0  0  0  0  0  0  0
   -0.6134    3.3183  -11.0993 H   0  0  0  0  0  0  0  0  0  0  0  0
   -1.2635    3.0821  -12.7685 H   0  0  0  0  0  0  0  0  0  0  0  0
   -2.2693    2.6263  -11.3387 H   0  0  0  0  0  0  0  0  0  0  0  0
  1  2  2  3
  2  3  1  0
  3  4  2  0
  3  5  1  0
  5  6  1  0
  6  7  1  0
  5  8  1  0
  8  9  2  0
  8 10  1  0
 10 11  1  0
 11 12  1  0
 10 13  1  0
 13 14  2  0
  1 15  1  0
 15 16  2  0
 16 17  1  0
 17 18  1  0
 18 19  1  0
 19 20  1  0
 18 21  1  0
 21 22  2  0
 22 23  1  0
 23 24  1  0
 24 25  2  0
 22 26  1  0
 26 27  2  0
 27 28  1  0
 28 29  2  0
 28 30  1  0
 30 31  2  0
 31 32  1  0
 31 33  1  0
 33 34  1  0
 33 35  2  0
 35 36  1  0
 36 37  2  0
 37 38  1  0
 38 39  1  0
 39 40  1  0
 38 41  2  0
 41 42  1  0
 42 43  2  0
 41 44  1  0
 44 45  1  0
 35 46  1  0
 46 47  2  0
 47 48  1  0
 48 49  1  0
 49 50  2  0
 50 51  1  0
 51 52  2  0
 52 53  1  0
 53 54  1  0
 52 55  1  0
 55 56  2  0
 48 57  1  0
 57 58  2  0
 58 59  1  0
 59 60  2  0
 60 61  1  0
 61 62  1  0
 60 63  1  0
 63 64  2  0
 47 65  1  0
 65 66  1  0
 66 67  1  0
 67 68  2  0
 68 69  1  0
 69 70  1  0
 70 71  2  0
 71 72  1  0
 72 73  2  0
 73 74  1  0
 74 75  1  0
 73 76  1  0
 76 77  2  0
 69 78  1  0
 78 79  2  0
 79 80  1  0
 80 81  2  0
 81 82  1  0
 82 83  1  0
 81 84  1  0
 84 85  2  0
 68 86  1  0
 86 87  1  0
 67 88  1  0
 88 89  2  3
 89 90  1  0
 90 91  2  0
 90 92  1  0
 92 93  1  0
 93 94  1  0
 92 95  1  0
 95 96  2  0
 95 97  1  0
 97 98  1  0
 98 99  1  0
 97100  1  0
100101  2  0
 13  2  1  0
 25 15  1  0
 43 30  1  0
 87 46  1  0
100 89  1  0
 23 17  2  0
 43 36  1  0
 56 49  1  0
 64 57  1  0
 86 65  2  0
 29 21  1  0
 77 70  1  0
 85 78  1  0
  1102  1  0
  6103  1  0
  6104  1  0
  7105  1  0
  7106  1  0
  7107  1  0
 11108  1  0
 11109  1  0
 12110  1  0
 12111  1  0
 12112  1  0
 16113  1  0
 19114  1  0
 19115  1  0
 20116  1  0
 20117  1  0
 20118  1  0
 24119  1  0
 25120  1  0
 26121  1  0
 27122  1  0
 29123  1  0
 39124  1  0
 39125  1  0
 40126  1  0
 40127  1  0
 40128  1  0
 44129  1  0
 44130  1  0
 45131  1  0
 45132  1  0
 45133  1  0
 50134  1  0
 51135  1  0
 54136  1  0
 54137  1  0
 54138  1  0
 55139  1  0
 56140  1  0
 58141  1  0
 59142  1  0
 62143  1  0
 62144  1  0
 62145  1  0
 63146  1  0
 64147  1  0
 71148  1  0
 72149  1  0
 75150  1  0
 75151  1  0
 75152  1  0
 76153  1  0
 77154  1  0
 79155  1  0
 80156  1  0
 83157  1  0
 83158  1  0
 83159  1  0
 84160  1  0
 85161  1  0
 88162  1  0
 93163  1  0
 93164  1  0
 94165  1  0
 94166  1  0
 94167  1  0
 98168  1  0
 98169  1  0
 99170  1  0
 99171  1  0
 99172  1  0
M  END

