
     RDKit          3D

222242  0  0  0  0  0  0  0  0999 V2000
   -6.0503   -4.7728    1.1655 C   0  0  0  0  0  0  0  0  0  0  0  0
   -6.6987   -5.0224    0.0150 C   0  0  0  0  0  0  0  0  0  0  0  0
   -6.1569   -4.8123   -1.3446 C   0  0  0  0  0  0  0  0  0  0  0  0
   -5.1094   -4.1822   -1.6602 O   0  0  0  0  0  0  0  0  0  0  0  0
   -7.0892   -5.3947   -2.2743 C   0  0  0  0  0  0  0  0  0  0  0  0
   -8.1803   -5.8876   -1.6024 C   0  0  0  0  0  0  0  0  0  0  0  0
   -9.1229   -6.5087   -2.4140 C   0  0  0  0  0  0  0  0  0  0  0  0
   -8.5210   -6.4033   -3.9999 S   0  0  0  0  0  0  0  0  0  0  0  0
   -7.0848   -5.5921   -3.6445 C   0  0  0  0  0  0  0  0  0  0  0  0
   -6.0400   -5.1728   -4.6314 C   0  0  0  0  0  0  0  0  0  0  0  0
   -8.0369   -5.6726   -0.1435 C   0  0  0  0  0  0  0  0  0  0  0  0
   -8.9132   -6.0045    0.8282 C   0  0  0  0  0  0  0  0  0  0  0  0
  -10.1789   -6.6253    0.5394 C   0  0  0  0  0  0  0  0  0  0  0  0
  -11.1975   -7.1249    0.3107 N   0  0  0  0  0  0  0  0  0  0  0  0
   -8.6308   -5.7596    2.2211 C   0  0  0  0  0  0  0  0  0  0  0  0
   -8.4083   -5.5664    3.3389 N   0  0  0  0  0  0  0  0  0  0  0  0
   -4.6547   -4.0518    1.3535 C   0  0  0  0  0  0  0  0  0  0  0  0
   -4.4497   -2.5868    1.4272 C   0  0  0  0  0  0  0  0  0  0  0  0
   -5.4241   -1.5894    1.0318 N   0  0  0  0  0  0  0  0  0  0  0  0
   -6.8287   -1.8555    1.1270 C   0  0  0  0  0  0  0  0  0  0  0  0
   -7.4209   -2.0877    2.3731 C   0  0  0  0  0  0  0  0  0  0  0  0
   -8.8021   -2.2845    2.4663 C   0  0  0  0  0  0  0  0  0  0  0  0
   -9.6083   -2.2326    1.3143 C   0  0  0  0  0  0  0  0  0  0  0  0
  -11.0809   -2.4767    1.4099 C   0  0  0  0  0  0  0  0  0  0  0  0
   -9.0072   -2.0121    0.0669 C   0  0  0  0  0  0  0  0  0  0  0  0
   -7.6279   -1.8157   -0.0244 C   0  0  0  0  0  0  0  0  0  0  0  0
   -5.0199   -0.2959    0.5227 C   0  0  0  0  0  0  0  0  0  0  0  0
   -5.5937    0.8823    1.0392 C   0  0  0  0  0  0  0  0  0  0  0  0
   -5.1824    2.1301    0.5712 C   0  0  0  0  0  0  0  0  0  0  0  0
   -4.1860    2.2212   -0.4052 C   0  0  0  0  0  0  0  0  0  0  0  0
   -3.7387    3.5755   -0.8806 C   0  0  0  0  0  0  0  0  0  0  0  0
   -3.6175    1.0529   -0.9312 C   0  0  0  0  0  0  0  0  0  0  0  0
   -4.0414   -0.1980   -0.4805 C   0  0  0  0  0  0  0  0  0  0  0  0
   -3.1699   -2.2559    1.9057 C   0  0  0  0  0  0  0  0  0  0  0  0
   -2.3394   -0.8209    2.1695 S   0  0  0  0  0  0  0  0  0  0  0  0
   -0.8833   -1.5378    2.6823 C   0  0  0  0  0  0  0  0  0  0  0  0
   -1.0596   -2.9341    2.6391 C   0  0  0  0  0  0  0  0  0  0  0  0
   -0.0555   -3.9348    2.8871 N   0  0  0  0  0  0  0  0  0  0  0  0
   -0.2864   -4.8587    3.9765 C   0  0  0  0  0  0  0  0  0  0  0  0
   -0.0263   -6.2301    3.8156 C   0  0  0  0  0  0  0  0  0  0  0  0
   -0.3991   -7.1399    4.8022 C   0  0  0  0  0  0  0  0  0  0  0  0
   -1.0444   -6.7021    5.9705 C   0  0  0  0  0  0  0  0  0  0  0  0
   -1.5461   -7.7094    6.9632 C   0  0  0  0  0  0  0  0  0  0  0  0
   -1.2982   -5.3313    6.1441 C   0  0  0  0  0  0  0  0  0  0  0  0
   -0.9121   -4.4191    5.1607 C   0  0  0  0  0  0  0  0  0  0  0  0
    0.9358   -4.2090    1.8666 C   0  0  0  0  0  0  0  0  0  0  0  0
    0.6372   -4.0303    0.5017 C   0  0  0  0  0  0  0  0  0  0  0  0
    1.6110   -4.2522   -0.4716 C   0  0  0  0  0  0  0  0  0  0  0  0
    2.8984   -4.6682   -0.1033 C   0  0  0  0  0  0  0  0  0  0  0  0
    3.9567   -4.8823   -1.1484 C   0  0  0  0  0  0  0  0  0  0  0  0
    3.2082   -4.8326    1.2537 C   0  0  0  0  0  0  0  0  0  0  0  0
    2.2323   -4.6049    2.2274 C   0  0  0  0  0  0  0  0  0  0  0  0
   -2.3516   -3.2776    2.2482 C   0  0  0  0  0  0  0  0  0  0  0  0
   -3.1437   -4.7348    2.0524 S   0  0  0  0  0  0  0  0  0  0  0  0
    0.3677   -0.7730    2.8964 C   0  0  0  0  0  0  0  0  0  0  0  0
    0.4584    0.6331    3.0250 C   0  0  0  0  0  0  0  0  0  0  0  0
   -0.6085    1.4817    3.5090 N   0  0  0  0  0  0  0  0  0  0  0  0
   -0.7186    2.8359    3.0279 C   0  0  0  0  0  0  0  0  0  0  0  0
   -0.6643    3.1153    1.6525 C   0  0  0  0  0  0  0  0  0  0  0  0
   -0.6338    4.4410    1.2037 C   0  0  0  0  0  0  0  0  0  0  0  0
   -0.6839    5.4978    2.1254 C   0  0  0  0  0  0  0  0  0  0  0  0
   -0.6019    7.1963    1.5597 S   0  0  0  0  0  0  0  0  0  0  0  0
    1.1901    7.3325    1.8348 C   0  0  0  0  0  0  0  0  0  0  0  0
   -0.7750    5.2267    3.4931 C   0  0  0  0  0  0  0  0  0  0  0  0
   -0.7817    3.9044    3.9454 C   0  0  0  0  0  0  0  0  0  0  0  0
   -1.3796    1.0628    4.6606 C   0  0  0  0  0  0  0  0  0  0  0  0
   -0.8002    0.2646    5.6702 C   0  0  0  0  0  0  0  0  0  0  0  0
   -1.5407   -0.1287    6.7836 C   0  0  0  0  0  0  0  0  0  0  0  0
   -2.8690    0.2926    6.9259 C   0  0  0  0  0  0  0  0  0  0  0  0
   -3.8035   -0.1858    8.3758 S   0  0  0  0  0  0  0  0  0  0  0  0
   -3.1819    1.1954    9.3931 C   0  0  0  0  0  0  0  0  0  0  0  0
   -3.4592    1.0776    5.9267 C   0  0  0  0  0  0  0  0  0  0  0  0
   -2.7236    1.4577    4.8017 C   0  0  0  0  0  0  0  0  0  0  0  0
    1.7704    1.0806    2.7851 C   0  0  0  0  0  0  0  0  0  0  0  0
    2.4810    2.5547    2.4360 S   0  0  0  0  0  0  0  0  0  0  0  0
    3.9727    1.9066    1.8924 C   0  0  0  0  0  0  0  0  0  0  0  0
    3.9541    0.5200    2.1754 C   0  0  0  0  0  0  0  0  0  0  0  0
    5.1343   -0.3068    2.3726 N   0  0  0  0  0  0  0  0  0  0  0  0
    6.4369    0.0740    1.8890 C   0  0  0  0  0  0  0  0  0  0  0  0
    6.7171    0.1087    0.5178 C   0  0  0  0  0  0  0  0  0  0  0  0
    8.0176    0.3746    0.0576 C   0  0  0  0  0  0  0  0  0  0  0  0
    9.0634    0.5496    0.9750 C   0  0  0  0  0  0  0  0  0  0  0  0
   10.7405    0.8024    0.3909 S   0  0  0  0  0  0  0  0  0  0  0  0
   10.6330    2.6167    0.4799 C   0  0  0  0  0  0  0  0  0  0  0  0
    8.7945    0.4831    2.3496 C   0  0  0  0  0  0  0  0  0  0  0  0
    7.4885    0.2725    2.8026 C   0  0  0  0  0  0  0  0  0  0  0  0
    5.0807   -1.3685    3.3529 C   0  0  0  0  0  0  0  0  0  0  0  0
    4.5915   -1.1121    4.6506 C   0  0  0  0  0  0  0  0  0  0  0  0
    4.4951   -2.1428    5.5886 C   0  0  0  0  0  0  0  0  0  0  0  0
    4.9274   -3.4363    5.2599 C   0  0  0  0  0  0  0  0  0  0  0  0
    4.8833   -4.7277    6.5122 S   0  0  0  0  0  0  0  0  0  0  0  0
    3.2141   -5.3065    6.0755 C   0  0  0  0  0  0  0  0  0  0  0  0
    5.4479   -3.6902    3.9813 C   0  0  0  0  0  0  0  0  0  0  0  0
    5.5164   -2.6628    3.0342 C   0  0  0  0  0  0  0  0  0  0  0  0
    2.6779    0.1098    2.5653 C   0  0  0  0  0  0  0  0  0  0  0  0
    1.9231   -1.3720    2.5953 S   0  0  0  0  0  0  0  0  0  0  0  0
    4.3854    2.3787    0.5532 C   0  0  0  0  0  0  0  0  0  0  0  0
    4.0206    1.6882   -0.6040 C   0  0  0  0  0  0  0  0  0  0  0  0
    3.9966    2.4765   -1.7696 C   0  0  0  0  0  0  0  0  0  0  0  0
    3.6007    2.0504   -3.0681 C   0  0  0  0  0  0  0  0  0  0  0  0
    3.2724    0.6169   -3.3826 C   0  0  0  0  0  0  0  0  0  0  0  0
    3.8760   -0.5268   -2.8443 C   0  0  0  0  0  0  0  0  0  0  0  0
    3.3417   -1.7466   -3.3025 C   0  0  0  0  0  0  0  0  0  0  0  0
    2.3415   -1.5749   -4.2534 C   0  0  0  0  0  0  0  0  0  0  0  0
    1.6421   -2.8790   -5.2790 S   0  0  0  0  0  0  0  0  0  0  0  0
   -0.1085   -2.5329   -4.8808 C   0  0  0  0  0  0  0  0  0  0  0  0
   -0.4576   -2.8648   -3.4346 C   0  0  0  0  0  0  0  0  0  0  0  0
    2.0974    0.0717   -4.4825 S   0  0  0  0  0  0  0  0  0  0  0  0
    3.4599    3.0705   -4.0396 C   0  0  0  0  0  0  0  0  0  0  0  0
    3.6230    4.4292   -3.7398 C   0  0  0  0  0  0  0  0  0  0  0  0
    4.0865    4.8358   -2.4719 C   0  0  0  0  0  0  0  0  0  0  0  0
    4.3763    6.2569   -2.1829 C   0  0  0  0  0  0  0  0  0  0  0  0
    5.0981    7.1124   -3.0187 C   0  0  0  0  0  0  0  0  0  0  0  0
    5.0611    8.4522   -2.6148 C   0  0  0  0  0  0  0  0  0  0  0  0
    4.3112    8.6447   -1.4667 C   0  0  0  0  0  0  0  0  0  0  0  0
    4.0046   10.2249   -0.6925 S   0  0  0  0  0  0  0  0  0  0  0  0
    2.4757   10.5648   -1.6289 C   0  0  0  0  0  0  0  0  0  0  0  0
    1.2576   10.1103   -0.8375 C   0  0  0  0  0  0  0  0  0  0  0  0
    3.6940    7.1719   -0.9402 S   0  0  0  0  0  0  0  0  0  0  0  0
    4.2596    3.8269   -1.5029 C   0  0  0  0  0  0  0  0  0  0  0  0
    4.5867    4.0077    0.1450 S   0  0  0  0  0  0  0  0  0  0  0  0
    3.2545    5.2885   -4.7988 C   0  0  0  0  0  0  0  0  0  0  0  0
    2.8896    4.6106   -5.9625 C   0  0  0  0  0  0  0  0  0  0  0  0
    3.0285    2.9492   -5.6682 S   0  0  0  0  0  0  0  0  0  0  0  0
    2.4997    5.2865   -7.2206 C   0  0  0  0  0  0  0  0  0  0  0  0
    3.1599    5.0101   -8.3520 C   0  0  0  0  0  0  0  0  0  0  0  0
    3.9162    6.0319   -9.0911 C   0  0  0  0  0  0  0  0  0  0  0  0
    4.1701    7.2008   -8.6896 O   0  0  0  0  0  0  0  0  0  0  0  0
    4.3445    5.4453  -10.3354 C   0  0  0  0  0  0  0  0  0  0  0  0
    3.8666    4.1552  -10.4480 C   0  0  0  0  0  0  0  0  0  0  0  0
    4.0667    3.5817  -11.7054 C   0  0  0  0  0  0  0  0  0  0  0  0
    4.8860    4.7470  -12.6355 S   0  0  0  0  0  0  0  0  0  0  0  0
    4.9768    5.9573  -11.4536 C   0  0  0  0  0  0  0  0  0  0  0  0
    5.5145    7.3354  -11.6216 C   0  0  0  0  0  0  0  0  0  0  0  0
    3.0541    3.7991   -9.2538 C   0  0  0  0  0  0  0  0  0  0  0  0
    2.1996    2.7447   -9.1576 C   0  0  0  0  0  0  0  0  0  0  0  0
    1.1361    2.6946   -8.1869 C   0  0  0  0  0  0  0  0  0  0  0  0
    0.2691    2.6120   -7.4181 N   0  0  0  0  0  0  0  0  0  0  0  0
    2.2812    1.6191  -10.0609 C   0  0  0  0  0  0  0  0  0  0  0  0
    2.3490    0.6970  -10.7493 N   0  0  0  0  0  0  0  0  0  0  0  0
   -5.1133   -4.6000    0.9640 H   0  0  0  0  0  0  0  0  0  0  0  0
  -10.0539   -6.9760   -2.1243 H   0  0  0  0  0  0  0  0  0  0  0  0
   -6.4523   -4.3736   -5.2789 H   0  0  0  0  0  0  0  0  0  0  0  0
   -5.7301   -6.0413   -5.2531 H   0  0  0  0  0  0  0  0  0  0  0  0
   -5.1402   -4.7657   -4.1193 H   0  0  0  0  0  0  0  0  0  0  0  0
   -6.8135   -2.1007    3.2745 H   0  0  0  0  0  0  0  0  0  0  0  0
   -9.2480   -2.4739    3.4364 H   0  0  0  0  0  0  0  0  0  0  0  0
  -11.2808   -3.5649    1.3126 H   0  0  0  0  0  0  0  0  0  0  0  0
  -11.4813   -2.1146    2.3791 H   0  0  0  0  0  0  0  0  0  0  0  0
  -11.6193   -1.9384    0.5981 H   0  0  0  0  0  0  0  0  0  0  0  0
   -9.6088   -1.9798   -0.8321 H   0  0  0  0  0  0  0  0  0  0  0  0
   -7.1764   -1.6323   -0.9902 H   0  0  0  0  0  0  0  0  0  0  0  0
   -6.3550    0.8383    1.8113 H   0  0  0  0  0  0  0  0  0  0  0  0
   -5.6623    3.0245    0.9656 H   0  0  0  0  0  0  0  0  0  0  0  0
   -4.5833    4.0780   -1.3991 H   0  0  0  0  0  0  0  0  0  0  0  0
   -3.4189    4.1923   -0.0153 H   0  0  0  0  0  0  0  0  0  0  0  0
   -2.8903    3.4930   -1.5886 H   0  0  0  0  0  0  0  0  0  0  0  0
   -2.8393    1.1068   -1.6822 H   0  0  0  0  0  0  0  0  0  0  0  0
   -3.5799   -1.0979   -0.8831 H   0  0  0  0  0  0  0  0  0  0  0  0
    0.4292   -6.6186    2.9045 H   0  0  0  0  0  0  0  0  0  0  0  0
   -0.2154   -8.1949    4.6391 H   0  0  0  0  0  0  0  0  0  0  0  0
   -1.7090   -7.2435    7.9597 H   0  0  0  0  0  0  0  0  0  0  0  0
   -2.5069   -8.1337    6.6011 H   0  0  0  0  0  0  0  0  0  0  0  0
   -0.8136   -8.5355    7.0831 H   0  0  0  0  0  0  0  0  0  0  0  0
   -1.8216   -4.9751    7.0300 H   0  0  0  0  0  0  0  0  0  0  0  0
   -1.1329   -3.3692    5.3066 H   0  0  0  0  0  0  0  0  0  0  0  0
   -0.3489   -3.7150    0.1743 H   0  0  0  0  0  0  0  0  0  0  0  0
    1.3683   -4.0960   -1.5147 H   0  0  0  0  0  0  0  0  0  0  0  0
    3.5121   -4.9491   -2.1649 H   0  0  0  0  0  0  0  0  0  0  0  0
    4.4996   -5.8290   -0.9425 H   0  0  0  0  0  0  0  0  0  0  0  0
    4.6818   -4.0412   -1.1235 H   0  0  0  0  0  0  0  0  0  0  0  0
    4.2086   -5.1194    1.5645 H   0  0  0  0  0  0  0  0  0  0  0  0
    2.4937   -4.6902    3.2680 H   0  0  0  0  0  0  0  0  0  0  0  0
   -0.5937    2.3028    0.9318 H   0  0  0  0  0  0  0  0  0  0  0  0
   -0.5630    4.6398    0.1472 H   0  0  0  0  0  0  0  0  0  0  0  0
    1.7258    6.6260    1.1723 H   0  0  0  0  0  0  0  0  0  0  0  0
    1.5194    8.3662    1.6085 H   0  0  0  0  0  0  0  0  0  0  0  0
    1.4352    7.1103    2.8926 H   0  0  0  0  0  0  0  0  0  0  0  0
   -0.8335    6.0388    4.2165 H   0  0  0  0  0  0  0  0  0  0  0  0
   -0.8007    3.7181    5.0114 H   0  0  0  0  0  0  0  0  0  0  0  0
    0.2404   -0.0450    5.6132 H   0  0  0  0  0  0  0  0  0  0  0  0
   -1.0773   -0.7531    7.5501 H   0  0  0  0  0  0  0  0  0  0  0  0
   -3.4787    1.0276   10.4523 H   0  0  0  0  0  0  0  0  0  0  0  0
   -2.0686    1.2446    9.3411 H   0  0  0  0  0  0  0  0  0  0  0  0
   -3.6238    2.1544    9.0396 H   0  0  0  0  0  0  0  0  0  0  0  0
   -4.4909    1.3879    6.0123 H   0  0  0  0  0  0  0  0  0  0  0  0
   -3.1957    2.0605    4.0267 H   0  0  0  0  0  0  0  0  0  0  0  0
    5.9523   -0.1377   -0.1904 H   0  0  0  0  0  0  0  0  0  0  0  0
    8.2132    0.4028   -1.0111 H   0  0  0  0  0  0  0  0  0  0  0  0
   11.5569    3.0522    0.0520 H   0  0  0  0  0  0  0  0  0  0  0  0
    9.7651    2.9814   -0.1067 H   0  0  0  0  0  0  0  0  0  0  0  0
   10.5378    2.9412    1.5383 H   0  0  0  0  0  0  0  0  0  0  0  0
    9.6055    0.5762    3.0613 H   0  0  0  0  0  0  0  0  0  0  0  0
    7.3157    0.1977    3.8711 H   0  0  0  0  0  0  0  0  0  0  0  0
    4.2600   -0.1153    4.9343 H   0  0  0  0  0  0  0  0  0  0  0  0
    4.0853   -1.9293    6.5699 H   0  0  0  0  0  0  0  0  0  0  0  0
    2.8905   -6.0759    6.8082 H   0  0  0  0  0  0  0  0  0  0  0  0
    3.2445   -5.7689    5.0702 H   0  0  0  0  0  0  0  0  0  0  0  0
    2.4863   -4.4649    6.0936 H   0  0  0  0  0  0  0  0  0  0  0  0
    5.7994   -4.6813    3.7187 H   0  0  0  0  0  0  0  0  0  0  0  0
    5.9032   -2.8684    2.0494 H   0  0  0  0  0  0  0  0  0  0  0  0
    3.6433    0.6812   -0.5555 H   0  0  0  0  0  0  0  0  0  0  0  0
    4.7032   -0.4918   -2.1503 H   0  0  0  0  0  0  0  0  0  0  0  0
    3.7203   -2.7129   -2.9864 H   0  0  0  0  0  0  0  0  0  0  0  0
   -0.7310   -3.1637   -5.5447 H   0  0  0  0  0  0  0  0  0  0  0  0
   -0.3601   -1.4708   -5.0935 H   0  0  0  0  0  0  0  0  0  0  0  0
   -0.2702   -3.9427   -3.2362 H   0  0  0  0  0  0  0  0  0  0  0  0
   -1.5366   -2.6514   -3.2550 H   0  0  0  0  0  0  0  0  0  0  0  0
    0.1421   -2.2475   -2.7354 H   0  0  0  0  0  0  0  0  0  0  0  0
    5.5928    6.7791   -3.9276 H   0  0  0  0  0  0  0  0  0  0  0  0
    5.5476    9.2515   -3.1589 H   0  0  0  0  0  0  0  0  0  0  0  0
    2.4037   11.6567   -1.8086 H   0  0  0  0  0  0  0  0  0  0  0  0
    2.4808   10.0638   -2.6186 H   0  0  0  0  0  0  0  0  0  0  0  0
    1.2695   10.5441    0.1852 H   0  0  0  0  0  0  0  0  0  0  0  0
    0.3285   10.4366   -1.3499 H   0  0  0  0  0  0  0  0  0  0  0  0
    1.2461    9.0038   -0.7630 H   0  0  0  0  0  0  0  0  0  0  0  0
    3.2669    6.3656   -4.7428 H   0  0  0  0  0  0  0  0  0  0  0  0
    2.3567    6.3548   -7.0323 H   0  0  0  0  0  0  0  0  0  0  0  0
    3.7223    2.6197  -12.0640 H   0  0  0  0  0  0  0  0  0  0  0  0
    6.0382    7.4206  -12.5979 H   0  0  0  0  0  0  0  0  0  0  0  0
    4.6840    8.0730  -11.5760 H   0  0  0  0  0  0  0  0  0  0  0  0
    6.2360    7.5585  -10.8050 H   0  0  0  0  0  0  0  0  0  0  0  0
  1  2  2  3
  2  3  1  0
  3  4  2  0
  3  5  1  0
  5  6  1  0
  6  7  2  0
  7  8  1  0
  8  9  1  0
  9 10  1  0
  6 11  1  0
 11 12  2  3
 12 13  1  0
 13 14  3  0
 12 15  1  0
 15 16  3  0
  1 17  1  0
 17 18  2  0
 18 19  1  0
 19 20  1  0
 20 21  2  0
 21 22  1  0
 22 23  2  0
 23 24  1  0
 23 25  1  0
 25 26  2  0
 19 27  1  0
 27 28  2  0
 28 29  1  0
 29 30  2  0
 30 31  1  0
 30 32  1  0
 32 33  2  0
 18 34  1  0
 34 35  1  0
 35 36  1  0
 36 37  2  0
 37 38  1  0
 38 39  1  0
 39 40  2  0
 40 41  1  0
 41 42  2  0
 42 43  1  0
 42 44  1  0
 44 45  2  0
 38 46  1  0
 46 47  2  0
 47 48  1  0
 48 49  2  0
 49 50  1  0
 49 51  1  0
 51 52  2  0
 37 53  1  0
 53 54  1  0
 36 55  1  0
 55 56  2  0
 56 57  1  0
 57 58  1  0
 58 59  2  0
 59 60  1  0
 60 61  2  0
 61 62  1  0
 62 63  1  0
 61 64  1  0
 64 65  2  0
 57 66  1  0
 66 67  2  0
 67 68  1  0
 68 69  2  0
 69 70  1  0
 70 71  1  0
 69 72  1  0
 72 73  2  0
 56 74  1  0
 74 75  1  0
 75 76  1  0
 76 77  2  0
 77 78  1  0
 78 79  1  0
 79 80  2  0
 80 81  1  0
 81 82  2  0
 82 83  1  0
 83 84  1  0
 82 85  1  0
 85 86  2  0
 78 87  1  0
 87 88  2  0
 88 89  1  0
 89 90  2  0
 90 91  1  0
 91 92  1  0
 90 93  1  0
 93 94  2  0
 77 95  1  0
 95 96  1  0
 76 97  1  0
 97 98  2  0
 98 99  1  0
 99100  2  0
100101  1  0
101102  2  0
102103  1  0
103104  2  0
104105  1  0
105106  1  0
106107  1  0
104108  1  0
100109  1  0
109110  2  0
110111  1  0
111112  1  0
112113  2  0
113114  1  0
114115  2  0
115116  1  0
116117  1  0
117118  1  0
115119  1  0
111120  2  0
120121  1  0
110122  1  0
122123  2  0
123124  1  0
123125  1  0
125126  2  3
126127  1  0
127128  2  0
127129  1  0
129130  1  0
130131  2  0
131132  1  0
132133  1  0
133134  1  0
130135  1  0
135136  2  3
136137  1  0
137138  3  0
136139  1  0
139140  3  0
 11  2  1  0
 54 17  1  0
 96 55  1  0
121 97  1  0
135126  1  0
  9  5  2  0
 26 20  1  0
 33 27  1  0
 53 34  2  0
 65 58  1  0
 73 66  1  0
 95 74  2  0
120 99  1  0
133129  2  0
 45 39  1  0
 52 46  1  0
 86 79  1  0
 94 87  1  0
108101  1  0
124109  1  0
119112  1  0
  1141  1  0
  7142  1  0
 10143  1  0
 10144  1  0
 10145  1  0
 21146  1  0
 22147  1  0
 24148  1  0
 24149  1  0
 24150  1  0
 25151  1  0
 26152  1  0
 28153  1  0
 29154  1  0
 31155  1  0
 31156  1  0
 31157  1  0
 32158  1  0
 33159  1  0
 40160  1  0
 41161  1  0
 43162  1  0
 43163  1  0
 43164  1  0
 44165  1  0
 45166  1  0
 47167  1  0
 48168  1  0
 50169  1  0
 50170  1  0
 50171  1  0
 51172  1  0
 52173  1  0
 59174  1  0
 60175  1  0
 63176  1  0
 63177  1  0
 63178  1  0
 64179  1  0
 65180  1  0
 67181  1  0
 68182  1  0
 71183  1  0
 71184  1  0
 71185  1  0
 72186  1  0
 73187  1  0
 80188  1  0
 81189  1  0
 84190  1  0
 84191  1  0
 84192  1  0
 85193  1  0
 86194  1  0
 88195  1  0
 89196  1  0
 92197  1  0
 92198  1  0
 92199  1  0
 93200  1  0
 94201  1  0
 98202  1  0
102203  1  0
103204  1  0
106205  1  0
106206  1  0
107207  1  0
107208  1  0
107209  1  0
113210  1  0
114211  1  0
117212  1  0
117213  1  0
118214  1  0
118215  1  0
118216  1  0
122217  1  0
125218  1  0
131219  1  0
134220  1  0
134221  1  0
134222  1  0
M  END

