
     RDKit          3D

208226  0  0  0  0  0  0  0  0999 V2000
   -1.2216  -10.7573    3.1903 C   0  0  0  0  0  0  0  0  0  0  0  0
   -1.6074   -9.9523    4.2102 C   0  0  0  0  0  0  0  0  0  0  0  0
   -0.7095   -9.2614    5.1540 C   0  0  0  0  0  0  0  0  0  0  0  0
    0.4142   -9.6801    5.5598 O   0  0  0  0  0  0  0  0  0  0  0  0
   -1.4380   -8.1912    5.7719 C   0  0  0  0  0  0  0  0  0  0  0  0
   -2.7299   -8.1879    5.3234 C   0  0  0  0  0  0  0  0  0  0  0  0
   -3.4891   -7.1222    5.8003 C   0  0  0  0  0  0  0  0  0  0  0  0
   -2.4901   -6.2498    6.8656 S   0  0  0  0  0  0  0  0  0  0  0  0
   -1.1118   -7.2078    6.6945 C   0  0  0  0  0  0  0  0  0  0  0  0
    0.1932   -6.9961    7.3741 C   0  0  0  0  0  0  0  0  0  0  0  0
   -2.9647   -9.3162    4.3834 C   0  0  0  0  0  0  0  0  0  0  0  0
   -4.1673   -9.6598    3.8624 C   0  0  0  0  0  0  0  0  0  0  0  0
   -4.3530  -10.7742    2.9612 C   0  0  0  0  0  0  0  0  0  0  0  0
   -4.5197  -11.6643    2.2452 N   0  0  0  0  0  0  0  0  0  0  0  0
   -5.3779   -9.0004    4.2773 C   0  0  0  0  0  0  0  0  0  0  0  0
   -6.3748   -8.5041    4.6149 N   0  0  0  0  0  0  0  0  0  0  0  0
   -0.0484  -10.4445    2.3501 C   0  0  0  0  0  0  0  0  0  0  0  0
   -0.2885   -9.9472    1.0515 C   0  0  0  0  0  0  0  0  0  0  0  0
    0.6801   -9.1536    0.4438 C   0  0  0  0  0  0  0  0  0  0  0  0
    0.4577   -8.2448   -0.5379 N   0  0  0  0  0  0  0  0  0  0  0  0
   -0.5837   -8.2835   -1.5767 C   0  0  0  0  0  0  0  0  0  0  0  0
   -1.8814   -7.6557   -1.0770 C   0  0  0  0  0  0  0  0  0  0  0  0
    1.4491   -7.3293   -0.4225 C   0  0  0  0  0  0  0  0  0  0  0  0
    2.3524   -7.7246    0.5473 C   0  0  0  0  0  0  0  0  0  0  0  0
    1.8621   -8.8807    1.1023 C   0  0  0  0  0  0  0  0  0  0  0  0
    2.2154   -9.5282    2.2849 C   0  0  0  0  0  0  0  0  0  0  0  0
    1.2548  -10.3473    2.8927 C   0  0  0  0  0  0  0  0  0  0  0  0
    3.3280   -6.8706    1.0407 C   0  0  0  0  0  0  0  0  0  0  0  0
    3.3102   -5.5416    0.6263 C   0  0  0  0  0  0  0  0  0  0  0  0
    2.3095   -5.0744   -0.2696 C   0  0  0  0  0  0  0  0  0  0  0  0
    1.4012   -5.9900   -0.8351 C   0  0  0  0  0  0  0  0  0  0  0  0
    2.0632   -3.6226   -0.3257 C   0  0  0  0  0  0  0  0  0  0  0  0
    2.1648   -2.7524   -1.4374 C   0  0  0  0  0  0  0  0  0  0  0  0
    1.9581   -3.1706   -2.7956 N   0  0  0  0  0  0  0  0  0  0  0  0
    3.0941   -3.5108   -3.6115 C   0  0  0  0  0  0  0  0  0  0  0  0
    3.7796   -4.7097   -3.4032 C   0  0  0  0  0  0  0  0  0  0  0  0
    4.8551   -5.0551   -4.2121 C   0  0  0  0  0  0  0  0  0  0  0  0
    5.2844   -4.1848   -5.2245 C   0  0  0  0  0  0  0  0  0  0  0  0
    6.7152   -4.6330   -6.2170 S   0  0  0  0  0  0  0  0  0  0  0  0
    5.7695   -5.5601   -7.4719 C   0  0  0  0  0  0  0  0  0  0  0  0
    4.6186   -2.9639   -5.4283 C   0  0  0  0  0  0  0  0  0  0  0  0
    3.5227   -2.6330   -4.6229 C   0  0  0  0  0  0  0  0  0  0  0  0
    0.6218   -3.5230   -3.2131 C   0  0  0  0  0  0  0  0  0  0  0  0
    0.3792   -4.6203   -4.0574 C   0  0  0  0  0  0  0  0  0  0  0  0
   -0.9264   -5.0771   -4.2820 C   0  0  0  0  0  0  0  0  0  0  0  0
   -2.0115   -4.4213   -3.6975 C   0  0  0  0  0  0  0  0  0  0  0  0
   -3.6685   -5.0763   -3.8883 S   0  0  0  0  0  0  0  0  0  0  0  0
   -4.1274   -3.9150   -5.2102 C   0  0  0  0  0  0  0  0  0  0  0  0
   -1.7933   -3.2926   -2.9060 C   0  0  0  0  0  0  0  0  0  0  0  0
   -0.4884   -2.8350   -2.6812 C   0  0  0  0  0  0  0  0  0  0  0  0
    2.1557   -1.4227   -1.0071 C   0  0  0  0  0  0  0  0  0  0  0  0
    2.2427    0.0708   -1.7418 S   0  0  0  0  0  0  0  0  0  0  0  0
    2.0824    1.0063   -0.3056 C   0  0  0  0  0  0  0  0  0  0  0  0
    1.9891    0.0871    0.7745 C   0  0  0  0  0  0  0  0  0  0  0  0
    2.0174    0.4007    2.1837 N   0  0  0  0  0  0  0  0  0  0  0  0
    3.2837    0.3418    2.9108 C   0  0  0  0  0  0  0  0  0  0  0  0
    4.2001   -0.6957    2.6766 C   0  0  0  0  0  0  0  0  0  0  0  0
    5.2337   -0.9403    3.5824 C   0  0  0  0  0  0  0  0  0  0  0  0
    5.4144   -0.0962    4.6788 C   0  0  0  0  0  0  0  0  0  0  0  0
    6.6586   -0.4857    5.9064 S   0  0  0  0  0  0  0  0  0  0  0  0
    5.4945   -1.1723    7.1276 C   0  0  0  0  0  0  0  0  0  0  0  0
    4.5849    1.0090    4.8441 C   0  0  0  0  0  0  0  0  0  0  0  0
    3.5312    1.2400    3.9666 C   0  0  0  0  0  0  0  0  0  0  0  0
    0.7759    0.4392    2.9536 C   0  0  0  0  0  0  0  0  0  0  0  0
    0.7604    0.0230    4.2984 C   0  0  0  0  0  0  0  0  0  0  0  0
   -0.1213    0.6165    5.1925 C   0  0  0  0  0  0  0  0  0  0  0  0
   -1.0809    1.5243    4.7469 C   0  0  0  0  0  0  0  0  0  0  0  0
   -1.8574    2.6263    5.9214 S   0  0  0  0  0  0  0  0  0  0  0  0
   -0.3936    3.7027    6.0454 C   0  0  0  0  0  0  0  0  0  0  0  0
   -1.1961    1.7980    3.3745 C   0  0  0  0  0  0  0  0  0  0  0  0
   -0.3257    1.1826    2.4718 C   0  0  0  0  0  0  0  0  0  0  0  0
    2.0072   -1.2392    0.3216 C   0  0  0  0  0  0  0  0  0  0  0  0
    1.8894   -2.7130    1.0988 S   0  0  0  0  0  0  0  0  0  0  0  0
    1.5838    2.4011   -0.3281 C   0  0  0  0  0  0  0  0  0  0  0  0
    0.6061    2.7535   -1.2583 C   0  0  0  0  0  0  0  0  0  0  0  0
    0.8982    2.8131   -2.6675 N   0  0  0  0  0  0  0  0  0  0  0  0
    1.9019    3.7642   -3.0581 C   0  0  0  0  0  0  0  0  0  0  0  0
    3.1457    3.3226   -3.5411 C   0  0  0  0  0  0  0  0  0  0  0  0
    4.1521    4.2440   -3.8479 C   0  0  0  0  0  0  0  0  0  0  0  0
    3.9316    5.6180   -3.6732 C   0  0  0  0  0  0  0  0  0  0  0  0
    5.2510    6.7977   -3.9911 S   0  0  0  0  0  0  0  0  0  0  0  0
    5.4727    7.2671   -2.2297 C   0  0  0  0  0  0  0  0  0  0  0  0
    2.6793    6.0669   -3.2206 C   0  0  0  0  0  0  0  0  0  0  0  0
    1.6819    5.1482   -2.9065 C   0  0  0  0  0  0  0  0  0  0  0  0
   -0.0687    2.3272   -3.6232 C   0  0  0  0  0  0  0  0  0  0  0  0
   -0.7141    1.0910   -3.4115 C   0  0  0  0  0  0  0  0  0  0  0  0
   -1.5836    0.5834   -4.3674 C   0  0  0  0  0  0  0  0  0  0  0  0
   -1.8193    1.3003   -5.5450 C   0  0  0  0  0  0  0  0  0  0  0  0
   -2.7168    0.5669   -6.9073 S   0  0  0  0  0  0  0  0  0  0  0  0
   -1.2451   -0.3158   -7.5053 C   0  0  0  0  0  0  0  0  0  0  0  0
   -1.2539    2.5680   -5.7134 C   0  0  0  0  0  0  0  0  0  0  0  0
   -0.3811    3.0773   -4.7645 C   0  0  0  0  0  0  0  0  0  0  0  0
   -0.2975    3.6391   -0.7187 C   0  0  0  0  0  0  0  0  0  0  0  0
   -1.7246    4.2505   -1.3100 S   0  0  0  0  0  0  0  0  0  0  0  0
   -1.9289    5.2955    0.0093 C   0  0  0  0  0  0  0  0  0  0  0  0
   -0.7926    5.2842    0.8449 C   0  0  0  0  0  0  0  0  0  0  0  0
   -0.3635    6.4509    1.5720 N   0  0  0  0  0  0  0  0  0  0  0  0
    0.6441    6.3985    2.5857 C   0  0  0  0  0  0  0  0  0  0  0  0
    0.2870    6.5114    3.9322 C   0  0  0  0  0  0  0  0  0  0  0  0
    1.2701    6.6822    4.9143 C   0  0  0  0  0  0  0  0  0  0  0  0
    2.6208    6.7609    4.5555 C   0  0  0  0  0  0  0  0  0  0  0  0
    3.8545    7.1044    5.7983 S   0  0  0  0  0  0  0  0  0  0  0  0
    4.3015    5.3579    6.0270 C   0  0  0  0  0  0  0  0  0  0  0  0
    2.9838    6.6433    3.2025 C   0  0  0  0  0  0  0  0  0  0  0  0
    2.0014    6.4785    2.2294 C   0  0  0  0  0  0  0  0  0  0  0  0
   -0.4981    7.7142    0.9051 C   0  0  0  0  0  0  0  0  0  0  0  0
    0.1690    7.9293   -0.3112 C   0  0  0  0  0  0  0  0  0  0  0  0
   -0.0345    9.1061   -1.0171 C   0  0  0  0  0  0  0  0  0  0  0  0
   -0.9542   10.0577   -0.5568 C   0  0  0  0  0  0  0  0  0  0  0  0
   -1.2856   11.5399   -1.5150 S   0  0  0  0  0  0  0  0  0  0  0  0
   -2.1851   10.6725   -2.8569 C   0  0  0  0  0  0  0  0  0  0  0  0
   -1.6105    9.8540    0.6695 C   0  0  0  0  0  0  0  0  0  0  0  0
   -1.3671    8.6887    1.4074 C   0  0  0  0  0  0  0  0  0  0  0  0
    0.0758    4.2539    0.4445 C   0  0  0  0  0  0  0  0  0  0  0  0
    1.4681    3.4708    1.0128 S   0  0  0  0  0  0  0  0  0  0  0  0
   -3.1588    6.0525    0.2473 C   0  0  0  0  0  0  0  0  0  0  0  0
   -4.3286    5.4683    0.5768 C   0  0  0  0  0  0  0  0  0  0  0  0
   -4.5028    4.0350    0.8743 C   0  0  0  0  0  0  0  0  0  0  0  0
   -3.6724    3.1161    0.6731 O   0  0  0  0  0  0  0  0  0  0  0  0
   -5.8169    3.8674    1.4507 C   0  0  0  0  0  0  0  0  0  0  0  0
   -6.4684    5.0769    1.4993 C   0  0  0  0  0  0  0  0  0  0  0  0
   -7.7196    5.0204    2.1150 C   0  0  0  0  0  0  0  0  0  0  0  0
   -7.9496    3.3942    2.5692 S   0  0  0  0  0  0  0  0  0  0  0  0
   -6.4791    2.7889    2.0094 C   0  0  0  0  0  0  0  0  0  0  0  0
   -6.0213    1.3715    2.0751 C   0  0  0  0  0  0  0  0  0  0  0  0
   -5.6355    6.1465    0.9040 C   0  0  0  0  0  0  0  0  0  0  0  0
   -6.0490    7.4010    0.5810 C   0  0  0  0  0  0  0  0  0  0  0  0
   -7.3720    7.8621    0.9023 C   0  0  0  0  0  0  0  0  0  0  0  0
   -8.4415    8.2434    1.1451 N   0  0  0  0  0  0  0  0  0  0  0  0
   -5.2568    8.3025   -0.1994 C   0  0  0  0  0  0  0  0  0  0  0  0
   -4.6202    9.0353   -0.8330 N   0  0  0  0  0  0  0  0  0  0  0  0
   -1.9722  -11.2876    2.6370 H   0  0  0  0  0  0  0  0  0  0  0  0
   -4.5103   -6.8495    5.5331 H   0  0  0  0  0  0  0  0  0  0  0  0
    0.1039   -6.2196    8.1728 H   0  0  0  0  0  0  0  0  0  0  0  0
    0.5363   -7.9472    7.8400 H   0  0  0  0  0  0  0  0  0  0  0  0
    0.9598   -6.6659    6.6352 H   0  0  0  0  0  0  0  0  0  0  0  0
   -1.2723  -10.0431    0.6083 H   0  0  0  0  0  0  0  0  0  0  0  0
   -0.7785   -9.3310   -1.8854 H   0  0  0  0  0  0  0  0  0  0  0  0
   -0.2376   -7.7354   -2.4776 H   0  0  0  0  0  0  0  0  0  0  0  0
   -2.5103   -8.4147   -0.5534 H   0  0  0  0  0  0  0  0  0  0  0  0
   -1.6906   -6.7983   -0.3904 H   0  0  0  0  0  0  0  0  0  0  0  0
   -2.4679   -7.2780   -1.9477 H   0  0  0  0  0  0  0  0  0  0  0  0
    3.1418   -9.2915    2.7936 H   0  0  0  0  0  0  0  0  0  0  0  0
    1.5142  -10.8317    3.8294 H   0  0  0  0  0  0  0  0  0  0  0  0
    3.9815   -7.1692    1.8507 H   0  0  0  0  0  0  0  0  0  0  0  0
    3.9912   -4.8357    1.0968 H   0  0  0  0  0  0  0  0  0  0  0  0
    0.5746   -5.6538   -1.4530 H   0  0  0  0  0  0  0  0  0  0  0  0
    3.4623   -5.3984   -2.6476 H   0  0  0  0  0  0  0  0  0  0  0  0
    5.3868   -5.9759   -4.0415 H   0  0  0  0  0  0  0  0  0  0  0  0
    4.7982   -5.9231   -7.0805 H   0  0  0  0  0  0  0  0  0  0  0  0
    6.3906   -6.4020   -7.8525 H   0  0  0  0  0  0  0  0  0  0  0  0
    5.5668   -4.8734   -8.3260 H   0  0  0  0  0  0  0  0  0  0  0  0
    4.9732   -2.2768   -6.1894 H   0  0  0  0  0  0  0  0  0  0  0  0
    3.0087   -1.7019   -4.7998 H   0  0  0  0  0  0  0  0  0  0  0  0
    1.2029   -5.1814   -4.4819 H   0  0  0  0  0  0  0  0  0  0  0  0
   -1.0941   -5.9626   -4.8810 H   0  0  0  0  0  0  0  0  0  0  0  0
   -5.1495   -4.1669   -5.5753 H   0  0  0  0  0  0  0  0  0  0  0  0
   -4.1474   -2.8789   -4.8055 H   0  0  0  0  0  0  0  0  0  0  0  0
   -3.4012   -3.9615   -6.0459 H   0  0  0  0  0  0  0  0  0  0  0  0
   -2.6292   -2.7750   -2.4495 H   0  0  0  0  0  0  0  0  0  0  0  0
   -0.3482   -1.9595   -2.0479 H   0  0  0  0  0  0  0  0  0  0  0  0
    4.1055   -1.3597    1.8368 H   0  0  0  0  0  0  0  0  0  0  0  0
    5.8788   -1.7860    3.4126 H   0  0  0  0  0  0  0  0  0  0  0  0
    6.0685   -1.7869    7.8557 H   0  0  0  0  0  0  0  0  0  0  0  0
    4.7202   -1.8070    6.6528 H   0  0  0  0  0  0  0  0  0  0  0  0
    5.0237   -0.3390    7.6816 H   0  0  0  0  0  0  0  0  0  0  0  0
    4.7324    1.6715    5.6853 H   0  0  0  0  0  0  0  0  0  0  0  0
    2.8781    2.0915    4.1280 H   0  0  0  0  0  0  0  0  0  0  0  0
    1.5743   -0.5258    4.7286 H   0  0  0  0  0  0  0  0  0  0  0  0
    0.1585    0.6506    6.2264 H   0  0  0  0  0  0  0  0  0  0  0  0
   -0.5494    4.4654    6.8298 H   0  0  0  0  0  0  0  0  0  0  0  0
    0.5084    3.1117    6.2901 H   0  0  0  0  0  0  0  0  0  0  0  0
   -0.2378    4.2356    5.0865 H   0  0  0  0  0  0  0  0  0  0  0  0
   -1.8978    2.5516    3.0241 H   0  0  0  0  0  0  0  0  0  0  0  0
   -0.3639    1.5187    1.4441 H   0  0  0  0  0  0  0  0  0  0  0  0
    3.3475    2.2721   -3.6305 H   0  0  0  0  0  0  0  0  0  0  0  0
    5.1102    3.8996   -4.2073 H   0  0  0  0  0  0  0  0  0  0  0  0
    6.5204    7.5841   -2.0788 H   0  0  0  0  0  0  0  0  0  0  0  0
    5.2708    6.4044   -1.5697 H   0  0  0  0  0  0  0  0  0  0  0  0
    4.7784    8.0990   -1.9810 H   0  0  0  0  0  0  0  0  0  0  0  0
    2.4978    7.1226   -3.0741 H   0  0  0  0  0  0  0  0  0  0  0  0
    0.7238    5.5138   -2.5507 H   0  0  0  0  0  0  0  0  0  0  0  0
   -0.5150    0.5068   -2.5236 H   0  0  0  0  0  0  0  0  0  0  0  0
   -2.0292   -0.3924   -4.2287 H   0  0  0  0  0  0  0  0  0  0  0  0
   -0.8931   -1.0437   -6.7370 H   0  0  0  0  0  0  0  0  0  0  0  0
   -0.4241    0.4048   -7.7172 H   0  0  0  0  0  0  0  0  0  0  0  0
   -1.4910   -0.8596   -8.4334 H   0  0  0  0  0  0  0  0  0  0  0  0
   -1.4377    3.1454   -6.6147 H   0  0  0  0  0  0  0  0  0  0  0  0
    0.0583    4.0516   -4.9240 H   0  0  0  0  0  0  0  0  0  0  0  0
   -0.7558    6.5082    4.2136 H   0  0  0  0  0  0  0  0  0  0  0  0
    0.9763    6.8008    5.9498 H   0  0  0  0  0  0  0  0  0  0  0  0
    3.4104    4.7453    6.3020 H   0  0  0  0  0  0  0  0  0  0  0  0
    5.0614    5.2827    6.8337 H   0  0  0  0  0  0  0  0  0  0  0  0
    4.7475    4.9672    5.0825 H   0  0  0  0  0  0  0  0  0  0  0  0
    4.0254    6.7137    2.9090 H   0  0  0  0  0  0  0  0  0  0  0  0
    2.2935    6.4366    1.1890 H   0  0  0  0  0  0  0  0  0  0  0  0
    0.8474    7.1942   -0.6986 H   0  0  0  0  0  0  0  0  0  0  0  0
    0.4859    9.2819   -1.9428 H   0  0  0  0  0  0  0  0  0  0  0  0
   -2.0747    9.5674   -2.8105 H   0  0  0  0  0  0  0  0  0  0  0  0
   -1.7839   11.0249   -3.8304 H   0  0  0  0  0  0  0  0  0  0  0  0
   -3.2689   10.9328   -2.8144 H   0  0  0  0  0  0  0  0  0  0  0  0
   -2.3157   10.5845    1.0411 H   0  0  0  0  0  0  0  0  0  0  0  0
   -1.8955    8.5296    2.3415 H   0  0  0  0  0  0  0  0  0  0  0  0
   -3.0881    7.1174    0.2065 H   0  0  0  0  0  0  0  0  0  0  0  0
   -8.3988    5.8353    2.3060 H   0  0  0  0  0  0  0  0  0  0  0  0
   -6.1841    0.8758    1.0937 H   0  0  0  0  0  0  0  0  0  0  0  0
   -4.9398    1.3388    2.3367 H   0  0  0  0  0  0  0  0  0  0  0  0
   -6.5896    0.8250    2.8592 H   0  0  0  0  0  0  0  0  0  0  0  0
  1  2  2  3
  2  3  1  0
  3  4  2  0
  3  5  1  0
  5  6  1  0
  6  7  2  0
  7  8  1  0
  8  9  1  0
  9 10  1  0
  6 11  1  0
 11 12  2  3
 12 13  1  0
 13 14  3  0
 12 15  1  0
 15 16  3  0
  1 17  1  0
 17 18  2  0
 18 19  1  0
 19 20  1  0
 20 21  1  0
 21 22  1  0
 20 23  1  0
 23 24  2  0
 24 25  1  0
 25 26  1  0
 26 27  2  0
 24 28  1  0
 28 29  2  0
 29 30  1  0
 30 31  2  0
 30 32  1  0
 32 33  2  0
 33 34  1  0
 34 35  1  0
 35 36  2  0
 36 37  1  0
 37 38  2  0
 38 39  1  0
 39 40  1  0
 38 41  1  0
 41 42  2  0
 34 43  1  0
 43 44  2  0
 44 45  1  0
 45 46  2  0
 46 47  1  0
 47 48  1  0
 46 49  1  0
 49 50  2  0
 33 51  1  0
 51 52  1  0
 52 53  1  0
 53 54  2  0
 54 55  1  0
 55 56  1  0
 56 57  2  0
 57 58  1  0
 58 59  2  0
 59 60  1  0
 60 61  1  0
 59 62  1  0
 62 63  2  0
 55 64  1  0
 64 65  2  0
 65 66  1  0
 66 67  2  0
 67 68  1  0
 68 69  1  0
 67 70  1  0
 70 71  2  0
 54 72  1  0
 72 73  1  0
 53 74  1  0
 74 75  2  0
 75 76  1  0
 76 77  1  0
 77 78  2  0
 78 79  1  0
 79 80  2  0
 80 81  1  0
 81 82  1  0
 80 83  1  0
 83 84  2  0
 76 85  1  0
 85 86  2  0
 86 87  1  0
 87 88  2  0
 88 89  1  0
 89 90  1  0
 88 91  1  0
 91 92  2  0
 75 93  1  0
 93 94  1  0
 94 95  1  0
 95 96  2  0
 96 97  1  0
 97 98  1  0
 98 99  2  0
 99100  1  0
100101  2  0
101102  1  0
102103  1  0
101104  1  0
104105  2  0
 97106  1  0
106107  2  0
107108  1  0
108109  2  0
109110  1  0
110111  1  0
109112  1  0
112113  2  0
 96114  1  0
114115  1  0
 95116  1  0
116117  2  3
117118  1  0
118119  2  0
118120  1  0
120121  1  0
121122  2  0
122123  1  0
123124  1  0
124125  1  0
121126  1  0
126127  2  3
127128  1  0
128129  3  0
127130  1  0
130131  3  0
 11  2  1  0
 27 17  1  0
 73 32  1  0
115 74  1  0
126117  1  0
  9  5  2  0
 25 19  2  0
 42 35  1  0
 50 43  1  0
 72 51  2  0
 84 77  1  0
 92 85  1  0
114 93  2  0
124120  2  0
 31 23  1  0
 63 56  1  0
 71 64  1  0
105 98  1  0
113106  1  0
  1132  1  0
  7133  1  0
 10134  1  0
 10135  1  0
 10136  1  0
 18137  1  0
 21138  1  0
 21139  1  0
 22140  1  0
 22141  1  0
 22142  1  0
 26143  1  0
 27144  1  0
 28145  1  0
 29146  1  0
 31147  1  0
 36148  1  0
 37149  1  0
 40150  1  0
 40151  1  0
 40152  1  0
 41153  1  0
 42154  1  0
 44155  1  0
 45156  1  0
 48157  1  0
 48158  1  0
 48159  1  0
 49160  1  0
 50161  1  0
 57162  1  0
 58163  1  0
 61164  1  0
 61165  1  0
 61166  1  0
 62167  1  0
 63168  1  0
 65169  1  0
 66170  1  0
 69171  1  0
 69172  1  0
 69173  1  0
 70174  1  0
 71175  1  0
 78176  1  0
 79177  1  0
 82178  1  0
 82179  1  0
 82180  1  0
 83181  1  0
 84182  1  0
 86183  1  0
 87184  1  0
 90185  1  0
 90186  1  0
 90187  1  0
 91188  1  0
 92189  1  0
 99190  1  0
100191  1  0
103192  1  0
103193  1  0
103194  1  0
104195  1  0
105196  1  0
107197  1  0
108198  1  0
111199  1  0
111200  1  0
111201  1  0
112202  1  0
113203  1  0
116204  1  0
122205  1  0
125206  1  0
125207  1  0
125208  1  0
M  END

