
     RDKit          3D

208225  0  0  0  0  0  0  0  0999 V2000
    3.8102   -6.7885   -0.0646 C   0  0  0  0  0  0  0  0  0  0  0  0
    4.9651   -6.5596    0.5783 C   0  0  0  0  0  0  0  0  0  0  0  0
    6.1524   -7.3954    0.4279 C   0  0  0  0  0  0  0  0  0  0  0  0
    6.2023   -8.5386   -0.1016 O   0  0  0  0  0  0  0  0  0  0  0  0
    7.2700   -6.6632    0.9734 C   0  0  0  0  0  0  0  0  0  0  0  0
    6.8065   -5.4612    1.4793 C   0  0  0  0  0  0  0  0  0  0  0  0
    7.6833   -4.5832    2.1258 C   0  0  0  0  0  0  0  0  0  0  0  0
    9.0408   -4.9332    2.2318 C   0  0  0  0  0  0  0  0  0  0  0  0
    9.9055   -4.0897    2.8506 F   0  0  0  0  0  0  0  0  0  0  0  0
    9.5035   -6.1536    1.7025 C   0  0  0  0  0  0  0  0  0  0  0  0
   10.8146   -6.4846    1.8119 F   0  0  0  0  0  0  0  0  0  0  0  0
    8.6122   -7.0319    1.0656 C   0  0  0  0  0  0  0  0  0  0  0  0
    9.0470   -8.2132    0.5637 F   0  0  0  0  0  0  0  0  0  0  0  0
    5.3319   -5.3347    1.3393 C   0  0  0  0  0  0  0  0  0  0  0  0
    4.6274   -5.0151    2.4314 C   0  0  0  0  0  0  0  0  0  0  0  0
    4.4393   -3.6332    2.7792 C   0  0  0  0  0  0  0  0  0  0  0  0
    4.2675   -2.5180    3.0613 N   0  0  0  0  0  0  0  0  0  0  0  0
    4.5772   -5.9639    3.5156 C   0  0  0  0  0  0  0  0  0  0  0  0
    4.5754   -6.7248    4.3836 N   0  0  0  0  0  0  0  0  0  0  0  0
    2.8730   -5.7045   -0.3828 C   0  0  0  0  0  0  0  0  0  0  0  0
    1.6606   -5.4117    0.2607 C   0  0  0  0  0  0  0  0  0  0  0  0
    1.0636   -6.2194    1.2854 N   0  0  0  0  0  0  0  0  0  0  0  0
   -0.0127   -7.0992    0.8883 C   0  0  0  0  0  0  0  0  0  0  0  0
   -1.2537   -7.0607    1.5537 C   0  0  0  0  0  0  0  0  0  0  0  0
   -2.3461   -7.7756    1.0553 C   0  0  0  0  0  0  0  0  0  0  0  0
   -2.2124   -8.5360   -0.1111 C   0  0  0  0  0  0  0  0  0  0  0  0
   -3.6378   -9.3722   -0.8065 S   0  0  0  0  0  0  0  0  0  0  0  0
   -4.0960   -7.9528   -1.8513 C   0  0  0  0  0  0  0  0  0  0  0  0
   -0.9739   -8.6179   -0.7537 C   0  0  0  0  0  0  0  0  0  0  0  0
    0.1197   -7.9017   -0.2595 C   0  0  0  0  0  0  0  0  0  0  0  0
    1.2310   -5.8563    2.6705 C   0  0  0  0  0  0  0  0  0  0  0  0
    1.2682   -4.5044    3.0634 C   0  0  0  0  0  0  0  0  0  0  0  0
    1.4021   -4.1649    4.4112 C   0  0  0  0  0  0  0  0  0  0  0  0
    1.5052   -5.1669    5.3804 C   0  0  0  0  0  0  0  0  0  0  0  0
    1.7387   -4.7252    7.1021 S   0  0  0  0  0  0  0  0  0  0  0  0
   -0.0371   -4.7663    7.4837 C   0  0  0  0  0  0  0  0  0  0  0  0
    1.4532   -6.5134    5.0004 C   0  0  0  0  0  0  0  0  0  0  0  0
    1.3087   -6.8557    3.6526 C   0  0  0  0  0  0  0  0  0  0  0  0
    0.9280   -4.4827   -0.4708 C   0  0  0  0  0  0  0  0  0  0  0  0
   -0.6020   -3.8659   -0.3294 S   0  0  0  0  0  0  0  0  0  0  0  0
   -0.6330   -3.0420   -1.8375 C   0  0  0  0  0  0  0  0  0  0  0  0
    0.6108   -3.3250   -2.4759 C   0  0  0  0  0  0  0  0  0  0  0  0
    0.8259   -3.3150   -3.8956 N   0  0  0  0  0  0  0  0  0  0  0  0
    2.0190   -2.6394   -4.3553 C   0  0  0  0  0  0  0  0  0  0  0  0
    2.9614   -3.3057   -5.1624 C   0  0  0  0  0  0  0  0  0  0  0  0
    4.1316   -2.6605   -5.5635 C   0  0  0  0  0  0  0  0  0  0  0  0
    4.3902   -1.3505   -5.1459 C   0  0  0  0  0  0  0  0  0  0  0  0
    5.8756   -0.5101   -5.6916 S   0  0  0  0  0  0  0  0  0  0  0  0
    5.0888    0.1460   -7.1960 C   0  0  0  0  0  0  0  0  0  0  0  0
    3.4880   -0.6987   -4.3022 C   0  0  0  0  0  0  0  0  0  0  0  0
    2.3127   -1.3381   -3.9042 C   0  0  0  0  0  0  0  0  0  0  0  0
    0.1208   -4.2857   -4.7242 C   0  0  0  0  0  0  0  0  0  0  0  0
   -0.5763   -5.3746   -4.1466 C   0  0  0  0  0  0  0  0  0  0  0  0
   -1.2716   -6.2859   -4.9445 C   0  0  0  0  0  0  0  0  0  0  0  0
   -1.3005   -6.1243   -6.3305 C   0  0  0  0  0  0  0  0  0  0  0  0
   -2.2403   -7.2669   -7.3456 S   0  0  0  0  0  0  0  0  0  0  0  0
   -0.8204   -8.3632   -7.6518 C   0  0  0  0  0  0  0  0  0  0  0  0
   -0.6029   -5.0689   -6.9218 C   0  0  0  0  0  0  0  0  0  0  0  0
    0.1229   -4.1758   -6.1307 C   0  0  0  0  0  0  0  0  0  0  0  0
    1.4536   -4.0850   -1.6495 C   0  0  0  0  0  0  0  0  0  0  0  0
    2.9169   -4.8743   -1.8759 S   0  0  0  0  0  0  0  0  0  0  0  0
   -1.6115   -1.9200   -2.0875 C   0  0  0  0  0  0  0  0  0  0  0  0
   -2.5848   -1.6842   -1.0837 C   0  0  0  0  0  0  0  0  0  0  0  0
   -3.1207   -2.7011   -0.3609 F   0  0  0  0  0  0  0  0  0  0  0  0
   -2.8880   -0.3793   -0.6923 C   0  0  0  0  0  0  0  0  0  0  0  0
   -3.5764   -0.1852    0.4611 F   0  0  0  0  0  0  0  0  0  0  0  0
   -2.3627    0.7005   -1.4115 C   0  0  0  0  0  0  0  0  0  0  0  0
   -1.8175    0.4440   -2.6726 C   0  0  0  0  0  0  0  0  0  0  0  0
   -1.7666    1.4316   -3.5965 N   0  0  0  0  0  0  0  0  0  0  0  0
   -1.3546    1.2104   -4.8704 C   0  0  0  0  0  0  0  0  0  0  0  0
   -1.4555    2.3410   -5.8780 C   0  0  0  0  0  0  0  0  0  0  0  0
   -2.5344    3.3627   -5.5152 C   0  0  0  0  0  0  0  0  0  0  0  0
   -0.8582   -0.0714   -5.2036 C   0  0  0  0  0  0  0  0  0  0  0  0
   -0.9043   -1.0699   -4.2656 N   0  0  0  0  0  0  0  0  0  0  0  0
   -1.4021   -0.8621   -3.0152 C   0  0  0  0  0  0  0  0  0  0  0  0
   -0.3476   -0.3934   -6.5862 C   0  0  0  0  0  0  0  0  0  0  0  0
    0.9638    0.3221   -6.9126 C   0  0  0  0  0  0  0  0  0  0  0  0
   -2.1557    2.0026   -0.7417 C   0  0  0  0  0  0  0  0  0  0  0  0
   -0.8843    2.5712   -0.5151 C   0  0  0  0  0  0  0  0  0  0  0  0
    0.2832    2.3475   -1.3246 N   0  0  0  0  0  0  0  0  0  0  0  0
    0.5229    3.1849   -2.4866 C   0  0  0  0  0  0  0  0  0  0  0  0
    1.4267    2.7739   -3.4881 C   0  0  0  0  0  0  0  0  0  0  0  0
    1.7343    3.6130   -4.5606 C   0  0  0  0  0  0  0  0  0  0  0  0
    1.1098    4.8591   -4.6769 C   0  0  0  0  0  0  0  0  0  0  0  0
    1.4891    5.9307   -6.0624 S   0  0  0  0  0  0  0  0  0  0  0  0
    2.7922    6.8242   -5.1599 C   0  0  0  0  0  0  0  0  0  0  0  0
    0.1720    5.2578   -3.7223 C   0  0  0  0  0  0  0  0  0  0  0  0
   -0.1217    4.4297   -2.6375 C   0  0  0  0  0  0  0  0  0  0  0  0
    1.3515    1.5280   -0.8039 C   0  0  0  0  0  0  0  0  0  0  0  0
    1.1311    0.1784   -0.4812 C   0  0  0  0  0  0  0  0  0  0  0  0
    2.2039   -0.6524   -0.1409 C   0  0  0  0  0  0  0  0  0  0  0  0
    3.5082   -0.1395   -0.1087 C   0  0  0  0  0  0  0  0  0  0  0  0
    4.9009   -1.2087    0.2599 S   0  0  0  0  0  0  0  0  0  0  0  0
    5.1750   -1.6854   -1.4721 C   0  0  0  0  0  0  0  0  0  0  0  0
    3.7234    1.2192   -0.3553 C   0  0  0  0  0  0  0  0  0  0  0  0
    2.6530    2.0497   -0.6953 C   0  0  0  0  0  0  0  0  0  0  0  0
   -0.9177    3.5044    0.5144 C   0  0  0  0  0  0  0  0  0  0  0  0
    0.2276    4.4911    1.2313 S   0  0  0  0  0  0  0  0  0  0  0  0
   -0.8662    5.1765    2.3422 C   0  0  0  0  0  0  0  0  0  0  0  0
   -2.1592    4.6492    2.1132 C   0  0  0  0  0  0  0  0  0  0  0  0
   -3.3803    5.1673    2.6766 N   0  0  0  0  0  0  0  0  0  0  0  0
   -3.8649    6.3923    2.1004 C   0  0  0  0  0  0  0  0  0  0  0  0
   -3.4550    7.6365    2.6033 C   0  0  0  0  0  0  0  0  0  0  0  0
   -3.8901    8.8175    1.9963 C   0  0  0  0  0  0  0  0  0  0  0  0
   -4.7552    8.7651    0.8970 C   0  0  0  0  0  0  0  0  0  0  0  0
   -5.2817   10.2801    0.0960 S   0  0  0  0  0  0  0  0  0  0  0  0
   -3.9699   10.2056   -1.1639 C   0  0  0  0  0  0  0  0  0  0  0  0
   -5.2066    7.5270    0.4249 C   0  0  0  0  0  0  0  0  0  0  0  0
   -4.7571    6.3455    1.0197 C   0  0  0  0  0  0  0  0  0  0  0  0
   -4.3008    4.3187    3.4202 C   0  0  0  0  0  0  0  0  0  0  0  0
   -5.4867    4.8547    3.9665 C   0  0  0  0  0  0  0  0  0  0  0  0
   -6.4071    4.0314    4.6223 C   0  0  0  0  0  0  0  0  0  0  0  0
   -6.1590    2.6646    4.7549 C   0  0  0  0  0  0  0  0  0  0  0  0
   -7.3790    1.6016    5.5254 S   0  0  0  0  0  0  0  0  0  0  0  0
   -6.6136    1.6916    7.1723 C   0  0  0  0  0  0  0  0  0  0  0  0
   -4.9705    2.1238    4.2592 C   0  0  0  0  0  0  0  0  0  0  0  0
   -4.0380    2.9445    3.6181 C   0  0  0  0  0  0  0  0  0  0  0  0
   -2.1294    3.7118    1.0788 C   0  0  0  0  0  0  0  0  0  0  0  0
   -3.2672    2.7256    0.3368 S   0  0  0  0  0  0  0  0  0  0  0  0
   -0.4753    6.2474    3.2741 C   0  0  0  0  0  0  0  0  0  0  0  0
   -0.8022    6.2765    4.5786 C   0  0  0  0  0  0  0  0  0  0  0  0
   -1.6195    5.2890    5.2864 C   0  0  0  0  0  0  0  0  0  0  0  0
   -1.6922    4.0586    5.0253 O   0  0  0  0  0  0  0  0  0  0  0  0
   -2.2252    5.9404    6.4288 C   0  0  0  0  0  0  0  0  0  0  0  0
   -1.7072    7.2189    6.5492 C   0  0  0  0  0  0  0  0  0  0  0  0
   -2.2410    8.1044    7.4989 C   0  0  0  0  0  0  0  0  0  0  0  0
   -3.2603    7.6477    8.3543 C   0  0  0  0  0  0  0  0  0  0  0  0
   -3.7813    8.4900    9.2831 F   0  0  0  0  0  0  0  0  0  0  0  0
   -3.7566    6.3349    8.2409 C   0  0  0  0  0  0  0  0  0  0  0  0
   -4.7580    5.9174    9.0557 F   0  0  0  0  0  0  0  0  0  0  0  0
   -3.2445    5.4713    7.2614 C   0  0  0  0  0  0  0  0  0  0  0  0
   -3.7602    4.2257    7.0958 F   0  0  0  0  0  0  0  0  0  0  0  0
   -0.6834    7.4473    5.4945 C   0  0  0  0  0  0  0  0  0  0  0  0
    0.3132    8.3696    5.5172 C   0  0  0  0  0  0  0  0  0  0  0  0
    1.3760    8.3866    4.5484 C   0  0  0  0  0  0  0  0  0  0  0  0
    2.2349    8.4120    3.7728 N   0  0  0  0  0  0  0  0  0  0  0  0
    0.4551    9.3066    6.5997 C   0  0  0  0  0  0  0  0  0  0  0  0
    0.5815   10.0559    7.4713 N   0  0  0  0  0  0  0  0  0  0  0  0
    3.6963   -7.7032   -0.6320 H   0  0  0  0  0  0  0  0  0  0  0  0
    7.3220   -3.6557    2.5464 H   0  0  0  0  0  0  0  0  0  0  0  0
   -1.3960   -6.4295    2.4218 H   0  0  0  0  0  0  0  0  0  0  0  0
   -3.3015   -7.7074    1.5596 H   0  0  0  0  0  0  0  0  0  0  0  0
   -3.2492   -7.6754   -2.5137 H   0  0  0  0  0  0  0  0  0  0  0  0
   -4.3707   -7.0882   -1.2118 H   0  0  0  0  0  0  0  0  0  0  0  0
   -4.9675   -8.2289   -2.4815 H   0  0  0  0  0  0  0  0  0  0  0  0
   -0.8626   -9.2085   -1.6524 H   0  0  0  0  0  0  0  0  0  0  0  0
    1.0620   -7.9488   -0.7886 H   0  0  0  0  0  0  0  0  0  0  0  0
    1.1891   -3.7138    2.3302 H   0  0  0  0  0  0  0  0  0  0  0  0
    1.4362   -3.1229    4.6986 H   0  0  0  0  0  0  0  0  0  0  0  0
   -0.1877   -4.4257    8.5270 H   0  0  0  0  0  0  0  0  0  0  0  0
   -0.5935   -4.0913    6.8020 H   0  0  0  0  0  0  0  0  0  0  0  0
   -0.4206   -5.8030    7.3835 H   0  0  0  0  0  0  0  0  0  0  0  0
    1.5328   -7.2961    5.7441 H   0  0  0  0  0  0  0  0  0  0  0  0
    1.2746   -7.8992    3.3703 H   0  0  0  0  0  0  0  0  0  0  0  0
    2.7995   -4.3314   -5.4650 H   0  0  0  0  0  0  0  0  0  0  0  0
    4.8399   -3.1777   -6.1985 H   0  0  0  0  0  0  0  0  0  0  0  0
    4.7063   -0.6878   -7.8218 H   0  0  0  0  0  0  0  0  0  0  0  0
    4.2528    0.8232   -6.9250 H   0  0  0  0  0  0  0  0  0  0  0  0
    5.8423    0.7153   -7.7780 H   0  0  0  0  0  0  0  0  0  0  0  0
    3.6987    0.3041   -3.9573 H   0  0  0  0  0  0  0  0  0  0  0  0
    1.6304   -0.8182   -3.2475 H   0  0  0  0  0  0  0  0  0  0  0  0
   -0.5724   -5.5447   -3.0794 H   0  0  0  0  0  0  0  0  0  0  0  0
   -1.7955   -7.1109   -4.4823 H   0  0  0  0  0  0  0  0  0  0  0  0
   -0.4349   -8.7725   -6.6942 H   0  0  0  0  0  0  0  0  0  0  0  0
   -1.1487   -9.2024   -8.3004 H   0  0  0  0  0  0  0  0  0  0  0  0
   -0.0160   -7.8027   -8.1712 H   0  0  0  0  0  0  0  0  0  0  0  0
   -0.6080   -4.9492   -7.9973 H   0  0  0  0  0  0  0  0  0  0  0  0
    0.7059   -3.4186   -6.6281 H   0  0  0  0  0  0  0  0  0  0  0  0
   -0.4821    2.8635   -5.9540 H   0  0  0  0  0  0  0  0  0  0  0  0
   -1.7136    1.9486   -6.8831 H   0  0  0  0  0  0  0  0  0  0  0  0
   -2.2937    3.8627   -4.5543 H   0  0  0  0  0  0  0  0  0  0  0  0
   -3.5224    2.8643   -5.4337 H   0  0  0  0  0  0  0  0  0  0  0  0
   -2.5917    4.1392   -6.3083 H   0  0  0  0  0  0  0  0  0  0  0  0
   -1.1108   -0.1586   -7.3573 H   0  0  0  0  0  0  0  0  0  0  0  0
   -0.1832   -1.4764   -6.6553 H   0  0  0  0  0  0  0  0  0  0  0  0
    1.6272    0.3641   -6.0258 H   0  0  0  0  0  0  0  0  0  0  0  0
    0.7706    1.3564   -7.2574 H   0  0  0  0  0  0  0  0  0  0  0  0
    1.4915   -0.2200   -7.7290 H   0  0  0  0  0  0  0  0  0  0  0  0
    1.9045    1.8074   -3.4291 H   0  0  0  0  0  0  0  0  0  0  0  0
    2.4463    3.2883   -5.3073 H   0  0  0  0  0  0  0  0  0  0  0  0
    2.3585    7.3264   -4.2696 H   0  0  0  0  0  0  0  0  0  0  0  0
    3.5863    6.1151   -4.8419 H   0  0  0  0  0  0  0  0  0  0  0  0
    3.2354    7.5941   -5.8246 H   0  0  0  0  0  0  0  0  0  0  0  0
   -0.3270    6.2124   -3.8180 H   0  0  0  0  0  0  0  0  0  0  0  0
   -0.8455    4.7771   -1.9163 H   0  0  0  0  0  0  0  0  0  0  0  0
    0.1396   -0.2400   -0.5330 H   0  0  0  0  0  0  0  0  0  0  0  0
    2.0277   -1.6987    0.0722 H   0  0  0  0  0  0  0  0  0  0  0  0
    6.0516   -2.3647   -1.5285 H   0  0  0  0  0  0  0  0  0  0  0  0
    4.2821   -2.2177   -1.8568 H   0  0  0  0  0  0  0  0  0  0  0  0
    5.3755   -0.7826   -2.0870 H   0  0  0  0  0  0  0  0  0  0  0  0
    4.7222    1.6326   -0.3064 H   0  0  0  0  0  0  0  0  0  0  0  0
    2.8419    3.0937   -0.9085 H   0  0  0  0  0  0  0  0  0  0  0  0
   -2.8099    7.6977    3.4639 H   0  0  0  0  0  0  0  0  0  0  0  0
   -3.5482    9.7717    2.3775 H   0  0  0  0  0  0  0  0  0  0  0  0
   -4.1264    9.3229   -1.8203 H   0  0  0  0  0  0  0  0  0  0  0  0
   -2.9726   10.1400   -0.6805 H   0  0  0  0  0  0  0  0  0  0  0  0
   -4.0088   11.1258   -1.7824 H   0  0  0  0  0  0  0  0  0  0  0  0
   -5.8892    7.4795   -0.4139 H   0  0  0  0  0  0  0  0  0  0  0  0
   -5.0968    5.3921    0.6360 H   0  0  0  0  0  0  0  0  0  0  0  0
   -5.7154    5.9098    3.8793 H   0  0  0  0  0  0  0  0  0  0  0  0
   -7.3209    4.4594    5.0134 H   0  0  0  0  0  0  0  0  0  0  0  0
   -7.2659    1.1591    7.8951 H   0  0  0  0  0  0  0  0  0  0  0  0
   -6.5026    2.7480    7.4944 H   0  0  0  0  0  0  0  0  0  0  0  0
   -5.6214    1.1955    7.1508 H   0  0  0  0  0  0  0  0  0  0  0  0
   -4.7653    1.0668    4.3687 H   0  0  0  0  0  0  0  0  0  0  0  0
   -3.1219    2.4907    3.2729 H   0  0  0  0  0  0  0  0  0  0  0  0
    0.0658    7.0704    2.8350 H   0  0  0  0  0  0  0  0  0  0  0  0
   -1.9269    9.1346    7.5626 H   0  0  0  0  0  0  0  0  0  0  0  0
  1  2  2  3
  2  3  1  0
  3  4  2  0
  3  5  1  0
  5  6  2  0
  6  7  1  0
  7  8  2  0
  8  9  1  0
  8 10  1  0
 10 11  1  0
 10 12  2  0
 12 13  1  0
  6 14  1  0
 14 15  2  3
 15 16  1  0
 16 17  3  0
 15 18  1  0
 18 19  3  0
  1 20  1  0
 20 21  2  0
 21 22  1  0
 22 23  1  0
 23 24  2  0
 24 25  1  0
 25 26  2  0
 26 27  1  0
 27 28  1  0
 26 29  1  0
 29 30  2  0
 22 31  1  0
 31 32  2  0
 32 33  1  0
 33 34  2  0
 34 35  1  0
 35 36  1  0
 34 37  1  0
 37 38  2  0
 21 39  1  0
 39 40  1  0
 40 41  1  0
 41 42  2  0
 42 43  1  0
 43 44  1  0
 44 45  2  0
 45 46  1  0
 46 47  2  0
 47 48  1  0
 48 49  1  0
 47 50  1  0
 50 51  2  0
 43 52  1  0
 52 53  2  0
 53 54  1  0
 54 55  2  0
 55 56  1  0
 56 57  1  0
 55 58  1  0
 58 59  2  0
 42 60  1  0
 60 61  1  0
 41 62  1  0
 62 63  2  0
 63 64  1  0
 63 65  1  0
 65 66  1  0
 65 67  2  0
 67 68  1  0
 68 69  2  0
 69 70  1  0
 70 71  1  0
 71 72  1  0
 70 73  2  0
 73 74  1  0
 74 75  2  0
 73 76  1  0
 76 77  1  0
 67 78  1  0
 78 79  2  0
 79 80  1  0
 80 81  1  0
 81 82  2  0
 82 83  1  0
 83 84  2  0
 84 85  1  0
 85 86  1  0
 84 87  1  0
 87 88  2  0
 80 89  1  0
 89 90  2  0
 90 91  1  0
 91 92  2  0
 92 93  1  0
 93 94  1  0
 92 95  1  0
 95 96  2  0
 79 97  1  0
 97 98  1  0
 98 99  1  0
 99100  2  0
100101  1  0
101102  1  0
102103  2  0
103104  1  0
104105  2  0
105106  1  0
106107  1  0
105108  1  0
108109  2  0
101110  1  0
110111  2  0
111112  1  0
112113  2  0
113114  1  0
114115  1  0
113116  1  0
116117  2  0
100118  1  0
118119  1  0
 99120  1  0
120121  2  3
121122  1  0
122123  2  0
122124  1  0
124125  2  0
125126  1  0
126127  2  0
127128  1  0
127129  1  0
129130  1  0
129131  2  0
131132  1  0
125133  1  0
133134  2  3
134135  1  0
135136  3  0
134137  1  0
137138  3  0
 14  2  1  0
 61 20  1  0
 75 62  1  0
119 78  1  0
133121  1  0
 12  5  1  0
 30 23  1  0
 38 31  1  0
 60 39  2  0
 75 68  1  0
 88 81  1  0
 96 89  1  0
118 97  2  0
131124  1  0
 51 44  1  0
 59 52  1  0
109102  1  0
117110  1  0
  1139  1  0
  7140  1  0
 24141  1  0
 25142  1  0
 28143  1  0
 28144  1  0
 28145  1  0
 29146  1  0
 30147  1  0
 32148  1  0
 33149  1  0
 36150  1  0
 36151  1  0
 36152  1  0
 37153  1  0
 38154  1  0
 45155  1  0
 46156  1  0
 49157  1  0
 49158  1  0
 49159  1  0
 50160  1  0
 51161  1  0
 53162  1  0
 54163  1  0
 57164  1  0
 57165  1  0
 57166  1  0
 58167  1  0
 59168  1  0
 71169  1  0
 71170  1  0
 72171  1  0
 72172  1  0
 72173  1  0
 76174  1  0
 76175  1  0
 77176  1  0
 77177  1  0
 77178  1  0
 82179  1  0
 83180  1  0
 86181  1  0
 86182  1  0
 86183  1  0
 87184  1  0
 88185  1  0
 90186  1  0
 91187  1  0
 94188  1  0
 94189  1  0
 94190  1  0
 95191  1  0
 96192  1  0
103193  1  0
104194  1  0
107195  1  0
107196  1  0
107197  1  0
108198  1  0
109199  1  0
111200  1  0
112201  1  0
115202  1  0
115203  1  0
115204  1  0
116205  1  0
117206  1  0
120207  1  0
126208  1  0
M  END

