
     RDKit          3D

144159  0  0  0  0  0  0  0  0999 V2000
    1.4325   -1.6883    7.7077 C   0  0  0  0  0  0  0  0  0  0  0  0
    1.5315   -0.3402    7.7633 C   0  0  0  0  0  0  0  0  0  0  0  0
    1.6210    0.5494    6.5956 C   0  0  0  0  0  0  0  0  0  0  0  0
    1.8742    0.2043    5.4084 O   0  0  0  0  0  0  0  0  0  0  0  0
    1.3480    1.9012    7.0179 C   0  0  0  0  0  0  0  0  0  0  0  0
    1.1375    1.9259    8.3880 C   0  0  0  0  0  0  0  0  0  0  0  0
    0.7429    3.1313    9.0016 C   0  0  0  0  0  0  0  0  0  0  0  0
    0.5962    4.2880    8.2180 C   0  0  0  0  0  0  0  0  0  0  0  0
    0.2134    5.4497    8.8016 F   0  0  0  0  0  0  0  0  0  0  0  0
    0.8352    4.2441    6.8312 C   0  0  0  0  0  0  0  0  0  0  0  0
    0.6908    5.3654    6.0817 F   0  0  0  0  0  0  0  0  0  0  0  0
    1.1993    3.0356    6.2182 C   0  0  0  0  0  0  0  0  0  0  0  0
    1.3858    2.9750    4.8772 F   0  0  0  0  0  0  0  0  0  0  0  0
    1.3431    0.5544    8.9523 C   0  0  0  0  0  0  0  0  0  0  0  0
    1.4968    0.2301   10.2626 C   0  0  0  0  0  0  0  0  0  0  0  0
    1.3718    1.1922   11.3288 C   0  0  0  0  0  0  0  0  0  0  0  0
    1.2722    1.9536   12.1970 N   0  0  0  0  0  0  0  0  0  0  0  0
    1.8862   -1.0866   10.6904 C   0  0  0  0  0  0  0  0  0  0  0  0
    2.1945   -2.1433   11.0457 N   0  0  0  0  0  0  0  0  0  0  0  0
    1.3709   -2.3978    6.4141 C   0  0  0  0  0  0  0  0  0  0  0  0
    0.1727   -2.4145    5.6933 C   0  0  0  0  0  0  0  0  0  0  0  0
    0.1496   -2.7559    4.3206 C   0  0  0  0  0  0  0  0  0  0  0  0
   -1.1192   -2.5836    3.6771 N   0  0  0  0  0  0  0  0  0  0  0  0
   -1.9904   -2.0575    4.9103 S   0  0  0  0  0  4  0  0  0  0  0  0
   -1.0808   -1.9617    6.2199 N   0  0  0  0  0  0  0  0  0  0  0  0
    1.3189   -3.1363    3.6456 C   0  0  0  0  0  0  0  0  0  0  0  0
    2.5091   -3.2145    4.3822 C   0  0  0  0  0  0  0  0  0  0  0  0
    3.6960   -3.5640    3.8237 N   0  0  0  0  0  0  0  0  0  0  0  0
    4.7027   -3.3935    5.1277 S   0  0  0  0  0  0  0  0  0  0  0  0
    3.7498   -2.8857    6.3801 N   0  0  0  0  0  0  0  0  0  0  0  0
    2.5361   -2.8477    5.7680 C   0  0  0  0  0  0  0  0  0  0  0  0
    1.3332   -3.1300    2.1848 C   0  0  0  0  0  0  0  0  0  0  0  0
    0.9496   -4.1789    1.3301 C   0  0  0  0  0  0  0  0  0  0  0  0
    0.8564   -5.5513    1.7312 N   0  0  0  0  0  0  0  0  0  0  0  0
    2.0668   -6.2739    2.0228 C   0  0  0  0  0  0  0  0  0  0  0  0
    2.1543   -7.0826    3.1701 C   0  0  0  0  0  0  0  0  0  0  0  0
    3.3620   -7.7094    3.4985 C   0  0  0  0  0  0  0  0  0  0  0  0
    4.4887   -7.5403    2.6846 C   0  0  0  0  0  0  0  0  0  0  0  0
    6.0499   -8.3031    3.1406 S   0  0  0  0  0  0  0  0  0  0  0  0
    6.5604   -6.8787    4.1600 C   0  0  0  0  0  0  0  0  0  0  0  0
    4.3948   -6.7707    1.5204 C   0  0  0  0  0  0  0  0  0  0  0  0
    3.1922   -6.1371    1.1928 C   0  0  0  0  0  0  0  0  0  0  0  0
   -0.4306   -6.1606    1.8948 C   0  0  0  0  0  0  0  0  0  0  0  0
   -0.9262   -7.0281    0.9153 C   0  0  0  0  0  0  0  0  0  0  0  0
   -2.1732   -7.6386    1.0801 C   0  0  0  0  0  0  0  0  0  0  0  0
   -2.9206   -7.3994    2.2449 C   0  0  0  0  0  0  0  0  0  0  0  0
   -4.5133   -8.1877    2.4825 S   0  0  0  0  0  0  0  0  0  0  0  0
   -5.4317   -6.8551    1.6450 C   0  0  0  0  0  0  0  0  0  0  0  0
   -2.4158   -6.5516    3.2365 C   0  0  0  0  0  0  0  0  0  0  0  0
   -1.1699   -5.9440    3.0690 C   0  0  0  0  0  0  0  0  0  0  0  0
    0.8144   -3.7252    0.0176 C   0  0  0  0  0  0  0  0  0  0  0  0
    0.2866   -4.3879   -1.4431 S   0  0  0  0  0  0  0  0  0  0  0  0
    0.4229   -2.9137   -2.2944 C   0  0  0  0  0  0  0  0  0  0  0  0
    0.8606   -1.9069   -1.4259 C   0  0  0  0  0  0  0  0  0  0  0  0
    0.8992   -0.5093   -1.7477 N   0  0  0  0  0  0  0  0  0  0  0  0
   -0.3174    0.2084   -2.0523 C   0  0  0  0  0  0  0  0  0  0  0  0
   -0.2979    1.2832   -2.9608 C   0  0  0  0  0  0  0  0  0  0  0  0
   -1.4544    2.0334   -3.1960 C   0  0  0  0  0  0  0  0  0  0  0  0
   -2.6411    1.7202   -2.5254 C   0  0  0  0  0  0  0  0  0  0  0  0
   -4.1137    2.7239   -2.7790 S   0  0  0  0  0  0  0  0  0  0  0  0
   -3.7705    3.8148   -1.3566 C   0  0  0  0  0  0  0  0  0  0  0  0
   -2.6833    0.6296   -1.6520 C   0  0  0  0  0  0  0  0  0  0  0  0
   -1.5242   -0.1138   -1.4065 C   0  0  0  0  0  0  0  0  0  0  0  0
    2.1321    0.2047   -1.5625 C   0  0  0  0  0  0  0  0  0  0  0  0
    2.1915    1.2990   -0.6862 C   0  0  0  0  0  0  0  0  0  0  0  0
    3.4002    1.9695   -0.4753 C   0  0  0  0  0  0  0  0  0  0  0  0
    4.5531    1.5746   -1.1645 C   0  0  0  0  0  0  0  0  0  0  0  0
    6.1035    2.4301   -0.8796 S   0  0  0  0  0  0  0  0  0  0  0  0
    5.7191    3.7852   -2.0334 C   0  0  0  0  0  0  0  0  0  0  0  0
    4.4991    0.4903   -2.0512 C   0  0  0  0  0  0  0  0  0  0  0  0
    3.2952   -0.2028   -2.2368 C   0  0  0  0  0  0  0  0  0  0  0  0
    1.0841   -2.4061   -0.1569 C   0  0  0  0  0  0  0  0  0  0  0  0
    1.4753   -1.6866    1.2987 S   0  0  0  0  0  0  0  0  0  0  0  0
   -0.0497   -2.6481   -3.6537 C   0  0  0  0  0  0  0  0  0  0  0  0
   -1.4202   -2.3852   -3.8426 C   0  0  0  0  0  0  0  0  0  0  0  0
   -1.8063   -1.6930   -4.9868 C   0  0  0  0  0  0  0  0  0  0  0  0
   -3.0736   -1.0248   -5.2653 C   0  0  0  0  0  0  0  0  0  0  0  0
   -4.1327   -1.1010   -4.5885 O   0  0  0  0  0  0  0  0  0  0  0  0
   -2.8458   -0.1825   -6.4310 C   0  0  0  0  0  0  0  0  0  0  0  0
   -1.5319   -0.3408   -6.8413 C   0  0  0  0  0  0  0  0  0  0  0  0
   -0.8812   -1.2861   -5.9319 C   0  0  0  0  0  0  0  0  0  0  0  0
    0.4678   -1.6036   -5.8057 C   0  0  0  0  0  0  0  0  0  0  0  0
    0.8836   -2.2863   -4.6530 C   0  0  0  0  0  0  0  0  0  0  0  0
   -0.9829    0.4614   -7.8425 C   0  0  0  0  0  0  0  0  0  0  0  0
   -1.8010    1.4420   -8.4294 C   0  0  0  0  0  0  0  0  0  0  0  0
   -3.1317    1.6250   -7.9862 C   0  0  0  0  0  0  0  0  0  0  0  0
   -3.6688    0.7882   -6.9898 C   0  0  0  0  0  0  0  0  0  0  0  0
   -3.9447    2.7360   -8.4944 C   0  0  0  0  0  0  0  0  0  0  0  0
   -3.8251    3.9883   -8.0199 C   0  0  0  0  0  0  0  0  0  0  0  0
   -2.9165    4.4201   -6.9533 C   0  0  0  0  0  0  0  0  0  0  0  0
   -1.8745    3.8190   -6.5751 O   0  0  0  0  0  0  0  0  0  0  0  0
   -3.4480    5.6377   -6.3568 C   0  0  0  0  0  0  0  0  0  0  0  0
   -3.0465    6.2835   -5.1818 C   0  0  0  0  0  0  0  0  0  0  0  0
   -1.5536    5.8215   -4.3661 Cl  0  0  0  0  0  0  0  0  0  0  0  0
   -3.8820    7.2882   -4.6495 C   0  0  0  0  0  0  0  0  0  0  0  0
   -3.4111    8.1275   -3.1696 Cl  0  0  0  0  0  0  0  0  0  0  0  0
   -5.1294    7.5664   -5.2570 C   0  0  0  0  0  0  0  0  0  0  0  0
   -6.2272    8.7397   -4.5183 Cl  0  0  0  0  0  0  0  0  0  0  0  0
   -5.5189    6.8871   -6.4310 C   0  0  0  0  0  0  0  0  0  0  0  0
   -7.1998    7.0039   -6.9748 Cl  0  0  0  0  0  0  0  0  0  0  0  0
   -4.6104    5.9915   -7.0273 C   0  0  0  0  0  0  0  0  0  0  0  0
   -4.7878    5.1011   -8.2057 C   0  0  0  0  0  0  0  0  0  0  0  0
   -5.3792    5.4396   -9.3812 C   0  0  0  0  0  0  0  0  0  0  0  0
   -5.4100    4.5419  -10.5067 C   0  0  0  0  0  0  0  0  0  0  0  0
   -5.4384    3.8275  -11.4218 N   0  0  0  0  0  0  0  0  0  0  0  0
   -5.7990    6.7886   -9.6615 C   0  0  0  0  0  0  0  0  0  0  0  0
   -6.1124    7.8816   -9.8957 N   0  0  0  0  0  0  0  0  0  0  0  0
    1.2297   -2.2754    8.5846 H   0  0  0  0  0  0  0  0  0  0  0  0
    0.5056    3.1933   10.0473 H   0  0  0  0  0  0  0  0  0  0  0  0
    1.3085   -7.1902    3.8351 H   0  0  0  0  0  0  0  0  0  0  0  0
    3.4263   -8.3068    4.4022 H   0  0  0  0  0  0  0  0  0  0  0  0
    6.6284   -5.9648    3.5314 H   0  0  0  0  0  0  0  0  0  0  0  0
    5.8333   -6.7259    4.9835 H   0  0  0  0  0  0  0  0  0  0  0  0
    7.5601   -7.0914    4.5989 H   0  0  0  0  0  0  0  0  0  0  0  0
    5.2573   -6.6495    0.8754 H   0  0  0  0  0  0  0  0  0  0  0  0
    3.1464   -5.5305    0.2975 H   0  0  0  0  0  0  0  0  0  0  0  0
   -0.3510   -7.2138    0.0189 H   0  0  0  0  0  0  0  0  0  0  0  0
   -2.5546   -8.3035    0.3143 H   0  0  0  0  0  0  0  0  0  0  0  0
   -6.5238   -7.0392    1.7625 H   0  0  0  0  0  0  0  0  0  0  0  0
   -5.1801   -6.8628    0.5683 H   0  0  0  0  0  0  0  0  0  0  0  0
   -5.1828   -5.8704    2.0912 H   0  0  0  0  0  0  0  0  0  0  0  0
   -2.9733   -6.3840    4.1518 H   0  0  0  0  0  0  0  0  0  0  0  0
   -0.7721   -5.3188    3.8522 H   0  0  0  0  0  0  0  0  0  0  0  0
    0.6141    1.5518   -3.4775 H   0  0  0  0  0  0  0  0  0  0  0  0
   -1.4211    2.8734   -3.8778 H   0  0  0  0  0  0  0  0  0  0  0  0
   -3.7310    3.2246   -0.4180 H   0  0  0  0  0  0  0  0  0  0  0  0
   -2.8036    4.3452   -1.4981 H   0  0  0  0  0  0  0  0  0  0  0  0
   -4.5855    4.5620   -1.2647 H   0  0  0  0  0  0  0  0  0  0  0  0
   -3.6053    0.3822   -1.1374 H   0  0  0  0  0  0  0  0  0  0  0  0
   -1.5738   -0.9308   -0.6963 H   0  0  0  0  0  0  0  0  0  0  0  0
    1.3046    1.6172   -0.1510 H   0  0  0  0  0  0  0  0  0  0  0  0
    3.4400    2.7962    0.2216 H   0  0  0  0  0  0  0  0  0  0  0  0
    4.7840    4.3020   -1.7232 H   0  0  0  0  0  0  0  0  0  0  0  0
    6.5499    4.5202   -2.0175 H   0  0  0  0  0  0  0  0  0  0  0  0
    5.6062    3.3911   -3.0664 H   0  0  0  0  0  0  0  0  0  0  0  0
    5.3868    0.1684   -2.5831 H   0  0  0  0  0  0  0  0  0  0  0  0
    3.2670   -1.0534   -2.9084 H   0  0  0  0  0  0  0  0  0  0  0  0
   -2.1352   -2.5778   -3.0542 H   0  0  0  0  0  0  0  0  0  0  0  0
    1.1894   -1.2487   -6.5290 H   0  0  0  0  0  0  0  0  0  0  0  0
    1.9416   -2.4597   -4.4970 H   0  0  0  0  0  0  0  0  0  0  0  0
    0.0557    0.3626   -8.1332 H   0  0  0  0  0  0  0  0  0  0  0  0
   -1.3854    2.0974   -9.1814 H   0  0  0  0  0  0  0  0  0  0  0  0
   -4.6695    0.9494   -6.6151 H   0  0  0  0  0  0  0  0  0  0  0  0
   -4.7844    2.4670   -9.1172 H   0  0  0  0  0  0  0  0  0  0  0  0
  1  2  2  3
  2  3  1  0
  3  4  2  0
  3  5  1  0
  5  6  2  0
  6  7  1  0
  7  8  2  0
  8  9  1  0
  8 10  1  0
 10 11  1  0
 10 12  2  0
 12 13  1  0
  6 14  1  0
 14 15  2  3
 15 16  1  0
 16 17  3  0
 15 18  1  0
 18 19  3  0
  1 20  1  0
 20 21  2  0
 21 22  1  0
 22 23  1  0
 23 24  2  0
 24 25  2  0
 22 26  2  0
 26 27  1  0
 27 28  2  0
 28 29  1  0
 29 30  1  0
 30 31  2  0
 26 32  1  0
 32 33  2  0
 33 34  1  0
 34 35  1  0
 35 36  2  0
 36 37  1  0
 37 38  2  0
 38 39  1  0
 39 40  1  0
 38 41  1  0
 41 42  2  0
 34 43  1  0
 43 44  2  0
 44 45  1  0
 45 46  2  0
 46 47  1  0
 47 48  1  0
 46 49  1  0
 49 50  2  0
 33 51  1  0
 51 52  1  0
 52 53  1  0
 53 54  2  0
 54 55  1  0
 55 56  1  0
 56 57  2  0
 57 58  1  0
 58 59  2  0
 59 60  1  0
 60 61  1  0
 59 62  1  0
 62 63  2  0
 55 64  1  0
 64 65  2  0
 65 66  1  0
 66 67  2  0
 67 68  1  0
 68 69  1  0
 67 70  1  0
 70 71  2  0
 54 72  1  0
 72 73  1  0
 53 74  1  0
 74 75  2  0
 75 76  1  0
 76 77  1  0
 77 78  2  0
 77 79  1  0
 79 80  2  0
 80 81  1  0
 81 82  1  0
 82 83  2  0
 80 84  1  0
 84 85  2  0
 85 86  1  0
 86 87  2  0
 86 88  1  0
 88 89  2  3
 89 90  1  0
 90 91  2  0
 90 92  1  0
 92 93  2  0
 93 94  1  0
 93 95  1  0
 95 96  1  0
 95 97  2  0
 97 98  1  0
 97 99  1  0
 99100  1  0
 99101  2  0
101102  1  0
102103  2  3
103104  1  0
104105  3  0
103106  1  0
106107  3  0
 14  2  1  0
 31 20  1  0
 73 32  1  0
 83 74  1  0
102 89  1  0
 12  5  1  0
 25 21  1  0
 31 27  1  0
 42 35  1  0
 50 43  1  0
 72 51  2  0
 81 76  2  0
101 92  1  0
 63 56  1  0
 71 64  1  0
 87 79  1  0
  1108  1  0
  7109  1  0
 36110  1  0
 37111  1  0
 40112  1  0
 40113  1  0
 40114  1  0
 41115  1  0
 42116  1  0
 44117  1  0
 45118  1  0
 48119  1  0
 48120  1  0
 48121  1  0
 49122  1  0
 50123  1  0
 57124  1  0
 58125  1  0
 61126  1  0
 61127  1  0
 61128  1  0
 62129  1  0
 63130  1  0
 65131  1  0
 66132  1  0
 69133  1  0
 69134  1  0
 69135  1  0
 70136  1  0
 71137  1  0
 75138  1  0
 82139  1  0
 83140  1  0
 84141  1  0
 85142  1  0
 87143  1  0
 88144  1  0
M  END

