
     RDKit          3D

157172  0  0  0  0  0  0  0  0999 V2000
    0.7205    4.2091   -5.8583 C   0  0  0  0  0  0  0  0  0  0  0  0
    1.2072    4.8492   -6.9358 C   0  0  0  0  0  0  0  0  0  0  0  0
    2.1463    5.9713   -6.8998 C   0  0  0  0  0  0  0  0  0  0  0  0
    2.3243    6.7580   -5.9352 O   0  0  0  0  0  0  0  0  0  0  0  0
    2.8755    5.9871   -8.1503 C   0  0  0  0  0  0  0  0  0  0  0  0
    2.3703    5.0027   -8.9866 C   0  0  0  0  0  0  0  0  0  0  0  0
    3.0437    4.6942  -10.1782 C   0  0  0  0  0  0  0  0  0  0  0  0
    4.1927    5.4295  -10.5313 C   0  0  0  0  0  0  0  0  0  0  0  0
    4.8693    5.1178  -11.6632 F   0  0  0  0  0  0  0  0  0  0  0  0
    4.6709    6.4470   -9.6881 C   0  0  0  0  0  0  0  0  0  0  0  0
    5.7798    7.1466  -10.0300 F   0  0  0  0  0  0  0  0  0  0  0  0
    4.0153    6.7295   -8.4790 C   0  0  0  0  0  0  0  0  0  0  0  0
    4.5121    7.6683   -7.6307 F   0  0  0  0  0  0  0  0  0  0  0  0
    1.2057    4.3413   -8.3363 C   0  0  0  0  0  0  0  0  0  0  0  0
    0.2600    3.5745   -8.9302 C   0  0  0  0  0  0  0  0  0  0  0  0
   -0.9272    3.1470   -8.2366 C   0  0  0  0  0  0  0  0  0  0  0  0
   -1.8770    2.7931   -7.6812 N   0  0  0  0  0  0  0  0  0  0  0  0
    0.3407    3.1716  -10.3121 C   0  0  0  0  0  0  0  0  0  0  0  0
    0.3926    2.8089  -11.4123 N   0  0  0  0  0  0  0  0  0  0  0  0
    1.1709    4.4817   -4.4854 C   0  0  0  0  0  0  0  0  0  0  0  0
    2.4551    4.2044   -3.9632 C   0  0  0  0  0  0  0  0  0  0  0  0
    3.6432    3.7767   -4.7862 C   0  0  0  0  0  0  0  0  0  0  0  0
    3.4619    2.4049   -5.4447 C   0  0  0  0  0  0  0  0  0  0  0  0
    2.4747    4.3445   -2.5610 C   0  0  0  0  0  0  0  0  0  0  0  0
    1.2790    4.7461   -2.0461 C   0  0  0  0  0  0  0  0  0  0  0  0
    0.0896    4.8164   -3.2160 S   0  0  0  0  0  0  0  0  0  0  0  0
    1.2729    4.5810   -0.6276 C   0  0  0  0  0  0  0  0  0  0  0  0
    2.4790    4.0434   -0.2621 C   0  0  0  0  0  0  0  0  0  0  0  0
    3.4350    3.8826   -1.4529 C   0  0  0  0  0  0  0  0  0  0  0  0
    4.6077    4.8986   -1.3318 C   0  0  0  0  0  0  0  0  0  0  0  0
    5.2874    4.9198    0.0441 C   0  0  0  0  0  0  0  0  0  0  0  0
    3.8321    2.3617   -1.6431 C   0  0  0  0  0  0  0  0  0  0  0  0
    5.3051    2.0335   -1.9062 C   0  0  0  0  0  0  0  0  0  0  0  0
    2.4162    3.2920    0.9198 C   0  0  0  0  0  0  0  0  0  0  0  0
    1.1032    3.1337    1.3831 C   0  0  0  0  0  0  0  0  0  0  0  0
    0.0630    4.0207    0.3764 S   0  0  0  0  0  0  0  0  0  0  0  0
    0.6842    1.9744    2.1984 C   0  0  0  0  0  0  0  0  0  0  0  0
   -0.5234    1.2597    2.0319 C   0  0  0  0  0  0  0  0  0  0  0  0
   -1.4597    1.4960    0.9660 N   0  0  0  0  0  0  0  0  0  0  0  0
   -1.2575    0.7613   -0.2683 C   0  0  0  0  0  0  0  0  0  0  0  0
    0.0262    0.6521   -0.8361 C   0  0  0  0  0  0  0  0  0  0  0  0
    0.2443   -0.1436   -1.9623 C   0  0  0  0  0  0  0  0  0  0  0  0
   -0.8088   -0.8724   -2.5147 C   0  0  0  0  0  0  0  0  0  0  0  0
   -0.5027   -1.9773   -3.8923 S   0  0  0  0  0  0  0  0  0  0  0  0
   -0.0057   -3.3572   -2.8084 C   0  0  0  0  0  0  0  0  0  0  0  0
   -2.0898   -0.7631   -1.9731 C   0  0  0  0  0  0  0  0  0  0  0  0
   -2.3164    0.0526   -0.8594 C   0  0  0  0  0  0  0  0  0  0  0  0
   -2.7105    2.1675    1.2382 C   0  0  0  0  0  0  0  0  0  0  0  0
   -3.3127    2.0979    2.5100 C   0  0  0  0  0  0  0  0  0  0  0  0
   -4.5573    2.6916    2.7404 C   0  0  0  0  0  0  0  0  0  0  0  0
   -5.2127    3.3768    1.7124 C   0  0  0  0  0  0  0  0  0  0  0  0
   -6.8404    4.0789    1.9926 S   0  0  0  0  0  0  0  0  0  0  0  0
   -6.1924    5.7060    2.4951 C   0  0  0  0  0  0  0  0  0  0  0  0
   -4.6107    3.4799    0.4512 C   0  0  0  0  0  0  0  0  0  0  0  0
   -3.3647    2.8839    0.2151 C   0  0  0  0  0  0  0  0  0  0  0  0
   -0.4611    0.0213    2.6611 C   0  0  0  0  0  0  0  0  0  0  0  0
   -1.4449   -1.3264    2.5644 S   0  0  0  0  0  0  0  0  0  0  0  0
   -0.3100   -2.3520    3.2963 C   0  0  0  0  0  0  0  0  0  0  0  0
    0.8649   -1.6415    3.5837 C   0  0  0  0  0  0  0  0  0  0  0  0
    2.1088   -2.2600    3.9301 N   0  0  0  0  0  0  0  0  0  0  0  0
    3.0942   -2.6054    2.9172 C   0  0  0  0  0  0  0  0  0  0  0  0
    2.8238   -2.4163    1.5412 C   0  0  0  0  0  0  0  0  0  0  0  0
    3.7992   -2.6937    0.5805 C   0  0  0  0  0  0  0  0  0  0  0  0
    5.0550   -3.1715    0.9655 C   0  0  0  0  0  0  0  0  0  0  0  0
    6.3471   -3.4155   -0.2592 S   0  0  0  0  0  0  0  0  0  0  0  0
    5.9350   -5.1643   -0.5442 C   0  0  0  0  0  0  0  0  0  0  0  0
    5.3300   -3.3865    2.3167 C   0  0  0  0  0  0  0  0  0  0  0  0
    4.3587   -3.1103    3.2856 C   0  0  0  0  0  0  0  0  0  0  0  0
    2.4231   -2.3075    5.3272 C   0  0  0  0  0  0  0  0  0  0  0  0
    2.0694   -3.4227    6.0923 C   0  0  0  0  0  0  0  0  0  0  0  0
    2.3155   -3.4356    7.4669 C   0  0  0  0  0  0  0  0  0  0  0  0
    2.9263   -2.3311    8.0779 C   0  0  0  0  0  0  0  0  0  0  0  0
    3.1933   -2.3145    9.8471 S   0  0  0  0  0  0  0  0  0  0  0  0
    1.5849   -1.5445   10.2163 C   0  0  0  0  0  0  0  0  0  0  0  0
    3.3245   -1.2334    7.3037 C   0  0  0  0  0  0  0  0  0  0  0  0
    3.0703   -1.2208    5.9321 C   0  0  0  0  0  0  0  0  0  0  0  0
    0.7252   -0.2956    3.2367 C   0  0  0  0  0  0  0  0  0  0  0  0
    1.7905    0.9829    3.0554 S   0  0  0  0  0  0  0  0  0  0  0  0
   -0.5811   -3.7719    3.5247 C   0  0  0  0  0  0  0  0  0  0  0  0
   -0.5608   -4.6677    2.4502 C   0  0  0  0  0  0  0  0  0  0  0  0
   -1.2882   -5.8849    2.4978 C   0  0  0  0  0  0  0  0  0  0  0  0
   -1.2885   -6.6275    1.2766 N   0  0  0  0  0  0  0  0  0  0  0  0
   -0.3935   -5.6689    0.3559 S   0  0  0  0  0  4  0  0  0  0  0  0
    0.0492   -4.3818    1.1857 N   0  0  0  0  0  0  0  0  0  0  0  0
   -2.0555   -6.2286    3.6233 C   0  0  0  0  0  0  0  0  0  0  0  0
   -1.9699   -5.3989    4.7544 C   0  0  0  0  0  0  0  0  0  0  0  0
   -2.6651   -5.6435    5.8975 N   0  0  0  0  0  0  0  0  0  0  0  0
   -2.3020   -4.2892    6.7692 S   0  0  0  0  0  0  0  0  0  0  0  0
   -1.3248   -3.3693    5.7972 N   0  0  0  0  0  0  0  0  0  0  0  0
   -1.2426   -4.1670    4.7000 C   0  0  0  0  0  0  0  0  0  0  0  0
   -3.1277   -7.2363    3.5127 C   0  0  0  0  0  0  0  0  0  0  0  0
   -4.4022   -6.8739    3.2447 C   0  0  0  0  0  0  0  0  0  0  0  0
   -4.8806   -5.4912    3.0957 C   0  0  0  0  0  0  0  0  0  0  0  0
   -4.1727   -4.4678    2.8980 O   0  0  0  0  0  0  0  0  0  0  0  0
   -6.3240   -5.4871    3.2030 C   0  0  0  0  0  0  0  0  0  0  0  0
   -6.7757   -6.7888    3.3289 C   0  0  0  0  0  0  0  0  0  0  0  0
   -8.1295   -7.0282    3.6082 C   0  0  0  0  0  0  0  0  0  0  0  0
   -9.0189   -5.9390    3.6734 C   0  0  0  0  0  0  0  0  0  0  0  0
  -10.3293   -6.1559    3.9398 F   0  0  0  0  0  0  0  0  0  0  0  0
   -8.5474   -4.6245    3.5038 C   0  0  0  0  0  0  0  0  0  0  0  0
   -9.4066   -3.5801    3.6020 F   0  0  0  0  0  0  0  0  0  0  0  0
   -7.1854   -4.3907    3.2762 C   0  0  0  0  0  0  0  0  0  0  0  0
   -6.7116   -3.1250    3.1762 F   0  0  0  0  0  0  0  0  0  0  0  0
   -5.6246   -7.7366    3.2440 C   0  0  0  0  0  0  0  0  0  0  0  0
   -5.6907   -9.0658    2.9649 C   0  0  0  0  0  0  0  0  0  0  0  0
   -6.9410   -9.7461    2.7523 C   0  0  0  0  0  0  0  0  0  0  0  0
   -7.9363  -10.3074    2.5697 N   0  0  0  0  0  0  0  0  0  0  0  0
   -4.5179   -9.8563    2.6853 C   0  0  0  0  0  0  0  0  0  0  0  0
   -3.5787  -10.4992    2.4667 N   0  0  0  0  0  0  0  0  0  0  0  0
    0.1050    3.3347   -5.9628 H   0  0  0  0  0  0  0  0  0  0  0  0
    2.7373    3.8794  -10.8165 H   0  0  0  0  0  0  0  0  0  0  0  0
    3.8583    4.5304   -5.5688 H   0  0  0  0  0  0  0  0  0  0  0  0
    4.5485    3.7569   -4.1594 H   0  0  0  0  0  0  0  0  0  0  0  0
    3.1919    1.6362   -4.6953 H   0  0  0  0  0  0  0  0  0  0  0  0
    4.4132    2.1143   -5.9287 H   0  0  0  0  0  0  0  0  0  0  0  0
    2.6780    2.4468   -6.2319 H   0  0  0  0  0  0  0  0  0  0  0  0
    4.2261    5.9310   -1.5135 H   0  0  0  0  0  0  0  0  0  0  0  0
    5.3701    4.7165   -2.1196 H   0  0  0  0  0  0  0  0  0  0  0  0
    5.4990    3.9015    0.4250 H   0  0  0  0  0  0  0  0  0  0  0  0
    4.6344    5.4346    0.7832 H   0  0  0  0  0  0  0  0  0  0  0  0
    6.2382    5.4914   -0.0201 H   0  0  0  0  0  0  0  0  0  0  0  0
    3.2198    1.9061   -2.4484 H   0  0  0  0  0  0  0  0  0  0  0  0
    3.5567    1.7597   -0.7520 H   0  0  0  0  0  0  0  0  0  0  0  0
    5.9313    2.2916   -1.0299 H   0  0  0  0  0  0  0  0  0  0  0  0
    5.4050    0.9399   -2.0734 H   0  0  0  0  0  0  0  0  0  0  0  0
    5.7063    2.5408   -2.8005 H   0  0  0  0  0  0  0  0  0  0  0  0
    3.2434    2.7026    1.2869 H   0  0  0  0  0  0  0  0  0  0  0  0
    0.8701    1.1608   -0.4085 H   0  0  0  0  0  0  0  0  0  0  0  0
    1.2433   -0.2250   -2.3706 H   0  0  0  0  0  0  0  0  0  0  0  0
    0.9118   -3.0862   -2.2442 H   0  0  0  0  0  0  0  0  0  0  0  0
    0.2029   -4.2552   -3.4289 H   0  0  0  0  0  0  0  0  0  0  0  0
   -0.8248   -3.5991   -2.0928 H   0  0  0  0  0  0  0  0  0  0  0  0
   -2.9120   -1.3291   -2.3984 H   0  0  0  0  0  0  0  0  0  0  0  0
   -3.3129    0.0932   -0.4397 H   0  0  0  0  0  0  0  0  0  0  0  0
   -2.8445    1.5539    3.3147 H   0  0  0  0  0  0  0  0  0  0  0  0
   -5.0231    2.6026    3.7125 H   0  0  0  0  0  0  0  0  0  0  0  0
   -5.5500    5.6049    3.3958 H   0  0  0  0  0  0  0  0  0  0  0  0
   -7.0435    6.3763    2.7384 H   0  0  0  0  0  0  0  0  0  0  0  0
   -5.6102    6.1562    1.6620 H   0  0  0  0  0  0  0  0  0  0  0  0
   -5.1072    4.0127   -0.3489 H   0  0  0  0  0  0  0  0  0  0  0  0
   -2.9137    2.9725   -0.7615 H   0  0  0  0  0  0  0  0  0  0  0  0
    1.8661   -2.0385    1.2055 H   0  0  0  0  0  0  0  0  0  0  0  0
    3.5811   -2.5194   -0.4660 H   0  0  0  0  0  0  0  0  0  0  0  0
    6.0597   -5.7499    0.3905 H   0  0  0  0  0  0  0  0  0  0  0  0
    4.8944   -5.2608   -0.9114 H   0  0  0  0  0  0  0  0  0  0  0  0
    6.6250   -5.5718   -1.3116 H   0  0  0  0  0  0  0  0  0  0  0  0
    6.2989   -3.7542    2.6265 H   0  0  0  0  0  0  0  0  0  0  0  0
    4.6104   -3.2786    4.3222 H   0  0  0  0  0  0  0  0  0  0  0  0
    1.5942   -4.2690    5.6211 H   0  0  0  0  0  0  0  0  0  0  0  0
    2.0156   -4.2950    8.0558 H   0  0  0  0  0  0  0  0  0  0  0  0
    1.5328   -1.3100   11.2983 H   0  0  0  0  0  0  0  0  0  0  0  0
    1.4632   -0.6015    9.6446 H   0  0  0  0  0  0  0  0  0  0  0  0
    0.7629   -2.2427    9.9605 H   0  0  0  0  0  0  0  0  0  0  0  0
    3.8119   -0.3867    7.7666 H   0  0  0  0  0  0  0  0  0  0  0  0
    3.3592   -0.3606    5.3418 H   0  0  0  0  0  0  0  0  0  0  0  0
   -2.8623   -8.2563    3.7323 H   0  0  0  0  0  0  0  0  0  0  0  0
   -8.5103   -8.0158    3.8021 H   0  0  0  0  0  0  0  0  0  0  0  0
  1  2  2  3
  2  3  1  0
  3  4  2  0
  3  5  1  0
  5  6  2  0
  6  7  1  0
  7  8  2  0
  8  9  1  0
  8 10  1  0
 10 11  1  0
 10 12  2  0
 12 13  1  0
  6 14  1  0
 14 15  2  3
 15 16  1  0
 16 17  3  0
 15 18  1  0
 18 19  3  0
  1 20  1  0
 20 21  2  0
 21 22  1  0
 22 23  1  0
 21 24  1  0
 24 25  2  0
 25 26  1  0
 25 27  1  0
 27 28  2  0
 28 29  1  0
 29 30  1  0
 30 31  1  0
 29 32  1  0
 32 33  1  0
 28 34  1  0
 34 35  2  0
 35 36  1  0
 35 37  1  0
 37 38  2  0
 38 39  1  0
 39 40  1  0
 40 41  2  0
 41 42  1  0
 42 43  2  0
 43 44  1  0
 44 45  1  0
 43 46  1  0
 46 47  2  0
 39 48  1  0
 48 49  2  0
 49 50  1  0
 50 51  2  0
 51 52  1  0
 52 53  1  0
 51 54  1  0
 54 55  2  0
 38 56  1  0
 56 57  1  0
 57 58  1  0
 58 59  2  0
 59 60  1  0
 60 61  1  0
 61 62  2  0
 62 63  1  0
 63 64  2  0
 64 65  1  0
 65 66  1  0
 64 67  1  0
 67 68  2  0
 60 69  1  0
 69 70  2  0
 70 71  1  0
 71 72  2  0
 72 73  1  0
 73 74  1  0
 72 75  1  0
 75 76  2  0
 59 77  1  0
 77 78  1  0
 58 79  1  0
 79 80  2  0
 80 81  1  0
 81 82  1  0
 82 83  2  0
 83 84  2  0
 81 85  2  0
 85 86  1  0
 86 87  2  0
 87 88  1  0
 88 89  1  0
 89 90  2  0
 85 91  1  0
 91 92  2  3
 92 93  1  0
 93 94  2  0
 93 95  1  0
 95 96  2  0
 96 97  1  0
 97 98  2  0
 98 99  1  0
 98100  1  0
100101  1  0
100102  2  0
102103  1  0
 96104  1  0
104105  2  3
105106  1  0
106107  3  0
105108  1  0
108109  3  0
 14  2  1  0
 26 20  1  0
 36 27  1  0
 78 37  1  0
 90 79  1  0
104 92  1  0
 12  5  1  0
 29 24  1  0
 47 40  1  0
 55 48  1  0
 77 56  2  0
 84 80  1  0
 90 86  1  0
102 95  1  0
 68 61  1  0
 76 69  1  0
  1110  1  0
  7111  1  0
 22112  1  0
 22113  1  0
 23114  1  0
 23115  1  0
 23116  1  0
 30117  1  0
 30118  1  0
 31119  1  0
 31120  1  0
 31121  1  0
 32122  1  0
 32123  1  0
 33124  1  0
 33125  1  0
 33126  1  0
 34127  1  0
 41128  1  0
 42129  1  0
 45130  1  0
 45131  1  0
 45132  1  0
 46133  1  0
 47134  1  0
 49135  1  0
 50136  1  0
 53137  1  0
 53138  1  0
 53139  1  0
 54140  1  0
 55141  1  0
 62142  1  0
 63143  1  0
 66144  1  0
 66145  1  0
 66146  1  0
 67147  1  0
 68148  1  0
 70149  1  0
 71150  1  0
 74151  1  0
 74152  1  0
 74153  1  0
 75154  1  0
 76155  1  0
 91156  1  0
 97157  1  0
M  END

