
     RDKit          3D

204223  0  0  0  0  0  0  0  0999 V2000
   -3.9724    3.1673   -8.9281 C   0  0  0  0  0  0  0  0  0  0  0  0
   -3.3688    4.3523   -8.7591 C   0  0  0  0  0  0  0  0  0  0  0  0
   -3.0165    5.2766   -9.8360 C   0  0  0  0  0  0  0  0  0  0  0  0
   -3.3329    5.1600  -11.0493 O   0  0  0  0  0  0  0  0  0  0  0  0
   -2.1681    6.3253   -9.2739 C   0  0  0  0  0  0  0  0  0  0  0  0
   -1.9809    6.0750   -7.9243 C   0  0  0  0  0  0  0  0  0  0  0  0
   -1.3250    7.0054   -7.1130 C   0  0  0  0  0  0  0  0  0  0  0  0
   -0.8312    8.1763   -7.6908 C   0  0  0  0  0  0  0  0  0  0  0  0
   -0.9694    8.4163   -9.0734 C   0  0  0  0  0  0  0  0  0  0  0  0
   -0.2646   10.0408   -9.8049 Br  0  0  0  0  0  0  0  0  0  0  0  0
   -1.6524    7.4818   -9.8845 C   0  0  0  0  0  0  0  0  0  0  0  0
   -1.8350    7.7504  -11.6194 Cl  0  0  0  0  0  0  0  0  0  0  0  0
   -2.7321    4.8615   -7.5260 C   0  0  0  0  0  0  0  0  0  0  0  0
   -3.2334    4.7106   -6.2885 C   0  0  0  0  0  0  0  0  0  0  0  0
   -4.6607    4.7475   -6.0640 C   0  0  0  0  0  0  0  0  0  0  0  0
   -5.8148    4.7998   -5.9125 N   0  0  0  0  0  0  0  0  0  0  0  0
   -2.3573    4.6381   -5.1528 C   0  0  0  0  0  0  0  0  0  0  0  0
   -1.6481    4.5427   -4.2381 N   0  0  0  0  0  0  0  0  0  0  0  0
   -4.0354    2.1516   -7.8662 C   0  0  0  0  0  0  0  0  0  0  0  0
   -5.1859    1.8093   -7.1698 C   0  0  0  0  0  0  0  0  0  0  0  0
   -4.9276    0.9970   -6.0511 C   0  0  0  0  0  0  0  0  0  0  0  0
   -5.8677    0.5865   -5.0759 C   0  0  0  0  0  0  0  0  0  0  0  0
   -7.2980    0.9312   -5.1793 C   0  0  0  0  0  0  0  0  0  0  0  0
   -8.0841    1.5164   -4.1952 C   0  0  0  0  0  0  0  0  0  0  0  0
   -9.4153    1.6987   -4.5819 C   0  0  0  0  0  0  0  0  0  0  0  0
   -9.6764    1.2472   -5.8731 C   0  0  0  0  0  0  0  0  0  0  0  0
  -10.9970    1.3093   -6.5722 C   0  0  0  0  0  0  0  0  0  0  0  0
  -11.4929   -0.0904   -6.9277 C   0  0  0  0  0  0  0  0  0  0  0  0
   -8.2596    0.6297   -6.5351 S   0  0  0  0  0  0  0  0  0  0  0  0
   -5.3727   -0.1610   -3.9927 C   0  0  0  0  0  0  0  0  0  0  0  0
   -4.0269   -0.5247   -3.8860 C   0  0  0  0  0  0  0  0  0  0  0  0
   -3.0773   -0.0929   -4.8397 C   0  0  0  0  0  0  0  0  0  0  0  0
   -1.6297   -0.3853   -4.6801 C   0  0  0  0  0  0  0  0  0  0  0  0
   -0.5907    0.5485   -4.6831 C   0  0  0  0  0  0  0  0  0  0  0  0
    0.6626   -0.0181   -4.3962 C   0  0  0  0  0  0  0  0  0  0  0  0
    0.6107   -1.3854   -4.1469 C   0  0  0  0  0  0  0  0  0  0  0  0
    1.7672   -2.2682   -3.7854 C   0  0  0  0  0  0  0  0  0  0  0  0
    2.3532   -2.9274   -5.0282 C   0  0  0  0  0  0  0  0  0  0  0  0
   -0.9751   -1.8999   -4.3458 S   0  0  0  0  0  0  0  0  0  0  0  0
   -3.5676    0.6858   -5.9029 C   0  0  0  0  0  0  0  0  0  0  0  0
   -2.6978    1.4253   -7.1424 S   0  0  0  0  0  0  0  0  0  0  0  0
   -3.7404   -1.2128   -2.7022 C   0  0  0  0  0  0  0  0  0  0  0  0
   -4.8346   -1.3614   -1.8609 C   0  0  0  0  0  0  0  0  0  0  0  0
   -6.1807   -0.6434   -2.5805 S   0  0  0  0  0  0  0  0  0  0  0  0
   -4.6279   -1.6287   -0.4357 C   0  0  0  0  0  0  0  0  0  0  0  0
   -4.0955   -0.5717    0.3265 C   0  0  0  0  0  0  0  0  0  0  0  0
   -4.6442    0.7610    0.3238 N   0  0  0  0  0  0  0  0  0  0  0  0
   -6.0383    0.9507    0.6874 C   0  0  0  0  0  0  0  0  0  0  0  0
   -6.6807    0.0701    1.5867 C   0  0  0  0  0  0  0  0  0  0  0  0
   -8.0116    0.2806    1.9585 C   0  0  0  0  0  0  0  0  0  0  0  0
   -8.7171    1.3799    1.4565 C   0  0  0  0  0  0  0  0  0  0  0  0
  -10.4157    1.6707    1.9552 S   0  0  0  0  0  0  0  0  0  0  0  0
   -9.9623    2.4897    3.5171 C   0  0  0  0  0  0  0  0  0  0  0  0
   -8.0972    2.2484    0.5583 C   0  0  0  0  0  0  0  0  0  0  0  0
   -6.7736    2.0295    0.1654 C   0  0  0  0  0  0  0  0  0  0  0  0
   -3.7714    1.8951    0.1474 C   0  0  0  0  0  0  0  0  0  0  0  0
   -2.8265    1.9044   -0.8906 C   0  0  0  0  0  0  0  0  0  0  0  0
   -1.9296    2.9687   -1.0225 C   0  0  0  0  0  0  0  0  0  0  0  0
   -1.9543    4.0246   -0.1005 C   0  0  0  0  0  0  0  0  0  0  0  0
   -0.7408    5.3458   -0.2141 S   0  0  0  0  0  0  0  0  0  0  0  0
   -1.8109    6.4280   -1.2169 C   0  0  0  0  0  0  0  0  0  0  0  0
   -2.9086    4.0365    0.9191 C   0  0  0  0  0  0  0  0  0  0  0  0
   -3.8108    2.9758    1.0452 C   0  0  0  0  0  0  0  0  0  0  0  0
   -2.9368   -0.9422    1.0184 C   0  0  0  0  0  0  0  0  0  0  0  0
   -1.6487   -0.0895    1.6732 S   0  0  0  0  0  0  0  0  0  0  0  0
   -0.6655   -1.4727    1.8607 C   0  0  0  0  0  0  0  0  0  0  0  0
   -1.3748   -2.6114    1.4183 C   0  0  0  0  0  0  0  0  0  0  0  0
   -1.0311   -3.9675    1.7641 N   0  0  0  0  0  0  0  0  0  0  0  0
   -0.2965   -4.8019    0.8302 C   0  0  0  0  0  0  0  0  0  0  0  0
    0.7006   -5.6855    1.3013 C   0  0  0  0  0  0  0  0  0  0  0  0
    1.3391   -6.5718    0.4289 C   0  0  0  0  0  0  0  0  0  0  0  0
    0.9643   -6.6097   -0.9190 C   0  0  0  0  0  0  0  0  0  0  0  0
    1.6520   -7.8592   -2.0068 S   0  0  0  0  0  0  0  0  0  0  0  0
    0.4912   -9.1564   -1.4529 C   0  0  0  0  0  0  0  0  0  0  0  0
    0.0410   -5.6838   -1.4129 C   0  0  0  0  0  0  0  0  0  0  0  0
   -0.5721   -4.7748   -0.5493 C   0  0  0  0  0  0  0  0  0  0  0  0
   -1.4510   -4.4668    3.0717 C   0  0  0  0  0  0  0  0  0  0  0  0
   -1.6818   -3.5831    4.1497 C   0  0  0  0  0  0  0  0  0  0  0  0
   -2.0478   -4.0647    5.4027 C   0  0  0  0  0  0  0  0  0  0  0  0
   -2.1488   -5.4358    5.6287 C   0  0  0  0  0  0  0  0  0  0  0  0
   -2.3975   -6.0422    7.2965 S   0  0  0  0  0  0  0  0  0  0  0  0
   -0.6470   -5.7957    7.7410 C   0  0  0  0  0  0  0  0  0  0  0  0
   -1.9687   -6.3261    4.5681 C   0  0  0  0  0  0  0  0  0  0  0  0
   -1.6577   -5.8458    3.2943 C   0  0  0  0  0  0  0  0  0  0  0  0
   -2.6320   -2.2599    0.9471 C   0  0  0  0  0  0  0  0  0  0  0  0
   -3.7471   -3.0374   -0.0250 S   0  0  0  0  0  0  0  0  0  0  0  0
    0.7315   -1.4302    2.3392 C   0  0  0  0  0  0  0  0  0  0  0  0
    1.4177   -0.2921    2.7827 C   0  0  0  0  0  0  0  0  0  0  0  0
    2.7863   -0.5264    2.9979 C   0  0  0  0  0  0  0  0  0  0  0  0
    3.7558    0.4246    3.3751 C   0  0  0  0  0  0  0  0  0  0  0  0
    3.4154    1.8390    3.6151 C   0  0  0  0  0  0  0  0  0  0  0  0
    3.0624    2.2704    4.9066 C   0  0  0  0  0  0  0  0  0  0  0  0
    2.7489    3.6121    5.1326 C   0  0  0  0  0  0  0  0  0  0  0  0
    2.7902    4.5300    4.0801 C   0  0  0  0  0  0  0  0  0  0  0  0
    3.1466    4.1092    2.7917 C   0  0  0  0  0  0  0  0  0  0  0  0
    3.1831    5.2936    1.4435 S   0  0  0  0  0  0  0  0  0  0  0  0
    4.9575    5.6989    1.6078 C   0  0  0  0  0  0  0  0  0  0  0  0
    5.1363    7.2140    1.5969 C   0  0  0  0  0  0  0  0  0  0  0  0
    3.4585    2.7619    2.5572 C   0  0  0  0  0  0  0  0  0  0  0  0
    5.0865   -0.0221    3.4649 C   0  0  0  0  0  0  0  0  0  0  0  0
    5.4623   -1.3396    3.1776 C   0  0  0  0  0  0  0  0  0  0  0  0
    4.4993   -2.2855    2.7845 C   0  0  0  0  0  0  0  0  0  0  0  0
    4.8691   -3.6349    2.2973 C   0  0  0  0  0  0  0  0  0  0  0  0
    4.4200   -4.7876    2.9577 C   0  0  0  0  0  0  0  0  0  0  0  0
    4.7190   -6.0490    2.4358 C   0  0  0  0  0  0  0  0  0  0  0  0
    5.4499   -6.1662    1.2507 C   0  0  0  0  0  0  0  0  0  0  0  0
    5.8835   -5.0148    0.5734 C   0  0  0  0  0  0  0  0  0  0  0  0
    6.8498   -5.1560   -0.9381 S   0  0  0  0  0  0  0  0  0  0  0  0
    5.4302   -4.9568   -2.0772 C   0  0  0  0  0  0  0  0  0  0  0  0
    4.8266   -6.3048   -2.4274 C   0  0  0  0  0  0  0  0  0  0  0  0
    5.6045   -3.7561    1.1029 C   0  0  0  0  0  0  0  0  0  0  0  0
    3.1680   -1.8428    2.7332 C   0  0  0  0  0  0  0  0  0  0  0  0
    1.8271   -2.7058    2.2243 S   0  0  0  0  0  0  0  0  0  0  0  0
    6.8448   -1.5582    3.3042 C   0  0  0  0  0  0  0  0  0  0  0  0
    7.5348   -0.4203    3.7126 C   0  0  0  0  0  0  0  0  0  0  0  0
    6.4545    0.8702    3.8864 S   0  0  0  0  0  0  0  0  0  0  0  0
    8.9832   -0.3341    3.9260 C   0  0  0  0  0  0  0  0  0  0  0  0
    9.5300   -0.1935    5.1496 C   0  0  0  0  0  0  0  0  0  0  0  0
    8.7825   -0.1005    6.4054 C   0  0  0  0  0  0  0  0  0  0  0  0
    7.5574   -0.3608    6.5590 O   0  0  0  0  0  0  0  0  0  0  0  0
    9.6880    0.3311    7.4556 C   0  0  0  0  0  0  0  0  0  0  0  0
   10.9576    0.4740    6.9248 C   0  0  0  0  0  0  0  0  0  0  0  0
   11.9966    0.9750    7.7324 C   0  0  0  0  0  0  0  0  0  0  0  0
   11.7261    1.2838    9.0757 C   0  0  0  0  0  0  0  0  0  0  0  0
   10.4343    1.1258    9.6071 C   0  0  0  0  0  0  0  0  0  0  0  0
   10.1461    1.5923   11.4383 Br  0  0  0  0  0  0  0  0  0  0  0  0
    9.3859    0.6656    8.7858 C   0  0  0  0  0  0  0  0  0  0  0  0
    7.7437    0.5292    9.4079 Cl  0  0  0  0  0  0  0  0  0  0  0  0
   10.9642    0.0547    5.4899 C   0  0  0  0  0  0  0  0  0  0  0  0
   12.0590   -0.2312    4.7354 C   0  0  0  0  0  0  0  0  0  0  0  0
   13.4103   -0.0561    5.2040 C   0  0  0  0  0  0  0  0  0  0  0  0
   14.5053    0.0603    5.5615 N   0  0  0  0  0  0  0  0  0  0  0  0
   11.9630   -0.9042    3.4625 C   0  0  0  0  0  0  0  0  0  0  0  0
   11.8974   -1.4476    2.4400 N   0  0  0  0  0  0  0  0  0  0  0  0
   -4.3967    2.9121   -9.8934 H   0  0  0  0  0  0  0  0  0  0  0  0
   -1.2372    6.8645   -6.0451 H   0  0  0  0  0  0  0  0  0  0  0  0
   -0.3464    8.9099   -7.0538 H   0  0  0  0  0  0  0  0  0  0  0  0
   -6.1468    2.2351   -7.4115 H   0  0  0  0  0  0  0  0  0  0  0  0
   -7.7043    1.8154   -3.2267 H   0  0  0  0  0  0  0  0  0  0  0  0
  -10.1620    2.1353   -3.9332 H   0  0  0  0  0  0  0  0  0  0  0  0
  -10.8902    1.9138   -7.4985 H   0  0  0  0  0  0  0  0  0  0  0  0
  -11.7468    1.8080   -5.9181 H   0  0  0  0  0  0  0  0  0  0  0  0
  -12.4801   -0.0209   -7.4277 H   0  0  0  0  0  0  0  0  0  0  0  0
  -10.7790   -0.5936   -7.6196 H   0  0  0  0  0  0  0  0  0  0  0  0
  -11.6010   -0.7028   -6.0080 H   0  0  0  0  0  0  0  0  0  0  0  0
   -0.7398    1.6069   -4.8591 H   0  0  0  0  0  0  0  0  0  0  0  0
    1.5784    0.5577   -4.3696 H   0  0  0  0  0  0  0  0  0  0  0  0
    1.4215   -3.0479   -3.0702 H   0  0  0  0  0  0  0  0  0  0  0  0
    2.5471   -1.6667   -3.2738 H   0  0  0  0  0  0  0  0  0  0  0  0
    2.8173   -2.1646   -5.6854 H   0  0  0  0  0  0  0  0  0  0  0  0
    3.1268   -3.6607   -4.7314 H   0  0  0  0  0  0  0  0  0  0  0  0
    1.5639   -3.4596   -5.5940 H   0  0  0  0  0  0  0  0  0  0  0  0
   -2.7387   -1.4564   -2.3741 H   0  0  0  0  0  0  0  0  0  0  0  0
   -6.1431   -0.7625    2.0212 H   0  0  0  0  0  0  0  0  0  0  0  0
   -8.4810   -0.3918    2.6623 H   0  0  0  0  0  0  0  0  0  0  0  0
   -9.5396    1.7431    4.2179 H   0  0  0  0  0  0  0  0  0  0  0  0
  -10.8747    2.9242    3.9827 H   0  0  0  0  0  0  0  0  0  0  0  0
   -9.2310    3.3021    3.3366 H   0  0  0  0  0  0  0  0  0  0  0  0
   -8.6490    3.0913    0.1544 H   0  0  0  0  0  0  0  0  0  0  0  0
   -6.3149    2.7105   -0.5379 H   0  0  0  0  0  0  0  0  0  0  0  0
   -2.7738    1.0921   -1.5992 H   0  0  0  0  0  0  0  0  0  0  0  0
   -1.1992    2.9632   -1.8252 H   0  0  0  0  0  0  0  0  0  0  0  0
   -2.1045    5.9167   -2.1500 H   0  0  0  0  0  0  0  0  0  0  0  0
   -1.2590    7.3642   -1.4732 H   0  0  0  0  0  0  0  0  0  0  0  0
   -2.7209    6.7001   -0.6508 H   0  0  0  0  0  0  0  0  0  0  0  0
   -2.9344    4.8521    1.6293 H   0  0  0  0  0  0  0  0  0  0  0  0
   -4.5244    2.9897    1.8523 H   0  0  0  0  0  0  0  0  0  0  0  0
    0.9739   -5.7023    2.3470 H   0  0  0  0  0  0  0  0  0  0  0  0
    2.0752   -7.2719    0.8143 H   0  0  0  0  0  0  0  0  0  0  0  0
    0.6446  -10.0785   -2.0575 H   0  0  0  0  0  0  0  0  0  0  0  0
    0.6743   -9.3983   -0.3815 H   0  0  0  0  0  0  0  0  0  0  0  0
   -0.5553   -8.8169   -1.5881 H   0  0  0  0  0  0  0  0  0  0  0  0
   -0.2107   -5.6760   -2.4641 H   0  0  0  0  0  0  0  0  0  0  0  0
   -1.2795   -4.0701   -0.9570 H   0  0  0  0  0  0  0  0  0  0  0  0
   -1.5694   -2.5179    4.0477 H   0  0  0  0  0  0  0  0  0  0  0  0
   -2.1981   -3.3638    6.2154 H   0  0  0  0  0  0  0  0  0  0  0  0
    0.0143   -6.4026    7.0861 H   0  0  0  0  0  0  0  0  0  0  0  0
   -0.4908   -6.0987    8.7949 H   0  0  0  0  0  0  0  0  0  0  0  0
   -0.3754   -4.7206    7.6401 H   0  0  0  0  0  0  0  0  0  0  0  0
   -2.0696   -7.3974    4.7243 H   0  0  0  0  0  0  0  0  0  0  0  0
   -1.5661   -6.5608    2.4849 H   0  0  0  0  0  0  0  0  0  0  0  0
    0.9496    0.6782    2.8868 H   0  0  0  0  0  0  0  0  0  0  0  0
    3.0427    1.5656    5.7283 H   0  0  0  0  0  0  0  0  0  0  0  0
    2.4906    3.9412    6.1299 H   0  0  0  0  0  0  0  0  0  0  0  0
    2.5501    5.5696    4.2728 H   0  0  0  0  0  0  0  0  0  0  0  0
    5.3817    5.3018    2.5605 H   0  0  0  0  0  0  0  0  0  0  0  0
    5.5096    5.2362    0.7652 H   0  0  0  0  0  0  0  0  0  0  0  0
    4.5880    7.6621    2.4545 H   0  0  0  0  0  0  0  0  0  0  0  0
    6.2189    7.4632    1.6749 H   0  0  0  0  0  0  0  0  0  0  0  0
    4.7468    7.6382    0.6512 H   0  0  0  0  0  0  0  0  0  0  0  0
    3.7282    2.4291    1.5606 H   0  0  0  0  0  0  0  0  0  0  0  0
    3.8255   -4.7061    3.8580 H   0  0  0  0  0  0  0  0  0  0  0  0
    4.3791   -6.9358    2.9478 H   0  0  0  0  0  0  0  0  0  0  0  0
    5.6861   -7.1487    0.8598 H   0  0  0  0  0  0  0  0  0  0  0  0
    5.7985   -4.4768   -3.0097 H   0  0  0  0  0  0  0  0  0  0  0  0
    4.6501   -4.2889   -1.6446 H   0  0  0  0  0  0  0  0  0  0  0  0
    3.9878   -6.1578   -3.1403 H   0  0  0  0  0  0  0  0  0  0  0  0
    5.5929   -6.9519   -2.9003 H   0  0  0  0  0  0  0  0  0  0  0  0
    4.4442   -6.8011   -1.5093 H   0  0  0  0  0  0  0  0  0  0  0  0
    5.9386   -2.8642    0.5752 H   0  0  0  0  0  0  0  0  0  0  0  0
    7.3255   -2.5141    3.1314 H   0  0  0  0  0  0  0  0  0  0  0  0
    9.5817   -0.3135    3.0295 H   0  0  0  0  0  0  0  0  0  0  0  0
   12.9834    1.1774    7.3527 H   0  0  0  0  0  0  0  0  0  0  0  0
   12.5246    1.6609    9.7040 H   0  0  0  0  0  0  0  0  0  0  0  0
  1  2  2  3
  2  3  1  0
  3  4  2  0
  3  5  1  0
  5  6  2  0
  6  7  1  0
  7  8  2  0
  8  9  1  0
  9 10  1  0
  9 11  2  0
 11 12  1  0
  6 13  1  0
 13 14  2  3
 14 15  1  0
 15 16  3  0
 14 17  1  0
 17 18  3  0
  1 19  1  0
 19 20  2  0
 20 21  1  0
 21 22  2  0
 22 23  1  0
 23 24  2  0
 24 25  1  0
 25 26  2  0
 26 27  1  0
 27 28  1  0
 26 29  1  0
 22 30  1  0
 30 31  2  0
 31 32  1  0
 32 33  1  0
 33 34  2  0
 34 35  1  0
 35 36  2  0
 36 37  1  0
 37 38  1  0
 36 39  1  0
 32 40  2  0
 40 41  1  0
 31 42  1  0
 42 43  2  0
 43 44  1  0
 43 45  1  0
 45 46  2  0
 46 47  1  0
 47 48  1  0
 48 49  2  0
 49 50  1  0
 50 51  2  0
 51 52  1  0
 52 53  1  0
 51 54  1  0
 54 55  2  0
 47 56  1  0
 56 57  2  0
 57 58  1  0
 58 59  2  0
 59 60  1  0
 60 61  1  0
 59 62  1  0
 62 63  2  0
 46 64  1  0
 64 65  1  0
 65 66  1  0
 66 67  2  0
 67 68  1  0
 68 69  1  0
 69 70  2  0
 70 71  1  0
 71 72  2  0
 72 73  1  0
 73 74  1  0
 72 75  1  0
 75 76  2  0
 68 77  1  0
 77 78  2  0
 78 79  1  0
 79 80  2  0
 80 81  1  0
 81 82  1  0
 80 83  1  0
 83 84  2  0
 67 85  1  0
 85 86  1  0
 66 87  1  0
 87 88  2  0
 88 89  1  0
 89 90  2  0
 90 91  1  0
 91 92  2  0
 92 93  1  0
 93 94  2  0
 94 95  1  0
 95 96  1  0
 96 97  1  0
 97 98  1  0
 95 99  2  0
 90100  1  0
100101  2  0
101102  1  0
102103  1  0
103104  2  0
104105  1  0
105106  2  0
106107  1  0
107108  1  0
108109  1  0
109110  1  0
107111  2  0
102112  2  0
112113  1  0
101114  1  0
114115  2  0
115116  1  0
115117  1  0
117118  2  3
118119  1  0
119120  2  0
119121  1  0
121122  2  0
122123  1  0
123124  2  0
124125  1  0
125126  1  0
125127  2  0
127128  1  0
122129  1  0
129130  2  3
130131  1  0
131132  3  0
130133  1  0
133134  3  0
 13  2  1  0
 41 19  1  0
 86 45  1  0
113 87  1  0
129118  1  0
 11  5  1  0
 40 21  1  0
 55 48  1  0
 63 56  1  0
 85 64  2  0
112 89  1  0
127121  1  0
 29 23  1  0
 44 30  1  0
 76 69  1  0
 84 77  1  0
 99 91  1  0
116100  1  0
 39 33  1  0
111103  1  0
  1135  1  0
  7136  1  0
  8137  1  0
 20138  1  0
 24139  1  0
 25140  1  0
 27141  1  0
 27142  1  0
 28143  1  0
 28144  1  0
 28145  1  0
 34146  1  0
 35147  1  0
 37148  1  0
 37149  1  0
 38150  1  0
 38151  1  0
 38152  1  0
 42153  1  0
 49154  1  0
 50155  1  0
 53156  1  0
 53157  1  0
 53158  1  0
 54159  1  0
 55160  1  0
 57161  1  0
 58162  1  0
 61163  1  0
 61164  1  0
 61165  1  0
 62166  1  0
 63167  1  0
 70168  1  0
 71169  1  0
 74170  1  0
 74171  1  0
 74172  1  0
 75173  1  0
 76174  1  0
 78175  1  0
 79176  1  0
 82177  1  0
 82178  1  0
 82179  1  0
 83180  1  0
 84181  1  0
 88182  1  0
 92183  1  0
 93184  1  0
 94185  1  0
 97186  1  0
 97187  1  0
 98188  1  0
 98189  1  0
 98190  1  0
 99191  1  0
104192  1  0
105193  1  0
106194  1  0
109195  1  0
109196  1  0
110197  1  0
110198  1  0
110199  1  0
111200  1  0
114201  1  0
117202  1  0
123203  1  0
124204  1  0
M  END

