
     RDKit          3D

122134  0  0  0  0  0  0  0  0999 V2000
   -7.7038    3.8963   -2.2157 C   0  0  0  0  0  0  0  0  0  0  0  0
   -8.0911    3.5222   -0.9773 C   0  0  0  0  0  0  0  0  0  0  0  0
   -7.2444    2.8506    0.0172 C   0  0  0  0  0  0  0  0  0  0  0  0
   -5.9851    2.8650    0.0504 O   0  0  0  0  0  0  0  0  0  0  0  0
   -8.1020    2.1807    0.9799 C   0  0  0  0  0  0  0  0  0  0  0  0
   -9.4262    2.4606    0.6711 C   0  0  0  0  0  0  0  0  0  0  0  0
  -10.4553    1.8143    1.3751 C   0  0  0  0  0  0  0  0  0  0  0  0
  -10.1247    0.9435    2.4260 C   0  0  0  0  0  0  0  0  0  0  0  0
   -8.7812    0.7049    2.7646 C   0  0  0  0  0  0  0  0  0  0  0  0
   -8.4028   -0.4916    4.2143 Br  0  0  0  0  0  0  0  0  0  0  0  0
   -7.7469    1.3165    2.0272 C   0  0  0  0  0  0  0  0  0  0  0  0
   -6.0561    0.9908    2.3979 Cl  0  0  0  0  0  0  0  0  0  0  0  0
   -9.4903    3.4150   -0.4740 C   0  0  0  0  0  0  0  0  0  0  0  0
  -10.5390    4.2053   -0.8165 C   0  0  0  0  0  0  0  0  0  0  0  0
  -11.8269    4.1017   -0.1817 C   0  0  0  0  0  0  0  0  0  0  0  0
  -12.8686    4.0252    0.3219 N   0  0  0  0  0  0  0  0  0  0  0  0
  -10.3873    5.3243   -1.7081 C   0  0  0  0  0  0  0  0  0  0  0  0
  -10.2718    6.2458   -2.4017 N   0  0  0  0  0  0  0  0  0  0  0  0
   -6.3363    3.6662   -2.6984 C   0  0  0  0  0  0  0  0  0  0  0  0
   -5.2711    4.5421   -2.4995 C   0  0  0  0  0  0  0  0  0  0  0  0
   -4.0197    3.9154   -2.6449 C   0  0  0  0  0  0  0  0  0  0  0  0
   -2.7686    4.4843   -2.3266 C   0  0  0  0  0  0  0  0  0  0  0  0
   -2.6305    5.9294   -2.0691 C   0  0  0  0  0  0  0  0  0  0  0  0
   -2.1342    6.5224   -0.9115 C   0  0  0  0  0  0  0  0  0  0  0  0
   -2.1505    7.9233   -0.9639 C   0  0  0  0  0  0  0  0  0  0  0  0
   -2.6508    8.4183   -2.1604 C   0  0  0  0  0  0  0  0  0  0  0  0
   -2.7812   10.1487   -2.6038 S   0  0  0  0  0  0  0  0  0  0  0  0
   -4.4562   10.3753   -1.9113 C   0  0  0  0  0  0  0  0  0  0  0  0
   -5.5315    9.9409   -2.8990 C   0  0  0  0  0  0  0  0  0  0  0  0
   -3.0727    7.1348   -3.1571 S   0  0  0  0  0  0  0  0  0  0  0  0
   -1.6709    3.6047   -2.2516 C   0  0  0  0  0  0  0  0  0  0  0  0
   -1.7781    2.2467   -2.5742 C   0  0  0  0  0  0  0  0  0  0  0  0
   -3.0146    1.6908   -2.9572 C   0  0  0  0  0  0  0  0  0  0  0  0
   -3.1721    0.2342   -3.1189 C   0  0  0  0  0  0  0  0  0  0  0  0
   -2.4580   -0.5621   -4.0096 C   0  0  0  0  0  0  0  0  0  0  0  0
   -2.6056   -1.9333   -3.7653 C   0  0  0  0  0  0  0  0  0  0  0  0
   -3.4051   -2.1991   -2.6621 C   0  0  0  0  0  0  0  0  0  0  0  0
   -3.7450   -3.8218   -1.9858 S   0  0  0  0  0  0  0  0  0  0  0  0
   -2.1941   -3.9403   -1.0197 C   0  0  0  0  0  0  0  0  0  0  0  0
   -2.1350   -2.9139    0.1095 C   0  0  0  0  0  0  0  0  0  0  0  0
   -3.9606   -0.7558   -2.0099 S   0  0  0  0  0  0  0  0  0  0  0  0
   -4.1222    2.5536   -2.9573 C   0  0  0  0  0  0  0  0  0  0  0  0
   -5.7437    2.1317   -3.0665 S   0  0  0  0  0  0  0  0  0  0  0  0
   -0.6137    1.5198   -2.2968 C   0  0  0  0  0  0  0  0  0  0  0  0
    0.3949    2.2876   -1.7316 C   0  0  0  0  0  0  0  0  0  0  0  0
   -0.1431    3.8849   -1.5872 S   0  0  0  0  0  0  0  0  0  0  0  0
    1.4890    1.6613   -0.9721 C   0  0  0  0  0  0  0  0  0  0  0  0
    1.3267    1.5338    0.4154 C   0  0  0  0  0  0  0  0  0  0  0  0
    0.4035    2.2851    1.0678 F   0  0  0  0  0  0  0  0  0  0  0  0
    1.9728    0.5082    1.1087 C   0  0  0  0  0  0  0  0  0  0  0  0
    1.6648    0.3082    2.4175 F   0  0  0  0  0  0  0  0  0  0  0  0
    2.8051   -0.3981    0.4282 C   0  0  0  0  0  0  0  0  0  0  0  0
    3.0963   -0.1777   -0.9390 C   0  0  0  0  0  0  0  0  0  0  0  0
    4.0155   -0.9607   -1.6618 O   0  0  0  0  0  0  0  0  0  0  0  0
    5.2790   -1.4283   -1.1788 C   0  0  0  0  0  0  0  0  0  0  0  0
    6.1441   -0.2723   -0.6876 C   0  0  0  0  0  0  0  0  0  0  0  0
    2.4347    0.8472   -1.6349 C   0  0  0  0  0  0  0  0  0  0  0  0
    2.7301    1.0076   -2.9964 O   0  0  0  0  0  0  0  0  0  0  0  0
    2.8963    2.2796   -3.6222 C   0  0  0  0  0  0  0  0  0  0  0  0
    3.6613    2.1081   -4.9234 C   0  0  0  0  0  0  0  0  0  0  0  0
    3.1515   -1.6733    1.0943 C   0  0  0  0  0  0  0  0  0  0  0  0
    2.6603   -2.8907    0.5912 C   0  0  0  0  0  0  0  0  0  0  0  0
    2.9421   -4.1213    1.2310 C   0  0  0  0  0  0  0  0  0  0  0  0
    2.3668   -5.2728    0.6000 N   0  0  0  0  0  0  0  0  0  0  0  0
    1.6106   -4.5810   -0.6258 S   0  0  0  0  0  4  0  0  0  0  0  0
    1.8369   -3.0012   -0.5768 N   0  0  0  0  0  0  0  0  0  0  0  0
    3.7294   -4.1752    2.3886 C   0  0  0  0  0  0  0  0  0  0  0  0
    4.2080   -2.9629    2.9185 C   0  0  0  0  0  0  0  0  0  0  0  0
    4.9329   -2.8991    4.0677 N   0  0  0  0  0  0  0  0  0  0  0  0
    5.1814   -1.2682    4.1773 S   0  0  0  0  0  0  0  0  0  0  0  0
    4.4267   -0.5994    2.8645 N   0  0  0  0  0  0  0  0  0  0  0  0
    3.9241   -1.7157    2.2717 C   0  0  0  0  0  0  0  0  0  0  0  0
    3.9742   -5.4641    3.0646 C   0  0  0  0  0  0  0  0  0  0  0  0
    5.1977   -6.0051    3.2044 C   0  0  0  0  0  0  0  0  0  0  0  0
    6.3943   -5.5983    2.4587 C   0  0  0  0  0  0  0  0  0  0  0  0
    6.4987   -4.5787    1.7284 O   0  0  0  0  0  0  0  0  0  0  0  0
    7.3849   -6.6568    2.5695 C   0  0  0  0  0  0  0  0  0  0  0  0
    6.8767   -7.6757    3.3629 C   0  0  0  0  0  0  0  0  0  0  0  0
    7.6204   -8.8542    3.5428 C   0  0  0  0  0  0  0  0  0  0  0  0
    8.8824   -8.9646    2.9458 C   0  0  0  0  0  0  0  0  0  0  0  0
    9.4027   -7.9183    2.1660 C   0  0  0  0  0  0  0  0  0  0  0  0
   11.1374   -8.1377    1.3781 Br  0  0  0  0  0  0  0  0  0  0  0  0
    8.6458   -6.7467    1.9595 C   0  0  0  0  0  0  0  0  0  0  0  0
    9.2691   -5.4349    0.9617 Cl  0  0  0  0  0  0  0  0  0  0  0  0
    5.5287   -7.2955    3.8755 C   0  0  0  0  0  0  0  0  0  0  0  0
    4.8514   -7.8631    4.9076 C   0  0  0  0  0  0  0  0  0  0  0  0
    3.7058   -7.2321    5.5146 C   0  0  0  0  0  0  0  0  0  0  0  0
    2.7841   -6.7314    6.0042 N   0  0  0  0  0  0  0  0  0  0  0  0
    5.2699   -9.0883    5.5390 C   0  0  0  0  0  0  0  0  0  0  0  0
    5.5902  -10.0716    6.0644 N   0  0  0  0  0  0  0  0  0  0  0  0
   -8.4278    4.2353   -2.9419 H   0  0  0  0  0  0  0  0  0  0  0  0
  -11.4934    1.9298    1.1087 H   0  0  0  0  0  0  0  0  0  0  0  0
  -10.9171    0.4506    2.9777 H   0  0  0  0  0  0  0  0  0  0  0  0
   -5.4044    5.5529   -2.1336 H   0  0  0  0  0  0  0  0  0  0  0  0
   -1.7916    5.9643   -0.0492 H   0  0  0  0  0  0  0  0  0  0  0  0
   -1.8157    8.5493   -0.1501 H   0  0  0  0  0  0  0  0  0  0  0  0
   -4.5936   11.4548   -1.6898 H   0  0  0  0  0  0  0  0  0  0  0  0
   -4.5674    9.8134   -0.9566 H   0  0  0  0  0  0  0  0  0  0  0  0
   -5.4476   10.5147   -3.8481 H   0  0  0  0  0  0  0  0  0  0  0  0
   -6.5327   10.1372   -2.4527 H   0  0  0  0  0  0  0  0  0  0  0  0
   -5.4512    8.8553   -3.1155 H   0  0  0  0  0  0  0  0  0  0  0  0
   -1.8217   -0.1661   -4.7932 H   0  0  0  0  0  0  0  0  0  0  0  0
   -2.1011   -2.6979   -4.3390 H   0  0  0  0  0  0  0  0  0  0  0  0
   -1.3168   -3.8147   -1.6920 H   0  0  0  0  0  0  0  0  0  0  0  0
   -2.1505   -4.9582   -0.5811 H   0  0  0  0  0  0  0  0  0  0  0  0
   -1.8476   -1.9189   -0.2882 H   0  0  0  0  0  0  0  0  0  0  0  0
   -3.1166   -2.8406    0.6212 H   0  0  0  0  0  0  0  0  0  0  0  0
   -1.3687   -3.2170    0.8520 H   0  0  0  0  0  0  0  0  0  0  0  0
   -0.5414    0.4417   -2.3682 H   0  0  0  0  0  0  0  0  0  0  0  0
    5.1608   -2.1848   -0.3787 H   0  0  0  0  0  0  0  0  0  0  0  0
    5.8074   -1.9325   -2.0168 H   0  0  0  0  0  0  0  0  0  0  0  0
    7.1434   -0.6516   -0.3901 H   0  0  0  0  0  0  0  0  0  0  0  0
    6.2705    0.4743   -1.5023 H   0  0  0  0  0  0  0  0  0  0  0  0
    5.6739    0.2174    0.1894 H   0  0  0  0  0  0  0  0  0  0  0  0
    3.4751    2.9549   -2.9543 H   0  0  0  0  0  0  0  0  0  0  0  0
    1.9094    2.7406   -3.8418 H   0  0  0  0  0  0  0  0  0  0  0  0
    3.8243    3.1012   -5.3956 H   0  0  0  0  0  0  0  0  0  0  0  0
    3.0812    1.4689   -5.6213 H   0  0  0  0  0  0  0  0  0  0  0  0
    4.6461    1.6317   -4.7243 H   0  0  0  0  0  0  0  0  0  0  0  0
    3.0982   -6.0090    3.3863 H   0  0  0  0  0  0  0  0  0  0  0  0
    7.2474   -9.6966    4.0939 H   0  0  0  0  0  0  0  0  0  0  0  0
    9.4610   -9.8680    3.0878 H   0  0  0  0  0  0  0  0  0  0  0  0
  1  2  2  3
  2  3  1  0
  3  4  2  0
  3  5  1  0
  5  6  2  0
  6  7  1  0
  7  8  2  0
  8  9  1  0
  9 10  1  0
  9 11  2  0
 11 12  1  0
  6 13  1  0
 13 14  2  3
 14 15  1  0
 15 16  3  0
 14 17  1  0
 17 18  3  0
  1 19  1  0
 19 20  2  0
 20 21  1  0
 21 22  2  0
 22 23  1  0
 23 24  2  0
 24 25  1  0
 25 26  2  0
 26 27  1  0
 27 28  1  0
 28 29  1  0
 26 30  1  0
 22 31  1  0
 31 32  2  0
 32 33  1  0
 33 34  1  0
 34 35  2  0
 35 36  1  0
 36 37  2  0
 37 38  1  0
 38 39  1  0
 39 40  1  0
 37 41  1  0
 33 42  2  0
 42 43  1  0
 32 44  1  0
 44 45  2  0
 45 46  1  0
 45 47  1  0
 47 48  2  0
 48 49  1  0
 48 50  1  0
 50 51  1  0
 50 52  2  0
 52 53  1  0
 53 54  1  0
 54 55  1  0
 55 56  1  0
 53 57  2  0
 57 58  1  0
 58 59  1  0
 59 60  1  0
 52 61  1  0
 61 62  2  0
 62 63  1  0
 63 64  1  0
 64 65  2  0
 65 66  2  0
 63 67  2  0
 67 68  1  0
 68 69  2  0
 69 70  1  0
 70 71  1  0
 71 72  2  0
 67 73  1  0
 73 74  2  3
 74 75  1  0
 75 76  2  0
 75 77  1  0
 77 78  2  0
 78 79  1  0
 79 80  2  0
 80 81  1  0
 81 82  1  0
 81 83  2  0
 83 84  1  0
 78 85  1  0
 85 86  2  3
 86 87  1  0
 87 88  3  0
 86 89  1  0
 89 90  3  0
 13  2  1  0
 43 19  1  0
 57 47  1  0
 72 61  1  0
 85 74  1  0
 11  5  1  0
 42 21  1  0
 66 62  1  0
 72 68  1  0
 83 77  1  0
 30 23  1  0
 46 31  1  0
 41 34  1  0
  1 91  1  0
  7 92  1  0
  8 93  1  0
 20 94  1  0
 24 95  1  0
 25 96  1  0
 28 97  1  0
 28 98  1  0
 29 99  1  0
 29100  1  0
 29101  1  0
 35102  1  0
 36103  1  0
 39104  1  0
 39105  1  0
 40106  1  0
 40107  1  0
 40108  1  0
 44109  1  0
 55110  1  0
 55111  1  0
 56112  1  0
 56113  1  0
 56114  1  0
 59115  1  0
 59116  1  0
 60117  1  0
 60118  1  0
 60119  1  0
 73120  1  0
 79121  1  0
 80122  1  0
M  END

