
     RDKit          3D

196215  0  0  0  0  0  0  0  0999 V2000
    2.1783    9.3238   -4.3433 C   0  0  0  0  0  0  0  0  0  0  0  0
    1.9573    9.7837   -3.0947 C   0  0  0  0  0  0  0  0  0  0  0  0
    2.1932    9.0323   -1.8527 C   0  0  0  0  0  0  0  0  0  0  0  0
    2.4022    7.7921   -1.7551 O   0  0  0  0  0  0  0  0  0  0  0  0
    2.1806    9.9633   -0.7413 C   0  0  0  0  0  0  0  0  0  0  0  0
    1.8520   11.2242   -1.2138 C   0  0  0  0  0  0  0  0  0  0  0  0
    1.8419   12.3166   -0.3313 C   0  0  0  0  0  0  0  0  0  0  0  0
    2.1265   12.1033    1.0259 C   0  0  0  0  0  0  0  0  0  0  0  0
    2.4578   10.8181    1.4981 C   0  0  0  0  0  0  0  0  0  0  0  0
    2.8802   10.6083    3.3525 Br  0  0  0  0  0  0  0  0  0  0  0  0
    2.4892    9.7275    0.6059 C   0  0  0  0  0  0  0  0  0  0  0  0
    2.9434    8.1179    1.1673 Cl  0  0  0  0  0  0  0  0  0  0  0  0
    1.5964   11.1752   -2.6822 C   0  0  0  0  0  0  0  0  0  0  0  0
    0.9304   12.1018   -3.4230 C   0  0  0  0  0  0  0  0  0  0  0  0
    0.5167   11.8554   -4.7814 C   0  0  0  0  0  0  0  0  0  0  0  0
    0.1723   11.6666   -5.8707 N   0  0  0  0  0  0  0  0  0  0  0  0
    0.4323   13.3333   -2.8647 C   0  0  0  0  0  0  0  0  0  0  0  0
    0.0179   14.3243   -2.4313 N   0  0  0  0  0  0  0  0  0  0  0  0
    2.4435    7.9061   -4.6106 C   0  0  0  0  0  0  0  0  0  0  0  0
    1.4509    6.9775   -4.8878 C   0  0  0  0  0  0  0  0  0  0  0  0
    1.8988    5.6470   -4.7889 C   0  0  0  0  0  0  0  0  0  0  0  0
    1.1132    4.4802   -4.9286 C   0  0  0  0  0  0  0  0  0  0  0  0
   -0.3320    4.5362   -5.2365 C   0  0  0  0  0  0  0  0  0  0  0  0
   -0.9495    3.8825   -6.2955 C   0  0  0  0  0  0  0  0  0  0  0  0
   -2.3065    4.2003   -6.4329 C   0  0  0  0  0  0  0  0  0  0  0  0
   -3.3098    3.5345   -7.7076 Cl  0  0  0  0  0  0  0  0  0  0  0  0
   -2.7639    5.0984   -5.4709 C   0  0  0  0  0  0  0  0  0  0  0  0
   -4.1421    5.6762   -5.3670 C   0  0  0  0  0  0  0  0  0  0  0  0
   -5.0645    4.7501   -4.5869 C   0  0  0  0  0  0  0  0  0  0  0  0
   -1.4852    5.4806   -4.4490 S   0  0  0  0  0  0  0  0  0  0  0  0
    1.7597    3.2538   -4.6928 C   0  0  0  0  0  0  0  0  0  0  0  0
    3.1111    3.1678   -4.3425 C   0  0  0  0  0  0  0  0  0  0  0  0
    3.9185    4.3228   -4.2838 C   0  0  0  0  0  0  0  0  0  0  0  0
    5.3734    4.2370   -4.0288 C   0  0  0  0  0  0  0  0  0  0  0  0
    6.2782    5.2151   -2.9929 S   0  0  0  0  0  0  0  0  0  0  0  0
    7.7710    4.5328   -3.3550 C   0  0  0  0  0  0  0  0  0  0  0  0
    9.0909    5.0144   -2.8266 C   0  0  0  0  0  0  0  0  0  0  0  0
    9.8084    5.8905   -3.8475 C   0  0  0  0  0  0  0  0  0  0  0  0
    7.5779    3.5334   -4.3100 C   0  0  0  0  0  0  0  0  0  0  0  0
    6.2429    3.3665   -4.6828 C   0  0  0  0  0  0  0  0  0  0  0  0
    8.8762    2.5822   -5.0235 Cl  0  0  0  0  0  0  0  0  0  0  0  0
    3.2652    5.5549   -4.4848 C   0  0  0  0  0  0  0  0  0  0  0  0
    3.8982    7.1098   -4.3243 S   0  0  0  0  0  0  0  0  0  0  0  0
    3.4813    1.8889   -3.8938 C   0  0  0  0  0  0  0  0  0  0  0  0
    2.4334    0.9758   -3.8787 C   0  0  0  0  0  0  0  0  0  0  0  0
    1.0470    1.7485   -4.4623 S   0  0  0  0  0  0  0  0  0  0  0  0
    2.3824   -0.0943   -2.8785 C   0  0  0  0  0  0  0  0  0  0  0  0
    2.0225    0.1058   -1.5404 C   0  0  0  0  0  0  0  0  0  0  0  0
    1.1999    1.2019   -1.1068 N   0  0  0  0  0  0  0  0  0  0  0  0
   -0.1911    1.2407   -1.5209 C   0  0  0  0  0  0  0  0  0  0  0  0
   -0.8957    0.0546   -1.8169 C   0  0  0  0  0  0  0  0  0  0  0  0
   -2.2128    0.0973   -2.2748 C   0  0  0  0  0  0  0  0  0  0  0  0
   -2.8418    1.3271   -2.4730 C   0  0  0  0  0  0  0  0  0  0  0  0
   -4.5041    1.3813   -3.1425 S   0  0  0  0  0  0  0  0  0  0  0  0
   -3.9369    1.1545   -4.8580 C   0  0  0  0  0  0  0  0  0  0  0  0
   -2.1630    2.5127   -2.1749 C   0  0  0  0  0  0  0  0  0  0  0  0
   -0.8502    2.4725   -1.6985 C   0  0  0  0  0  0  0  0  0  0  0  0
    1.7142    2.1058   -0.1093 C   0  0  0  0  0  0  0  0  0  0  0  0
    3.0265    2.5988   -0.2125 C   0  0  0  0  0  0  0  0  0  0  0  0
    3.5320    3.4567    0.7671 C   0  0  0  0  0  0  0  0  0  0  0  0
    2.7380    3.8264    1.8632 C   0  0  0  0  0  0  0  0  0  0  0  0
    3.4095    4.8805    3.1444 S   0  0  0  0  0  0  0  0  0  0  0  0
    4.1183    3.4925    4.0843 C   0  0  0  0  0  0  0  0  0  0  0  0
    1.4298    3.3447    1.9647 C   0  0  0  0  0  0  0  0  0  0  0  0
    0.9227    2.4854    0.9893 C   0  0  0  0  0  0  0  0  0  0  0  0
    2.0845   -1.0796   -0.8233 C   0  0  0  0  0  0  0  0  0  0  0  0
    1.3484   -1.4979    0.6109 S   0  0  0  0  0  0  0  0  0  0  0  0
    1.3609   -3.1651    0.3055 C   0  0  0  0  0  0  0  0  0  0  0  0
    1.9693   -3.4003   -0.9560 C   0  0  0  0  0  0  0  0  0  0  0  0
    2.0854   -4.6886   -1.6045 N   0  0  0  0  0  0  0  0  0  0  0  0
    3.2529   -5.0085   -2.3891 C   0  0  0  0  0  0  0  0  0  0  0  0
    3.1342   -5.7751   -3.5623 C   0  0  0  0  0  0  0  0  0  0  0  0
    4.2574   -6.0379   -4.3547 C   0  0  0  0  0  0  0  0  0  0  0  0
    5.5124   -5.5401   -3.9813 C   0  0  0  0  0  0  0  0  0  0  0  0
    6.9365   -5.8155   -5.0342 S   0  0  0  0  0  0  0  0  0  0  0  0
    6.6717   -4.2779   -5.9763 C   0  0  0  0  0  0  0  0  0  0  0  0
    5.6472   -4.8019   -2.7988 C   0  0  0  0  0  0  0  0  0  0  0  0
    4.5268   -4.5393   -2.0048 C   0  0  0  0  0  0  0  0  0  0  0  0
    1.0926   -5.7025   -1.3862 C   0  0  0  0  0  0  0  0  0  0  0  0
    1.4087   -6.8406   -0.6280 C   0  0  0  0  0  0  0  0  0  0  0  0
    0.4151   -7.7747   -0.3276 C   0  0  0  0  0  0  0  0  0  0  0  0
   -0.8986   -7.5785   -0.7735 C   0  0  0  0  0  0  0  0  0  0  0  0
   -2.1955   -8.7098   -0.2810 S   0  0  0  0  0  0  0  0  0  0  0  0
   -2.5404   -7.8171    1.2696 C   0  0  0  0  0  0  0  0  0  0  0  0
   -1.2006   -6.4741   -1.5760 C   0  0  0  0  0  0  0  0  0  0  0  0
   -0.2062   -5.5386   -1.8882 C   0  0  0  0  0  0  0  0  0  0  0  0
    2.3671   -2.1930   -1.5523 C   0  0  0  0  0  0  0  0  0  0  0  0
    2.6781   -1.7525   -3.1546 S   0  0  0  0  0  0  0  0  0  0  0  0
    0.3250   -3.9747    0.9421 C   0  0  0  0  0  0  0  0  0  0  0  0
    0.4227   -4.5396    2.2155 C   0  0  0  0  0  0  0  0  0  0  0  0
   -0.8288   -4.7211    2.8369 C   0  0  0  0  0  0  0  0  0  0  0  0
   -1.0618   -5.1614    4.1585 C   0  0  0  0  0  0  0  0  0  0  0  0
    0.0290   -5.5352    5.0785 C   0  0  0  0  0  0  0  0  0  0  0  0
    0.0834   -6.7010    5.8352 C   0  0  0  0  0  0  0  0  0  0  0  0
    1.1746   -6.7390    6.7102 C   0  0  0  0  0  0  0  0  0  0  0  0
    1.4908   -8.1071    7.7647 Cl  0  0  0  0  0  0  0  0  0  0  0  0
    1.9664   -5.5918    6.6639 C   0  0  0  0  0  0  0  0  0  0  0  0
    3.2290   -5.3403    7.4297 C   0  0  0  0  0  0  0  0  0  0  0  0
    4.4261   -5.9474    6.7063 C   0  0  0  0  0  0  0  0  0  0  0  0
    1.3215   -4.5464    5.5134 S   0  0  0  0  0  0  0  0  0  0  0  0
   -2.3961   -5.1283    4.6084 C   0  0  0  0  0  0  0  0  0  0  0  0
   -3.4455   -4.6424    3.8258 C   0  0  0  0  0  0  0  0  0  0  0  0
   -3.2155   -4.2345    2.5011 C   0  0  0  0  0  0  0  0  0  0  0  0
   -4.2884   -3.6987    1.6394 C   0  0  0  0  0  0  0  0  0  0  0  0
   -4.7508   -4.3386    0.1490 S   0  0  0  0  0  0  0  0  0  0  0  0
   -5.9245   -3.1826   -0.1836 C   0  0  0  0  0  0  0  0  0  0  0  0
   -6.7368   -3.1278   -1.4457 C   0  0  0  0  0  0  0  0  0  0  0  0
   -6.0098   -2.3393   -2.5261 C   0  0  0  0  0  0  0  0  0  0  0  0
   -5.9509   -2.2627    0.8635 C   0  0  0  0  0  0  0  0  0  0  0  0
   -5.0408   -2.5532    1.8866 C   0  0  0  0  0  0  0  0  0  0  0  0
   -6.9894   -0.8471    0.9051 Cl  0  0  0  0  0  0  0  0  0  0  0  0
   -1.8960   -4.2944    2.0410 C   0  0  0  0  0  0  0  0  0  0  0  0
   -1.2997   -3.6841    0.6030 S   0  0  0  0  0  0  0  0  0  0  0  0
   -4.6593   -4.5308    4.5250 C   0  0  0  0  0  0  0  0  0  0  0  0
   -4.5788   -4.9724    5.8485 C   0  0  0  0  0  0  0  0  0  0  0  0
   -2.9860   -5.4314    6.1577 S   0  0  0  0  0  0  0  0  0  0  0  0
   -5.5632   -4.7046    6.9182 C   0  0  0  0  0  0  0  0  0  0  0  0
   -6.8849   -4.5025    6.7289 C   0  0  0  0  0  0  0  0  0  0  0  0
   -7.6340   -4.8416    5.5152 C   0  0  0  0  0  0  0  0  0  0  0  0
   -7.2984   -5.7027    4.6594 O   0  0  0  0  0  0  0  0  0  0  0  0
   -8.9251   -4.1748    5.5570 C   0  0  0  0  0  0  0  0  0  0  0  0
   -9.9441   -4.1823    4.5987 C   0  0  0  0  0  0  0  0  0  0  0  0
   -9.6904   -4.9246    3.0164 Cl  0  0  0  0  0  0  0  0  0  0  0  0
  -11.1701   -3.5671    4.9240 C   0  0  0  0  0  0  0  0  0  0  0  0
  -12.4647   -3.5057    3.7240 Cl  0  0  0  0  0  0  0  0  0  0  0  0
  -11.3786   -3.0407    6.2161 C   0  0  0  0  0  0  0  0  0  0  0  0
  -12.9514   -2.3565    6.6433 Cl  0  0  0  0  0  0  0  0  0  0  0  0
  -10.3465   -3.0867    7.1829 C   0  0  0  0  0  0  0  0  0  0  0  0
  -10.7400   -2.7704    8.8763 Cl  0  0  0  0  0  0  0  0  0  0  0  0
   -9.0748   -3.5588    6.7902 C   0  0  0  0  0  0  0  0  0  0  0  0
   -7.8118   -3.6815    7.5732 C   0  0  0  0  0  0  0  0  0  0  0  0
   -7.4236   -2.8560    8.5767 C   0  0  0  0  0  0  0  0  0  0  0  0
   -6.3885   -3.2041    9.5142 C   0  0  0  0  0  0  0  0  0  0  0  0
   -5.5629   -3.4870   10.2764 N   0  0  0  0  0  0  0  0  0  0  0  0
   -7.9894   -1.5376    8.7283 C   0  0  0  0  0  0  0  0  0  0  0  0
   -8.4286   -0.4736    8.8469 N   0  0  0  0  0  0  0  0  0  0  0  0
    2.1260    9.9750   -5.1993 H   0  0  0  0  0  0  0  0  0  0  0  0
    1.6587   13.3252   -0.6595 H   0  0  0  0  0  0  0  0  0  0  0  0
    2.1176   12.9424    1.7141 H   0  0  0  0  0  0  0  0  0  0  0  0
    0.4385    7.2704   -5.0990 H   0  0  0  0  0  0  0  0  0  0  0  0
   -0.4253    3.2113   -6.9625 H   0  0  0  0  0  0  0  0  0  0  0  0
   -4.5535    5.8466   -6.3823 H   0  0  0  0  0  0  0  0  0  0  0  0
   -4.0965    6.6606   -4.8500 H   0  0  0  0  0  0  0  0  0  0  0  0
   -6.0865    5.1890   -4.5436 H   0  0  0  0  0  0  0  0  0  0  0  0
   -4.6922    4.6091   -3.5498 H   0  0  0  0  0  0  0  0  0  0  0  0
   -5.1278    3.7608   -5.0880 H   0  0  0  0  0  0  0  0  0  0  0  0
    9.7261    4.1421   -2.5668 H   0  0  0  0  0  0  0  0  0  0  0  0
    8.9244    5.6004   -1.8994 H   0  0  0  0  0  0  0  0  0  0  0  0
   10.8400    6.0843   -3.5022 H   0  0  0  0  0  0  0  0  0  0  0  0
    9.8635    5.3764   -4.8295 H   0  0  0  0  0  0  0  0  0  0  0  0
    9.2715    6.8531   -3.9798 H   0  0  0  0  0  0  0  0  0  0  0  0
    5.9214    2.6540   -5.4370 H   0  0  0  0  0  0  0  0  0  0  0  0
    4.4344    1.6809   -3.4248 H   0  0  0  0  0  0  0  0  0  0  0  0
   -0.4383   -0.9158   -1.7077 H   0  0  0  0  0  0  0  0  0  0  0  0
   -2.7270   -0.8296   -2.5064 H   0  0  0  0  0  0  0  0  0  0  0  0
   -4.7867    1.3387   -5.5475 H   0  0  0  0  0  0  0  0  0  0  0  0
   -3.1163    1.8622   -5.0959 H   0  0  0  0  0  0  0  0  0  0  0  0
   -3.5789    0.1110   -5.0028 H   0  0  0  0  0  0  0  0  0  0  0  0
   -2.6483    3.4662   -2.3237 H   0  0  0  0  0  0  0  0  0  0  0  0
   -0.3282    3.4035   -1.5131 H   0  0  0  0  0  0  0  0  0  0  0  0
    3.6541    2.3187   -1.0485 H   0  0  0  0  0  0  0  0  0  0  0  0
    4.5454    3.8272    0.6817 H   0  0  0  0  0  0  0  0  0  0  0  0
    4.6090    3.8836    4.9977 H   0  0  0  0  0  0  0  0  0  0  0  0
    3.3095    2.7926    4.3806 H   0  0  0  0  0  0  0  0  0  0  0  0
    4.8658    2.9559    3.4655 H   0  0  0  0  0  0  0  0  0  0  0  0
    0.8119    3.6243    2.8132 H   0  0  0  0  0  0  0  0  0  0  0  0
   -0.0857    2.1075    1.1016 H   0  0  0  0  0  0  0  0  0  0  0  0
    2.1693   -6.1512   -3.8782 H   0  0  0  0  0  0  0  0  0  0  0  0
    4.1479   -6.6105   -5.2649 H   0  0  0  0  0  0  0  0  0  0  0  0
    6.7241   -3.4012   -5.2963 H   0  0  0  0  0  0  0  0  0  0  0  0
    5.6797   -4.3029   -6.4727 H   0  0  0  0  0  0  0  0  0  0  0  0
    7.4588   -4.1802   -6.7480 H   0  0  0  0  0  0  0  0  0  0  0  0
    6.6147   -4.4219   -2.5029 H   0  0  0  0  0  0  0  0  0  0  0  0
    4.6464   -3.9668   -1.0933 H   0  0  0  0  0  0  0  0  0  0  0  0
    2.4118   -6.9816   -0.2479 H   0  0  0  0  0  0  0  0  0  0  0  0
    0.6608   -8.6433    0.2728 H   0  0  0  0  0  0  0  0  0  0  0  0
   -2.8748   -6.7852    1.0439 H   0  0  0  0  0  0  0  0  0  0  0  0
   -1.6285   -7.7808    1.9033 H   0  0  0  0  0  0  0  0  0  0  0  0
   -3.3433   -8.3479    1.8208 H   0  0  0  0  0  0  0  0  0  0  0  0
   -2.2137   -6.3144   -1.9272 H   0  0  0  0  0  0  0  0  0  0  0  0
   -0.4580   -4.6670   -2.4781 H   0  0  0  0  0  0  0  0  0  0  0  0
    1.3718   -4.7154    2.6982 H   0  0  0  0  0  0  0  0  0  0  0  0
   -0.6480   -7.4945    5.7668 H   0  0  0  0  0  0  0  0  0  0  0  0
    3.1438   -5.7861    8.4469 H   0  0  0  0  0  0  0  0  0  0  0  0
    3.3897   -4.2456    7.5435 H   0  0  0  0  0  0  0  0  0  0  0  0
    5.3423   -5.8027    7.3122 H   0  0  0  0  0  0  0  0  0  0  0  0
    4.5707   -5.4514    5.7222 H   0  0  0  0  0  0  0  0  0  0  0  0
    4.2781   -7.0381    6.5430 H   0  0  0  0  0  0  0  0  0  0  0  0
   -6.9237   -4.1616   -1.8019 H   0  0  0  0  0  0  0  0  0  0  0  0
   -7.7217   -2.6548   -1.2415 H   0  0  0  0  0  0  0  0  0  0  0  0
   -5.0480   -2.8311   -2.7818 H   0  0  0  0  0  0  0  0  0  0  0  0
   -5.8132   -1.3055   -2.1803 H   0  0  0  0  0  0  0  0  0  0  0  0
   -6.6382   -2.2942   -3.4404 H   0  0  0  0  0  0  0  0  0  0  0  0
   -4.9205   -1.9380    2.7694 H   0  0  0  0  0  0  0  0  0  0  0  0
   -5.5306   -4.0575    4.1070 H   0  0  0  0  0  0  0  0  0  0  0  0
   -5.1194   -4.5282    7.8788 H   0  0  0  0  0  0  0  0  0  0  0  0
  1  2  2  3
  2  3  1  0
  3  4  2  0
  3  5  1  0
  5  6  2  0
  6  7  1  0
  7  8  2  0
  8  9  1  0
  9 10  1  0
  9 11  2  0
 11 12  1  0
  6 13  1  0
 13 14  2  3
 14 15  1  0
 15 16  3  0
 14 17  1  0
 17 18  3  0
  1 19  1  0
 19 20  2  0
 20 21  1  0
 21 22  2  0
 22 23  1  0
 23 24  2  0
 24 25  1  0
 25 26  1  0
 25 27  2  0
 27 28  1  0
 28 29  1  0
 27 30  1  0
 22 31  1  0
 31 32  2  0
 32 33  1  0
 33 34  1  0
 34 35  1  0
 35 36  1  0
 36 37  1  0
 37 38  1  0
 36 39  2  0
 39 40  1  0
 39 41  1  0
 33 42  2  0
 42 43  1  0
 32 44  1  0
 44 45  2  0
 45 46  1  0
 45 47  1  0
 47 48  2  0
 48 49  1  0
 49 50  1  0
 50 51  2  0
 51 52  1  0
 52 53  2  0
 53 54  1  0
 54 55  1  0
 53 56  1  0
 56 57  2  0
 49 58  1  0
 58 59  2  0
 59 60  1  0
 60 61  2  0
 61 62  1  0
 62 63  1  0
 61 64  1  0
 64 65  2  0
 48 66  1  0
 66 67  1  0
 67 68  1  0
 68 69  2  0
 69 70  1  0
 70 71  1  0
 71 72  2  0
 72 73  1  0
 73 74  2  0
 74 75  1  0
 75 76  1  0
 74 77  1  0
 77 78  2  0
 70 79  1  0
 79 80  2  0
 80 81  1  0
 81 82  2  0
 82 83  1  0
 83 84  1  0
 82 85  1  0
 85 86  2  0
 69 87  1  0
 87 88  1  0
 68 89  1  0
 89 90  2  0
 90 91  1  0
 91 92  2  0
 92 93  1  0
 93 94  2  0
 94 95  1  0
 95 96  1  0
 95 97  2  0
 97 98  1  0
 98 99  1  0
 97100  1  0
 92101  1  0
101102  2  0
102103  1  0
103104  1  0
104105  1  0
105106  1  0
106107  1  0
107108  1  0
106109  2  0
109110  1  0
109111  1  0
103112  2  0
112113  1  0
102114  1  0
114115  2  0
115116  1  0
115117  1  0
117118  2  3
118119  1  0
119120  2  0
119121  1  0
121122  2  0
122123  1  0
122124  1  0
124125  1  0
124126  2  0
126127  1  0
126128  1  0
128129  1  0
128130  2  0
130131  1  0
131132  2  3
132133  1  0
133134  3  0
132135  1  0
135136  3  0
 13  2  1  0
 43 19  1  0
 88 47  1  0
113 89  1  0
131118  1  0
 11  5  1  0
 42 21  1  0
 57 50  1  0
 65 58  1  0
 87 66  2  0
112 91  1  0
130121  1  0
 30 23  1  0
 46 31  1  0
 78 71  1  0
 86 79  1  0
100 93  1  0
116101  1  0
 40 34  2  0
110104  2  0
  1137  1  0
  7138  1  0
  8139  1  0
 20140  1  0
 24141  1  0
 28142  1  0
 28143  1  0
 29144  1  0
 29145  1  0
 29146  1  0
 37147  1  0
 37148  1  0
 38149  1  0
 38150  1  0
 38151  1  0
 40152  1  0
 44153  1  0
 51154  1  0
 52155  1  0
 55156  1  0
 55157  1  0
 55158  1  0
 56159  1  0
 57160  1  0
 59161  1  0
 60162  1  0
 63163  1  0
 63164  1  0
 63165  1  0
 64166  1  0
 65167  1  0
 72168  1  0
 73169  1  0
 76170  1  0
 76171  1  0
 76172  1  0
 77173  1  0
 78174  1  0
 80175  1  0
 81176  1  0
 84177  1  0
 84178  1  0
 84179  1  0
 85180  1  0
 86181  1  0
 90182  1  0
 94183  1  0
 98184  1  0
 98185  1  0
 99186  1  0
 99187  1  0
 99188  1  0
107189  1  0
107190  1  0
108191  1  0
108192  1  0
108193  1  0
110194  1  0
114195  1  0
117196  1  0
M  END

