
     RDKit          3D

 72 82  0  0  0  0  0  0  0  0999 V2000
   -2.6950   -5.7995   -1.9441 C   0  0  0  0  0  0  0  0  0  0  0  0
   -4.0401   -5.7584   -2.0428 C   0  0  0  0  0  0  0  0  0  0  0  0
   -4.8859   -4.6055   -1.7002 C   0  0  0  0  0  0  0  0  0  0  0  0
   -4.5274   -3.5790   -1.0668 O   0  0  0  0  0  0  0  0  0  0  0  0
   -6.1885   -4.7811   -2.3176 C   0  0  0  0  0  0  0  0  0  0  0  0
   -6.2009   -5.9828   -3.0107 C   0  0  0  0  0  0  0  0  0  0  0  0
   -7.3157   -6.3217   -3.7939 C   0  0  0  0  0  0  0  0  0  0  0  0
   -8.4245   -5.4605   -3.8175 C   0  0  0  0  0  0  0  0  0  0  0  0
   -8.4233   -4.2675   -3.0746 C   0  0  0  0  0  0  0  0  0  0  0  0
   -9.9685   -3.1371   -3.1442 Br  0  0  0  0  0  0  0  0  0  0  0  0
   -7.2895   -3.9093   -2.3192 C   0  0  0  0  0  0  0  0  0  0  0  0
   -7.2625   -2.4070   -1.3914 Cl  0  0  0  0  0  0  0  0  0  0  0  0
   -4.9117   -6.7067   -2.8020 C   0  0  0  0  0  0  0  0  0  0  0  0
   -4.6560   -8.0181   -3.0576 C   0  0  0  0  0  0  0  0  0  0  0  0
   -3.4747   -8.6770   -2.5619 C   0  0  0  0  0  0  0  0  0  0  0  0
   -2.5319   -9.2217   -2.1692 N   0  0  0  0  0  0  0  0  0  0  0  0
   -5.5912   -8.8778   -3.7394 C   0  0  0  0  0  0  0  0  0  0  0  0
   -6.3328   -9.5751   -4.2901 N   0  0  0  0  0  0  0  0  0  0  0  0
   -1.8939   -4.7568   -1.2733 C   0  0  0  0  0  0  0  0  0  0  0  0
   -2.0271   -4.4959    0.1028 C   0  0  0  0  0  0  0  0  0  0  0  0
   -1.2928   -3.4593    0.7256 C   0  0  0  0  0  0  0  0  0  0  0  0
   -1.5673   -3.2832    2.1184 N   0  0  0  0  0  0  0  0  0  0  0  0
   -2.6511   -4.4308    2.3426 S   0  0  0  0  0  4  0  0  0  0  0  0
   -2.9150   -5.2051    0.9768 N   0  0  0  0  0  0  0  0  0  0  0  0
   -0.4036   -2.6604   -0.0067 C   0  0  0  0  0  0  0  0  0  0  0  0
   -0.2258   -2.9438   -1.3695 C   0  0  0  0  0  0  0  0  0  0  0  0
    0.6379   -2.2511   -2.1573 N   0  0  0  0  0  0  0  0  0  0  0  0
    0.4189   -3.0250   -3.5991 S   0  0  0  0  0  0  0  0  0  0  0  0
   -0.7113   -4.1980   -3.3201 N   0  0  0  0  0  0  0  0  0  0  0  0
   -0.9573   -3.9988   -1.9999 C   0  0  0  0  0  0  0  0  0  0  0  0
    0.3007   -1.5440    0.6302 C   0  0  0  0  0  0  0  0  0  0  0  0
    1.4554   -1.6332    1.3994 C   0  0  0  0  0  0  0  0  0  0  0  0
    1.9245   -0.4396    1.8502 N   0  0  0  0  0  0  0  0  0  0  0  0
    1.1561    0.6023    1.4477 C   0  0  0  0  0  0  0  0  0  0  0  0
   -0.1444    0.0719    0.5073 S   0  0  0  0  0  0  0  0  0  0  0  0
    1.4372    2.0131    1.8139 C   0  0  0  0  0  0  0  0  0  0  0  0
    2.0146    2.3356    3.0574 C   0  0  0  0  0  0  0  0  0  0  0  0
    2.2517    3.6808    3.4378 C   0  0  0  0  0  0  0  0  0  0  0  0
    2.8150    3.8473    4.7418 N   0  0  0  0  0  0  0  0  0  0  0  0
    2.9113    2.3239    5.2082 S   0  0  0  0  0  4  0  0  0  0  0  0
    2.3657    1.3692    4.0537 N   0  0  0  0  0  0  0  0  0  0  0  0
    1.9493    4.7418    2.5790 C   0  0  0  0  0  0  0  0  0  0  0  0
    1.3849    4.4389    1.3286 C   0  0  0  0  0  0  0  0  0  0  0  0
    1.0370    5.3962    0.4301 N   0  0  0  0  0  0  0  0  0  0  0  0
    0.4439    4.4642   -0.7981 S   0  0  0  0  0  0  0  0  0  0  0  0
    0.5823    2.9030   -0.2849 N   0  0  0  0  0  0  0  0  0  0  0  0
    1.1270    3.0822    0.9466 C   0  0  0  0  0  0  0  0  0  0  0  0
    2.1654    6.1395    2.9981 C   0  0  0  0  0  0  0  0  0  0  0  0
    3.0127    6.9686    2.3639 C   0  0  0  0  0  0  0  0  0  0  0  0
    4.1103    6.5473    1.4892 C   0  0  0  0  0  0  0  0  0  0  0  0
    4.3144    5.3734    1.0745 O   0  0  0  0  0  0  0  0  0  0  0  0
    5.0249    7.6687    1.3304 C   0  0  0  0  0  0  0  0  0  0  0  0
    4.5071    8.7718    1.9972 C   0  0  0  0  0  0  0  0  0  0  0  0
    5.2765    9.9345    2.1259 C   0  0  0  0  0  0  0  0  0  0  0  0
    6.5437    9.9838    1.5308 C   0  0  0  0  0  0  0  0  0  0  0  0
    7.0554    8.8742    0.8320 C   0  0  0  0  0  0  0  0  0  0  0  0
    8.7929    9.0171    0.0324 Br  0  0  0  0  0  0  0  0  0  0  0  0
    6.3016    7.6864    0.7436 C   0  0  0  0  0  0  0  0  0  0  0  0
    6.9541    6.2603   -0.0674 Cl  0  0  0  0  0  0  0  0  0  0  0  0
    3.1911    8.4319    2.5986 C   0  0  0  0  0  0  0  0  0  0  0  0
    2.2241    9.3107    2.9775 C   0  0  0  0  0  0  0  0  0  0  0  0
    2.4137   10.7427    2.9383 C   0  0  0  0  0  0  0  0  0  0  0  0
    2.5502   11.8906    2.9110 N   0  0  0  0  0  0  0  0  0  0  0  0
    0.9050    8.8793    3.3648 C   0  0  0  0  0  0  0  0  0  0  0  0
   -0.1583    8.5424    3.6775 N   0  0  0  0  0  0  0  0  0  0  0  0
   -2.1342   -6.5379   -2.4917 H   0  0  0  0  0  0  0  0  0  0  0  0
   -7.3447   -7.2075   -4.4117 H   0  0  0  0  0  0  0  0  0  0  0  0
   -9.2859   -5.7188   -4.4198 H   0  0  0  0  0  0  0  0  0  0  0  0
    1.9592   -2.5671    1.6146 H   0  0  0  0  0  0  0  0  0  0  0  0
    1.6261    6.4772    3.8725 H   0  0  0  0  0  0  0  0  0  0  0  0
    4.9514   10.7761    2.7077 H   0  0  0  0  0  0  0  0  0  0  0  0
    7.1325   10.8864    1.6150 H   0  0  0  0  0  0  0  0  0  0  0  0
  1  2  2  3
  2  3  1  0
  3  4  2  0
  3  5  1  0
  5  6  2  0
  6  7  1  0
  7  8  2  0
  8  9  1  0
  9 10  1  0
  9 11  2  0
 11 12  1  0
  6 13  1  0
 13 14  2  3
 14 15  1  0
 15 16  3  0
 14 17  1  0
 17 18  3  0
  1 19  1  0
 19 20  2  0
 20 21  1  0
 21 22  1  0
 22 23  2  0
 23 24  2  0
 21 25  2  0
 25 26  1  0
 26 27  2  0
 27 28  1  0
 28 29  1  0
 29 30  2  0
 25 31  1  0
 31 32  2  0
 32 33  1  0
 33 34  2  0
 34 35  1  0
 34 36  1  0
 36 37  2  0
 37 38  1  0
 38 39  1  0
 39 40  2  0
 40 41  2  0
 38 42  2  0
 42 43  1  0
 43 44  2  0
 44 45  1  0
 45 46  1  0
 46 47  2  0
 42 48  1  0
 48 49  2  3
 49 50  1  0
 50 51  2  0
 50 52  1  0
 52 53  2  0
 53 54  1  0
 54 55  2  0
 55 56  1  0
 56 57  1  0
 56 58  2  0
 58 59  1  0
 53 60  1  0
 60 61  2  3
 61 62  1  0
 62 63  3  0
 61 64  1  0
 64 65  3  0
 13  2  1  0
 30 19  1  0
 35 31  1  0
 47 36  1  0
 60 49  1  0
 11  5  1  0
 24 20  1  0
 30 26  1  0
 41 37  1  0
 47 43  1  0
 58 52  1  0
  1 66  1  0
  7 67  1  0
  8 68  1  0
 32 69  1  0
 48 70  1  0
 54 71  1  0
 55 72  1  0
M  END

