
     RDKit          3D

164179  0  0  0  0  0  0  0  0999 V2000
   -1.6215   -2.9379    6.9820 C   0  0  0  0  0  0  0  0  0  0  0  0
   -1.0196   -2.1132    7.8581 C   0  0  0  0  0  0  0  0  0  0  0  0
   -1.6457   -1.6900    9.1070 C   0  0  0  0  0  0  0  0  0  0  0  0
   -2.5651   -2.3054    9.7138 O   0  0  0  0  0  0  0  0  0  0  0  0
   -1.0979   -0.3884    9.4686 C   0  0  0  0  0  0  0  0  0  0  0  0
   -0.1150   -0.0435    8.5499 C   0  0  0  0  0  0  0  0  0  0  0  0
    0.4687    1.2259    8.5841 C   0  0  0  0  0  0  0  0  0  0  0  0
    0.0790    2.1244    9.5873 C   0  0  0  0  0  0  0  0  0  0  0  0
   -0.8855    1.7568   10.5486 C   0  0  0  0  0  0  0  0  0  0  0  0
   -1.3671    3.0372   11.8910 Br  0  0  0  0  0  0  0  0  0  0  0  0
   -1.4953    0.4873   10.4914 C   0  0  0  0  0  0  0  0  0  0  0  0
   -2.7364    0.0196   11.6532 Cl  0  0  0  0  0  0  0  0  0  0  0  0
    0.0946   -1.1649    7.6025 C   0  0  0  0  0  0  0  0  0  0  0  0
    1.2379   -1.4656    6.9477 C   0  0  0  0  0  0  0  0  0  0  0  0
    1.5224   -2.8225    6.5499 C   0  0  0  0  0  0  0  0  0  0  0  0
    1.7462   -3.9189    6.2683 N   0  0  0  0  0  0  0  0  0  0  0  0
    2.3180   -0.5246    6.7902 C   0  0  0  0  0  0  0  0  0  0  0  0
    3.1959    0.2181    6.6580 N   0  0  0  0  0  0  0  0  0  0  0  0
   -1.3721   -2.9118    5.5239 C   0  0  0  0  0  0  0  0  0  0  0  0
   -1.1337   -4.0959    4.8023 C   0  0  0  0  0  0  0  0  0  0  0  0
   -1.0680   -5.3319    5.3648 N   0  0  0  0  0  0  0  0  0  0  0  0
   -0.8336   -6.2882    4.4337 C   0  0  0  0  0  0  0  0  0  0  0  0
   -0.7399   -7.7445    4.7615 C   0  0  0  0  0  0  0  0  0  0  0  0
   -2.1086   -8.2966    5.1415 C   0  0  0  0  0  0  0  0  0  0  0  0
   -0.7162   -5.6451    2.8774 S   0  0  0  0  0  0  0  0  0  0  0  0
   -0.9428   -4.0690    3.4143 C   0  0  0  0  0  0  0  0  0  0  0  0
   -0.9934   -2.8798    2.6708 C   0  0  0  0  0  0  0  0  0  0  0  0
   -1.2475   -1.6955    3.3882 C   0  0  0  0  0  0  0  0  0  0  0  0
   -1.4517   -1.7230    4.7693 C   0  0  0  0  0  0  0  0  0  0  0  0
   -1.8488   -0.1628    5.2708 S   0  0  0  0  0  0  0  0  0  0  0  0
   -1.6778    0.4834    3.7214 C   0  0  0  0  0  0  0  0  0  0  0  0
   -1.9085    1.9153    3.3578 C   0  0  0  0  0  0  0  0  0  0  0  0
   -3.2108    2.0722    2.5824 C   0  0  0  0  0  0  0  0  0  0  0  0
   -1.3592   -0.4670    2.8139 N   0  0  0  0  0  0  0  0  0  0  0  0
   -0.8054   -2.8287    1.2091 C   0  0  0  0  0  0  0  0  0  0  0  0
    0.4331   -2.9545    0.5585 C   0  0  0  0  0  0  0  0  0  0  0  0
    1.4675   -3.8653    0.9579 N   0  0  0  0  0  0  0  0  0  0  0  0
    2.3906   -3.4952    2.0022 C   0  0  0  0  0  0  0  0  0  0  0  0
    2.9318   -2.1972    2.0526 C   0  0  0  0  0  0  0  0  0  0  0  0
    3.8992   -1.8734    3.0085 C   0  0  0  0  0  0  0  0  0  0  0  0
    4.3210   -2.8358    3.9351 C   0  0  0  0  0  0  0  0  0  0  0  0
    5.5710   -2.4235    5.1543 S   0  0  0  0  0  0  0  0  0  0  0  0
    6.9328   -3.1594    4.1943 C   0  0  0  0  0  0  0  0  0  0  0  0
    3.7665   -4.1186    3.9066 C   0  0  0  0  0  0  0  0  0  0  0  0
    2.8027   -4.4444    2.9517 C   0  0  0  0  0  0  0  0  0  0  0  0
    1.6172   -5.0963    0.2056 C   0  0  0  0  0  0  0  0  0  0  0  0
    2.8814   -5.6932    0.0255 C   0  0  0  0  0  0  0  0  0  0  0  0
    3.0126   -6.8619   -0.7327 C   0  0  0  0  0  0  0  0  0  0  0  0
    1.8937   -7.4369   -1.3426 C   0  0  0  0  0  0  0  0  0  0  0  0
    2.0662   -8.9162   -2.3398 S   0  0  0  0  0  0  0  0  0  0  0  0
    1.6065  -10.0372   -0.9818 C   0  0  0  0  0  0  0  0  0  0  0  0
    0.6368   -6.8474   -1.1845 C   0  0  0  0  0  0  0  0  0  0  0  0
    0.4966   -5.6939   -0.4115 C   0  0  0  0  0  0  0  0  0  0  0  0
    0.4183   -2.3379   -0.6888 C   0  0  0  0  0  0  0  0  0  0  0  0
    1.6304   -1.7986   -1.7084 S   0  0  0  0  0  0  0  0  0  0  0  0
    0.5864   -0.8370   -2.6637 C   0  0  0  0  0  0  0  0  0  0  0  0
   -0.7278   -0.9667   -2.1678 C   0  0  0  0  0  0  0  0  0  0  0  0
   -1.9094   -0.3780   -2.7406 N   0  0  0  0  0  0  0  0  0  0  0  0
   -2.0656    1.0512   -2.8187 C   0  0  0  0  0  0  0  0  0  0  0  0
   -1.8730    1.8547   -1.6830 C   0  0  0  0  0  0  0  0  0  0  0  0
   -2.2705    3.1955   -1.6999 C   0  0  0  0  0  0  0  0  0  0  0  0
   -2.8414    3.7441   -2.8543 C   0  0  0  0  0  0  0  0  0  0  0  0
   -3.4927    5.4144   -2.8389 S   0  0  0  0  0  0  0  0  0  0  0  0
   -5.1661    4.8765   -2.3602 C   0  0  0  0  0  0  0  0  0  0  0  0
   -2.9609    2.9724   -4.0091 C   0  0  0  0  0  0  0  0  0  0  0  0
   -2.5891    1.6288   -3.9888 C   0  0  0  0  0  0  0  0  0  0  0  0
   -3.0062   -1.2447   -3.1196 C   0  0  0  0  0  0  0  0  0  0  0  0
   -4.3400   -0.8492   -2.9008 C   0  0  0  0  0  0  0  0  0  0  0  0
   -5.3976   -1.6792   -3.2809 C   0  0  0  0  0  0  0  0  0  0  0  0
   -5.1394   -2.9192   -3.8730 C   0  0  0  0  0  0  0  0  0  0  0  0
   -6.5011   -3.9763   -4.3593 S   0  0  0  0  0  0  0  0  0  0  0  0
   -6.5888   -3.2940   -6.0459 C   0  0  0  0  0  0  0  0  0  0  0  0
   -3.8183   -3.3309   -4.0761 C   0  0  0  0  0  0  0  0  0  0  0  0
   -2.7580   -2.5038   -3.6987 C   0  0  0  0  0  0  0  0  0  0  0  0
   -0.7626   -1.7901   -1.0520 C   0  0  0  0  0  0  0  0  0  0  0  0
   -1.8768   -1.9858    0.1785 S   0  0  0  0  0  0  0  0  0  0  0  0
    1.0504    0.2492   -3.5456 C   0  0  0  0  0  0  0  0  0  0  0  0
    1.9234    1.2480   -3.0686 C   0  0  0  0  0  0  0  0  0  0  0  0
    2.5209    1.2268   -1.8484 N   0  0  0  0  0  0  0  0  0  0  0  0
    3.2702    2.3349   -1.6403 C   0  0  0  0  0  0  0  0  0  0  0  0
    4.1103    2.5564   -0.4182 C   0  0  0  0  0  0  0  0  0  0  0  0
    3.4054    2.0717    0.8459 C   0  0  0  0  0  0  0  0  0  0  0  0
    3.2392    3.3798   -2.9697 S   0  0  0  0  0  0  0  0  0  0  0  0
    2.2012    2.3802   -3.8376 C   0  0  0  0  0  0  0  0  0  0  0  0
    1.6128    2.5977   -5.0941 C   0  0  0  0  0  0  0  0  0  0  0  0
    0.7965    1.5715   -5.5963 C   0  0  0  0  0  0  0  0  0  0  0  0
    0.5340    0.4285   -4.8389 C   0  0  0  0  0  0  0  0  0  0  0  0
   -0.4748   -0.5879   -5.7244 S   0  0  0  0  0  0  0  0  0  0  0  0
   -0.5651    0.4970   -7.0177 C   0  0  0  0  0  0  0  0  0  0  0  0
   -1.3811    0.2794   -8.2503 C   0  0  0  0  0  0  0  0  0  0  0  0
   -0.4839    0.0661   -9.4612 C   0  0  0  0  0  0  0  0  0  0  0  0
    0.1719    1.6125   -6.8021 N   0  0  0  0  0  0  0  0  0  0  0  0
    1.8298    3.8378   -5.8597 C   0  0  0  0  0  0  0  0  0  0  0  0
    1.3286    5.0318   -5.4838 C   0  0  0  0  0  0  0  0  0  0  0  0
    0.5893    5.3071   -4.2461 C   0  0  0  0  0  0  0  0  0  0  0  0
    0.1961    4.4535   -3.4050 O   0  0  0  0  0  0  0  0  0  0  0  0
    0.3952    6.7447   -4.1316 C   0  0  0  0  0  0  0  0  0  0  0  0
   -0.0684    7.4824   -3.0317 C   0  0  0  0  0  0  0  0  0  0  0  0
   -0.5889    6.6752   -1.5520 Cl  0  0  0  0  0  0  0  0  0  0  0  0
   -0.0314    8.8905   -3.1032 C   0  0  0  0  0  0  0  0  0  0  0  0
   -0.6729    9.8551   -1.7720 Cl  0  0  0  0  0  0  0  0  0  0  0  0
    0.5985    9.5263   -4.1931 C   0  0  0  0  0  0  0  0  0  0  0  0
    0.7810   11.2814   -4.2056 Cl  0  0  0  0  0  0  0  0  0  0  0  0
    1.1362    8.7575   -5.2482 C   0  0  0  0  0  0  0  0  0  0  0  0
    2.2364    9.5240   -6.3940 Cl  0  0  0  0  0  0  0  0  0  0  0  0
    0.9286    7.3620   -5.2488 C   0  0  0  0  0  0  0  0  0  0  0  0
    1.4001    6.3325   -6.2161 C   0  0  0  0  0  0  0  0  0  0  0  0
    1.4188    6.4823   -7.5665 C   0  0  0  0  0  0  0  0  0  0  0  0
    0.7543    7.5928   -8.2056 C   0  0  0  0  0  0  0  0  0  0  0  0
    0.2095    8.4717   -8.7291 N   0  0  0  0  0  0  0  0  0  0  0  0
    1.9500    5.4944   -8.4668 C   0  0  0  0  0  0  0  0  0  0  0  0
    2.3928    4.7215   -9.2093 N   0  0  0  0  0  0  0  0  0  0  0  0
   -2.4320   -3.5715    7.3278 H   0  0  0  0  0  0  0  0  0  0  0  0
    1.1795    1.5490    7.8401 H   0  0  0  0  0  0  0  0  0  0  0  0
    0.5217    3.1145    9.6187 H   0  0  0  0  0  0  0  0  0  0  0  0
   -0.3468   -8.3014    3.8842 H   0  0  0  0  0  0  0  0  0  0  0  0
   -0.0323   -7.8791    5.6081 H   0  0  0  0  0  0  0  0  0  0  0  0
   -2.0179   -9.3785    5.3675 H   0  0  0  0  0  0  0  0  0  0  0  0
   -2.8228   -8.1666    4.3033 H   0  0  0  0  0  0  0  0  0  0  0  0
   -2.4953   -7.7766    6.0414 H   0  0  0  0  0  0  0  0  0  0  0  0
   -1.9468    2.5385    4.2773 H   0  0  0  0  0  0  0  0  0  0  0  0
   -1.0642    2.2740    2.7302 H   0  0  0  0  0  0  0  0  0  0  0  0
   -4.0703    1.7409    3.2057 H   0  0  0  0  0  0  0  0  0  0  0  0
   -3.3612    3.1417    2.3172 H   0  0  0  0  0  0  0  0  0  0  0  0
   -3.1838    1.4754    1.6435 H   0  0  0  0  0  0  0  0  0  0  0  0
    2.6328   -1.4513    1.3301 H   0  0  0  0  0  0  0  0  0  0  0  0
    4.3253   -0.8782    3.0238 H   0  0  0  0  0  0  0  0  0  0  0  0
    6.9935   -2.6937    3.1853 H   0  0  0  0  0  0  0  0  0  0  0  0
    7.8889   -2.9883    4.7296 H   0  0  0  0  0  0  0  0  0  0  0  0
    6.7766   -4.2562    4.0874 H   0  0  0  0  0  0  0  0  0  0  0  0
    4.0858   -4.8654    4.6227 H   0  0  0  0  0  0  0  0  0  0  0  0
    2.3896   -5.4455    2.9403 H   0  0  0  0  0  0  0  0  0  0  0  0
    3.7689   -5.2474    0.4530 H   0  0  0  0  0  0  0  0  0  0  0  0
    3.9891   -7.3097   -0.8609 H   0  0  0  0  0  0  0  0  0  0  0  0
    1.6636  -11.0865   -1.3428 H   0  0  0  0  0  0  0  0  0  0  0  0
    2.3049   -9.9112   -0.1281 H   0  0  0  0  0  0  0  0  0  0  0  0
    0.5674   -9.8245   -0.6531 H   0  0  0  0  0  0  0  0  0  0  0  0
   -0.2334   -7.2826   -1.6537 H   0  0  0  0  0  0  0  0  0  0  0  0
   -0.4907   -5.2676   -0.2996 H   0  0  0  0  0  0  0  0  0  0  0  0
   -1.4904    1.4226   -0.7665 H   0  0  0  0  0  0  0  0  0  0  0  0
   -2.1767    3.7906   -0.8019 H   0  0  0  0  0  0  0  0  0  0  0  0
   -5.1247    4.3011   -1.4094 H   0  0  0  0  0  0  0  0  0  0  0  0
   -5.6036    4.2425   -3.1626 H   0  0  0  0  0  0  0  0  0  0  0  0
   -5.8088    5.7706   -2.2148 H   0  0  0  0  0  0  0  0  0  0  0  0
   -3.3988    3.3903   -4.9074 H   0  0  0  0  0  0  0  0  0  0  0  0
   -2.7665    1.0209   -4.8676 H   0  0  0  0  0  0  0  0  0  0  0  0
   -4.5629    0.1054   -2.4380 H   0  0  0  0  0  0  0  0  0  0  0  0
   -6.4193   -1.3537   -3.1200 H   0  0  0  0  0  0  0  0  0  0  0  0
   -7.3585   -3.8429   -6.6287 H   0  0  0  0  0  0  0  0  0  0  0  0
   -6.8661   -2.2192   -6.0057 H   0  0  0  0  0  0  0  0  0  0  0  0
   -5.6079   -3.4105   -6.5553 H   0  0  0  0  0  0  0  0  0  0  0  0
   -3.6101   -4.2859   -4.5389 H   0  0  0  0  0  0  0  0  0  0  0  0
   -1.7419   -2.8388   -3.8733 H   0  0  0  0  0  0  0  0  0  0  0  0
    4.3228    3.6428   -0.3139 H   0  0  0  0  0  0  0  0  0  0  0  0
    5.0744    2.0206   -0.5385 H   0  0  0  0  0  0  0  0  0  0  0  0
    4.0263    2.3129    1.7328 H   0  0  0  0  0  0  0  0  0  0  0  0
    3.2679    0.9698    0.8095 H   0  0  0  0  0  0  0  0  0  0  0  0
    2.4138    2.5610    0.9539 H   0  0  0  0  0  0  0  0  0  0  0  0
   -2.0251    1.1685   -8.4214 H   0  0  0  0  0  0  0  0  0  0  0  0
   -2.0327   -0.6092   -8.1167 H   0  0  0  0  0  0  0  0  0  0  0  0
    0.1246    0.9732   -9.6509 H   0  0  0  0  0  0  0  0  0  0  0  0
    0.1906   -0.8037   -9.2977 H   0  0  0  0  0  0  0  0  0  0  0  0
   -1.1083   -0.1394  -10.3570 H   0  0  0  0  0  0  0  0  0  0  0  0
    2.3900    3.7305   -6.7678 H   0  0  0  0  0  0  0  0  0  0  0  0
  1  2  2  3
  2  3  1  0
  3  4  2  0
  3  5  1  0
  5  6  2  0
  6  7  1  0
  7  8  2  0
  8  9  1  0
  9 10  1  0
  9 11  2  0
 11 12  1  0
  6 13  1  0
 13 14  2  3
 14 15  1  0
 15 16  3  0
 14 17  1  0
 17 18  3  0
  1 19  1  0
 19 20  2  0
 20 21  1  0
 21 22  2  0
 22 23  1  0
 23 24  1  0
 22 25  1  0
 25 26  1  0
 26 27  2  0
 27 28  1  0
 28 29  2  0
 29 30  1  0
 30 31  1  0
 31 32  1  0
 32 33  1  0
 31 34  2  0
 27 35  1  0
 35 36  2  0
 36 37  1  0
 37 38  1  0
 38 39  2  0
 39 40  1  0
 40 41  2  0
 41 42  1  0
 42 43  1  0
 41 44  1  0
 44 45  2  0
 37 46  1  0
 46 47  2  0
 47 48  1  0
 48 49  2  0
 49 50  1  0
 50 51  1  0
 49 52  1  0
 52 53  2  0
 36 54  1  0
 54 55  1  0
 55 56  1  0
 56 57  2  0
 57 58  1  0
 58 59  1  0
 59 60  2  0
 60 61  1  0
 61 62  2  0
 62 63  1  0
 63 64  1  0
 62 65  1  0
 65 66  2  0
 58 67  1  0
 67 68  2  0
 68 69  1  0
 69 70  2  0
 70 71  1  0
 71 72  1  0
 70 73  1  0
 73 74  2  0
 57 75  1  0
 75 76  1  0
 56 77  1  0
 77 78  2  0
 78 79  1  0
 79 80  2  0
 80 81  1  0
 81 82  1  0
 80 83  1  0
 83 84  1  0
 84 85  2  0
 85 86  1  0
 86 87  2  0
 87 88  1  0
 88 89  1  0
 89 90  1  0
 90 91  1  0
 89 92  2  0
 85 93  1  0
 93 94  2  3
 94 95  1  0
 95 96  2  0
 95 97  1  0
 97 98  2  0
 98 99  1  0
 98100  1  0
100101  1  0
100102  2  0
102103  1  0
102104  1  0
104105  1  0
104106  2  0
106107  1  0
107108  2  3
108109  1  0
109110  3  0
108111  1  0
111112  3  0
 13  2  1  0
 29 19  1  0
 76 35  1  0
 87 77  1  0
107 94  1  0
 11  5  1  0
 26 20  1  0
 34 28  1  0
 45 38  1  0
 53 46  1  0
 75 54  2  0
 84 78  1  0
 92 86  1  0
106 97  1  0
 66 59  1  0
 74 67  1  0
  1113  1  0
  7114  1  0
  8115  1  0
 23116  1  0
 23117  1  0
 24118  1  0
 24119  1  0
 24120  1  0
 32121  1  0
 32122  1  0
 33123  1  0
 33124  1  0
 33125  1  0
 39126  1  0
 40127  1  0
 43128  1  0
 43129  1  0
 43130  1  0
 44131  1  0
 45132  1  0
 47133  1  0
 48134  1  0
 51135  1  0
 51136  1  0
 51137  1  0
 52138  1  0
 53139  1  0
 60140  1  0
 61141  1  0
 64142  1  0
 64143  1  0
 64144  1  0
 65145  1  0
 66146  1  0
 68147  1  0
 69148  1  0
 72149  1  0
 72150  1  0
 72151  1  0
 73152  1  0
 74153  1  0
 81154  1  0
 81155  1  0
 82156  1  0
 82157  1  0
 82158  1  0
 90159  1  0
 90160  1  0
 91161  1  0
 91162  1  0
 91163  1  0
 93164  1  0
M  END

