
     RDKit          3D

248269  0  0  0  0  0  0  0  0999 V2000
    1.6232   -5.8226   -5.9827 C   0  0  0  0  0  0  0  0  0  0  0  0
    1.1333   -5.3381   -7.1406 C   0  0  0  0  0  0  0  0  0  0  0  0
    0.7563   -3.9513   -7.4271 C   0  0  0  0  0  0  0  0  0  0  0  0
    0.3450   -3.1064   -6.5895 O   0  0  0  0  0  0  0  0  0  0  0  0
    0.8114   -3.7570   -8.8700 C   0  0  0  0  0  0  0  0  0  0  0  0
    1.0394   -4.9843   -9.4780 C   0  0  0  0  0  0  0  0  0  0  0  0
    1.2349   -5.0564  -10.8660 C   0  0  0  0  0  0  0  0  0  0  0  0
    1.1724   -3.8801  -11.6220 C   0  0  0  0  0  0  0  0  0  0  0  0
    0.9465   -2.6397  -11.0030 C   0  0  0  0  0  0  0  0  0  0  0  0
    0.9239   -1.0580  -12.0929 Br  0  0  0  0  0  0  0  0  0  0  0  0
    0.7822   -2.5663   -9.6067 C   0  0  0  0  0  0  0  0  0  0  0  0
    0.6641   -1.0109   -8.7978 Cl  0  0  0  0  0  0  0  0  0  0  0  0
    1.1147   -6.0495   -8.4499 C   0  0  0  0  0  0  0  0  0  0  0  0
    0.8900   -7.3755   -8.6379 C   0  0  0  0  0  0  0  0  0  0  0  0
    0.6586   -8.2795   -7.5335 C   0  0  0  0  0  0  0  0  0  0  0  0
    0.4646   -9.0005   -6.6498 N   0  0  0  0  0  0  0  0  0  0  0  0
    0.6741   -7.9483   -9.9460 C   0  0  0  0  0  0  0  0  0  0  0  0
    0.4887   -8.4338  -10.9855 N   0  0  0  0  0  0  0  0  0  0  0  0
    1.7112   -5.0916   -4.7041 C   0  0  0  0  0  0  0  0  0  0  0  0
    2.1755   -3.7718   -4.4444 C   0  0  0  0  0  0  0  0  0  0  0  0
    2.9930   -2.9896   -5.3526 N   0  0  0  0  0  0  0  0  0  0  0  0
    3.3242   -1.6306   -5.0165 C   0  0  0  0  0  0  0  0  0  0  0  0
    2.3517   -0.6182   -5.0843 C   0  0  0  0  0  0  0  0  0  0  0  0
    2.6460    0.6715   -4.6251 C   0  0  0  0  0  0  0  0  0  0  0  0
    3.9190    0.9581   -4.1136 C   0  0  0  0  0  0  0  0  0  0  0  0
    4.2868    2.5982   -3.4838 S   0  0  0  0  0  0  0  0  0  0  0  0
    4.9293    3.1993   -5.0736 C   0  0  0  0  0  0  0  0  0  0  0  0
    4.8941   -0.0426   -4.0587 C   0  0  0  0  0  0  0  0  0  0  0  0
    4.5991   -1.3319   -4.5100 C   0  0  0  0  0  0  0  0  0  0  0  0
    3.8333   -3.6424   -6.3239 C   0  0  0  0  0  0  0  0  0  0  0  0
    4.5934   -4.7734   -5.9706 C   0  0  0  0  0  0  0  0  0  0  0  0
    5.3904   -5.4079   -6.9201 C   0  0  0  0  0  0  0  0  0  0  0  0
    5.4675   -4.9016   -8.2243 C   0  0  0  0  0  0  0  0  0  0  0  0
    6.5185   -5.7008   -9.4405 S   0  0  0  0  0  0  0  0  0  0  0  0
    7.9846   -4.7171   -8.9871 C   0  0  0  0  0  0  0  0  0  0  0  0
    4.7383   -3.7584   -8.5740 C   0  0  0  0  0  0  0  0  0  0  0  0
    3.9377   -3.1225   -7.6205 C   0  0  0  0  0  0  0  0  0  0  0  0
    2.0524   -3.4848   -3.0762 C   0  0  0  0  0  0  0  0  0  0  0  0
    2.2311   -2.1297   -2.1005 S   0  0  0  0  0  0  0  0  0  0  0  0
    1.9457   -2.9438   -0.6319 C   0  0  0  0  0  0  0  0  0  0  0  0
    1.8162   -4.3193   -0.9060 C   0  0  0  0  0  0  0  0  0  0  0  0
    2.2394   -5.3625    0.0089 N   0  0  0  0  0  0  0  0  0  0  0  0
    2.4544   -5.0767    1.4010 C   0  0  0  0  0  0  0  0  0  0  0  0
    1.4887   -5.4372    2.3521 C   0  0  0  0  0  0  0  0  0  0  0  0
    1.8226   -5.4636    3.7134 C   0  0  0  0  0  0  0  0  0  0  0  0
    3.1215   -5.1330    4.1231 C   0  0  0  0  0  0  0  0  0  0  0  0
    3.6061   -5.3385    5.8345 S   0  0  0  0  0  0  0  0  0  0  0  0
    3.1369   -3.6436    6.2895 C   0  0  0  0  0  0  0  0  0  0  0  0
    4.0617   -4.6962    3.1842 C   0  0  0  0  0  0  0  0  0  0  0  0
    3.7302   -4.6658    1.8317 C   0  0  0  0  0  0  0  0  0  0  0  0
    3.0124   -6.4731   -0.4897 C   0  0  0  0  0  0  0  0  0  0  0  0
    2.7357   -7.7799   -0.0617 C   0  0  0  0  0  0  0  0  0  0  0  0
    3.5384   -8.8447   -0.4921 C   0  0  0  0  0  0  0  0  0  0  0  0
    4.6164   -8.6111   -1.3544 C   0  0  0  0  0  0  0  0  0  0  0  0
    5.6483   -9.9669   -1.9127 S   0  0  0  0  0  0  0  0  0  0  0  0
    6.8869   -9.7122   -0.6046 C   0  0  0  0  0  0  0  0  0  0  0  0
    4.8948   -7.3091   -1.7816 C   0  0  0  0  0  0  0  0  0  0  0  0
    4.1157   -6.2428   -1.3316 C   0  0  0  0  0  0  0  0  0  0  0  0
    1.7425   -4.5394   -2.2869 C   0  0  0  0  0  0  0  0  0  0  0  0
    1.4042   -5.8857   -3.2346 S   0  0  0  0  0  0  0  0  0  0  0  0
    1.2046   -2.2651    0.4433 C   0  0  0  0  0  0  0  0  0  0  0  0
   -0.0990   -1.7566    0.2964 C   0  0  0  0  0  0  0  0  0  0  0  0
   -1.0140   -2.0945   -0.7629 N   0  0  0  0  0  0  0  0  0  0  0  0
   -1.9869   -3.1137   -0.4653 C   0  0  0  0  0  0  0  0  0  0  0  0
   -3.2502   -2.7635    0.0421 C   0  0  0  0  0  0  0  0  0  0  0  0
   -4.1940   -3.7535    0.3345 C   0  0  0  0  0  0  0  0  0  0  0  0
   -3.8847   -5.1020    0.1073 C   0  0  0  0  0  0  0  0  0  0  0  0
   -5.0925   -6.3779    0.4753 S   0  0  0  0  0  0  0  0  0  0  0  0
   -5.6742   -6.4983   -1.2444 C   0  0  0  0  0  0  0  0  0  0  0  0
   -2.6306   -5.4516   -0.4065 C   0  0  0  0  0  0  0  0  0  0  0  0
   -1.6914   -4.4634   -0.7014 C   0  0  0  0  0  0  0  0  0  0  0  0
   -1.2258   -1.2153   -1.8997 C   0  0  0  0  0  0  0  0  0  0  0  0
   -0.6379    0.0667   -1.9627 C   0  0  0  0  0  0  0  0  0  0  0  0
   -0.8962    0.9158   -3.0450 C   0  0  0  0  0  0  0  0  0  0  0  0
   -1.7348    0.5000   -4.0886 C   0  0  0  0  0  0  0  0  0  0  0  0
   -2.1383    1.6141   -5.4395 S   0  0  0  0  0  0  0  0  0  0  0  0
   -0.8580    0.9721   -6.5497 C   0  0  0  0  0  0  0  0  0  0  0  0
   -2.3106   -0.7732   -4.0442 C   0  0  0  0  0  0  0  0  0  0  0  0
   -2.0507   -1.6269   -2.9708 C   0  0  0  0  0  0  0  0  0  0  0  0
   -0.4145   -0.8698    1.3137 C   0  0  0  0  0  0  0  0  0  0  0  0
   -1.6829    0.1853    1.5623 S   0  0  0  0  0  0  0  0  0  0  0  0
   -0.9853    0.9369    2.9192 C   0  0  0  0  0  0  0  0  0  0  0  0
    0.2630    0.3267    3.1819 C   0  0  0  0  0  0  0  0  0  0  0  0
    1.0306    0.5323    4.3833 N   0  0  0  0  0  0  0  0  0  0  0  0
    0.6830   -0.2314    5.5684 C   0  0  0  0  0  0  0  0  0  0  0  0
   -0.6425   -0.6611    5.7954 C   0  0  0  0  0  0  0  0  0  0  0  0
   -0.9710   -1.3957    6.9336 C   0  0  0  0  0  0  0  0  0  0  0  0
    0.0134   -1.7146    7.8734 C   0  0  0  0  0  0  0  0  0  0  0  0
   -0.4168   -2.6840    9.3221 S   0  0  0  0  0  0  0  0  0  0  0  0
   -0.1808   -4.2814    8.4799 C   0  0  0  0  0  0  0  0  0  0  0  0
    1.3272   -1.2835    7.6721 C   0  0  0  0  0  0  0  0  0  0  0  0
    1.6657   -0.5674    6.5193 C   0  0  0  0  0  0  0  0  0  0  0  0
    2.0583    1.5558    4.4078 C   0  0  0  0  0  0  0  0  0  0  0  0
    2.2515    2.3503    5.5572 C   0  0  0  0  0  0  0  0  0  0  0  0
    3.1899    3.3866    5.5632 C   0  0  0  0  0  0  0  0  0  0  0  0
    3.9530    3.6428    4.4220 C   0  0  0  0  0  0  0  0  0  0  0  0
    5.1584    4.9697    4.4328 S   0  0  0  0  0  0  0  0  0  0  0  0
    6.4991    3.9119    5.0608 C   0  0  0  0  0  0  0  0  0  0  0  0
    3.7605    2.8739    3.2689 C   0  0  0  0  0  0  0  0  0  0  0  0
    2.8159    1.8418    3.2582 C   0  0  0  0  0  0  0  0  0  0  0  0
    0.5472   -0.6718    2.2456 C   0  0  0  0  0  0  0  0  0  0  0  0
    1.9081   -1.5816    1.8466 S   0  0  0  0  0  0  0  0  0  0  0  0
   -1.5190    2.1548    3.5665 C   0  0  0  0  0  0  0  0  0  0  0  0
   -2.8387    2.6681    3.5236 C   0  0  0  0  0  0  0  0  0  0  0  0
   -3.9241    2.0887    2.7899 N   0  0  0  0  0  0  0  0  0  0  0  0
   -4.0116    2.2662    1.3537 C   0  0  0  0  0  0  0  0  0  0  0  0
   -4.7777    1.3768    0.5760 C   0  0  0  0  0  0  0  0  0  0  0  0
   -4.8064    1.4986   -0.8147 C   0  0  0  0  0  0  0  0  0  0  0  0
   -4.0608    2.4973   -1.4543 C   0  0  0  0  0  0  0  0  0  0  0  0
   -4.1502    2.6682   -2.9370 C   0  0  0  0  0  0  0  0  0  0  0  0
   -3.2921    3.3835   -0.6902 C   0  0  0  0  0  0  0  0  0  0  0  0
   -3.2625    3.2669    0.6963 C   0  0  0  0  0  0  0  0  0  0  0  0
   -5.0393    1.5878    3.5521 C   0  0  0  0  0  0  0  0  0  0  0  0
   -6.3500    2.0313    3.2920 C   0  0  0  0  0  0  0  0  0  0  0  0
   -7.4125    1.5906    4.0845 C   0  0  0  0  0  0  0  0  0  0  0  0
   -7.1834    0.7214    5.1583 C   0  0  0  0  0  0  0  0  0  0  0  0
   -8.3211    0.2501    6.0145 C   0  0  0  0  0  0  0  0  0  0  0  0
   -5.8825    0.2689    5.4104 C   0  0  0  0  0  0  0  0  0  0  0  0
   -4.8179    0.7012    4.6199 C   0  0  0  0  0  0  0  0  0  0  0  0
   -2.9058    3.9726    4.0125 C   0  0  0  0  0  0  0  0  0  0  0  0
   -3.9838    5.2134    3.7398 S   0  0  0  0  0  0  0  0  0  0  0  0
   -2.9116    6.4847    4.1309 C   0  0  0  0  0  0  0  0  0  0  0  0
   -1.6638    5.9005    4.4362 C   0  0  0  0  0  0  0  0  0  0  0  0
   -0.4038    6.5880    4.3556 N   0  0  0  0  0  0  0  0  0  0  0  0
    0.2864    6.9342    5.5775 C   0  0  0  0  0  0  0  0  0  0  0  0
    1.0919    8.0851    5.6355 C   0  0  0  0  0  0  0  0  0  0  0  0
    1.8717    8.3478    6.7643 C   0  0  0  0  0  0  0  0  0  0  0  0
    1.8441    7.4804    7.8619 C   0  0  0  0  0  0  0  0  0  0  0  0
    2.7455    7.7256    9.0386 C   0  0  0  0  0  0  0  0  0  0  0  0
    1.0378    6.3357    7.8159 C   0  0  0  0  0  0  0  0  0  0  0  0
    0.2561    6.0702    6.6885 C   0  0  0  0  0  0  0  0  0  0  0  0
    0.3137    6.5377    3.0940 C   0  0  0  0  0  0  0  0  0  0  0  0
    1.6991    6.2793    3.0670 C   0  0  0  0  0  0  0  0  0  0  0  0
    2.3795    6.1541    1.8521 C   0  0  0  0  0  0  0  0  0  0  0  0
    1.6901    6.2784    0.6388 C   0  0  0  0  0  0  0  0  0  0  0  0
    2.4260    6.1278   -0.6594 C   0  0  0  0  0  0  0  0  0  0  0  0
    0.3062    6.5068    0.6576 C   0  0  0  0  0  0  0  0  0  0  0  0
   -0.3725    6.6385    1.8685 C   0  0  0  0  0  0  0  0  0  0  0  0
   -1.7169    4.5111    4.3808 C   0  0  0  0  0  0  0  0  0  0  0  0
   -0.5096    3.3839    4.1484 S   0  0  0  0  0  0  0  0  0  0  0  0
   -3.0779    7.9184    3.7693 C   0  0  0  0  0  0  0  0  0  0  0  0
   -4.2017    8.5017    3.2975 C   0  0  0  0  0  0  0  0  0  0  0  0
   -5.5331    7.9016    3.2031 C   0  0  0  0  0  0  0  0  0  0  0  0
   -6.0764    7.1833    4.0857 O   0  0  0  0  0  0  0  0  0  0  0  0
   -6.2145    8.4616    2.0475 C   0  0  0  0  0  0  0  0  0  0  0  0
   -5.4378    9.4797    1.5213 C   0  0  0  0  0  0  0  0  0  0  0  0
   -5.8334   10.1146    0.3385 C   0  0  0  0  0  0  0  0  0  0  0  0
   -7.0398    9.7432   -0.2671 C   0  0  0  0  0  0  0  0  0  0  0  0
   -7.8383    8.7281    0.2892 C   0  0  0  0  0  0  0  0  0  0  0  0
   -9.4600    8.2525   -0.6011 Br  0  0  0  0  0  0  0  0  0  0  0  0
   -7.4239    8.0657    1.4614 C   0  0  0  0  0  0  0  0  0  0  0  0
   -8.3620    6.7339    2.1319 Cl  0  0  0  0  0  0  0  0  0  0  0  0
   -4.2177    9.6587    2.3577 C   0  0  0  0  0  0  0  0  0  0  0  0
   -3.3945   10.7378    2.3878 C   0  0  0  0  0  0  0  0  0  0  0  0
   -3.4647   11.7961    1.4138 C   0  0  0  0  0  0  0  0  0  0  0  0
   -3.4978   12.6464    0.6288 N   0  0  0  0  0  0  0  0  0  0  0  0
   -2.4580   10.9507    3.4614 C   0  0  0  0  0  0  0  0  0  0  0  0
   -1.7089   11.1463    4.3274 N   0  0  0  0  0  0  0  0  0  0  0  0
    1.9698   -6.8409   -5.9411 H   0  0  0  0  0  0  0  0  0  0  0  0
    1.4691   -5.9837  -11.3642 H   0  0  0  0  0  0  0  0  0  0  0  0
    1.3210   -3.9232  -12.6933 H   0  0  0  0  0  0  0  0  0  0  0  0
    1.3606   -0.8432   -5.4623 H   0  0  0  0  0  0  0  0  0  0  0  0
    1.8900    1.4431   -4.6471 H   0  0  0  0  0  0  0  0  0  0  0  0
    5.8187    2.6033   -5.3671 H   0  0  0  0  0  0  0  0  0  0  0  0
    4.1514    3.1280   -5.8612 H   0  0  0  0  0  0  0  0  0  0  0  0
    5.2331    4.2593   -4.9664 H   0  0  0  0  0  0  0  0  0  0  0  0
    5.8720    0.1677   -3.6495 H   0  0  0  0  0  0  0  0  0  0  0  0
    5.3472   -2.1097   -4.4242 H   0  0  0  0  0  0  0  0  0  0  0  0
    4.5525   -5.1678   -4.9632 H   0  0  0  0  0  0  0  0  0  0  0  0
    5.9673   -6.2809   -6.6407 H   0  0  0  0  0  0  0  0  0  0  0  0
    8.2488   -4.9020   -7.9240 H   0  0  0  0  0  0  0  0  0  0  0  0
    7.7761   -3.6368   -9.1362 H   0  0  0  0  0  0  0  0  0  0  0  0
    8.8367   -5.0140   -9.6303 H   0  0  0  0  0  0  0  0  0  0  0  0
    4.7947   -3.3600   -9.5756 H   0  0  0  0  0  0  0  0  0  0  0  0
    3.3790   -2.2377   -7.8957 H   0  0  0  0  0  0  0  0  0  0  0  0
    0.5081   -5.7536    2.0289 H   0  0  0  0  0  0  0  0  0  0  0  0
    1.0861   -5.7922    4.4345 H   0  0  0  0  0  0  0  0  0  0  0  0
    3.3961   -3.4680    7.3534 H   0  0  0  0  0  0  0  0  0  0  0  0
    3.6730   -2.9010    5.6609 H   0  0  0  0  0  0  0  0  0  0  0  0
    2.0421   -3.5273    6.1574 H   0  0  0  0  0  0  0  0  0  0  0  0
    5.0595   -4.4282    3.4982 H   0  0  0  0  0  0  0  0  0  0  0  0
    4.4851   -4.4012    1.1036 H   0  0  0  0  0  0  0  0  0  0  0  0
    1.9063   -7.9676    0.6059 H   0  0  0  0  0  0  0  0  0  0  0  0
    3.3158   -9.8488   -0.1584 H   0  0  0  0  0  0  0  0  0  0  0  0
    7.7934  -10.3018   -0.8380 H   0  0  0  0  0  0  0  0  0  0  0  0
    6.4735  -10.0452    0.3688 H   0  0  0  0  0  0  0  0  0  0  0  0
    7.1733   -8.6435   -0.5422 H   0  0  0  0  0  0  0  0  0  0  0  0
    5.7283   -7.1242   -2.4419 H   0  0  0  0  0  0  0  0  0  0  0  0
    4.3773   -5.2358   -1.6391 H   0  0  0  0  0  0  0  0  0  0  0  0
   -3.5017   -1.7242    0.1990 H   0  0  0  0  0  0  0  0  0  0  0  0
   -5.1639   -3.4755    0.7328 H   0  0  0  0  0  0  0  0  0  0  0  0
   -4.8415   -6.8437   -1.8937 H   0  0  0  0  0  0  0  0  0  0  0  0
   -6.0360   -5.5072   -1.5897 H   0  0  0  0  0  0  0  0  0  0  0  0
   -6.5054   -7.2324   -1.3028 H   0  0  0  0  0  0  0  0  0  0  0  0
   -2.3873   -6.4894   -0.5961 H   0  0  0  0  0  0  0  0  0  0  0  0
   -0.7502   -4.7436   -1.1383 H   0  0  0  0  0  0  0  0  0  0  0  0
    0.0018    0.4257   -1.1692 H   0  0  0  0  0  0  0  0  0  0  0  0
   -0.4587    1.9029   -3.0679 H   0  0  0  0  0  0  0  0  0  0  0  0
   -1.0108    1.4014   -7.5584 H   0  0  0  0  0  0  0  0  0  0  0  0
   -0.9276   -0.1354   -6.6095 H   0  0  0  0  0  0  0  0  0  0  0  0
    0.1409    1.2711   -6.1808 H   0  0  0  0  0  0  0  0  0  0  0  0
   -2.9690   -1.0985   -4.8397 H   0  0  0  0  0  0  0  0  0  0  0  0
   -2.5122   -2.6043   -2.9692 H   0  0  0  0  0  0  0  0  0  0  0  0
   -1.4322   -0.4304    5.1017 H   0  0  0  0  0  0  0  0  0  0  0  0
   -1.9934   -1.7261    7.0835 H   0  0  0  0  0  0  0  0  0  0  0  0
   -0.4901   -5.1000    9.1582 H   0  0  0  0  0  0  0  0  0  0  0  0
    0.8861   -4.4233    8.2207 H   0  0  0  0  0  0  0  0  0  0  0  0
   -0.7959   -4.3362    7.5591 H   0  0  0  0  0  0  0  0  0  0  0  0
    2.0944   -1.5283    8.3926 H   0  0  0  0  0  0  0  0  0  0  0  0
    2.7015   -0.2854    6.3662 H   0  0  0  0  0  0  0  0  0  0  0  0
    1.6462    2.1934    6.4435 H   0  0  0  0  0  0  0  0  0  0  0  0
    3.3202    3.9935    6.4522 H   0  0  0  0  0  0  0  0  0  0  0  0
    6.2016    3.4499    6.0255 H   0  0  0  0  0  0  0  0  0  0  0  0
    7.4065    4.5290    5.2265 H   0  0  0  0  0  0  0  0  0  0  0  0
    6.7324    3.1183    4.3213 H   0  0  0  0  0  0  0  0  0  0  0  0
    4.3430    3.0761    2.3776 H   0  0  0  0  0  0  0  0  0  0  0  0
    2.6809    1.2685    2.3538 H   0  0  0  0  0  0  0  0  0  0  0  0
   -5.3270    0.5739    1.0407 H   0  0  0  0  0  0  0  0  0  0  0  0
   -5.4038    0.8063   -1.3951 H   0  0  0  0  0  0  0  0  0  0  0  0
   -3.2240    3.1454   -3.3240 H   0  0  0  0  0  0  0  0  0  0  0  0
   -4.2765    1.6813   -3.4253 H   0  0  0  0  0  0  0  0  0  0  0  0
   -5.0172    3.3117   -3.1892 H   0  0  0  0  0  0  0  0  0  0  0  0
   -2.7139    4.1642   -1.1703 H   0  0  0  0  0  0  0  0  0  0  0  0
   -2.6433    3.9608    1.2519 H   0  0  0  0  0  0  0  0  0  0  0  0
   -6.5423    2.7327    2.4877 H   0  0  0  0  0  0  0  0  0  0  0  0
   -8.4151    1.9462    3.8683 H   0  0  0  0  0  0  0  0  0  0  0  0
   -9.2111    0.9064    5.9025 H   0  0  0  0  0  0  0  0  0  0  0  0
   -8.6004   -0.7849    5.7265 H   0  0  0  0  0  0  0  0  0  0  0  0
   -8.0222    0.2593    7.0847 H   0  0  0  0  0  0  0  0  0  0  0  0
   -5.6909   -0.4128    6.2309 H   0  0  0  0  0  0  0  0  0  0  0  0
   -3.8168    0.3465    4.8367 H   0  0  0  0  0  0  0  0  0  0  0  0
    1.1384    8.7553    4.7850 H   0  0  0  0  0  0  0  0  0  0  0  0
    2.5096    9.2233    6.7748 H   0  0  0  0  0  0  0  0  0  0  0  0
    3.7526    7.3116    8.8259 H   0  0  0  0  0  0  0  0  0  0  0  0
    2.3410    7.2383    9.9556 H   0  0  0  0  0  0  0  0  0  0  0  0
    2.8349    8.8123    9.2367 H   0  0  0  0  0  0  0  0  0  0  0  0
    1.0194    5.6372    8.6452 H   0  0  0  0  0  0  0  0  0  0  0  0
   -0.3342    5.1624    6.6706 H   0  0  0  0  0  0  0  0  0  0  0  0
    2.2572    6.1449    3.9829 H   0  0  0  0  0  0  0  0  0  0  0  0
    3.4434    5.9525    1.8538 H   0  0  0  0  0  0  0  0  0  0  0  0
    3.2652    6.8564   -0.6979 H   0  0  0  0  0  0  0  0  0  0  0  0
    1.7673    6.3087   -1.5309 H   0  0  0  0  0  0  0  0  0  0  0  0
    2.8412    5.0987   -0.7351 H   0  0  0  0  0  0  0  0  0  0  0  0
   -0.2524    6.5813   -0.2713 H   0  0  0  0  0  0  0  0  0  0  0  0
   -1.4374    6.8043    1.8392 H   0  0  0  0  0  0  0  0  0  0  0  0
   -2.1466    8.4627    3.6923 H   0  0  0  0  0  0  0  0  0  0  0  0
   -5.2341   10.8696   -0.1437 H   0  0  0  0  0  0  0  0  0  0  0  0
   -7.3512   10.2335   -1.1796 H   0  0  0  0  0  0  0  0  0  0  0  0
  1  2  2  3
  2  3  1  0
  3  4  2  0
  3  5  1  0
  5  6  2  0
  6  7  1  0
  7  8  2  0
  8  9  1  0
  9 10  1  0
  9 11  2  0
 11 12  1  0
  6 13  1  0
 13 14  2  3
 14 15  1  0
 15 16  3  0
 14 17  1  0
 17 18  3  0
  1 19  1  0
 19 20  2  0
 20 21  1  0
 21 22  1  0
 22 23  2  0
 23 24  1  0
 24 25  2  0
 25 26  1  0
 26 27  1  0
 25 28  1  0
 28 29  2  0
 21 30  1  0
 30 31  2  0
 31 32  1  0
 32 33  2  0
 33 34  1  0
 34 35  1  0
 33 36  1  0
 36 37  2  0
 20 38  1  0
 38 39  1  0
 39 40  1  0
 40 41  2  0
 41 42  1  0
 42 43  1  0
 43 44  2  0
 44 45  1  0
 45 46  2  0
 46 47  1  0
 47 48  1  0
 46 49  1  0
 49 50  2  0
 42 51  1  0
 51 52  2  0
 52 53  1  0
 53 54  2  0
 54 55  1  0
 55 56  1  0
 54 57  1  0
 57 58  2  0
 41 59  1  0
 59 60  1  0
 40 61  1  0
 61 62  2  0
 62 63  1  0
 63 64  1  0
 64 65  2  0
 65 66  1  0
 66 67  2  0
 67 68  1  0
 68 69  1  0
 67 70  1  0
 70 71  2  0
 63 72  1  0
 72 73  2  0
 73 74  1  0
 74 75  2  0
 75 76  1  0
 76 77  1  0
 75 78  1  0
 78 79  2  0
 62 80  1  0
 80 81  1  0
 81 82  1  0
 82 83  2  0
 83 84  1  0
 84 85  1  0
 85 86  2  0
 86 87  1  0
 87 88  2  0
 88 89  1  0
 89 90  1  0
 88 91  1  0
 91 92  2  0
 84 93  1  0
 93 94  2  0
 94 95  1  0
 95 96  2  0
 96 97  1  0
 97 98  1  0
 96 99  1  0
 99100  2  0
 83101  1  0
101102  1  0
 82103  1  0
103104  2  0
104105  1  0
105106  1  0
106107  2  0
107108  1  0
108109  2  0
109110  1  0
109111  1  0
111112  2  0
105113  1  0
113114  2  0
114115  1  0
115116  2  0
116117  1  0
116118  1  0
118119  2  0
104120  1  0
120121  1  0
121122  1  0
122123  2  0
123124  1  0
124125  1  0
125126  2  0
126127  1  0
127128  2  0
128129  1  0
128130  1  0
130131  2  0
124132  1  0
132133  2  0
133134  1  0
134135  2  0
135136  1  0
135137  1  0
137138  2  0
123139  1  0
139140  1  0
122141  1  0
141142  2  3
142143  1  0
143144  2  0
143145  1  0
145146  2  0
146147  1  0
147148  2  0
148149  1  0
149150  1  0
149151  2  0
151152  1  0
146153  1  0
153154  2  3
154155  1  0
155156  3  0
154157  1  0
157158  3  0
 13  2  1  0
 60 19  1  0
102 61  1  0
140103  1  0
153142  1  0
 11  5  1  0
 29 22  1  0
 37 30  1  0
 59 38  2  0
 71 64  1  0
 79 72  1  0
101 80  2  0
112106  1  0
119113  1  0
139120  2  0
151145  1  0
 50 43  1  0
 58 51  1  0
 92 85  1  0
100 93  1  0
131125  1  0
138132  1  0
  1159  1  0
  7160  1  0
  8161  1  0
 23162  1  0
 24163  1  0
 27164  1  0
 27165  1  0
 27166  1  0
 28167  1  0
 29168  1  0
 31169  1  0
 32170  1  0
 35171  1  0
 35172  1  0
 35173  1  0
 36174  1  0
 37175  1  0
 44176  1  0
 45177  1  0
 48178  1  0
 48179  1  0
 48180  1  0
 49181  1  0
 50182  1  0
 52183  1  0
 53184  1  0
 56185  1  0
 56186  1  0
 56187  1  0
 57188  1  0
 58189  1  0
 65190  1  0
 66191  1  0
 69192  1  0
 69193  1  0
 69194  1  0
 70195  1  0
 71196  1  0
 73197  1  0
 74198  1  0
 77199  1  0
 77200  1  0
 77201  1  0
 78202  1  0
 79203  1  0
 86204  1  0
 87205  1  0
 90206  1  0
 90207  1  0
 90208  1  0
 91209  1  0
 92210  1  0
 94211  1  0
 95212  1  0
 98213  1  0
 98214  1  0
 98215  1  0
 99216  1  0
100217  1  0
107218  1  0
108219  1  0
110220  1  0
110221  1  0
110222  1  0
111223  1  0
112224  1  0
114225  1  0
115226  1  0
117227  1  0
117228  1  0
117229  1  0
118230  1  0
119231  1  0
126232  1  0
127233  1  0
129234  1  0
129235  1  0
129236  1  0
130237  1  0
131238  1  0
133239  1  0
134240  1  0
136241  1  0
136242  1  0
136243  1  0
137244  1  0
138245  1  0
141246  1  0
147247  1  0
148248  1  0
M  END

