
     RDKit          3D

145159  0  0  0  0  0  0  0  0999 V2000
   -3.8828    3.1680   -6.5425 C   0  0  0  0  0  0  0  0  0  0  0  0
   -4.6238    2.2359   -7.1774 C   0  0  0  0  0  0  0  0  0  0  0  0
   -4.8664    0.8580   -6.7424 C   0  0  0  0  0  0  0  0  0  0  0  0
   -4.1311    0.1718   -5.9807 O   0  0  0  0  0  0  0  0  0  0  0  0
   -6.1009    0.3961   -7.3509 C   0  0  0  0  0  0  0  0  0  0  0  0
   -6.5439    1.3613   -8.2404 C   0  0  0  0  0  0  0  0  0  0  0  0
   -7.7919    1.2198   -8.8659 C   0  0  0  0  0  0  0  0  0  0  0  0
   -8.5465    0.0591   -8.6366 C   0  0  0  0  0  0  0  0  0  0  0  0
   -8.0714   -0.9430   -7.7686 C   0  0  0  0  0  0  0  0  0  0  0  0
   -9.1524   -2.5020   -7.4834 Br  0  0  0  0  0  0  0  0  0  0  0  0
   -6.8404   -0.7724   -7.0944 C   0  0  0  0  0  0  0  0  0  0  0  0
   -6.2660   -1.9684   -5.9326 Cl  0  0  0  0  0  0  0  0  0  0  0  0
   -5.5736    2.4834   -8.2901 C   0  0  0  0  0  0  0  0  0  0  0  0
   -5.3958    3.3442   -9.3274 C   0  0  0  0  0  0  0  0  0  0  0  0
   -4.1814    4.1054   -9.4574 C   0  0  0  0  0  0  0  0  0  0  0  0
   -3.1862    4.6978   -9.5726 N   0  0  0  0  0  0  0  0  0  0  0  0
   -6.2650    3.3556  -10.4780 C   0  0  0  0  0  0  0  0  0  0  0  0
   -6.9529    3.3571  -11.4029 N   0  0  0  0  0  0  0  0  0  0  0  0
   -3.0951    2.8839   -5.3217 C   0  0  0  0  0  0  0  0  0  0  0  0
   -1.7192    3.1166   -5.2977 C   0  0  0  0  0  0  0  0  0  0  0  0
   -0.9271    2.7164   -4.1958 C   0  0  0  0  0  0  0  0  0  0  0  0
    0.4717    2.9934   -4.3427 N   0  0  0  0  0  0  0  0  0  0  0  0
    0.4915    3.6648   -5.7930 S   0  0  0  0  0  4  0  0  0  0  0  0
   -0.9918    3.7129   -6.3776 N   0  0  0  0  0  0  0  0  0  0  0  0
   -1.4891    2.0776   -3.0752 C   0  0  0  0  0  0  0  0  0  0  0  0
   -2.8877    1.9112   -3.0604 C   0  0  0  0  0  0  0  0  0  0  0  0
   -3.5562    1.3094   -2.0447 N   0  0  0  0  0  0  0  0  0  0  0  0
   -5.1140    1.4451   -2.5614 S   0  0  0  0  0  0  0  0  0  0  0  0
   -5.0329    2.1866   -4.0338 N   0  0  0  0  0  0  0  0  0  0  0  0
   -3.6894    2.3534   -4.1580 C   0  0  0  0  0  0  0  0  0  0  0  0
   -0.6207    1.4858   -2.0340 C   0  0  0  0  0  0  0  0  0  0  0  0
   -0.7465    1.5731   -0.6382 C   0  0  0  0  0  0  0  0  0  0  0  0
   -1.6409    2.4344    0.0881 N   0  0  0  0  0  0  0  0  0  0  0  0
   -2.8608    1.9160    0.6648 C   0  0  0  0  0  0  0  0  0  0  0  0
   -3.9670    2.7674    0.8208 C   0  0  0  0  0  0  0  0  0  0  0  0
   -5.1616    2.2933    1.3916 C   0  0  0  0  0  0  0  0  0  0  0  0
   -5.2449    0.9644    1.8211 C   0  0  0  0  0  0  0  0  0  0  0  0
   -6.7756    0.3304    2.4932 S   0  0  0  0  0  0  0  0  0  0  0  0
   -6.4141    0.8534    4.1991 C   0  0  0  0  0  0  0  0  0  0  0  0
   -4.1444    0.1122    1.6811 C   0  0  0  0  0  0  0  0  0  0  0  0
   -2.9672    0.5731    1.0895 C   0  0  0  0  0  0  0  0  0  0  0  0
   -1.0741    3.6409    0.6308 C   0  0  0  0  0  0  0  0  0  0  0  0
   -0.4598    4.5765   -0.2231 C   0  0  0  0  0  0  0  0  0  0  0  0
    0.1554    5.7158    0.3078 C   0  0  0  0  0  0  0  0  0  0  0  0
    0.1543    5.9266    1.6956 C   0  0  0  0  0  0  0  0  0  0  0  0
    0.8672    7.4213    2.3785 S   0  0  0  0  0  0  0  0  0  0  0  0
    2.4954    6.6769    2.7064 C   0  0  0  0  0  0  0  0  0  0  0  0
   -0.4274    4.9859    2.5501 C   0  0  0  0  0  0  0  0  0  0  0  0
   -1.0321    3.8447    2.0176 C   0  0  0  0  0  0  0  0  0  0  0  0
    0.2614    0.8641   -0.0022 C   0  0  0  0  0  0  0  0  0  0  0  0
    0.5910    0.5529    1.6004 S   0  0  0  0  0  0  0  0  0  0  0  0
    1.9048   -0.4659    1.2578 C   0  0  0  0  0  0  0  0  0  0  0  0
    2.0994   -0.5546   -0.1367 C   0  0  0  0  0  0  0  0  0  0  0  0
    3.2347   -1.1619   -0.7954 N   0  0  0  0  0  0  0  0  0  0  0  0
    3.9049   -0.3964   -1.8114 C   0  0  0  0  0  0  0  0  0  0  0  0
    4.0969   -0.9221   -3.1009 C   0  0  0  0  0  0  0  0  0  0  0  0
    4.6425   -0.1223   -4.1043 C   0  0  0  0  0  0  0  0  0  0  0  0
    5.0163    1.1976   -3.8263 C   0  0  0  0  0  0  0  0  0  0  0  0
    5.6545    2.2507   -5.1282 S   0  0  0  0  0  0  0  0  0  0  0  0
    4.0067    2.8732   -5.5801 C   0  0  0  0  0  0  0  0  0  0  0  0
    4.8788    1.7041   -2.5349 C   0  0  0  0  0  0  0  0  0  0  0  0
    4.3121    0.9138   -1.5326 C   0  0  0  0  0  0  0  0  0  0  0  0
    3.8683   -2.3467   -0.2629 C   0  0  0  0  0  0  0  0  0  0  0  0
    3.0984   -3.4512    0.1354 C   0  0  0  0  0  0  0  0  0  0  0  0
    3.6806   -4.5113    0.8251 C   0  0  0  0  0  0  0  0  0  0  0  0
    5.0484   -4.4921    1.1195 C   0  0  0  0  0  0  0  0  0  0  0  0
    5.8044   -5.8193    2.0659 S   0  0  0  0  0  0  0  0  0  0  0  0
    5.7732   -4.8973    3.6426 C   0  0  0  0  0  0  0  0  0  0  0  0
    5.8385   -3.4244    0.6721 C   0  0  0  0  0  0  0  0  0  0  0  0
    5.2549   -2.3610   -0.0211 C   0  0  0  0  0  0  0  0  0  0  0  0
    1.1324    0.2100   -0.8007 C   0  0  0  0  0  0  0  0  0  0  0  0
    0.7330    0.5076   -2.4020 S   0  0  0  0  0  0  0  0  0  0  0  0
    2.4070   -1.3683    2.2950 C   0  0  0  0  0  0  0  0  0  0  0  0
    3.6480   -1.1384    2.8987 C   0  0  0  0  0  0  0  0  0  0  0  0
    4.5008   -0.2054    2.3962 F   0  0  0  0  0  0  0  0  0  0  0  0
    3.9770   -1.8017    4.0835 C   0  0  0  0  0  0  0  0  0  0  0  0
    3.0635   -2.6882    4.6841 C   0  0  0  0  0  0  0  0  0  0  0  0
    1.8748   -3.0211    4.0079 C   0  0  0  0  0  0  0  0  0  0  0  0
    0.9918   -3.9161    4.5309 N   0  0  0  0  0  0  0  0  0  0  0  0
   -0.2134   -4.1624    3.9394 C   0  0  0  0  0  0  0  0  0  0  0  0
   -0.5631   -3.4492    2.7871 C   0  0  0  0  0  0  0  0  0  0  0  0
   -1.8278   -3.6070    2.2146 O   0  0  0  0  0  0  0  0  0  0  0  0
   -2.0639   -4.4775    1.1069 C   0  0  0  0  0  0  0  0  0  0  0  0
   -1.3698   -3.9647   -0.1517 C   0  0  0  0  0  0  0  0  0  0  0  0
    0.3203   -2.5650    2.2567 N   0  0  0  0  0  0  0  0  0  0  0  0
    1.5364   -2.3413    2.8206 C   0  0  0  0  0  0  0  0  0  0  0  0
    3.3211   -3.1299    6.0623 C   0  0  0  0  0  0  0  0  0  0  0  0
    2.6517   -2.6285    7.1206 C   0  0  0  0  0  0  0  0  0  0  0  0
    1.6305   -1.5654    7.0793 C   0  0  0  0  0  0  0  0  0  0  0  0
    0.8942   -1.2790    6.0941 O   0  0  0  0  0  0  0  0  0  0  0  0
    1.6162   -0.8813    8.3616 C   0  0  0  0  0  0  0  0  0  0  0  0
    2.5233   -1.4917    9.2093 C   0  0  0  0  0  0  0  0  0  0  0  0
    2.8152   -0.9097   10.4539 C   0  0  0  0  0  0  0  0  0  0  0  0
    2.1342    0.2581   10.8346 C   0  0  0  0  0  0  0  0  0  0  0  0
    1.1766    0.8480    9.9957 C   0  0  0  0  0  0  0  0  0  0  0  0
    0.2912    2.4416   10.5831 Br  0  0  0  0  0  0  0  0  0  0  0  0
    0.8992    0.2665    8.7332 C   0  0  0  0  0  0  0  0  0  0  0  0
   -0.2907    0.9958    7.6467 Cl  0  0  0  0  0  0  0  0  0  0  0  0
    3.1162   -2.6848    8.5383 C   0  0  0  0  0  0  0  0  0  0  0  0
    3.7767   -3.7157    9.1192 C   0  0  0  0  0  0  0  0  0  0  0  0
    4.0461   -4.9354    8.4057 C   0  0  0  0  0  0  0  0  0  0  0  0
    4.2741   -5.9174    7.8309 N   0  0  0  0  0  0  0  0  0  0  0  0
    4.1440   -3.7146   10.5132 C   0  0  0  0  0  0  0  0  0  0  0  0
    4.4741   -3.7280   11.6245 N   0  0  0  0  0  0  0  0  0  0  0  0
   -3.8450    4.1831   -6.9197 H   0  0  0  0  0  0  0  0  0  0  0  0
   -8.2118    1.9989   -9.4754 H   0  0  0  0  0  0  0  0  0  0  0  0
   -9.5067   -0.0604   -9.1163 H   0  0  0  0  0  0  0  0  0  0  0  0
   -3.9212    3.7894    0.4889 H   0  0  0  0  0  0  0  0  0  0  0  0
   -6.0092    2.9508    1.4835 H   0  0  0  0  0  0  0  0  0  0  0  0
   -5.4304    0.4572    4.5287 H   0  0  0  0  0  0  0  0  0  0  0  0
   -7.2031    0.4601    4.8744 H   0  0  0  0  0  0  0  0  0  0  0  0
   -6.4036    1.9630    4.2586 H   0  0  0  0  0  0  0  0  0  0  0  0
   -4.2030   -0.9187    2.0074 H   0  0  0  0  0  0  0  0  0  0  0  0
   -2.1379   -0.1080    0.9912 H   0  0  0  0  0  0  0  0  0  0  0  0
   -0.4564    4.4274   -1.2900 H   0  0  0  0  0  0  0  0  0  0  0  0
    0.6052    6.4426   -0.3494 H   0  0  0  0  0  0  0  0  0  0  0  0
    2.8966    6.2138    1.7803 H   0  0  0  0  0  0  0  0  0  0  0  0
    2.3993    5.8896    3.4882 H   0  0  0  0  0  0  0  0  0  0  0  0
    3.1996    7.4624    3.0570 H   0  0  0  0  0  0  0  0  0  0  0  0
   -0.4157    5.1287    3.6241 H   0  0  0  0  0  0  0  0  0  0  0  0
   -1.4556    3.1101    2.6852 H   0  0  0  0  0  0  0  0  0  0  0  0
    3.8009   -1.9379   -3.3215 H   0  0  0  0  0  0  0  0  0  0  0  0
    4.7470   -0.5176   -5.1115 H   0  0  0  0  0  0  0  0  0  0  0  0
    3.3348    2.0361   -5.8587 H   0  0  0  0  0  0  0  0  0  0  0  0
    4.1030    3.5664   -6.4400 H   0  0  0  0  0  0  0  0  0  0  0  0
    3.5715    3.4378   -4.7229 H   0  0  0  0  0  0  0  0  0  0  0  0
    5.1750    2.7241   -2.3164 H   0  0  0  0  0  0  0  0  0  0  0  0
    4.1761    1.3345   -0.5427 H   0  0  0  0  0  0  0  0  0  0  0  0
    2.0318   -3.4626   -0.0511 H   0  0  0  0  0  0  0  0  0  0  0  0
    3.0633   -5.3351    1.1773 H   0  0  0  0  0  0  0  0  0  0  0  0
    6.0616   -3.8325    3.4901 H   0  0  0  0  0  0  0  0  0  0  0  0
    6.5079   -5.3528    4.3369 H   0  0  0  0  0  0  0  0  0  0  0  0
    4.7640   -4.9525    4.1149 H   0  0  0  0  0  0  0  0  0  0  0  0
    6.8946   -3.4054    0.8929 H   0  0  0  0  0  0  0  0  0  0  0  0
    5.8667   -1.5152   -0.2888 H   0  0  0  0  0  0  0  0  0  0  0  0
    4.9141   -1.5698    4.5767 H   0  0  0  0  0  0  0  0  0  0  0  0
   -0.8966   -4.8816    4.3794 H   0  0  0  0  0  0  0  0  0  0  0  0
   -3.1553   -4.5172    0.9022 H   0  0  0  0  0  0  0  0  0  0  0  0
   -1.7098   -5.5069    1.3381 H   0  0  0  0  0  0  0  0  0  0  0  0
   -1.6933   -2.9255   -0.3982 H   0  0  0  0  0  0  0  0  0  0  0  0
   -1.6201   -4.6142   -1.0178 H   0  0  0  0  0  0  0  0  0  0  0  0
   -0.2664   -3.9884   -0.0333 H   0  0  0  0  0  0  0  0  0  0  0  0
    4.2601   -3.6340    6.2318 H   0  0  0  0  0  0  0  0  0  0  0  0
    3.5752   -1.3062   11.1028 H   0  0  0  0  0  0  0  0  0  0  0  0
    2.3612    0.7127   11.7894 H   0  0  0  0  0  0  0  0  0  0  0  0
  1  2  2  3
  2  3  1  0
  3  4  2  0
  3  5  1  0
  5  6  2  0
  6  7  1  0
  7  8  2  0
  8  9  1  0
  9 10  1  0
  9 11  2  0
 11 12  1  0
  6 13  1  0
 13 14  2  3
 14 15  1  0
 15 16  3  0
 14 17  1  0
 17 18  3  0
  1 19  1  0
 19 20  2  0
 20 21  1  0
 21 22  1  0
 22 23  2  0
 23 24  2  0
 21 25  2  0
 25 26  1  0
 26 27  2  0
 27 28  1  0
 28 29  1  0
 29 30  2  0
 25 31  1  0
 31 32  2  0
 32 33  1  0
 33 34  1  0
 34 35  2  0
 35 36  1  0
 36 37  2  0
 37 38  1  0
 38 39  1  0
 37 40  1  0
 40 41  2  0
 33 42  1  0
 42 43  2  0
 43 44  1  0
 44 45  2  0
 45 46  1  0
 46 47  1  0
 45 48  1  0
 48 49  2  0
 32 50  1  0
 50 51  1  0
 51 52  1  0
 52 53  2  0
 53 54  1  0
 54 55  1  0
 55 56  2  0
 56 57  1  0
 57 58  2  0
 58 59  1  0
 59 60  1  0
 58 61  1  0
 61 62  2  0
 54 63  1  0
 63 64  2  0
 64 65  1  0
 65 66  2  0
 66 67  1  0
 67 68  1  0
 66 69  1  0
 69 70  2  0
 53 71  1  0
 71 72  1  0
 52 73  1  0
 73 74  2  0
 74 75  1  0
 74 76  1  0
 76 77  2  0
 77 78  1  0
 78 79  2  0
 79 80  1  0
 80 81  2  0
 81 82  1  0
 82 83  1  0
 83 84  1  0
 81 85  1  0
 85 86  2  0
 77 87  1  0
 87 88  2  3
 88 89  1  0
 89 90  2  0
 89 91  1  0
 91 92  2  0
 92 93  1  0
 93 94  2  0
 94 95  1  0
 95 96  1  0
 95 97  2  0
 97 98  1  0
 92 99  1  0
 99100  2  3
100101  1  0
101102  3  0
100103  1  0
103104  3  0
 13  2  1  0
 30 19  1  0
 72 31  1  0
 86 73  1  0
 99 88  1  0
 11  5  1  0
 24 20  1  0
 30 26  1  0
 41 34  1  0
 49 42  1  0
 71 50  2  0
 86 78  1  0
 97 91  1  0
 62 55  1  0
 70 63  1  0
  1105  1  0
  7106  1  0
  8107  1  0
 35108  1  0
 36109  1  0
 39110  1  0
 39111  1  0
 39112  1  0
 40113  1  0
 41114  1  0
 43115  1  0
 44116  1  0
 47117  1  0
 47118  1  0
 47119  1  0
 48120  1  0
 49121  1  0
 56122  1  0
 57123  1  0
 60124  1  0
 60125  1  0
 60126  1  0
 61127  1  0
 62128  1  0
 64129  1  0
 65130  1  0
 68131  1  0
 68132  1  0
 68133  1  0
 69134  1  0
 70135  1  0
 76136  1  0
 80137  1  0
 83138  1  0
 83139  1  0
 84140  1  0
 84141  1  0
 84142  1  0
 87143  1  0
 93144  1  0
 94145  1  0
M  END

