
     RDKit          3D

252273  0  0  0  0  0  0  0  0999 V2000
   -2.3600   -6.7381    5.1227 C   0  0  0  0  0  0  0  0  0  0  0  0
   -1.2988   -7.5571    5.1982 C   0  0  0  0  0  0  0  0  0  0  0  0
   -1.2030   -8.5953    6.2194 C   0  0  0  0  0  0  0  0  0  0  0  0
   -2.1661   -9.0209    6.9185 O   0  0  0  0  0  0  0  0  0  0  0  0
    0.1781   -9.0314    6.3102 C   0  0  0  0  0  0  0  0  0  0  0  0
    0.9190   -8.3695    5.3392 C   0  0  0  0  0  0  0  0  0  0  0  0
    2.3070   -8.5525    5.2844 C   0  0  0  0  0  0  0  0  0  0  0  0
    2.9247   -9.4129    6.2014 C   0  0  0  0  0  0  0  0  0  0  0  0
    2.1690  -10.0894    7.1698 C   0  0  0  0  0  0  0  0  0  0  0  0
    3.0761  -11.2348    8.4033 Br  0  0  0  0  0  0  0  0  0  0  0  0
    0.7767   -9.8966    7.2379 C   0  0  0  0  0  0  0  0  0  0  0  0
   -0.1919  -10.6946    8.4731 Cl  0  0  0  0  0  0  0  0  0  0  0  0
    0.0237   -7.5205    4.4998 C   0  0  0  0  0  0  0  0  0  0  0  0
    0.2632   -7.1364    3.2173 C   0  0  0  0  0  0  0  0  0  0  0  0
    1.5381   -7.3311    2.5779 C   0  0  0  0  0  0  0  0  0  0  0  0
    2.5532   -7.4837    2.0427 N   0  0  0  0  0  0  0  0  0  0  0  0
   -0.7708   -6.7065    2.3200 C   0  0  0  0  0  0  0  0  0  0  0  0
   -1.5702   -6.3475    1.5595 N   0  0  0  0  0  0  0  0  0  0  0  0
   -2.4032   -5.4467    4.4322 C   0  0  0  0  0  0  0  0  0  0  0  0
   -1.5528   -4.3439    4.6391 C   0  0  0  0  0  0  0  0  0  0  0  0
   -0.5095   -4.2807    5.6255 N   0  0  0  0  0  0  0  0  0  0  0  0
   -0.8294   -3.6713    6.8849 C   0  0  0  0  0  0  0  0  0  0  0  0
   -1.7020   -4.3111    7.7745 C   0  0  0  0  0  0  0  0  0  0  0  0
   -2.0509   -3.6926    8.9777 C   0  0  0  0  0  0  0  0  0  0  0  0
   -1.5559   -2.4215    9.2846 C   0  0  0  0  0  0  0  0  0  0  0  0
   -2.0337   -1.6110   10.8138 S   0  0  0  0  0  0  0  0  0  0  0  0
   -0.6688   -2.3483   11.7633 C   0  0  0  0  0  0  0  0  0  0  0  0
   -0.6792   -1.7775    8.4034 C   0  0  0  0  0  0  0  0  0  0  0  0
   -0.3202   -2.3997    7.2007 C   0  0  0  0  0  0  0  0  0  0  0  0
    0.8756   -4.4291    5.2692 C   0  0  0  0  0  0  0  0  0  0  0  0
    1.4055   -3.8035    4.1233 C   0  0  0  0  0  0  0  0  0  0  0  0
    2.7773   -3.8764    3.8541 C   0  0  0  0  0  0  0  0  0  0  0  0
    3.6256   -4.5972    4.7017 C   0  0  0  0  0  0  0  0  0  0  0  0
    5.3980   -4.6228    4.4001 S   0  0  0  0  0  0  0  0  0  0  0  0
    5.3211   -6.0807    3.3143 C   0  0  0  0  0  0  0  0  0  0  0  0
    3.0967   -5.2401    5.8303 C   0  0  0  0  0  0  0  0  0  0  0  0
    1.7334   -5.1460    6.1176 C   0  0  0  0  0  0  0  0  0  0  0  0
   -2.0634   -3.2144    4.0079 C   0  0  0  0  0  0  0  0  0  0  0  0
   -1.5686   -1.6215    3.8693 S   0  0  0  0  0  0  0  0  0  0  0  0
   -2.8821   -1.1577    2.8788 C   0  0  0  0  0  0  0  0  0  0  0  0
   -3.7064   -2.2751    2.6709 C   0  0  0  0  0  0  0  0  0  0  0  0
   -4.8855   -2.2867    1.8532 N   0  0  0  0  0  0  0  0  0  0  0  0
   -6.0718   -1.6851    2.3977 C   0  0  0  0  0  0  0  0  0  0  0  0
   -6.6426   -2.1900    3.5773 C   0  0  0  0  0  0  0  0  0  0  0  0
   -7.8704   -1.7003    4.0288 C   0  0  0  0  0  0  0  0  0  0  0  0
   -8.5292   -0.6911    3.3137 C   0  0  0  0  0  0  0  0  0  0  0  0
  -10.1547   -0.1393    3.8288 S   0  0  0  0  0  0  0  0  0  0  0  0
  -11.0175   -1.2989    2.7175 C   0  0  0  0  0  0  0  0  0  0  0  0
   -7.9283   -0.1386    2.1741 C   0  0  0  0  0  0  0  0  0  0  0  0
   -6.7088   -0.6381    1.7131 C   0  0  0  0  0  0  0  0  0  0  0  0
   -4.9277   -3.0352    0.6101 C   0  0  0  0  0  0  0  0  0  0  0  0
   -3.7369   -3.3670   -0.0678 C   0  0  0  0  0  0  0  0  0  0  0  0
   -3.7787   -4.0054   -1.3089 C   0  0  0  0  0  0  0  0  0  0  0  0
   -5.0039   -4.3825   -1.8696 C   0  0  0  0  0  0  0  0  0  0  0  0
   -5.0459   -5.2091   -3.4621 S   0  0  0  0  0  0  0  0  0  0  0  0
   -4.7990   -6.8754   -2.7677 C   0  0  0  0  0  0  0  0  0  0  0  0
   -6.1912   -4.1056   -1.1837 C   0  0  0  0  0  0  0  0  0  0  0  0
   -6.1568   -3.4260    0.0379 C   0  0  0  0  0  0  0  0  0  0  0  0
   -3.2163   -3.3975    3.3231 C   0  0  0  0  0  0  0  0  0  0  0  0
   -3.7469   -4.9765    3.4931 S   0  0  0  0  0  0  0  0  0  0  0  0
   -2.8264    0.0316    2.0151 C   0  0  0  0  0  0  0  0  0  0  0  0
   -2.1062    1.2074    2.3452 C   0  0  0  0  0  0  0  0  0  0  0  0
   -2.1520    1.8817    3.6299 N   0  0  0  0  0  0  0  0  0  0  0  0
   -1.9459    3.3029    3.6756 C   0  0  0  0  0  0  0  0  0  0  0  0
   -2.7179    4.1489    2.8600 C   0  0  0  0  0  0  0  0  0  0  0  0
   -2.5479    5.5341    2.9161 C   0  0  0  0  0  0  0  0  0  0  0  0
   -1.6255    6.0910    3.8085 C   0  0  0  0  0  0  0  0  0  0  0  0
   -1.4379    7.8741    3.9150 S   0  0  0  0  0  0  0  0  0  0  0  0
   -2.8646    8.0786    5.0280 C   0  0  0  0  0  0  0  0  0  0  0  0
   -0.8491    5.2547    4.6216 C   0  0  0  0  0  0  0  0  0  0  0  0
   -1.0038    3.8667    4.5521 C   0  0  0  0  0  0  0  0  0  0  0  0
   -2.9145    1.3342    4.7173 C   0  0  0  0  0  0  0  0  0  0  0  0
   -4.2966    1.1149    4.5731 C   0  0  0  0  0  0  0  0  0  0  0  0
   -5.0317    0.5565    5.6235 C   0  0  0  0  0  0  0  0  0  0  0  0
   -4.4028    0.2495    6.8363 C   0  0  0  0  0  0  0  0  0  0  0  0
   -5.3318   -0.4958    8.1803 S   0  0  0  0  0  0  0  0  0  0  0  0
   -5.0588   -2.1892    7.5658 C   0  0  0  0  0  0  0  0  0  0  0  0
   -3.0383    0.5149    6.9950 C   0  0  0  0  0  0  0  0  0  0  0  0
   -2.2942    1.0453    5.9398 C   0  0  0  0  0  0  0  0  0  0  0  0
   -1.4745    1.7211    1.2080 C   0  0  0  0  0  0  0  0  0  0  0  0
   -0.2496    2.8281    0.9225 S   0  0  0  0  0  0  0  0  0  0  0  0
   -0.0667    2.4563   -0.7298 C   0  0  0  0  0  0  0  0  0  0  0  0
   -1.0873    1.5330   -1.0711 C   0  0  0  0  0  0  0  0  0  0  0  0
   -1.6938    1.4605   -2.3750 N   0  0  0  0  0  0  0  0  0  0  0  0
   -1.6143    0.2482   -3.1590 C   0  0  0  0  0  0  0  0  0  0  0  0
   -2.6474   -0.0996   -4.0485 C   0  0  0  0  0  0  0  0  0  0  0  0
   -2.4799   -1.1553   -4.9501 C   0  0  0  0  0  0  0  0  0  0  0  0
   -1.2818   -1.8755   -4.9755 C   0  0  0  0  0  0  0  0  0  0  0  0
   -1.0173   -3.1303   -6.2318 S   0  0  0  0  0  0  0  0  0  0  0  0
   -1.6508   -4.4919   -5.2096 C   0  0  0  0  0  0  0  0  0  0  0  0
   -0.2757   -1.5735   -4.0537 C   0  0  0  0  0  0  0  0  0  0  0  0
   -0.4498   -0.5439   -3.1296 C   0  0  0  0  0  0  0  0  0  0  0  0
   -2.2836    2.6760   -2.9053 C   0  0  0  0  0  0  0  0  0  0  0  0
   -2.9054    3.6023   -2.0419 C   0  0  0  0  0  0  0  0  0  0  0  0
   -3.2838    4.8630   -2.5068 C   0  0  0  0  0  0  0  0  0  0  0  0
   -3.0618    5.2127   -3.8404 C   0  0  0  0  0  0  0  0  0  0  0  0
   -3.4119    6.8805   -4.3986 S   0  0  0  0  0  0  0  0  0  0  0  0
   -1.7362    7.4752   -3.9932 C   0  0  0  0  0  0  0  0  0  0  0  0
   -2.5224    4.2754   -4.7270 C   0  0  0  0  0  0  0  0  0  0  0  0
   -2.1344    3.0151   -4.2651 C   0  0  0  0  0  0  0  0  0  0  0  0
   -1.7808    1.1088    0.0474 C   0  0  0  0  0  0  0  0  0  0  0  0
   -2.8030   -0.1717    0.3240 S   0  0  0  0  0  0  0  0  0  0  0  0
    1.0498    2.8514   -1.6438 C   0  0  0  0  0  0  0  0  0  0  0  0
    2.3304    3.4539   -1.4053 C   0  0  0  0  0  0  0  0  0  0  0  0
    2.9159    3.8240   -0.1282 N   0  0  0  0  0  0  0  0  0  0  0  0
    2.7538    3.0316    1.0642 C   0  0  0  0  0  0  0  0  0  0  0  0
    2.5028    3.6757    2.2902 C   0  0  0  0  0  0  0  0  0  0  0  0
    2.2744    2.9280    3.4448 C   0  0  0  0  0  0  0  0  0  0  0  0
    2.3547    1.5327    3.4090 C   0  0  0  0  0  0  0  0  0  0  0  0
    2.0303    0.5734    4.8967 S   0  0  0  0  0  0  0  0  0  0  0  0
    3.6318    0.9709    5.6666 C   0  0  0  0  0  0  0  0  0  0  0  0
    2.6689    0.8840    2.2067 C   0  0  0  0  0  0  0  0  0  0  0  0
    2.8634    1.6296    1.0343 C   0  0  0  0  0  0  0  0  0  0  0  0
    3.9062    4.8780   -0.0865 C   0  0  0  0  0  0  0  0  0  0  0  0
    3.6536    6.1156   -0.7011 C   0  0  0  0  0  0  0  0  0  0  0  0
    4.6618    7.0794   -0.7857 C   0  0  0  0  0  0  0  0  0  0  0  0
    5.9272    6.8265   -0.2384 C   0  0  0  0  0  0  0  0  0  0  0  0
    7.2449    8.0377   -0.3896 S   0  0  0  0  0  0  0  0  0  0  0  0
    7.8421    7.3643   -1.9723 C   0  0  0  0  0  0  0  0  0  0  0  0
    6.1752    5.6100    0.4088 C   0  0  0  0  0  0  0  0  0  0  0  0
    5.1733    4.6395    0.4847 C   0  0  0  0  0  0  0  0  0  0  0  0
    3.0553    3.5539   -2.6186 C   0  0  0  0  0  0  0  0  0  0  0  0
    4.6205    4.0013   -3.0554 S   0  0  0  0  0  0  0  0  0  0  0  0
    4.4636    3.5149   -4.6783 C   0  0  0  0  0  0  0  0  0  0  0  0
    3.1985    2.9576   -4.8761 C   0  0  0  0  0  0  0  0  0  0  0  0
    2.8525    2.0788   -5.9641 N   0  0  0  0  0  0  0  0  0  0  0  0
    3.1153    0.6534   -5.8275 C   0  0  0  0  0  0  0  0  0  0  0  0
    4.1200    0.1891   -4.9488 C   0  0  0  0  0  0  0  0  0  0  0  0
    4.3415   -1.1781   -4.7753 C   0  0  0  0  0  0  0  0  0  0  0  0
    3.5861   -2.1149   -5.4817 C   0  0  0  0  0  0  0  0  0  0  0  0
    3.9438   -3.8653   -5.3011 S   0  0  0  0  0  0  0  0  0  0  0  0
    2.7718   -4.1215   -3.9296 C   0  0  0  0  0  0  0  0  0  0  0  0
    2.5905   -1.6794   -6.3573 C   0  0  0  0  0  0  0  0  0  0  0  0
    2.3384   -0.3080   -6.5156 C   0  0  0  0  0  0  0  0  0  0  0  0
    2.0680    2.6020   -7.0557 C   0  0  0  0  0  0  0  0  0  0  0  0
    2.4068    2.2861   -8.3851 C   0  0  0  0  0  0  0  0  0  0  0  0
    1.5811    2.6909   -9.4392 C   0  0  0  0  0  0  0  0  0  0  0  0
    0.4146    3.4175   -9.1836 C   0  0  0  0  0  0  0  0  0  0  0  0
   -0.6820    3.8906  -10.5267 S   0  0  0  0  0  0  0  0  0  0  0  0
   -1.7581    2.4343  -10.3182 C   0  0  0  0  0  0  0  0  0  0  0  0
    0.0981    3.7778   -7.8694 C   0  0  0  0  0  0  0  0  0  0  0  0
    0.9158    3.3770   -6.8129 C   0  0  0  0  0  0  0  0  0  0  0  0
    2.4478    3.0339   -3.7114 C   0  0  0  0  0  0  0  0  0  0  0  0
    0.9849    2.4187   -3.2837 S   0  0  0  0  0  0  0  0  0  0  0  0
    5.5706    3.4803   -5.6313 C   0  0  0  0  0  0  0  0  0  0  0  0
    5.9264    4.5582   -6.3414 C   0  0  0  0  0  0  0  0  0  0  0  0
    7.1504    4.6530   -7.1379 C   0  0  0  0  0  0  0  0  0  0  0  0
    7.9980    3.7338   -7.2951 O   0  0  0  0  0  0  0  0  0  0  0  0
    7.2322    5.9990   -7.6670 C   0  0  0  0  0  0  0  0  0  0  0  0
    6.1196    6.6966   -7.2379 C   0  0  0  0  0  0  0  0  0  0  0  0
    5.9311    8.0312   -7.6030 C   0  0  0  0  0  0  0  0  0  0  0  0
    6.8981    8.6536   -8.4074 C   0  0  0  0  0  0  0  0  0  0  0  0
    8.0342    7.9433   -8.8437 C   0  0  0  0  0  0  0  0  0  0  0  0
    9.3023    8.8496   -9.9453 Br  0  0  0  0  0  0  0  0  0  0  0  0
    8.2067    6.5938   -8.4773 C   0  0  0  0  0  0  0  0  0  0  0  0
    9.6220    5.6857   -8.9984 Cl  0  0  0  0  0  0  0  0  0  0  0  0
    5.2166    5.8652   -6.4025 C   0  0  0  0  0  0  0  0  0  0  0  0
    3.8887    5.9040   -6.5796 C   0  0  0  0  0  0  0  0  0  0  0  0
    3.0886    6.5457   -5.5721 C   0  0  0  0  0  0  0  0  0  0  0  0
    2.4404    7.0743   -4.7653 N   0  0  0  0  0  0  0  0  0  0  0  0
    3.3578    5.8819   -7.9233 C   0  0  0  0  0  0  0  0  0  0  0  0
    2.9563    5.8607   -9.0150 N   0  0  0  0  0  0  0  0  0  0  0  0
   -3.2539   -6.9990    5.6811 H   0  0  0  0  0  0  0  0  0  0  0  0
    2.9246   -8.0186    4.5847 H   0  0  0  0  0  0  0  0  0  0  0  0
    4.0000   -9.5355    6.1691 H   0  0  0  0  0  0  0  0  0  0  0  0
   -2.0997   -5.2880    7.5496 H   0  0  0  0  0  0  0  0  0  0  0  0
   -2.7084   -4.1955    9.6668 H   0  0  0  0  0  0  0  0  0  0  0  0
   -0.7653   -3.4537   11.7556 H   0  0  0  0  0  0  0  0  0  0  0  0
   -0.7198   -1.9919   12.8127 H   0  0  0  0  0  0  0  0  0  0  0  0
    0.3108   -2.0586   11.3247 H   0  0  0  0  0  0  0  0  0  0  0  0
   -0.3024   -0.7893    8.6374 H   0  0  0  0  0  0  0  0  0  0  0  0
    0.3313   -1.8878    6.5033 H   0  0  0  0  0  0  0  0  0  0  0  0
    0.7705   -3.2380    3.4554 H   0  0  0  0  0  0  0  0  0  0  0  0
    3.1810   -3.3593    2.9929 H   0  0  0  0  0  0  0  0  0  0  0  0
    4.9252   -6.9522    3.8734 H   0  0  0  0  0  0  0  0  0  0  0  0
    6.3401   -6.3242    2.9537 H   0  0  0  0  0  0  0  0  0  0  0  0
    4.6752   -5.8583    2.4420 H   0  0  0  0  0  0  0  0  0  0  0  0
    3.7402   -5.7988    6.4895 H   0  0  0  0  0  0  0  0  0  0  0  0
    1.3393   -5.6435    6.9959 H   0  0  0  0  0  0  0  0  0  0  0  0
   -6.1579   -2.9953    4.1120 H   0  0  0  0  0  0  0  0  0  0  0  0
   -8.3207   -2.1259    4.9160 H   0  0  0  0  0  0  0  0  0  0  0  0
  -12.1141   -1.1849    2.8481 H   0  0  0  0  0  0  0  0  0  0  0  0
  -10.7336   -2.3458    2.9609 H   0  0  0  0  0  0  0  0  0  0  0  0
  -10.7563   -1.0740    1.6602 H   0  0  0  0  0  0  0  0  0  0  0  0
   -8.4289    0.6464    1.6230 H   0  0  0  0  0  0  0  0  0  0  0  0
   -6.2748   -0.2393    0.8046 H   0  0  0  0  0  0  0  0  0  0  0  0
   -2.7732   -3.1067    0.3513 H   0  0  0  0  0  0  0  0  0  0  0  0
   -2.8539   -4.2149   -1.8288 H   0  0  0  0  0  0  0  0  0  0  0  0
   -4.0687   -6.8646   -1.9357 H   0  0  0  0  0  0  0  0  0  0  0  0
   -5.7653   -7.2842   -2.4225 H   0  0  0  0  0  0  0  0  0  0  0  0
   -4.4141   -7.5374   -3.5713 H   0  0  0  0  0  0  0  0  0  0  0  0
   -7.1409   -4.4185   -1.5945 H   0  0  0  0  0  0  0  0  0  0  0  0
   -7.0948   -3.2083    0.5337 H   0  0  0  0  0  0  0  0  0  0  0  0
   -3.4565    3.7373    2.1858 H   0  0  0  0  0  0  0  0  0  0  0  0
   -3.1512    6.1743    2.2869 H   0  0  0  0  0  0  0  0  0  0  0  0
   -3.7988    7.7923    4.5000 H   0  0  0  0  0  0  0  0  0  0  0  0
   -2.9401    9.1431    5.3347 H   0  0  0  0  0  0  0  0  0  0  0  0
   -2.7404    7.4510    5.9346 H   0  0  0  0  0  0  0  0  0  0  0  0
   -0.1209    5.6764    5.3049 H   0  0  0  0  0  0  0  0  0  0  0  0
   -0.3930    3.2312    5.1797 H   0  0  0  0  0  0  0  0  0  0  0  0
   -4.7947    1.3417    3.6365 H   0  0  0  0  0  0  0  0  0  0  0  0
   -6.0907    0.3553    5.4957 H   0  0  0  0  0  0  0  0  0  0  0  0
   -5.3724   -2.9113    8.3481 H   0  0  0  0  0  0  0  0  0  0  0  0
   -5.6494   -2.3569    6.6426 H   0  0  0  0  0  0  0  0  0  0  0  0
   -3.9835   -2.3459    7.3494 H   0  0  0  0  0  0  0  0  0  0  0  0
   -2.5544    0.2935    7.9356 H   0  0  0  0  0  0  0  0  0  0  0  0
   -1.2319    1.2131    6.0749 H   0  0  0  0  0  0  0  0  0  0  0  0
   -3.5632    0.4766   -4.0747 H   0  0  0  0  0  0  0  0  0  0  0  0
   -3.2659   -1.3869   -5.6523 H   0  0  0  0  0  0  0  0  0  0  0  0
   -1.9197   -5.3406   -5.8707 H   0  0  0  0  0  0  0  0  0  0  0  0
   -0.8635   -4.8240   -4.5015 H   0  0  0  0  0  0  0  0  0  0  0  0
   -2.5511   -4.1822   -4.6390 H   0  0  0  0  0  0  0  0  0  0  0  0
    0.6586   -2.1107   -4.0659 H   0  0  0  0  0  0  0  0  0  0  0  0
    0.3609   -0.3135   -2.4450 H   0  0  0  0  0  0  0  0  0  0  0  0
   -3.0588    3.3659   -0.9949 H   0  0  0  0  0  0  0  0  0  0  0  0
   -3.7156    5.5732   -1.8178 H   0  0  0  0  0  0  0  0  0  0  0  0
   -0.9790    6.8978   -4.5638 H   0  0  0  0  0  0  0  0  0  0  0  0
   -1.6551    8.5459   -4.2695 H   0  0  0  0  0  0  0  0  0  0  0  0
   -1.5484    7.3664   -2.9054 H   0  0  0  0  0  0  0  0  0  0  0  0
   -2.3616    4.5382   -5.7636 H   0  0  0  0  0  0  0  0  0  0  0  0
   -1.6513    2.3340   -4.9552 H   0  0  0  0  0  0  0  0  0  0  0  0
    2.4246    4.7524    2.3363 H   0  0  0  0  0  0  0  0  0  0  0  0
    2.0376    3.4309    4.3732 H   0  0  0  0  0  0  0  0  0  0  0  0
    3.7395    0.3835    6.6005 H   0  0  0  0  0  0  0  0  0  0  0  0
    3.6672    2.0513    5.9218 H   0  0  0  0  0  0  0  0  0  0  0  0
    4.4700    0.7214    4.9835 H   0  0  0  0  0  0  0  0  0  0  0  0
    2.7607   -0.1961    2.1778 H   0  0  0  0  0  0  0  0  0  0  0  0
    3.0945    1.1193    0.1063 H   0  0  0  0  0  0  0  0  0  0  0  0
    2.6900    6.3115   -1.1541 H   0  0  0  0  0  0  0  0  0  0  0  0
    4.4687    8.0011   -1.3122 H   0  0  0  0  0  0  0  0  0  0  0  0
    7.0483    7.4529   -2.7433 H   0  0  0  0  0  0  0  0  0  0  0  0
    8.1267    6.2993   -1.8467 H   0  0  0  0  0  0  0  0  0  0  0  0
    8.7313    7.9384   -2.2992 H   0  0  0  0  0  0  0  0  0  0  0  0
    7.1533    5.4035    0.8249 H   0  0  0  0  0  0  0  0  0  0  0  0
    5.4013    3.6784    0.9301 H   0  0  0  0  0  0  0  0  0  0  0  0
    4.7383    0.8723   -4.3800 H   0  0  0  0  0  0  0  0  0  0  0  0
    5.1043   -1.5096   -4.0845 H   0  0  0  0  0  0  0  0  0  0  0  0
    1.7349   -4.0671   -4.3176 H   0  0  0  0  0  0  0  0  0  0  0  0
    2.9328   -5.1315   -3.4909 H   0  0  0  0  0  0  0  0  0  0  0  0
    2.9322   -3.3615   -3.1363 H   0  0  0  0  0  0  0  0  0  0  0  0
    1.9970   -2.3946   -6.9090 H   0  0  0  0  0  0  0  0  0  0  0  0
    1.5273   -0.0043   -7.1665 H   0  0  0  0  0  0  0  0  0  0  0  0
    3.3005    1.7105   -8.5991 H   0  0  0  0  0  0  0  0  0  0  0  0
    1.8432    2.4372  -10.4558 H   0  0  0  0  0  0  0  0  0  0  0  0
   -1.1841    1.5093  -10.5123 H   0  0  0  0  0  0  0  0  0  0  0  0
   -2.1792    2.4114   -9.2934 H   0  0  0  0  0  0  0  0  0  0  0  0
   -2.5918    2.4913  -11.0493 H   0  0  0  0  0  0  0  0  0  0  0  0
   -0.7984    4.3489   -7.6683 H   0  0  0  0  0  0  0  0  0  0  0  0
    0.6273    3.6452   -5.8065 H   0  0  0  0  0  0  0  0  0  0  0  0
    6.1740    2.5828   -5.6732 H   0  0  0  0  0  0  0  0  0  0  0  0
    5.0631    8.5806   -7.2662 H   0  0  0  0  0  0  0  0  0  0  0  0
    6.7535    9.6929   -8.6958 H   0  0  0  0  0  0  0  0  0  0  0  0
  1  2  2  3
  2  3  1  0
  3  4  2  0
  3  5  1  0
  5  6  2  0
  6  7  1  0
  7  8  2  0
  8  9  1  0
  9 10  1  0
  9 11  2  0
 11 12  1  0
  6 13  1  0
 13 14  2  3
 14 15  1  0
 15 16  3  0
 14 17  1  0
 17 18  3  0
  1 19  1  0
 19 20  2  0
 20 21  1  0
 21 22  1  0
 22 23  2  0
 23 24  1  0
 24 25  2  0
 25 26  1  0
 26 27  1  0
 25 28  1  0
 28 29  2  0
 21 30  1  0
 30 31  2  0
 31 32  1  0
 32 33  2  0
 33 34  1  0
 34 35  1  0
 33 36  1  0
 36 37  2  0
 20 38  1  0
 38 39  1  0
 39 40  1  0
 40 41  2  0
 41 42  1  0
 42 43  1  0
 43 44  2  0
 44 45  1  0
 45 46  2  0
 46 47  1  0
 47 48  1  0
 46 49  1  0
 49 50  2  0
 42 51  1  0
 51 52  2  0
 52 53  1  0
 53 54  2  0
 54 55  1  0
 55 56  1  0
 54 57  1  0
 57 58  2  0
 41 59  1  0
 59 60  1  0
 40 61  1  0
 61 62  2  0
 62 63  1  0
 63 64  1  0
 64 65  2  0
 65 66  1  0
 66 67  2  0
 67 68  1  0
 68 69  1  0
 67 70  1  0
 70 71  2  0
 63 72  1  0
 72 73  2  0
 73 74  1  0
 74 75  2  0
 75 76  1  0
 76 77  1  0
 75 78  1  0
 78 79  2  0
 62 80  1  0
 80 81  1  0
 81 82  1  0
 82 83  2  0
 83 84  1  0
 84 85  1  0
 85 86  2  0
 86 87  1  0
 87 88  2  0
 88 89  1  0
 89 90  1  0
 88 91  1  0
 91 92  2  0
 84 93  1  0
 93 94  2  0
 94 95  1  0
 95 96  2  0
 96 97  1  0
 97 98  1  0
 96 99  1  0
 99100  2  0
 83101  1  0
101102  1  0
 82103  1  0
103104  2  0
104105  1  0
105106  1  0
106107  2  0
107108  1  0
108109  2  0
109110  1  0
110111  1  0
109112  1  0
112113  2  0
105114  1  0
114115  2  0
115116  1  0
116117  2  0
117118  1  0
118119  1  0
117120  1  0
120121  2  0
104122  1  0
122123  1  0
123124  1  0
124125  2  0
125126  1  0
126127  1  0
127128  2  0
128129  1  0
129130  2  0
130131  1  0
131132  1  0
130133  1  0
133134  2  0
126135  1  0
135136  2  0
136137  1  0
137138  2  0
138139  1  0
139140  1  0
138141  1  0
141142  2  0
125143  1  0
143144  1  0
124145  1  0
145146  2  3
146147  1  0
147148  2  0
147149  1  0
149150  2  0
150151  1  0
151152  2  0
152153  1  0
153154  1  0
153155  2  0
155156  1  0
150157  1  0
157158  2  3
158159  1  0
159160  3  0
158161  1  0
161162  3  0
 13  2  1  0
 60 19  1  0
102 61  1  0
144103  1  0
157146  1  0
 11  5  1  0
 29 22  1  0
 37 30  1  0
 59 38  2  0
 71 64  1  0
 79 72  1  0
101 80  2  0
113106  1  0
121114  1  0
143122  2  0
155149  1  0
 50 43  1  0
 58 51  1  0
 92 85  1  0
100 93  1  0
134127  1  0
142135  1  0
  1163  1  0
  7164  1  0
  8165  1  0
 23166  1  0
 24167  1  0
 27168  1  0
 27169  1  0
 27170  1  0
 28171  1  0
 29172  1  0
 31173  1  0
 32174  1  0
 35175  1  0
 35176  1  0
 35177  1  0
 36178  1  0
 37179  1  0
 44180  1  0
 45181  1  0
 48182  1  0
 48183  1  0
 48184  1  0
 49185  1  0
 50186  1  0
 52187  1  0
 53188  1  0
 56189  1  0
 56190  1  0
 56191  1  0
 57192  1  0
 58193  1  0
 65194  1  0
 66195  1  0
 69196  1  0
 69197  1  0
 69198  1  0
 70199  1  0
 71200  1  0
 73201  1  0
 74202  1  0
 77203  1  0
 77204  1  0
 77205  1  0
 78206  1  0
 79207  1  0
 86208  1  0
 87209  1  0
 90210  1  0
 90211  1  0
 90212  1  0
 91213  1  0
 92214  1  0
 94215  1  0
 95216  1  0
 98217  1  0
 98218  1  0
 98219  1  0
 99220  1  0
100221  1  0
107222  1  0
108223  1  0
111224  1  0
111225  1  0
111226  1  0
112227  1  0
113228  1  0
115229  1  0
116230  1  0
119231  1  0
119232  1  0
119233  1  0
120234  1  0
121235  1  0
128236  1  0
129237  1  0
132238  1  0
132239  1  0
132240  1  0
133241  1  0
134242  1  0
136243  1  0
137244  1  0
140245  1  0
140246  1  0
140247  1  0
141248  1  0
142249  1  0
145250  1  0
151251  1  0
152252  1  0
M  END

