
     RDKit          3D

164178  0  0  0  0  0  0  0  0999 V2000
   -2.1329    1.0899   -4.4620 C   0  0  0  0  0  0  0  0  0  0  0  0
   -0.8090    1.1968   -4.7267 C   0  0  0  0  0  0  0  0  0  0  0  0
    0.2454    1.3901   -3.7181 C   0  0  0  0  0  0  0  0  0  0  0  0
    0.0901    1.3892   -2.4662 O   0  0  0  0  0  0  0  0  0  0  0  0
    1.5054    1.6149   -4.3885 C   0  0  0  0  0  0  0  0  0  0  0  0
    2.7540    1.9251   -3.8248 C   0  0  0  0  0  0  0  0  0  0  0  0
    3.0126    1.9686   -2.0875 Cl  0  0  0  0  0  0  0  0  0  0  0  0
    3.8201    2.2078   -4.6908 C   0  0  0  0  0  0  0  0  0  0  0  0
    3.6234    2.2231   -6.0793 C   0  0  0  0  0  0  0  0  0  0  0  0
    5.0704    2.6953   -7.2335 Br  0  0  0  0  0  0  0  0  0  0  0  0
    2.3637    1.9251   -6.6222 C   0  0  0  0  0  0  0  0  0  0  0  0
    1.3034    1.5761   -5.7604 C   0  0  0  0  0  0  0  0  0  0  0  0
   -0.1219    1.2381   -6.0626 C   0  0  0  0  0  0  0  0  0  0  0  0
   -0.6377    0.9033   -7.2762 C   0  0  0  0  0  0  0  0  0  0  0  0
   -2.0083    0.5177   -7.4677 C   0  0  0  0  0  0  0  0  0  0  0  0
   -3.1104    0.2104   -7.6341 N   0  0  0  0  0  0  0  0  0  0  0  0
    0.1626    0.8296   -8.4663 C   0  0  0  0  0  0  0  0  0  0  0  0
    0.7855    0.7582   -9.4382 N   0  0  0  0  0  0  0  0  0  0  0  0
   -2.6670    1.1727   -3.0959 C   0  0  0  0  0  0  0  0  0  0  0  0
   -2.5322    0.1848   -2.0950 C   0  0  0  0  0  0  0  0  0  0  0  0
   -2.3808   -1.2417   -2.3091 N   0  0  0  0  0  0  0  0  0  0  0  0
   -2.1182   -1.7817   -3.6143 C   0  0  0  0  0  0  0  0  0  0  0  0
   -0.7993   -2.0131   -4.0359 C   0  0  0  0  0  0  0  0  0  0  0  0
   -0.5565   -2.6893   -5.2358 C   0  0  0  0  0  0  0  0  0  0  0  0
   -1.6286   -3.1539   -6.0134 C   0  0  0  0  0  0  0  0  0  0  0  0
   -1.3052   -4.1378   -7.4779 S   0  0  0  0  0  0  0  0  0  0  0  0
   -1.2600   -2.7098   -8.5982 C   0  0  0  0  0  0  0  0  0  0  0  0
   -2.9417   -2.9013   -5.6046 C   0  0  0  0  0  0  0  0  0  0  0  0
   -3.1897   -2.2172   -4.4096 C   0  0  0  0  0  0  0  0  0  0  0  0
   -2.8081   -2.1822   -1.3012 C   0  0  0  0  0  0  0  0  0  0  0  0
   -4.0465   -2.0221   -0.6577 C   0  0  0  0  0  0  0  0  0  0  0  0
   -4.4525   -2.9208    0.3290 C   0  0  0  0  0  0  0  0  0  0  0  0
   -3.6437   -4.0126    0.6580 C   0  0  0  0  0  0  0  0  0  0  0  0
   -4.1746   -5.1646    1.9279 S   0  0  0  0  0  0  0  0  0  0  0  0
   -3.0268   -4.5168    3.1802 C   0  0  0  0  0  0  0  0  0  0  0  0
   -2.4313   -4.2115   -0.0172 C   0  0  0  0  0  0  0  0  0  0  0  0
   -2.0067   -3.2886   -0.9769 C   0  0  0  0  0  0  0  0  0  0  0  0
   -2.5691    0.7824   -0.8319 C   0  0  0  0  0  0  0  0  0  0  0  0
   -2.1443    0.2816    0.7039 S   0  0  0  0  0  0  0  0  0  0  0  0
   -2.2750    1.8215    1.4252 C   0  0  0  0  0  0  0  0  0  0  0  0
   -2.6259    2.7485    0.4281 C   0  0  0  0  0  0  0  0  0  0  0  0
   -2.9454    4.1349    0.6450 N   0  0  0  0  0  0  0  0  0  0  0  0
   -4.3119    4.3523    1.0412 C   0  0  0  0  0  0  0  0  0  0  0  0
   -5.2758    4.6987    0.0757 C   0  0  0  0  0  0  0  0  0  0  0  0
   -6.6250    4.7598    0.4166 C   0  0  0  0  0  0  0  0  0  0  0  0
   -7.0329    4.4314    1.7131 C   0  0  0  0  0  0  0  0  0  0  0  0
   -8.7848    4.4158    2.1134 S   0  0  0  0  0  0  0  0  0  0  0  0
   -9.0205    2.7084    1.5204 C   0  0  0  0  0  0  0  0  0  0  0  0
   -6.0802    4.0937    2.6861 C   0  0  0  0  0  0  0  0  0  0  0  0
   -4.7235    4.0575    2.3495 C   0  0  0  0  0  0  0  0  0  0  0  0
   -2.2139    5.1617   -0.0823 C   0  0  0  0  0  0  0  0  0  0  0  0
   -2.6665    6.5021   -0.1011 C   0  0  0  0  0  0  0  0  0  0  0  0
   -2.0342    7.4522   -0.9139 C   0  0  0  0  0  0  0  0  0  0  0  0
   -0.9203    7.0983   -1.6807 C   0  0  0  0  0  0  0  0  0  0  0  0
   -0.1320    8.3122   -2.7439 S   0  0  0  0  0  0  0  0  0  0  0  0
    0.9037    8.9881   -1.4111 C   0  0  0  0  0  0  0  0  0  0  0  0
   -0.4221    5.7993   -1.6180 C   0  0  0  0  0  0  0  0  0  0  0  0
   -1.0457    4.8428   -0.8150 C   0  0  0  0  0  0  0  0  0  0  0  0
   -2.7904    2.1168   -0.8089 C   0  0  0  0  0  0  0  0  0  0  0  0
   -2.9237    2.6933   -2.3736 S   0  0  0  0  0  0  0  0  0  0  0  0
   -1.7745    2.0450    2.8041 C   0  0  0  0  0  0  0  0  0  0  0  0
   -2.2324    1.1358    3.7763 C   0  0  0  0  0  0  0  0  0  0  0  0
   -3.4502    0.5489    3.6371 F   0  0  0  0  0  0  0  0  0  0  0  0
   -1.3570    0.6376    4.7431 C   0  0  0  0  0  0  0  0  0  0  0  0
   -1.7440   -0.4202    5.4995 F   0  0  0  0  0  0  0  0  0  0  0  0
   -0.0242    1.0747    4.7765 C   0  0  0  0  0  0  0  0  0  0  0  0
    0.3459    2.1827    4.0005 C   0  0  0  0  0  0  0  0  0  0  0  0
    1.6024    2.6898    4.0878 N   0  0  0  0  0  0  0  0  0  0  0  0
    2.0390    3.6925    3.2861 C   0  0  0  0  0  0  0  0  0  0  0  0
    3.4544    4.1744    3.4801 C   0  0  0  0  0  0  0  0  0  0  0  0
    3.4982    5.4198    4.3640 C   0  0  0  0  0  0  0  0  0  0  0  0
    1.1499    4.2283    2.3209 C   0  0  0  0  0  0  0  0  0  0  0  0
   -0.0893    3.6702    2.1887 N   0  0  0  0  0  0  0  0  0  0  0  0
   -0.5268    2.6739    3.0036 C   0  0  0  0  0  0  0  0  0  0  0  0
    1.4985    5.4156    1.4545 C   0  0  0  0  0  0  0  0  0  0  0  0
    0.6465    6.6273    1.8252 C   0  0  0  0  0  0  0  0  0  0  0  0
    1.0214    0.0877    5.1038 C   0  0  0  0  0  0  0  0  0  0  0  0
    1.2172   -0.9508    4.1769 C   0  0  0  0  0  0  0  0  0  0  0  0
    2.3369   -1.7638    4.3042 C   0  0  0  0  0  0  0  0  0  0  0  0
    2.7535   -2.7245    3.4474 N   0  0  0  0  0  0  0  0  0  0  0  0
    2.1201   -3.1080    2.1803 C   0  0  0  0  0  0  0  0  0  0  0  0
    1.0235   -4.1352    2.4050 C   0  0  0  0  0  0  0  0  0  0  0  0
    3.9199   -3.1748    3.9649 C   0  0  0  0  0  0  0  0  0  0  0  0
    4.2529   -2.4905    5.1183 C   0  0  0  0  0  0  0  0  0  0  0  0
    3.2313   -1.5854    5.3409 C   0  0  0  0  0  0  0  0  0  0  0  0
    3.0629   -0.5807    6.2964 C   0  0  0  0  0  0  0  0  0  0  0  0
    1.9485    0.2758    6.1621 C   0  0  0  0  0  0  0  0  0  0  0  0
    5.4472   -2.7326    5.7975 C   0  0  0  0  0  0  0  0  0  0  0  0
    6.3159   -3.7119    5.2713 C   0  0  0  0  0  0  0  0  0  0  0  0
    5.9918   -4.3907    4.0697 C   0  0  0  0  0  0  0  0  0  0  0  0
    4.7554   -4.1467    3.4372 C   0  0  0  0  0  0  0  0  0  0  0  0
    6.9075   -5.4135    3.5195 C   0  0  0  0  0  0  0  0  0  0  0  0
    7.0971   -5.5851    2.1952 C   0  0  0  0  0  0  0  0  0  0  0  0
    7.2179   -6.9080    1.5882 C   0  0  0  0  0  0  0  0  0  0  0  0
    7.6025   -7.9531    2.1808 O   0  0  0  0  0  0  0  0  0  0  0  0
    6.6739   -6.8420    0.2385 C   0  0  0  0  0  0  0  0  0  0  0  0
    6.3382   -7.8867   -0.6328 C   0  0  0  0  0  0  0  0  0  0  0  0
    6.7166   -9.5637   -0.2677 Cl  0  0  0  0  0  0  0  0  0  0  0  0
    5.6418   -7.5792   -1.8106 C   0  0  0  0  0  0  0  0  0  0  0  0
    5.2752   -6.2509   -2.0949 C   0  0  0  0  0  0  0  0  0  0  0  0
    4.2649   -5.8523   -3.6689 Br  0  0  0  0  0  0  0  0  0  0  0  0
    5.6072   -5.2185   -1.2071 C   0  0  0  0  0  0  0  0  0  0  0  0
    6.3250   -5.5275   -0.0452 C   0  0  0  0  0  0  0  0  0  0  0  0
    6.7025   -4.6586    1.0939 C   0  0  0  0  0  0  0  0  0  0  0  0
    6.9353   -3.3209    1.0660 C   0  0  0  0  0  0  0  0  0  0  0  0
    6.6449   -2.5152   -0.0871 C   0  0  0  0  0  0  0  0  0  0  0  0
    6.4143   -1.8588   -1.0124 N   0  0  0  0  0  0  0  0  0  0  0  0
    7.6279   -2.6591    2.1436 C   0  0  0  0  0  0  0  0  0  0  0  0
    8.1893   -2.1230    2.9995 N   0  0  0  0  0  0  0  0  0  0  0  0
   -2.8719    1.0641   -5.2386 H   0  0  0  0  0  0  0  0  0  0  0  0
    4.7910    2.4594   -4.2804 H   0  0  0  0  0  0  0  0  0  0  0  0
    2.2312    2.0157   -7.6839 H   0  0  0  0  0  0  0  0  0  0  0  0
    0.0314   -1.6916   -3.4218 H   0  0  0  0  0  0  0  0  0  0  0  0
    0.4643   -2.8804   -5.5499 H   0  0  0  0  0  0  0  0  0  0  0  0
   -0.5823   -1.9352   -8.1900 H   0  0  0  0  0  0  0  0  0  0  0  0
   -2.2800   -2.2857   -8.7232 H   0  0  0  0  0  0  0  0  0  0  0  0
   -0.8799   -3.0341   -9.5850 H   0  0  0  0  0  0  0  0  0  0  0  0
   -3.7795   -3.2630   -6.1929 H   0  0  0  0  0  0  0  0  0  0  0  0
   -4.2057   -2.0535   -4.0859 H   0  0  0  0  0  0  0  0  0  0  0  0
   -4.6973   -1.1954   -0.9200 H   0  0  0  0  0  0  0  0  0  0  0  0
   -5.3939   -2.7674    0.8375 H   0  0  0  0  0  0  0  0  0  0  0  0
   -3.2991   -4.9304    4.1728 H   0  0  0  0  0  0  0  0  0  0  0  0
   -1.9998   -4.8455    2.9279 H   0  0  0  0  0  0  0  0  0  0  0  0
   -3.0700   -3.4104    3.2255 H   0  0  0  0  0  0  0  0  0  0  0  0
   -1.8006   -5.0541    0.2322 H   0  0  0  0  0  0  0  0  0  0  0  0
   -1.0500   -3.4353   -1.4713 H   0  0  0  0  0  0  0  0  0  0  0  0
   -4.9813    4.8917   -0.9468 H   0  0  0  0  0  0  0  0  0  0  0  0
   -7.3609    5.0187   -0.3345 H   0  0  0  0  0  0  0  0  0  0  0  0
   -8.7295    2.6302    0.4532 H   0  0  0  0  0  0  0  0  0  0  0  0
   -8.4091    2.0062    2.1240 H   0  0  0  0  0  0  0  0  0  0  0  0
  -10.0897    2.4294    1.6203 H   0  0  0  0  0  0  0  0  0  0  0  0
   -6.3959    3.8302    3.6887 H   0  0  0  0  0  0  0  0  0  0  0  0
   -3.9980    3.7787    3.0994 H   0  0  0  0  0  0  0  0  0  0  0  0
   -3.5197    6.8084    0.4891 H   0  0  0  0  0  0  0  0  0  0  0  0
   -2.4162    8.4633   -0.9386 H   0  0  0  0  0  0  0  0  0  0  0  0
    1.6406    8.2290   -1.0868 H   0  0  0  0  0  0  0  0  0  0  0  0
    0.2698    9.3029   -0.5601 H   0  0  0  0  0  0  0  0  0  0  0  0
    1.4461    9.8738   -1.8007 H   0  0  0  0  0  0  0  0  0  0  0  0
    0.4543    5.5218   -2.1903 H   0  0  0  0  0  0  0  0  0  0  0  0
   -0.6186    3.8493   -0.7804 H   0  0  0  0  0  0  0  0  0  0  0  0
    3.9530    4.3605    2.5104 H   0  0  0  0  0  0  0  0  0  0  0  0
    4.0499    3.3738    3.9807 H   0  0  0  0  0  0  0  0  0  0  0  0
    3.1347    5.1784    5.3825 H   0  0  0  0  0  0  0  0  0  0  0  0
    4.5420    5.7884    4.4348 H   0  0  0  0  0  0  0  0  0  0  0  0
    2.8708    6.2273    3.9366 H   0  0  0  0  0  0  0  0  0  0  0  0
    1.3359    5.1488    0.3978 H   0  0  0  0  0  0  0  0  0  0  0  0
    2.5614    5.7075    1.5253 H   0  0  0  0  0  0  0  0  0  0  0  0
    0.8501    6.9351    2.8711 H   0  0  0  0  0  0  0  0  0  0  0  0
   -0.4368    6.3953    1.7244 H   0  0  0  0  0  0  0  0  0  0  0  0
    0.8934    7.4774    1.1547 H   0  0  0  0  0  0  0  0  0  0  0  0
    0.5444   -1.0714    3.3369 H   0  0  0  0  0  0  0  0  0  0  0  0
    1.6891   -2.2123    1.6928 H   0  0  0  0  0  0  0  0  0  0  0  0
    2.8683   -3.4997    1.4681 H   0  0  0  0  0  0  0  0  0  0  0  0
    1.4608   -5.1442    2.6078 H   0  0  0  0  0  0  0  0  0  0  0  0
    0.3638   -4.1948    1.5004 H   0  0  0  0  0  0  0  0  0  0  0  0
    0.3934   -3.8297    3.2687 H   0  0  0  0  0  0  0  0  0  0  0  0
    3.7859   -0.4468    7.0949 H   0  0  0  0  0  0  0  0  0  0  0  0
    1.8314    1.1061    6.8469 H   0  0  0  0  0  0  0  0  0  0  0  0
    5.7114   -2.1708    6.6798 H   0  0  0  0  0  0  0  0  0  0  0  0
    7.2532   -3.9128    5.7736 H   0  0  0  0  0  0  0  0  0  0  0  0
    4.4634   -4.7052    2.5556 H   0  0  0  0  0  0  0  0  0  0  0  0
    7.2414   -6.1871    4.1987 H   0  0  0  0  0  0  0  0  0  0  0  0
    5.3542   -8.3710   -2.4909 H   0  0  0  0  0  0  0  0  0  0  0  0
    5.2470   -4.2230   -1.4011 H   0  0  0  0  0  0  0  0  0  0  0  0
  1  2  2  3
  2  3  1  0
  3  4  2  0
  3  5  1  0
  5  6  2  0
  6  7  1  0
  6  8  1  0
  8  9  2  0
  9 10  1  0
  9 11  1  0
 11 12  2  0
 12 13  1  0
 13 14  2  3
 14 15  1  0
 15 16  3  0
 14 17  1  0
 17 18  3  0
  1 19  1  0
 19 20  2  0
 20 21  1  0
 21 22  1  0
 22 23  2  0
 23 24  1  0
 24 25  2  0
 25 26  1  0
 26 27  1  0
 25 28  1  0
 28 29  2  0
 21 30  1  0
 30 31  2  0
 31 32  1  0
 32 33  2  0
 33 34  1  0
 34 35  1  0
 33 36  1  0
 36 37  2  0
 20 38  1  0
 38 39  1  0
 39 40  1  0
 40 41  2  0
 41 42  1  0
 42 43  1  0
 43 44  2  0
 44 45  1  0
 45 46  2  0
 46 47  1  0
 47 48  1  0
 46 49  1  0
 49 50  2  0
 42 51  1  0
 51 52  2  0
 52 53  1  0
 53 54  2  0
 54 55  1  0
 55 56  1  0
 54 57  1  0
 57 58  2  0
 41 59  1  0
 59 60  1  0
 40 61  1  0
 61 62  2  0
 62 63  1  0
 62 64  1  0
 64 65  1  0
 64 66  2  0
 66 67  1  0
 67 68  2  0
 68 69  1  0
 69 70  1  0
 70 71  1  0
 69 72  2  0
 72 73  1  0
 73 74  2  0
 72 75  1  0
 75 76  1  0
 66 77  1  0
 77 78  2  0
 78 79  1  0
 79 80  1  0
 80 81  1  0
 81 82  1  0
 80 83  1  0
 83 84  2  0
 84 85  1  0
 85 86  1  0
 86 87  2  0
 84 88  1  0
 88 89  2  0
 89 90  1  0
 90 91  2  0
 90 92  1  0
 92 93  2  3
 93 94  1  0
 94 95  2  0
 94 96  1  0
 96 97  2  0
 97 98  1  0
 97 99  1  0
 99100  2  0
100101  1  0
100102  1  0
102103  2  0
103104  1  0
104105  2  3
105106  1  0
106107  3  0
105108  1  0
108109  3  0
 13  2  1  0
 60 19  1  0
 74 61  1  0
 87 77  1  0
104 93  1  0
 12  5  1  0
 29 22  1  0
 37 30  1  0
 59 38  2  0
 74 67  1  0
 85 79  2  0
103 96  1  0
 50 43  1  0
 58 51  1  0
 91 83  1  0
  1110  1  0
  8111  1  0
 11112  1  0
 23113  1  0
 24114  1  0
 27115  1  0
 27116  1  0
 27117  1  0
 28118  1  0
 29119  1  0
 31120  1  0
 32121  1  0
 35122  1  0
 35123  1  0
 35124  1  0
 36125  1  0
 37126  1  0
 44127  1  0
 45128  1  0
 48129  1  0
 48130  1  0
 48131  1  0
 49132  1  0
 50133  1  0
 52134  1  0
 53135  1  0
 56136  1  0
 56137  1  0
 56138  1  0
 57139  1  0
 58140  1  0
 70141  1  0
 70142  1  0
 71143  1  0
 71144  1  0
 71145  1  0
 75146  1  0
 75147  1  0
 76148  1  0
 76149  1  0
 76150  1  0
 78151  1  0
 81152  1  0
 81153  1  0
 82154  1  0
 82155  1  0
 82156  1  0
 86157  1  0
 87158  1  0
 88159  1  0
 89160  1  0
 91161  1  0
 92162  1  0
 99163  1  0
102164  1  0
M  END

