
     RDKit          3D

226246  0  0  0  0  0  0  0  0999 V2000
    9.6199    1.6390    1.1489 C   0  0  0  0  0  0  0  0  0  0  0  0
    9.1056    0.4305    1.7241 C   0  0  0  0  0  0  0  0  0  0  0  0
    9.8260   -0.7950    1.8061 C   0  0  0  0  0  0  0  0  0  0  0  0
   10.9612   -1.0887    1.3521 O   0  0  0  0  0  0  0  0  0  0  0  0
    8.9840   -1.6980    2.5485 C   0  0  0  0  0  0  0  0  0  0  0  0
    9.2061   -3.0786    2.8892 C   0  0  0  0  0  0  0  0  0  0  0  0
   10.6792   -3.8352    2.4526 Cl  0  0  0  0  0  0  0  0  0  0  0  0
    8.1528   -3.6365    3.5582 C   0  0  0  0  0  0  0  0  0  0  0  0
    7.0114   -3.0310    3.9032 C   0  0  0  0  0  0  0  0  0  0  0  0
    5.5615   -3.8926    4.8254 Br  0  0  0  0  0  0  0  0  0  0  0  0
    6.8512   -1.6499    3.5428 C   0  0  0  0  0  0  0  0  0  0  0  0
    7.8548   -1.0674    2.8891 C   0  0  0  0  0  0  0  0  0  0  0  0
    7.9379    0.4968    2.3195 C   0  0  0  0  0  0  0  0  0  0  0  0
    7.2545    1.0926    3.5162 C   0  0  0  0  0  0  0  0  0  0  0  0
    8.2055    1.7323    4.1453 C   0  0  0  0  0  0  0  0  0  0  0  0
    9.2784    2.4363    4.8261 N   0  0  0  0  0  0  0  0  0  0  0  0
    5.9564    1.0153    3.8109 C   0  0  0  0  0  0  0  0  0  0  0  0
    4.8278    0.9284    4.0702 N   0  0  0  0  0  0  0  0  0  0  0  0
    8.5645    2.6849    1.1164 C   0  0  0  0  0  0  0  0  0  0  0  0
    7.6098    2.2278    0.0742 C   0  0  0  0  0  0  0  0  0  0  0  0
    6.5527    2.9640   -0.1347 C   0  0  0  0  0  0  0  0  0  0  0  0
    5.4534    2.5877   -0.9708 C   0  0  0  0  0  0  0  0  0  0  0  0
    5.4664    1.4280   -1.7847 C   0  0  0  0  0  0  0  0  0  0  0  0
    5.9018    0.2592   -2.0757 C   0  0  0  0  0  0  0  0  0  0  0  0
    5.8187   -0.4521   -3.1886 C   0  0  0  0  0  0  0  0  0  0  0  0
    5.1926    0.0054   -4.3015 C   0  0  0  0  0  0  0  0  0  0  0  0
    5.0370   -0.6581   -5.9120 S   0  0  0  0  0  0  0  0  0  0  0  0
    3.5686   -1.4157   -6.4737 C   0  0  0  0  0  0  0  0  0  0  0  0
    2.4643   -0.3884   -6.7588 C   0  0  0  0  0  0  0  0  0  0  0  0
    4.5652    1.7828   -3.7287 Se  0  0  0  0  0  2  0  0  0  0  0  0
    4.3221    3.3948   -0.9337 C   0  0  0  0  0  0  0  0  0  0  0  0
    4.1299    4.5218   -0.1933 C   0  0  0  0  0  0  0  0  0  0  0  0
    5.2383    4.8816    0.5790 C   0  0  0  0  0  0  0  0  0  0  0  0
    5.3933    6.1952    1.2269 C   0  0  0  0  0  0  0  0  0  0  0  0
    4.7006    7.2056    1.6685 C   0  0  0  0  0  0  0  0  0  0  0  0
    5.2172    8.4301    1.9226 C   0  0  0  0  0  0  0  0  0  0  0  0
    6.5017    8.7381    1.7409 C   0  0  0  0  0  0  0  0  0  0  0  0
    7.5421   10.1582    1.8445 S   0  0  0  0  0  0  0  0  0  0  0  0
    7.6560   11.0095    0.2311 C   0  0  0  0  0  0  0  0  0  0  0  0
    8.3102   10.1807   -0.8262 C   0  0  0  0  0  0  0  0  0  0  0  0
    7.1583    7.0103    1.1108 Se  0  0  0  0  0  2  0  0  0  0  0  0
    6.3839    4.0944    0.5894 C   0  0  0  0  0  0  0  0  0  0  0  0
    7.8347    4.0319    1.5931 S   0  0  0  0  0  0  0  0  0  0  0  0
    2.8340    4.9812   -0.1152 C   0  0  0  0  0  0  0  0  0  0  0  0
    1.8662    4.3534   -0.7176 C   0  0  0  0  0  0  0  0  0  0  0  0
    2.7663    3.0191   -1.5054 S   0  0  0  0  0  0  0  0  0  0  0  0
    0.3942    4.0078   -0.4426 C   0  0  0  0  0  0  0  0  0  0  0  0
   -0.6132    3.6658   -1.1798 C   0  0  0  0  0  0  0  0  0  0  0  0
   -0.9349    4.2127   -2.4589 N   0  0  0  0  0  0  0  0  0  0  0  0
   -1.4402    5.5650   -2.5050 C   0  0  0  0  0  0  0  0  0  0  0  0
   -1.0559    6.5350   -3.3546 C   0  0  0  0  0  0  0  0  0  0  0  0
   -1.7003    7.7775   -3.3007 C   0  0  0  0  0  0  0  0  0  0  0  0
   -2.7075    8.0606   -2.4143 C   0  0  0  0  0  0  0  0  0  0  0  0
   -3.5217    9.6546   -2.3460 S   0  0  0  0  0  0  0  0  0  0  0  0
   -4.7927    9.7268   -1.0774 C   0  0  0  0  0  0  0  0  0  0  0  0
   -3.0989    7.0679   -1.5425 C   0  0  0  0  0  0  0  0  0  0  0  0
   -2.4734    5.8315   -1.5855 C   0  0  0  0  0  0  0  0  0  0  0  0
   -0.9593    3.5085   -3.6641 C   0  0  0  0  0  0  0  0  0  0  0  0
   -0.0381    2.6096   -4.1015 C   0  0  0  0  0  0  0  0  0  0  0  0
   -0.1848    1.9839   -5.3105 C   0  0  0  0  0  0  0  0  0  0  0  0
   -1.2773    2.2353   -6.1586 C   0  0  0  0  0  0  0  0  0  0  0  0
   -1.4050    1.4165   -7.7269 S   0  0  0  0  0  0  0  0  0  0  0  0
   -2.9400    1.8892   -8.5550 C   0  0  0  0  0  0  0  0  0  0  0  0
   -2.2203    3.1351   -5.7471 C   0  0  0  0  0  0  0  0  0  0  0  0
   -2.0589    3.7438   -4.5454 C   0  0  0  0  0  0  0  0  0  0  0  0
   -1.5889    2.8361   -0.5557 C   0  0  0  0  0  0  0  0  0  0  0  0
   -2.8313    1.7351   -1.1019 S   0  0  0  0  0  0  0  0  0  0  0  0
   -3.0618    0.8399    0.3883 C   0  0  0  0  0  0  0  0  0  0  0  0
   -2.2157    1.4538    1.2249 C   0  0  0  0  0  0  0  0  0  0  0  0
   -2.1679    1.3180    2.6580 N   0  0  0  0  0  0  0  0  0  0  0  0
   -2.4582    2.5907    3.3787 C   0  0  0  0  0  0  0  0  0  0  0  0
   -1.6383    2.9379    4.3960 C   0  0  0  0  0  0  0  0  0  0  0  0
   -1.7752    4.1024    5.1580 C   0  0  0  0  0  0  0  0  0  0  0  0
   -2.8385    4.9336    4.8127 C   0  0  0  0  0  0  0  0  0  0  0  0
   -3.0441    6.4223    5.7834 S   0  0  0  0  0  0  0  0  0  0  0  0
   -1.8201    6.5102    7.1201 C   0  0  0  0  0  0  0  0  0  0  0  0
   -3.6556    4.5742    3.7873 C   0  0  0  0  0  0  0  0  0  0  0  0
   -3.5043    3.4045    3.0342 C   0  0  0  0  0  0  0  0  0  0  0  0
   -1.8997    0.2904    3.5207 C   0  0  0  0  0  0  0  0  0  0  0  0
   -0.8657   -0.5658    3.4183 C   0  0  0  0  0  0  0  0  0  0  0  0
   -0.7068   -1.5712    4.3528 C   0  0  0  0  0  0  0  0  0  0  0  0
   -1.6176   -1.7092    5.4171 C   0  0  0  0  0  0  0  0  0  0  0  0
   -1.3410   -3.0472    6.5546 S   0  0  0  0  0  0  0  0  0  0  0  0
   -1.9939   -4.5989    5.9124 C   0  0  0  0  0  0  0  0  0  0  0  0
   -2.6494   -0.8472    5.5228 C   0  0  0  0  0  0  0  0  0  0  0  0
   -2.8123    0.1486    4.6022 C   0  0  0  0  0  0  0  0  0  0  0  0
   -1.4611    2.4863    0.6668 C   0  0  0  0  0  0  0  0  0  0  0  0
    0.0297    3.2727    1.1324 S   0  0  0  0  0  0  0  0  0  0  0  0
   -3.5463   -0.5713    0.4054 C   0  0  0  0  0  0  0  0  0  0  0  0
   -4.5228   -1.3021   -0.0171 C   0  0  0  0  0  0  0  0  0  0  0  0
   -5.6106   -0.8017   -0.8521 N   0  0  0  0  0  0  0  0  0  0  0  0
   -5.3767   -1.1338   -2.2448 C   0  0  0  0  0  0  0  0  0  0  0  0
   -4.1114   -1.0420   -2.7664 C   0  0  0  0  0  0  0  0  0  0  0  0
   -3.8744   -1.3576   -4.1005 C   0  0  0  0  0  0  0  0  0  0  0  0
   -4.8743   -1.7672   -4.9467 C   0  0  0  0  0  0  0  0  0  0  0  0
   -4.4496   -2.1780   -6.6198 S   0  0  0  0  0  0  0  0  0  0  0  0
   -2.6493   -2.0361   -6.8529 C   0  0  0  0  0  0  0  0  0  0  0  0
   -6.1385   -1.8533   -4.4092 C   0  0  0  0  0  0  0  0  0  0  0  0
   -6.4002   -1.5433   -3.0698 C   0  0  0  0  0  0  0  0  0  0  0  0
   -6.7872   -0.2260   -0.3964 C   0  0  0  0  0  0  0  0  0  0  0  0
   -7.4613   -0.8333    0.6466 C   0  0  0  0  0  0  0  0  0  0  0  0
   -8.6601   -0.4682    1.1402 C   0  0  0  0  0  0  0  0  0  0  0  0
   -9.2910    0.6543    0.5379 C   0  0  0  0  0  0  0  0  0  0  0  0
  -10.9428    1.1227    1.0805 S   0  0  0  0  0  0  0  0  0  0  0  0
  -11.5823   -0.2203    2.1783 C   0  0  0  0  0  0  0  0  0  0  0  0
   -8.6399    1.2672   -0.4848 C   0  0  0  0  0  0  0  0  0  0  0  0
   -7.4035    0.8602   -0.9678 C   0  0  0  0  0  0  0  0  0  0  0  0
   -4.4338   -2.6895    0.1521 C   0  0  0  0  0  0  0  0  0  0  0  0
   -5.3921   -4.0982   -0.1577 S   0  0  0  0  0  0  0  0  0  0  0  0
   -4.3737   -5.3071    0.4656 C   0  0  0  0  0  0  0  0  0  0  0  0
   -3.2672   -4.5913    0.8994 C   0  0  0  0  0  0  0  0  0  0  0  0
   -1.9909   -5.1896    1.2083 N   0  0  0  0  0  0  0  0  0  0  0  0
   -0.7696   -4.4135    1.3513 C   0  0  0  0  0  0  0  0  0  0  0  0
   -0.4978   -3.5971    0.2405 C   0  0  0  0  0  0  0  0  0  0  0  0
    0.6220   -2.8194    0.1453 C   0  0  0  0  0  0  0  0  0  0  0  0
    1.5481   -2.8179    1.1800 C   0  0  0  0  0  0  0  0  0  0  0  0
    3.0452   -1.8679    1.0627 S   0  0  0  0  0  0  0  0  0  0  0  0
    2.8742   -0.1913    1.6914 C   0  0  0  0  0  0  0  0  0  0  0  0
    1.2598   -3.6207    2.2561 C   0  0  0  0  0  0  0  0  0  0  0  0
    0.1086   -4.4179    2.3523 C   0  0  0  0  0  0  0  0  0  0  0  0
   -1.6164   -6.5258    0.9542 C   0  0  0  0  0  0  0  0  0  0  0  0
   -1.8980   -6.9363   -0.3605 C   0  0  0  0  0  0  0  0  0  0  0  0
   -1.4899   -8.1442   -0.8195 C   0  0  0  0  0  0  0  0  0  0  0  0
   -0.7815   -9.0361   -0.0407 C   0  0  0  0  0  0  0  0  0  0  0  0
   -0.2633  -10.5584   -0.7877 S   0  0  0  0  0  0  0  0  0  0  0  0
    1.2951  -10.3213   -1.6956 C   0  0  0  0  0  0  0  0  0  0  0  0
   -0.5162   -8.6377    1.2471 C   0  0  0  0  0  0  0  0  0  0  0  0
   -0.9390   -7.4000    1.7125 C   0  0  0  0  0  0  0  0  0  0  0  0
   -3.3791   -3.2122    0.7113 C   0  0  0  0  0  0  0  0  0  0  0  0
   -2.4611   -1.7773    1.0547 S   0  0  0  0  0  0  0  0  0  0  0  0
   -4.6131   -6.7192    0.6489 C   0  0  0  0  0  0  0  0  0  0  0  0
   -4.9812   -7.6762   -0.2141 C   0  0  0  0  0  0  0  0  0  0  0  0
   -5.1430   -9.0071    0.2474 C   0  0  0  0  0  0  0  0  0  0  0  0
   -5.2215   -9.4531    1.4550 O   0  0  0  0  0  0  0  0  0  0  0  0
   -5.1983   -9.7903   -0.9581 C   0  0  0  0  0  0  0  0  0  0  0  0
   -5.4320  -11.1843   -1.0123 C   0  0  0  0  0  0  0  0  0  0  0  0
   -5.5566  -12.1573    0.4236 Cl  0  0  0  0  0  0  0  0  0  0  0  0
   -5.5644  -11.7919   -2.2423 C   0  0  0  0  0  0  0  0  0  0  0  0
   -5.4637  -11.0111   -3.3340 C   0  0  0  0  0  0  0  0  0  0  0  0
   -5.6705  -11.7766   -5.0668 Br  0  0  0  0  0  0  0  0  0  0  0  0
   -5.2241   -9.6203   -3.2701 C   0  0  0  0  0  0  0  0  0  0  0  0
   -5.0865   -9.0081   -2.0538 C   0  0  0  0  0  0  0  0  0  0  0  0
   -4.9275   -7.4669   -1.6061 C   0  0  0  0  0  0  0  0  0  0  0  0
   -5.3973   -6.7579   -2.6089 C   0  0  0  0  0  0  0  0  0  0  0  0
   -4.6584   -7.1919   -3.9009 C   0  0  0  0  0  0  0  0  0  0  0  0
   -4.1245   -7.5175   -4.8139 N   0  0  0  0  0  0  0  0  0  0  0  0
   -6.3388   -5.8744   -2.7934 C   0  0  0  0  0  0  0  0  0  0  0  0
   -7.2104   -5.0429   -2.9465 N   0  0  0  0  0  0  0  0  0  0  0  0
   10.5675    1.6989    0.8363 H   0  0  0  0  0  0  0  0  0  0  0  0
    8.2634   -4.7046    3.8465 H   0  0  0  0  0  0  0  0  0  0  0  0
    5.9029   -1.2820    3.8570 H   0  0  0  0  0  0  0  0  0  0  0  0
    7.9109    1.3050   -0.4672 H   0  0  0  0  0  0  0  0  0  0  0  0
    6.4497   -0.2875   -1.1704 H   0  0  0  0  0  0  0  0  0  0  0  0
    6.2800   -1.4883   -3.2977 H   0  0  0  0  0  0  0  0  0  0  0  0
    3.7874   -1.9454   -7.4498 H   0  0  0  0  0  0  0  0  0  0  0  0
    3.1321   -2.0942   -5.7208 H   0  0  0  0  0  0  0  0  0  0  0  0
    2.5744   -0.0234   -7.8177 H   0  0  0  0  0  0  0  0  0  0  0  0
    1.4887   -0.8630   -6.6474 H   0  0  0  0  0  0  0  0  0  0  0  0
    2.5614    0.4650   -6.1026 H   0  0  0  0  0  0  0  0  0  0  0  0
    3.5874    7.0447    1.8844 H   0  0  0  0  0  0  0  0  0  0  0  0
    4.5496    9.2620    2.3262 H   0  0  0  0  0  0  0  0  0  0  0  0
    6.6163   11.2126   -0.1033 H   0  0  0  0  0  0  0  0  0  0  0  0
    8.1732   11.9652    0.4045 H   0  0  0  0  0  0  0  0  0  0  0  0
    8.8453    9.3322   -0.3673 H   0  0  0  0  0  0  0  0  0  0  0  0
    7.5465    9.7028   -1.5097 H   0  0  0  0  0  0  0  0  0  0  0  0
    8.9429   10.7718   -1.5153 H   0  0  0  0  0  0  0  0  0  0  0  0
    2.5716    5.9088    0.4606 H   0  0  0  0  0  0  0  0  0  0  0  0
   -0.2715    6.3164   -4.0560 H   0  0  0  0  0  0  0  0  0  0  0  0
   -1.4091    8.5537   -3.9761 H   0  0  0  0  0  0  0  0  0  0  0  0
   -5.1741   10.7668   -1.0508 H   0  0  0  0  0  0  0  0  0  0  0  0
   -5.6094    9.0316   -1.3423 H   0  0  0  0  0  0  0  0  0  0  0  0
   -4.4199    9.4497   -0.0697 H   0  0  0  0  0  0  0  0  0  0  0  0
   -3.9024    7.2172   -0.7978 H   0  0  0  0  0  0  0  0  0  0  0  0
   -2.7920    5.0582   -0.9021 H   0  0  0  0  0  0  0  0  0  0  0  0
    0.8307    2.3821   -3.4742 H   0  0  0  0  0  0  0  0  0  0  0  0
    0.5212    1.2768   -5.6504 H   0  0  0  0  0  0  0  0  0  0  0  0
   -3.0387    1.3629   -9.5266 H   0  0  0  0  0  0  0  0  0  0  0  0
   -3.0323    2.9568   -8.7415 H   0  0  0  0  0  0  0  0  0  0  0  0
   -3.7777    1.5680   -7.8753 H   0  0  0  0  0  0  0  0  0  0  0  0
   -3.0978    3.3619   -6.3677 H   0  0  0  0  0  0  0  0  0  0  0  0
   -2.7969    4.4587   -4.2058 H   0  0  0  0  0  0  0  0  0  0  0  0
   -0.7788    2.3185    4.6880 H   0  0  0  0  0  0  0  0  0  0  0  0
   -1.0919    4.3044    5.9427 H   0  0  0  0  0  0  0  0  0  0  0  0
   -1.8770    7.4866    7.5894 H   0  0  0  0  0  0  0  0  0  0  0  0
   -0.7905    6.3369    6.7471 H   0  0  0  0  0  0  0  0  0  0  0  0
   -1.9947    5.7199    7.9073 H   0  0  0  0  0  0  0  0  0  0  0  0
   -4.4842    5.2528    3.5533 H   0  0  0  0  0  0  0  0  0  0  0  0
   -4.1557    3.1550    2.2492 H   0  0  0  0  0  0  0  0  0  0  0  0
   -0.1613   -0.4894    2.6182 H   0  0  0  0  0  0  0  0  0  0  0  0
    0.0813   -2.2635    4.3326 H   0  0  0  0  0  0  0  0  0  0  0  0
   -1.3811   -5.4459    6.2805 H   0  0  0  0  0  0  0  0  0  0  0  0
   -3.0328   -4.7833    6.1758 H   0  0  0  0  0  0  0  0  0  0  0  0
   -1.8832   -4.5487    4.7910 H   0  0  0  0  0  0  0  0  0  0  0  0
   -3.3536   -0.9191    6.3477 H   0  0  0  0  0  0  0  0  0  0  0  0
   -3.6253    0.8436    4.6812 H   0  0  0  0  0  0  0  0  0  0  0  0
   -3.2661   -0.7581   -2.1637 H   0  0  0  0  0  0  0  0  0  0  0  0
   -2.8632   -1.2837   -4.4798 H   0  0  0  0  0  0  0  0  0  0  0  0
   -2.1685   -2.7746   -6.1376 H   0  0  0  0  0  0  0  0  0  0  0  0
   -2.3557   -2.2112   -7.8918 H   0  0  0  0  0  0  0  0  0  0  0  0
   -2.2843   -1.0495   -6.4587 H   0  0  0  0  0  0  0  0  0  0  0  0
   -6.9369   -2.1749   -5.0890 H   0  0  0  0  0  0  0  0  0  0  0  0
   -7.4107   -1.6233   -2.7041 H   0  0  0  0  0  0  0  0  0  0  0  0
   -6.9665   -1.7154    1.1233 H   0  0  0  0  0  0  0  0  0  0  0  0
   -9.1794   -0.9403    1.9451 H   0  0  0  0  0  0  0  0  0  0  0  0
  -11.1349   -0.2076    3.1764 H   0  0  0  0  0  0  0  0  0  0  0  0
  -12.6804   -0.2605    2.1779 H   0  0  0  0  0  0  0  0  0  0  0  0
  -11.2503   -1.2129    1.7285 H   0  0  0  0  0  0  0  0  0  0  0  0
   -9.1043    2.1355   -0.9632 H   0  0  0  0  0  0  0  0  0  0  0  0
   -6.8920    1.3489   -1.7842 H   0  0  0  0  0  0  0  0  0  0  0  0
   -1.1669   -3.6016   -0.6137 H   0  0  0  0  0  0  0  0  0  0  0  0
    0.7862   -2.2084   -0.7209 H   0  0  0  0  0  0  0  0  0  0  0  0
    2.4493   -0.1991    2.7338 H   0  0  0  0  0  0  0  0  0  0  0  0
    2.2865    0.4792    1.0321 H   0  0  0  0  0  0  0  0  0  0  0  0
    3.9163    0.2598    1.6849 H   0  0  0  0  0  0  0  0  0  0  0  0
    1.9846   -3.6153    3.0708 H   0  0  0  0  0  0  0  0  0  0  0  0
   -0.0488   -4.9985    3.2240 H   0  0  0  0  0  0  0  0  0  0  0  0
   -2.4215   -6.2848   -1.0390 H   0  0  0  0  0  0  0  0  0  0  0  0
   -1.7191   -8.4418   -1.8490 H   0  0  0  0  0  0  0  0  0  0  0  0
    1.1042  -10.1932   -2.8046 H   0  0  0  0  0  0  0  0  0  0  0  0
    1.8732  -11.2606   -1.6178 H   0  0  0  0  0  0  0  0  0  0  0  0
    1.8670   -9.4485   -1.3570 H   0  0  0  0  0  0  0  0  0  0  0  0
    0.0239   -9.2860    1.8898 H   0  0  0  0  0  0  0  0  0  0  0  0
   -0.7224   -7.1212    2.7510 H   0  0  0  0  0  0  0  0  0  0  0  0
   -4.4670   -7.0187    1.7146 H   0  0  0  0  0  0  0  0  0  0  0  0
   -5.7428  -12.8505   -2.2881 H   0  0  0  0  0  0  0  0  0  0  0  0
   -5.2631   -9.1309   -4.2075 H   0  0  0  0  0  0  0  0  0  0  0  0
  1  2  2  3
  2  3  1  0
  3  4  2  0
  3  5  1  0
  5  6  2  0
  6  7  1  0
  6  8  1  0
  8  9  2  0
  9 10  1  0
  9 11  1  0
 11 12  2  0
 12 13  1  0
 13 14  2  3
 14 15  1  0
 15 16  3  0
 14 17  1  0
 17 18  3  0
  1 19  1  0
 19 20  2  0
 20 21  1  0
 21 22  2  0
 22 23  1  0
 23 24  2  0
 24 25  1  0
 25 26  2  0
 26 27  1  0
 27 28  1  0
 28 29  1  0
 26 30  1  0
 22 31  1  0
 31 32  2  0
 32 33  1  0
 33 34  1  0
 34 35  2  0
 35 36  1  0
 36 37  2  0
 37 38  1  0
 38 39  1  0
 39 40  1  0
 37 41  1  0
 33 42  2  0
 42 43  1  0
 32 44  1  0
 44 45  2  0
 45 46  1  0
 45 47  1  0
 47 48  2  0
 48 49  1  0
 49 50  1  0
 50 51  2  0
 51 52  1  0
 52 53  2  0
 53 54  1  0
 54 55  1  0
 53 56  1  0
 56 57  2  0
 49 58  1  0
 58 59  2  0
 59 60  1  0
 60 61  2  0
 61 62  1  0
 62 63  1  0
 61 64  1  0
 64 65  2  0
 48 66  1  0
 66 67  1  0
 67 68  1  0
 68 69  2  0
 69 70  1  0
 70 71  1  0
 71 72  2  0
 72 73  1  0
 73 74  2  0
 74 75  1  0
 75 76  1  0
 74 77  1  0
 77 78  2  0
 70 79  1  0
 79 80  2  0
 80 81  1  0
 81 82  2  0
 82 83  1  0
 83 84  1  0
 82 85  1  0
 85 86  2  0
 69 87  1  0
 87 88  1  0
 68 89  1  0
 89 90  2  0
 90 91  1  0
 91 92  1  0
 92 93  2  0
 93 94  1  0
 94 95  2  0
 95 96  1  0
 96 97  1  0
 95 98  1  0
 98 99  2  0
 91100  1  0
100101  2  0
101102  1  0
102103  2  0
103104  1  0
104105  1  0
103106  1  0
106107  2  0
 90108  1  0
108109  1  0
109110  1  0
110111  2  0
111112  1  0
112113  1  0
113114  2  0
114115  1  0
115116  2  0
116117  1  0
117118  1  0
116119  1  0
119120  2  0
112121  1  0
121122  2  0
122123  1  0
123124  2  0
124125  1  0
125126  1  0
124127  1  0
127128  2  0
111129  1  0
129130  1  0
110131  1  0
131132  2  3
132133  1  0
133134  2  0
133135  1  0
135136  2  0
136137  1  0
136138  1  0
138139  2  0
139140  1  0
139141  1  0
141142  2  0
142143  1  0
143144  2  3
144145  1  0
145146  3  0
144147  1  0
147148  3  0
 13  2  1  0
 43 19  1  0
 88 47  1  0
130 89  1  0
143132  1  0
 12  5  1  0
 42 21  1  0
 57 50  1  0
 65 58  1  0
 87 66  2  0
 99 92  1  0
107100  1  0
129108  2  0
142135  1  0
 30 23  1  0
 46 31  1  0
 78 71  1  0
 86 79  1  0
120113  1  0
128121  1  0
 41 34  1  0
  1149  1  0
  8150  1  0
 11151  1  0
 20152  1  0
 24153  1  0
 25154  1  0
 28155  1  0
 28156  1  0
 29157  1  0
 29158  1  0
 29159  1  0
 35160  1  0
 36161  1  0
 39162  1  0
 39163  1  0
 40164  1  0
 40165  1  0
 40166  1  0
 44167  1  0
 51168  1  0
 52169  1  0
 55170  1  0
 55171  1  0
 55172  1  0
 56173  1  0
 57174  1  0
 59175  1  0
 60176  1  0
 63177  1  0
 63178  1  0
 63179  1  0
 64180  1  0
 65181  1  0
 72182  1  0
 73183  1  0
 76184  1  0
 76185  1  0
 76186  1  0
 77187  1  0
 78188  1  0
 80189  1  0
 81190  1  0
 84191  1  0
 84192  1  0
 84193  1  0
 85194  1  0
 86195  1  0
 93196  1  0
 94197  1  0
 97198  1  0
 97199  1  0
 97200  1  0
 98201  1  0
 99202  1  0
101203  1  0
102204  1  0
105205  1  0
105206  1  0
105207  1  0
106208  1  0
107209  1  0
114210  1  0
115211  1  0
118212  1  0
118213  1  0
118214  1  0
119215  1  0
120216  1  0
122217  1  0
123218  1  0
126219  1  0
126220  1  0
126221  1  0
127222  1  0
128223  1  0
131224  1  0
138225  1  0
141226  1  0
M  END

