
     RDKit          3D

 92103  0  0  0  0  0  0  0  0999 V2000
    2.7150   -0.0215   -6.8800 C   0  0  0  0  0  0  0  0  0  0  0  0
    2.5920    1.3170   -6.7735 C   0  0  0  0  0  0  0  0  0  0  0  0
    2.1537    2.0261   -5.5660 C   0  0  0  0  0  0  0  0  0  0  0  0
    1.5971    1.5158   -4.5540 O   0  0  0  0  0  0  0  0  0  0  0  0
    2.4955    3.4285   -5.6995 C   0  0  0  0  0  0  0  0  0  0  0  0
    2.3663    4.4402   -4.7578 C   0  0  0  0  0  0  0  0  0  0  0  0
    2.8189    5.7205   -5.0862 C   0  0  0  0  0  0  0  0  0  0  0  0
    2.6607    7.0193   -3.9170 Cl  0  0  0  0  0  0  0  0  0  0  0  0
    3.4173    5.9579   -6.3364 C   0  0  0  0  0  0  0  0  0  0  0  0
    3.8811    7.1952   -6.6417 F   0  0  0  0  0  0  0  0  0  0  0  0
    3.5370    4.9249   -7.2765 C   0  0  0  0  0  0  0  0  0  0  0  0
    3.0441    3.6501   -6.9525 C   0  0  0  0  0  0  0  0  0  0  0  0
    3.0555    2.3741   -7.7246 C   0  0  0  0  0  0  0  0  0  0  0  0
    3.2073    2.2414   -9.0706 C   0  0  0  0  0  0  0  0  0  0  0  0
    3.4641    3.3632   -9.9313 C   0  0  0  0  0  0  0  0  0  0  0  0
    3.6698    4.2554  -10.6293 N   0  0  0  0  0  0  0  0  0  0  0  0
    3.0445    0.9777   -9.7514 C   0  0  0  0  0  0  0  0  0  0  0  0
    2.9282   -0.0315  -10.3179 N   0  0  0  0  0  0  0  0  0  0  0  0
    2.2520   -0.9357   -5.8234 C   0  0  0  0  0  0  0  0  0  0  0  0
    0.8778   -1.1583   -5.6238 C   0  0  0  0  0  0  0  0  0  0  0  0
    0.3913   -1.7347   -4.4212 C   0  0  0  0  0  0  0  0  0  0  0  0
   -1.0361   -1.7506   -4.3093 N   0  0  0  0  0  0  0  0  0  0  0  0
   -1.4505   -1.0725   -5.6949 S   0  0  0  0  0  4  0  0  0  0  0  0
   -0.1388   -0.6963   -6.5192 N   0  0  0  0  0  0  0  0  0  0  0  0
    1.2726   -2.1113   -3.3940 C   0  0  0  0  0  0  0  0  0  0  0  0
    2.6569   -2.0345   -3.6559 C   0  0  0  0  0  0  0  0  0  0  0  0
    3.5936   -2.4090   -2.7473 N   0  0  0  0  0  0  0  0  0  0  0  0
    4.9777   -1.9526   -3.5329 S   0  0  0  0  0  0  0  0  0  0  0  0
    4.4956   -1.2882   -4.9720 N   0  0  0  0  0  0  0  0  0  0  0  0
    3.1455   -1.4297   -4.8641 C   0  0  0  0  0  0  0  0  0  0  0  0
    0.7789   -2.2143   -2.0044 C   0  0  0  0  0  0  0  0  0  0  0  0
   -0.1487   -3.1946   -1.6311 C   0  0  0  0  0  0  0  0  0  0  0  0
   -0.4998   -4.1722   -2.5052 F   0  0  0  0  0  0  0  0  0  0  0  0
   -0.7447   -3.1562   -0.3632 C   0  0  0  0  0  0  0  0  0  0  0  0
   -1.6744   -4.0865   -0.0397 F   0  0  0  0  0  0  0  0  0  0  0  0
   -0.3814   -2.1605    0.5597 C   0  0  0  0  0  0  0  0  0  0  0  0
    0.5731   -1.1955    0.2026 C   0  0  0  0  0  0  0  0  0  0  0  0
    0.9224   -0.2064    1.0682 N   0  0  0  0  0  0  0  0  0  0  0  0
    1.7936    0.7806    0.7285 C   0  0  0  0  0  0  0  0  0  0  0  0
    2.1237    1.8233    1.7715 C   0  0  0  0  0  0  0  0  0  0  0  0
    0.9331    2.7412    1.9901 C   0  0  0  0  0  0  0  0  0  0  0  0
    2.3087    0.8055   -0.5904 C   0  0  0  0  0  0  0  0  0  0  0  0
    1.9668   -0.1949   -1.4421 N   0  0  0  0  0  0  0  0  0  0  0  0
    1.1391   -1.2086   -1.0794 C   0  0  0  0  0  0  0  0  0  0  0  0
    3.2225    1.8808   -1.1109 C   0  0  0  0  0  0  0  0  0  0  0  0
    4.6781    1.5414   -0.8281 C   0  0  0  0  0  0  0  0  0  0  0  0
   -1.0927   -2.0258    1.8449 C   0  0  0  0  0  0  0  0  0  0  0  0
   -2.3898   -1.4866    1.8848 C   0  0  0  0  0  0  0  0  0  0  0  0
   -3.0054   -1.1145    3.1135 C   0  0  0  0  0  0  0  0  0  0  0  0
   -4.2806   -0.4682    2.9767 N   0  0  0  0  0  0  0  0  0  0  0  0
   -4.4290   -0.4626    1.3831 S   0  0  0  0  0  4  0  0  0  0  0  0
   -3.1511   -1.1556    0.7183 N   0  0  0  0  0  0  0  0  0  0  0  0
   -2.3333   -1.2652    4.3339 C   0  0  0  0  0  0  0  0  0  0  0  0
   -1.0486   -1.8463    4.3072 C   0  0  0  0  0  0  0  0  0  0  0  0
   -0.3168   -2.0458    5.4324 N   0  0  0  0  0  0  0  0  0  0  0  0
    1.0573   -2.7010    4.7839 S   0  0  0  0  0  0  0  0  0  0  0  0
    0.8163   -2.7546    3.1497 N   0  0  0  0  0  0  0  0  0  0  0  0
   -0.4355   -2.2373    3.0714 C   0  0  0  0  0  0  0  0  0  0  0  0
   -2.8343   -0.6167    5.5616 C   0  0  0  0  0  0  0  0  0  0  0  0
   -3.9706   -0.9767    6.1909 C   0  0  0  0  0  0  0  0  0  0  0  0
   -4.7377   -2.2028    5.9501 C   0  0  0  0  0  0  0  0  0  0  0  0
   -4.6772   -2.9392    4.9312 O   0  0  0  0  0  0  0  0  0  0  0  0
   -5.5388   -2.4745    7.1323 C   0  0  0  0  0  0  0  0  0  0  0  0
   -6.3203   -3.5979    7.4032 C   0  0  0  0  0  0  0  0  0  0  0  0
   -6.8998   -3.7209    8.6726 C   0  0  0  0  0  0  0  0  0  0  0  0
   -7.8429   -5.1483    9.0703 Cl  0  0  0  0  0  0  0  0  0  0  0  0
   -6.6689   -2.7349    9.6543 C   0  0  0  0  0  0  0  0  0  0  0  0
   -7.1530   -2.8895   10.9085 F   0  0  0  0  0  0  0  0  0  0  0  0
   -5.8915   -1.6112    9.3509 C   0  0  0  0  0  0  0  0  0  0  0  0
   -5.3446   -1.4781    8.0639 C   0  0  0  0  0  0  0  0  0  0  0  0
   -4.4531   -0.4345    7.4912 C   0  0  0  0  0  0  0  0  0  0  0  0
   -4.2805    0.8307    7.9494 C   0  0  0  0  0  0  0  0  0  0  0  0
   -4.8398    1.2994    9.1882 C   0  0  0  0  0  0  0  0  0  0  0  0
   -5.2805    1.7065   10.1709 N   0  0  0  0  0  0  0  0  0  0  0  0
   -3.6204    1.8431    7.1658 C   0  0  0  0  0  0  0  0  0  0  0  0
   -3.0940    2.6661    6.5442 N   0  0  0  0  0  0  0  0  0  0  0  0
    3.2370   -0.4674   -7.7136 H   0  0  0  0  0  0  0  0  0  0  0  0
    1.9422    4.2457   -3.7829 H   0  0  0  0  0  0  0  0  0  0  0  0
    4.0437    5.1324   -8.2029 H   0  0  0  0  0  0  0  0  0  0  0  0
    3.0023    2.4378    1.5015 H   0  0  0  0  0  0  0  0  0  0  0  0
    2.3737    1.2962    2.7140 H   0  0  0  0  0  0  0  0  0  0  0  0
    0.0552    2.1423    2.2920 H   0  0  0  0  0  0  0  0  0  0  0  0
    0.6864    3.3044    1.0695 H   0  0  0  0  0  0  0  0  0  0  0  0
    1.1474    3.4626    2.8065 H   0  0  0  0  0  0  0  0  0  0  0  0
    3.0978    1.9718   -2.2093 H   0  0  0  0  0  0  0  0  0  0  0  0
    2.9735    2.8722   -0.6837 H   0  0  0  0  0  0  0  0  0  0  0  0
    5.3196    2.3665   -1.1890 H   0  0  0  0  0  0  0  0  0  0  0  0
    4.9634    0.6090   -1.3633 H   0  0  0  0  0  0  0  0  0  0  0  0
    4.8479    1.4045    0.2633 H   0  0  0  0  0  0  0  0  0  0  0  0
   -2.1799    0.1172    6.0158 H   0  0  0  0  0  0  0  0  0  0  0  0
   -6.4436   -4.3790    6.6622 H   0  0  0  0  0  0  0  0  0  0  0  0
   -5.6829   -0.9025   10.1333 H   0  0  0  0  0  0  0  0  0  0  0  0
  1  2  2  3
  2  3  1  0
  3  4  2  0
  3  5  1  0
  5  6  2  0
  6  7  1  0
  7  8  1  0
  7  9  2  0
  9 10  1  0
  9 11  1  0
 11 12  2  0
 12 13  1  0
 13 14  2  3
 14 15  1  0
 15 16  3  0
 14 17  1  0
 17 18  3  0
  1 19  1  0
 19 20  2  0
 20 21  1  0
 21 22  1  0
 22 23  2  0
 23 24  2  0
 21 25  2  0
 25 26  1  0
 26 27  2  0
 27 28  1  0
 28 29  1  0
 29 30  2  0
 25 31  1  0
 31 32  2  0
 32 33  1  0
 32 34  1  0
 34 35  1  0
 34 36  2  0
 36 37  1  0
 37 38  2  0
 38 39  1  0
 39 40  1  0
 40 41  1  0
 39 42  2  0
 42 43  1  0
 43 44  2  0
 42 45  1  0
 45 46  1  0
 36 47  1  0
 47 48  2  0
 48 49  1  0
 49 50  1  0
 50 51  2  0
 51 52  2  0
 49 53  2  0
 53 54  1  0
 54 55  2  0
 55 56  1  0
 56 57  1  0
 57 58  2  0
 53 59  1  0
 59 60  2  3
 60 61  1  0
 61 62  2  0
 61 63  1  0
 63 64  2  0
 64 65  1  0
 65 66  1  0
 65 67  2  0
 67 68  1  0
 67 69  1  0
 69 70  2  0
 70 71  1  0
 71 72  2  3
 72 73  1  0
 73 74  3  0
 72 75  1  0
 75 76  3  0
 13  2  1  0
 30 19  1  0
 44 31  1  0
 58 47  1  0
 71 60  1  0
 12  5  1  0
 24 20  1  0
 30 26  1  0
 44 37  1  0
 52 48  1  0
 58 54  1  0
 70 63  1  0
  1 77  1  0
  6 78  1  0
 11 79  1  0
 40 80  1  0
 40 81  1  0
 41 82  1  0
 41 83  1  0
 41 84  1  0
 45 85  1  0
 45 86  1  0
 46 87  1  0
 46 88  1  0
 46 89  1  0
 59 90  1  0
 64 91  1  0
 69 92  1  0
M  END

