
     RDKit          3D

 84 95  0  0  0  0  0  0  0  0999 V2000
    2.5207    7.3705   -3.0906 C   0  0  0  0  0  0  0  0  0  0  0  0
    3.4528    8.0244   -2.3690 C   0  0  0  0  0  0  0  0  0  0  0  0
    3.4307    8.2814   -0.9218 C   0  0  0  0  0  0  0  0  0  0  0  0
    2.4199    8.2807   -0.1741 O   0  0  0  0  0  0  0  0  0  0  0  0
    4.7701    8.6335   -0.5009 C   0  0  0  0  0  0  0  0  0  0  0  0
    5.2557    8.8069    0.7952 C   0  0  0  0  0  0  0  0  0  0  0  0
    6.6303    9.0341    0.9713 C   0  0  0  0  0  0  0  0  0  0  0  0
    7.2772    9.2431    2.5895 Cl  0  0  0  0  0  0  0  0  0  0  0  0
    7.4921    9.0544   -0.1435 C   0  0  0  0  0  0  0  0  0  0  0  0
    8.8276    9.2340    0.0268 F   0  0  0  0  0  0  0  0  0  0  0  0
    6.9785    8.8748   -1.4391 C   0  0  0  0  0  0  0  0  0  0  0  0
    5.5964    8.6967   -1.6071 C   0  0  0  0  0  0  0  0  0  0  0  0
    4.8018    8.4632   -2.8418 C   0  0  0  0  0  0  0  0  0  0  0  0
    5.1498    8.8444   -4.0990 C   0  0  0  0  0  0  0  0  0  0  0  0
    4.2305    8.7962   -5.2104 C   0  0  0  0  0  0  0  0  0  0  0  0
    3.5025    8.7706   -6.1104 N   0  0  0  0  0  0  0  0  0  0  0  0
    6.4002    9.5032   -4.3832 C   0  0  0  0  0  0  0  0  0  0  0  0
    7.3918   10.0408   -4.6361 N   0  0  0  0  0  0  0  0  0  0  0  0
    1.2689    6.7865   -2.5578 C   0  0  0  0  0  0  0  0  0  0  0  0
    1.2679    5.9599   -1.4165 C   0  0  0  0  0  0  0  0  0  0  0  0
    0.0795    5.3203   -1.0603 C   0  0  0  0  0  0  0  0  0  0  0  0
   -0.1810    4.3650    0.0103 C   0  0  0  0  0  0  0  0  0  0  0  0
    0.6255    3.9979    0.9025 O   0  0  0  0  0  0  0  0  0  0  0  0
   -1.5483    3.8965   -0.1774 C   0  0  0  0  0  0  0  0  0  0  0  0
   -2.0807    4.5296   -1.2840 C   0  0  0  0  0  0  0  0  0  0  0  0
   -1.0634    5.4258   -1.8354 C   0  0  0  0  0  0  0  0  0  0  0  0
   -1.0838    6.2091   -2.9880 C   0  0  0  0  0  0  0  0  0  0  0  0
    0.0918    6.8934   -3.3389 C   0  0  0  0  0  0  0  0  0  0  0  0
   -3.3367    4.1865   -1.7782 C   0  0  0  0  0  0  0  0  0  0  0  0
   -4.0571    3.1680   -1.1262 C   0  0  0  0  0  0  0  0  0  0  0  0
   -3.5168    2.5194    0.0120 C   0  0  0  0  0  0  0  0  0  0  0  0
   -2.2453    2.9022    0.4975 C   0  0  0  0  0  0  0  0  0  0  0  0
   -4.2128    1.3756    0.6315 C   0  0  0  0  0  0  0  0  0  0  0  0
   -3.9409    0.8363    2.2298 S   0  0  0  0  0  0  0  0  0  0  0  0
   -4.7144   -0.6331    1.9998 C   0  0  0  0  0  0  0  0  0  0  0  0
   -4.6437   -1.8302    2.7047 C   0  0  0  0  0  0  0  0  0  0  0  0
   -5.0539   -2.9130    1.9095 C   0  0  0  0  0  0  0  0  0  0  0  0
   -5.4924   -2.3299    0.3596 S   0  0  0  0  0  0  0  0  0  0  0  0
   -5.1646   -0.7248    0.7209 C   0  0  0  0  0  0  0  0  0  0  0  0
   -4.9019    0.3785   -0.0873 C   0  0  0  0  0  0  0  0  0  0  0  0
   -4.7062   -4.3193    2.2317 C   0  0  0  0  0  0  0  0  0  0  0  0
   -4.8343   -4.7966    3.5539 C   0  0  0  0  0  0  0  0  0  0  0  0
   -4.2192   -6.0057    3.9657 C   0  0  0  0  0  0  0  0  0  0  0  0
   -4.3756   -6.3171    5.3521 N   0  0  0  0  0  0  0  0  0  0  0  0
   -5.2634   -5.0787    5.8265 S   0  0  0  0  0  4  0  0  0  0  0  0
   -5.5340   -4.1022    4.5935 N   0  0  0  0  0  0  0  0  0  0  0  0
   -3.4565   -6.7700    3.0727 C   0  0  0  0  0  0  0  0  0  0  0  0
   -3.4325   -6.3790    1.7268 C   0  0  0  0  0  0  0  0  0  0  0  0
   -2.7713   -7.0875    0.7744 N   0  0  0  0  0  0  0  0  0  0  0  0
   -2.9968   -6.1141   -0.5456 S   0  0  0  0  0  0  0  0  0  0  0  0
   -3.8945   -4.8355   -0.0058 N   0  0  0  0  0  0  0  0  0  0  0  0
   -4.0494   -5.1559    1.3047 C   0  0  0  0  0  0  0  0  0  0  0  0
   -2.6360   -7.8979    3.5555 C   0  0  0  0  0  0  0  0  0  0  0  0
   -1.2864   -7.8943    3.4868 C   0  0  0  0  0  0  0  0  0  0  0  0
   -0.4609   -6.7178    3.1690 C   0  0  0  0  0  0  0  0  0  0  0  0
   -0.8708   -5.5790    2.8199 O   0  0  0  0  0  0  0  0  0  0  0  0
    0.9188   -7.0361    3.4604 C   0  0  0  0  0  0  0  0  0  0  0  0
    2.0328   -6.2056    3.3246 C   0  0  0  0  0  0  0  0  0  0  0  0
    3.2937   -6.7163    3.6535 C   0  0  0  0  0  0  0  0  0  0  0  0
    4.3953   -5.9374    3.5159 F   0  0  0  0  0  0  0  0  0  0  0  0
    3.4213   -8.0367    4.1102 C   0  0  0  0  0  0  0  0  0  0  0  0
    4.6486   -8.5311    4.4194 F   0  0  0  0  0  0  0  0  0  0  0  0
    2.2852   -8.8532    4.2459 C   0  0  0  0  0  0  0  0  0  0  0  0
    1.0183   -8.3395    3.9140 C   0  0  0  0  0  0  0  0  0  0  0  0
   -0.3375   -8.9767    3.9114 C   0  0  0  0  0  0  0  0  0  0  0  0
   -0.6282  -10.2954    4.0906 C   0  0  0  0  0  0  0  0  0  0  0  0
    0.3439  -11.2578    4.5211 C   0  0  0  0  0  0  0  0  0  0  0  0
    1.1115  -12.0436    4.8785 N   0  0  0  0  0  0  0  0  0  0  0  0
   -1.9207  -10.8492    3.7918 C   0  0  0  0  0  0  0  0  0  0  0  0
   -2.9588  -11.3048    3.5446 N   0  0  0  0  0  0  0  0  0  0  0  0
    2.6915    7.1836   -4.1373 H   0  0  0  0  0  0  0  0  0  0  0  0
    4.5901    8.7485    1.6479 H   0  0  0  0  0  0  0  0  0  0  0  0
    7.6625    8.8311   -2.2731 H   0  0  0  0  0  0  0  0  0  0  0  0
    2.1753    5.7700   -0.8581 H   0  0  0  0  0  0  0  0  0  0  0  0
   -1.9664    6.2703   -3.6120 H   0  0  0  0  0  0  0  0  0  0  0  0
    0.1014    7.4771   -4.2532 H   0  0  0  0  0  0  0  0  0  0  0  0
   -3.7347    4.6614   -2.6675 H   0  0  0  0  0  0  0  0  0  0  0  0
   -5.0239    2.8784   -1.5200 H   0  0  0  0  0  0  0  0  0  0  0  0
   -1.7871    2.3955    1.3377 H   0  0  0  0  0  0  0  0  0  0  0  0
   -4.1521   -1.9326    3.6667 H   0  0  0  0  0  0  0  0  0  0  0  0
   -5.0621    0.3858   -1.1579 H   0  0  0  0  0  0  0  0  0  0  0  0
   -3.1638   -8.6987    4.0475 H   0  0  0  0  0  0  0  0  0  0  0  0
    1.9256   -5.1896    2.9711 H   0  0  0  0  0  0  0  0  0  0  0  0
    2.4291   -9.8463    4.6211 H   0  0  0  0  0  0  0  0  0  0  0  0
  1  2  2  3
  2  3  1  0
  3  4  2  0
  3  5  1  0
  5  6  2  0
  6  7  1  0
  7  8  1  0
  7  9  2  0
  9 10  1  0
  9 11  1  0
 11 12  2  0
 12 13  1  0
 13 14  2  3
 14 15  1  0
 15 16  3  0
 14 17  1  0
 17 18  3  0
  1 19  1  0
 19 20  2  0
 20 21  1  0
 21 22  1  0
 22 23  2  0
 22 24  1  0
 24 25  2  0
 25 26  1  0
 26 27  1  0
 27 28  2  0
 25 29  1  0
 29 30  2  0
 30 31  1  0
 31 32  2  0
 31 33  1  0
 33 34  1  0
 34 35  1  0
 35 36  1  0
 36 37  2  0
 37 38  1  0
 38 39  1  0
 39 40  1  0
 37 41  1  0
 41 42  2  0
 42 43  1  0
 43 44  1  0
 44 45  2  0
 45 46  2  0
 43 47  2  0
 47 48  1  0
 48 49  2  0
 49 50  1  0
 50 51  1  0
 51 52  2  0
 47 53  1  0
 53 54  2  3
 54 55  1  0
 55 56  2  0
 55 57  1  0
 57 58  2  0
 58 59  1  0
 59 60  1  0
 59 61  2  0
 61 62  1  0
 61 63  1  0
 63 64  2  0
 64 65  1  0
 65 66  2  3
 66 67  1  0
 67 68  3  0
 66 69  1  0
 69 70  3  0
 13  2  1  0
 28 19  1  0
 40 33  2  0
 52 41  1  0
 65 54  1  0
 12  5  1  0
 26 21  2  0
 39 35  2  0
 46 42  1  0
 52 48  1  0
 64 57  1  0
 32 24  1  0
  1 71  1  0
  6 72  1  0
 11 73  1  0
 20 74  1  0
 27 75  1  0
 28 76  1  0
 29 77  1  0
 30 78  1  0
 32 79  1  0
 36 80  1  0
 40 81  1  0
 53 82  1  0
 58 83  1  0
 63 84  1  0
M  END

