
     RDKit          3D

136151  0  0  0  0  0  0  0  0999 V2000
    4.1620    4.6851    5.6587 C   0  0  0  0  0  0  0  0  0  0  0  0
    3.9478    5.6816    4.7001 C   0  0  0  0  0  0  0  0  0  0  0  0
    4.8790    6.4433    3.8853 C   0  0  0  0  0  0  0  0  0  0  0  0
    6.1466    6.7202    4.1703 O   0  0  0  0  0  0  0  0  0  0  0  0
    4.2432    6.7435    2.5888 C   0  0  0  0  0  0  0  0  0  0  0  0
    4.6174    7.6074    1.5374 C   0  0  0  0  0  0  0  0  0  0  0  0
    3.6863    7.8338    0.5034 C   0  0  0  0  0  0  0  0  0  0  0  0
    4.1028    8.8803   -0.8167 Cl  0  0  0  0  0  0  0  0  0  0  0  0
    2.4038    7.2224    0.5061 C   0  0  0  0  0  0  0  0  0  0  0  0
    1.4942    7.4431   -0.4851 F   0  0  0  0  0  0  0  0  0  0  0  0
    2.0351    6.3600    1.5568 C   0  0  0  0  0  0  0  0  0  0  0  0
    2.9716    6.1679    2.5935 C   0  0  0  0  0  0  0  0  0  0  0  0
    2.6738    5.6121    3.9349 C   0  0  0  0  0  0  0  0  0  0  0  0
    1.4686    5.8795    4.4818 C   0  0  0  0  0  0  0  0  0  0  0  0
    0.2354    5.3492    4.0097 C   0  0  0  0  0  0  0  0  0  0  0  0
   -0.7736    4.8769    3.6196 N   0  0  0  0  0  0  0  0  0  0  0  0
    1.4870    6.5477    5.7548 C   0  0  0  0  0  0  0  0  0  0  0  0
    1.6689    7.1369    6.7175 N   0  0  0  0  0  0  0  0  0  0  0  0
    3.6503    3.2722    5.4556 C   0  0  0  0  0  0  0  0  0  0  0  0
    4.1667    2.6326    4.2674 C   0  0  0  0  0  0  0  0  0  0  0  0
    3.3856    1.7781    3.4206 C   0  0  0  0  0  0  0  0  0  0  0  0
    4.0130    1.4717    2.1511 N   0  0  0  0  0  0  0  0  0  0  0  0
    5.3020    2.4058    2.2362 S   0  0  0  0  0  4  0  0  0  0  0  0
    5.3285    3.1662    3.6355 N   0  0  0  0  0  0  0  0  0  0  0  0
    2.0692    1.4213    3.7248 C   0  0  0  0  0  0  0  0  0  0  0  0
    1.5897    1.8821    4.9843 C   0  0  0  0  0  0  0  0  0  0  0  0
    0.3460    1.4878    5.4376 N   0  0  0  0  0  0  0  0  0  0  0  0
    0.2460    2.4333    6.7866 S   0  0  0  0  0  0  0  0  0  0  0  0
    1.6552    3.3090    6.8894 N   0  0  0  0  0  0  0  0  0  0  0  0
    2.3460    2.7872    5.8131 C   0  0  0  0  0  0  0  0  0  0  0  0
    1.2467    0.6993    2.7286 C   0  0  0  0  0  0  0  0  0  0  0  0
    1.6717   -0.4885    2.0447 C   0  0  0  0  0  0  0  0  0  0  0  0
    2.6442   -1.4014    2.5804 N   0  0  0  0  0  0  0  0  0  0  0  0
    2.8826   -1.4555    4.0106 C   0  0  0  0  0  0  0  0  0  0  0  0
    4.1418   -1.7038    4.5163 C   0  0  0  0  0  0  0  0  0  0  0  0
    4.3680   -1.8787    5.9113 C   0  0  0  0  0  0  0  0  0  0  0  0
    3.2863   -1.7994    6.8237 C   0  0  0  0  0  0  0  0  0  0  0  0
    3.7316   -1.9706    8.6036 S   0  0  0  0  0  0  0  0  0  0  0  0
    2.0825   -1.9836    9.4038 C   0  0  0  0  0  0  0  0  0  0  0  0
    1.9981   -1.5823    6.3126 C   0  0  0  0  0  0  0  0  0  0  0  0
    1.7693   -1.4435    4.9142 C   0  0  0  0  0  0  0  0  0  0  0  0
    3.0105   -2.5800    1.8272 C   0  0  0  0  0  0  0  0  0  0  0  0
    3.6338   -2.4901    0.5912 C   0  0  0  0  0  0  0  0  0  0  0  0
    3.8157   -3.6575   -0.2039 C   0  0  0  0  0  0  0  0  0  0  0  0
    3.4080   -4.9259    0.2912 C   0  0  0  0  0  0  0  0  0  0  0  0
    3.6988   -6.3891   -0.7692 S   0  0  0  0  0  0  0  0  0  0  0  0
    2.7691   -7.6346    0.2156 C   0  0  0  0  0  0  0  0  0  0  0  0
    2.8690   -4.9923    1.5914 C   0  0  0  0  0  0  0  0  0  0  0  0
    2.6328   -3.8415    2.3462 C   0  0  0  0  0  0  0  0  0  0  0  0
    0.9413   -0.6210    0.8740 C   0  0  0  0  0  0  0  0  0  0  0  0
    0.8775   -1.7295   -0.3741 S   0  0  0  0  0  0  0  0  0  0  0  0
   -0.3005   -0.8476   -1.2217 C   0  0  0  0  0  0  0  0  0  0  0  0
   -0.6683    0.3317   -0.5106 C   0  0  0  0  0  0  0  0  0  0  0  0
   -1.9860    0.8717   -0.6098 N   0  0  0  0  0  0  0  0  0  0  0  0
   -3.0405    0.2252    0.1117 C   0  0  0  0  0  0  0  0  0  0  0  0
   -3.3102   -1.1427   -0.0938 C   0  0  0  0  0  0  0  0  0  0  0  0
   -4.2192   -1.8214    0.7328 C   0  0  0  0  0  0  0  0  0  0  0  0
   -4.8787   -1.1423    1.7657 C   0  0  0  0  0  0  0  0  0  0  0  0
   -6.1278   -2.0053    2.7324 S   0  0  0  0  0  0  0  0  0  0  0  0
   -4.9539   -2.7772    3.9146 C   0  0  0  0  0  0  0  0  0  0  0  0
   -4.7037    0.2547    1.9117 C   0  0  0  0  0  0  0  0  0  0  0  0
   -3.7894    0.9327    1.0742 C   0  0  0  0  0  0  0  0  0  0  0  0
   -2.2823    2.1036   -1.3343 C   0  0  0  0  0  0  0  0  0  0  0  0
   -3.4624    2.1766   -2.0757 C   0  0  0  0  0  0  0  0  0  0  0  0
   -3.8737    3.4078   -2.6352 C   0  0  0  0  0  0  0  0  0  0  0  0
   -3.1012    4.5745   -2.4645 C   0  0  0  0  0  0  0  0  0  0  0  0
   -3.5555    6.2066   -3.1931 S   0  0  0  0  0  0  0  0  0  0  0  0
   -5.2183    5.8205   -3.8791 C   0  0  0  0  0  0  0  0  0  0  0  0
   -1.8943    4.4807   -1.7323 C   0  0  0  0  0  0  0  0  0  0  0  0
   -1.4752    3.2285   -1.1758 C   0  0  0  0  0  0  0  0  0  0  0  0
    0.0329    0.3982    0.6662 C   0  0  0  0  0  0  0  0  0  0  0  0
    0.0077    1.5211    1.8916 S   0  0  0  0  0  0  0  0  0  0  0  0
   -0.7559   -1.2100   -2.5682 C   0  0  0  0  0  0  0  0  0  0  0  0
   -1.1196   -2.5365   -2.9397 C   0  0  0  0  0  0  0  0  0  0  0  0
   -1.4892   -2.8715   -4.2587 C   0  0  0  0  0  0  0  0  0  0  0  0
   -1.8899   -4.2360   -4.5032 N   0  0  0  0  0  0  0  0  0  0  0  0
   -1.7027   -4.7959   -3.0213 S   0  0  0  0  0  4  0  0  0  0  0  0
   -1.2056   -3.6343   -2.0399 N   0  0  0  0  0  0  0  0  0  0  0  0
   -1.4197   -1.9395   -5.2940 C   0  0  0  0  0  0  0  0  0  0  0  0
   -1.0811   -0.6280   -4.9469 C   0  0  0  0  0  0  0  0  0  0  0  0
   -1.0240    0.3597   -5.9002 N   0  0  0  0  0  0  0  0  0  0  0  0
   -0.5253    1.5958   -4.9365 S   0  0  0  0  0  0  0  0  0  0  0  0
   -0.3555    1.0056   -3.4067 N   0  0  0  0  0  0  0  0  0  0  0  0
   -0.7422   -0.2801   -3.6256 C   0  0  0  0  0  0  0  0  0  0  0  0
   -1.8596   -2.2366   -6.6402 C   0  0  0  0  0  0  0  0  0  0  0  0
   -1.2566   -3.1134   -7.4742 C   0  0  0  0  0  0  0  0  0  0  0  0
   -0.0672   -3.8960   -7.1019 C   0  0  0  0  0  0  0  0  0  0  0  0
    0.5987   -3.8122   -6.0282 O   0  0  0  0  0  0  0  0  0  0  0  0
    0.2465   -4.7765   -8.1919 C   0  0  0  0  0  0  0  0  0  0  0  0
    1.2963   -5.7394   -8.1992 C   0  0  0  0  0  0  0  0  0  0  0  0
    2.3876   -5.9520   -6.7877 Cl  0  0  0  0  0  0  0  0  0  0  0  0
    1.4481   -6.5225   -9.3500 C   0  0  0  0  0  0  0  0  0  0  0  0
    2.7264   -7.7413   -9.4252 Cl  0  0  0  0  0  0  0  0  0  0  0  0
    0.5850   -6.3555  -10.4549 C   0  0  0  0  0  0  0  0  0  0  0  0
    0.8134   -7.3797  -11.9076 Cl  0  0  0  0  0  0  0  0  0  0  0  0
   -0.4670   -5.3983  -10.4397 C   0  0  0  0  0  0  0  0  0  0  0  0
   -1.4331   -5.4065  -11.9296 Cl  0  0  0  0  0  0  0  0  0  0  0  0
   -0.6410   -4.5792   -9.2672 C   0  0  0  0  0  0  0  0  0  0  0  0
   -1.6465   -3.4690   -8.8905 C   0  0  0  0  0  0  0  0  0  0  0  0
   -2.6653   -2.8887   -9.6015 C   0  0  0  0  0  0  0  0  0  0  0  0
   -3.1114   -3.2187  -10.9214 C   0  0  0  0  0  0  0  0  0  0  0  0
   -3.5436   -3.4058  -11.9682 N   0  0  0  0  0  0  0  0  0  0  0  0
   -3.4948   -1.7993   -9.1158 C   0  0  0  0  0  0  0  0  0  0  0  0
   -4.1735   -0.9408   -8.7768 N   0  0  0  0  0  0  0  0  0  0  0  0
    4.5985    4.9239    6.5629 H   0  0  0  0  0  0  0  0  0  0  0  0
    5.6198    8.0929    1.5507 H   0  0  0  0  0  0  0  0  0  0  0  0
    1.0619    5.9029    1.6131 H   0  0  0  0  0  0  0  0  0  0  0  0
    4.9758   -1.7931    3.8255 H   0  0  0  0  0  0  0  0  0  0  0  0
    5.3677   -2.0338    6.2322 H   0  0  0  0  0  0  0  0  0  0  0  0
    1.2818   -2.5803    8.8813 H   0  0  0  0  0  0  0  0  0  0  0  0
    1.7538   -0.9398    9.6167 H   0  0  0  0  0  0  0  0  0  0  0  0
    2.2412   -2.4647   10.3917 H   0  0  0  0  0  0  0  0  0  0  0  0
    1.1090   -1.5004    6.9595 H   0  0  0  0  0  0  0  0  0  0  0  0
    0.7373   -1.3185    4.5245 H   0  0  0  0  0  0  0  0  0  0  0  0
    3.8828   -1.5039    0.1755 H   0  0  0  0  0  0  0  0  0  0  0  0
    4.2389   -3.5523   -1.1814 H   0  0  0  0  0  0  0  0  0  0  0  0
    1.7362   -7.3147    0.4990 H   0  0  0  0  0  0  0  0  0  0  0  0
    3.3422   -7.9457    1.1212 H   0  0  0  0  0  0  0  0  0  0  0  0
    2.6666   -8.5424   -0.3953 H   0  0  0  0  0  0  0  0  0  0  0  0
    2.5576   -5.9152    2.1030 H   0  0  0  0  0  0  0  0  0  0  0  0
    2.1451   -3.9603    3.3274 H   0  0  0  0  0  0  0  0  0  0  0  0
   -2.7809   -1.6975   -0.8751 H   0  0  0  0  0  0  0  0  0  0  0  0
   -4.3605   -2.8833    0.5382 H   0  0  0  0  0  0  0  0  0  0  0  0
   -5.2008   -2.4230    4.9262 H   0  0  0  0  0  0  0  0  0  0  0  0
   -3.8679   -2.5758    3.7177 H   0  0  0  0  0  0  0  0  0  0  0  0
   -5.1215   -3.8689    3.9321 H   0  0  0  0  0  0  0  0  0  0  0  0
   -5.2596    0.8339    2.6381 H   0  0  0  0  0  0  0  0  0  0  0  0
   -3.6095    2.0015    1.2065 H   0  0  0  0  0  0  0  0  0  0  0  0
   -4.1060    1.3011   -2.1732 H   0  0  0  0  0  0  0  0  0  0  0  0
   -4.8121    3.3577   -3.1718 H   0  0  0  0  0  0  0  0  0  0  0  0
   -5.1653    5.1091   -4.7464 H   0  0  0  0  0  0  0  0  0  0  0  0
   -5.6394    6.7718   -4.2475 H   0  0  0  0  0  0  0  0  0  0  0  0
   -5.9422    5.4433   -3.1244 H   0  0  0  0  0  0  0  0  0  0  0  0
   -1.2785    5.3603   -1.5966 H   0  0  0  0  0  0  0  0  0  0  0  0
   -0.5595    3.1974   -0.5665 H   0  0  0  0  0  0  0  0  0  0  0  0
   -2.6700   -1.5981   -6.8803 H   0  0  0  0  0  0  0  0  0  0  0  0
  1  2  2  3
  2  3  1  0
  3  4  2  0
  3  5  1  0
  5  6  2  0
  6  7  1  0
  7  8  1  0
  7  9  2  0
  9 10  1  0
  9 11  1  0
 11 12  2  0
 12 13  1  0
 13 14  2  3
 14 15  1  0
 15 16  3  0
 14 17  1  0
 17 18  3  0
  1 19  1  0
 19 20  2  0
 20 21  1  0
 21 22  1  0
 22 23  2  0
 23 24  2  0
 21 25  2  0
 25 26  1  0
 26 27  2  0
 27 28  1  0
 28 29  1  0
 29 30  2  0
 25 31  1  0
 31 32  2  0
 32 33  1  0
 33 34  1  0
 34 35  2  0
 35 36  1  0
 36 37  2  0
 37 38  1  0
 38 39  1  0
 37 40  1  0
 40 41  2  0
 33 42  1  0
 42 43  2  0
 43 44  1  0
 44 45  2  0
 45 46  1  0
 46 47  1  0
 45 48  1  0
 48 49  2  0
 32 50  1  0
 50 51  1  0
 51 52  1  0
 52 53  2  0
 53 54  1  0
 54 55  1  0
 55 56  2  0
 56 57  1  0
 57 58  2  0
 58 59  1  0
 59 60  1  0
 58 61  1  0
 61 62  2  0
 54 63  1  0
 63 64  2  0
 64 65  1  0
 65 66  2  0
 66 67  1  0
 67 68  1  0
 66 69  1  0
 69 70  2  0
 53 71  1  0
 71 72  1  0
 52 73  1  0
 73 74  2  0
 74 75  1  0
 75 76  1  0
 76 77  2  0
 77 78  2  0
 75 79  2  0
 79 80  1  0
 80 81  2  0
 81 82  1  0
 82 83  1  0
 83 84  2  0
 79 85  1  0
 85 86  2  3
 86 87  1  0
 87 88  2  0
 87 89  1  0
 89 90  2  0
 90 91  1  0
 90 92  1  0
 92 93  1  0
 92 94  2  0
 94 95  1  0
 94 96  1  0
 96 97  1  0
 96 98  2  0
 98 99  1  0
 99100  2  3
100101  1  0
101102  3  0
100103  1  0
103104  3  0
 13  2  1  0
 30 19  1  0
 72 31  1  0
 84 73  1  0
 99 86  1  0
 12  5  1  0
 24 20  1  0
 30 26  1  0
 41 34  1  0
 49 42  1  0
 71 50  2  0
 78 74  1  0
 84 80  1  0
 98 89  1  0
 62 55  1  0
 70 63  1  0
  1105  1  0
  6106  1  0
 11107  1  0
 35108  1  0
 36109  1  0
 39110  1  0
 39111  1  0
 39112  1  0
 40113  1  0
 41114  1  0
 43115  1  0
 44116  1  0
 47117  1  0
 47118  1  0
 47119  1  0
 48120  1  0
 49121  1  0
 56122  1  0
 57123  1  0
 60124  1  0
 60125  1  0
 60126  1  0
 61127  1  0
 62128  1  0
 64129  1  0
 65130  1  0
 68131  1  0
 68132  1  0
 68133  1  0
 69134  1  0
 70135  1  0
 85136  1  0
M  END

