
     RDKit          3D

196215  0  0  0  0  0  0  0  0999 V2000
   -7.8922    1.0264   -0.1946 C   0  0  0  0  0  0  0  0  0  0  0  0
   -8.7040    0.9783   -1.2678 C   0  0  0  0  0  0  0  0  0  0  0  0
   -9.3483    2.1217   -1.9258 C   0  0  0  0  0  0  0  0  0  0  0  0
   -9.2058    3.3375   -1.6285 O   0  0  0  0  0  0  0  0  0  0  0  0
  -10.3591    1.6126   -2.8283 C   0  0  0  0  0  0  0  0  0  0  0  0
  -11.2076    2.3404   -3.6601 C   0  0  0  0  0  0  0  0  0  0  0  0
  -12.1271    1.6447   -4.4579 C   0  0  0  0  0  0  0  0  0  0  0  0
  -13.1955    2.5374   -5.5255 Cl  0  0  0  0  0  0  0  0  0  0  0  0
  -12.1878    0.2410   -4.4025 C   0  0  0  0  0  0  0  0  0  0  0  0
  -13.0686   -0.4367   -5.1818 F   0  0  0  0  0  0  0  0  0  0  0  0
  -11.3300   -0.4711   -3.5492 C   0  0  0  0  0  0  0  0  0  0  0  0
  -10.4075    0.2302   -2.7547 C   0  0  0  0  0  0  0  0  0  0  0  0
   -9.3545   -0.2546   -1.8199 C   0  0  0  0  0  0  0  0  0  0  0  0
   -8.9243   -1.5389   -1.6628 C   0  0  0  0  0  0  0  0  0  0  0  0
   -7.6646   -1.8609   -1.0401 C   0  0  0  0  0  0  0  0  0  0  0  0
   -6.6540   -2.1328   -0.5410 N   0  0  0  0  0  0  0  0  0  0  0  0
   -9.6614   -2.6769   -2.1379 C   0  0  0  0  0  0  0  0  0  0  0  0
  -10.2423   -3.6074   -2.4971 N   0  0  0  0  0  0  0  0  0  0  0  0
   -6.9641    2.1199    0.1590 C   0  0  0  0  0  0  0  0  0  0  0  0
   -6.0812    2.0158    1.2287 C   0  0  0  0  0  0  0  0  0  0  0  0
   -5.0051    2.9122    1.1639 C   0  0  0  0  0  0  0  0  0  0  0  0
   -3.8833    2.9096    2.0160 C   0  0  0  0  0  0  0  0  0  0  0  0
   -3.7237    1.9279    3.1080 C   0  0  0  0  0  0  0  0  0  0  0  0
   -3.7027    0.5452    2.9567 C   0  0  0  0  0  0  0  0  0  0  0  0
   -3.4348   -0.1415    4.1465 C   0  0  0  0  0  0  0  0  0  0  0  0
   -3.2273    0.7019    5.2333 C   0  0  0  0  0  0  0  0  0  0  0  0
   -2.8549    0.2649    6.6184 C   0  0  0  0  0  0  0  0  0  0  0  0
   -3.8740    0.7529    7.6480 C   0  0  0  0  0  0  0  0  0  0  0  0
   -3.3703    2.2983    4.7138 S   0  0  0  0  0  0  0  0  0  0  0  0
   -2.8234    3.7546    1.6582 C   0  0  0  0  0  0  0  0  0  0  0  0
   -2.8659    4.6051    0.5493 C   0  0  0  0  0  0  0  0  0  0  0  0
   -4.0339    4.6953   -0.2404 C   0  0  0  0  0  0  0  0  0  0  0  0
   -4.1509    5.6990   -1.3340 C   0  0  0  0  0  0  0  0  0  0  0  0
   -3.6686    7.0088   -1.2814 C   0  0  0  0  0  0  0  0  0  0  0  0
   -3.9566    7.7670   -2.4197 C   0  0  0  0  0  0  0  0  0  0  0  0
   -4.6702    7.0637   -3.3802 C   0  0  0  0  0  0  0  0  0  0  0  0
   -5.2441    7.6406   -4.6435 C   0  0  0  0  0  0  0  0  0  0  0  0
   -6.6791    8.1001   -4.4215 C   0  0  0  0  0  0  0  0  0  0  0  0
   -4.9595    5.5126   -2.8044 S   0  0  0  0  0  0  0  0  0  0  0  0
   -5.0653    3.7799    0.0643 C   0  0  0  0  0  0  0  0  0  0  0  0
   -6.4149    3.3632   -0.8439 S   0  0  0  0  0  0  0  0  0  0  0  0
   -1.6026    5.1112    0.1955 C   0  0  0  0  0  0  0  0  0  0  0  0
   -0.5657    4.6146    0.9885 C   0  0  0  0  0  0  0  0  0  0  0  0
   -1.2364    3.6327    2.1803 S   0  0  0  0  0  0  0  0  0  0  0  0
    0.8133    4.4008    0.5293 C   0  0  0  0  0  0  0  0  0  0  0  0
    1.1537    3.9826   -0.7736 C   0  0  0  0  0  0  0  0  0  0  0  0
    0.3201    4.1264   -1.9348 N   0  0  0  0  0  0  0  0  0  0  0  0
    0.8119    5.0305   -2.9378 C   0  0  0  0  0  0  0  0  0  0  0  0
    0.9510    6.3911   -2.6393 C   0  0  0  0  0  0  0  0  0  0  0  0
    1.5359    7.2580   -3.5630 C   0  0  0  0  0  0  0  0  0  0  0  0
    2.0066    6.7660   -4.7836 C   0  0  0  0  0  0  0  0  0  0  0  0
    2.7841    7.8821   -5.9542 S   0  0  0  0  0  0  0  0  0  0  0  0
    4.4471    7.6667   -5.2475 C   0  0  0  0  0  0  0  0  0  0  0  0
    1.8618    5.4094   -5.0905 C   0  0  0  0  0  0  0  0  0  0  0  0
    1.2646    4.5410   -4.1696 C   0  0  0  0  0  0  0  0  0  0  0  0
   -0.8001    3.2431   -2.1978 C   0  0  0  0  0  0  0  0  0  0  0  0
   -1.7854    3.6079   -3.1413 C   0  0  0  0  0  0  0  0  0  0  0  0
   -2.8852    2.7763   -3.3862 C   0  0  0  0  0  0  0  0  0  0  0  0
   -3.0194    1.5689   -2.6940 C   0  0  0  0  0  0  0  0  0  0  0  0
   -4.4328    0.5060   -3.0000 S   0  0  0  0  0  0  0  0  0  0  0  0
   -3.6766   -0.2857   -4.4583 C   0  0  0  0  0  0  0  0  0  0  0  0
   -2.0571    1.1973   -1.7489 C   0  0  0  0  0  0  0  0  0  0  0  0
   -0.9582    2.0266   -1.4952 C   0  0  0  0  0  0  0  0  0  0  0  0
    2.3357    3.2526   -0.7989 C   0  0  0  0  0  0  0  0  0  0  0  0
    2.8424    2.0640   -1.8600 S   0  0  0  0  0  0  0  0  0  0  0  0
    3.8641    1.2814   -0.7465 C   0  0  0  0  0  0  0  0  0  0  0  0
    3.8264    2.0025    0.4705 C   0  0  0  0  0  0  0  0  0  0  0  0
    4.5161    1.6069    1.6739 N   0  0  0  0  0  0  0  0  0  0  0  0
    5.9460    1.3887    1.6202 C   0  0  0  0  0  0  0  0  0  0  0  0
    6.5443    0.3524    2.3630 C   0  0  0  0  0  0  0  0  0  0  0  0
    7.9138    0.1014    2.2539 C   0  0  0  0  0  0  0  0  0  0  0  0
    8.7038    0.8847    1.4075 C   0  0  0  0  0  0  0  0  0  0  0  0
   10.4526    0.5258    1.2195 S   0  0  0  0  0  0  0  0  0  0  0  0
   10.1751   -0.6040   -0.1797 C   0  0  0  0  0  0  0  0  0  0  0  0
    8.1264    1.9356    0.6896 C   0  0  0  0  0  0  0  0  0  0  0  0
    6.7564    2.1841    0.7888 C   0  0  0  0  0  0  0  0  0  0  0  0
    3.7824    1.4156    2.9029 C   0  0  0  0  0  0  0  0  0  0  0  0
    4.3065    1.8807    4.1195 C   0  0  0  0  0  0  0  0  0  0  0  0
    3.5981    1.6929    5.3102 C   0  0  0  0  0  0  0  0  0  0  0  0
    2.3619    1.0402    5.2952 C   0  0  0  0  0  0  0  0  0  0  0  0
    1.4836    0.7525    6.8303 S   0  0  0  0  0  0  0  0  0  0  0  0
    2.2797   -0.8624    7.1012 C   0  0  0  0  0  0  0  0  0  0  0  0
    1.8190    0.5957    4.0861 C   0  0  0  0  0  0  0  0  0  0  0  0
    2.5264    0.7825    2.8944 C   0  0  0  0  0  0  0  0  0  0  0  0
    2.9409    3.0802    0.4038 C   0  0  0  0  0  0  0  0  0  0  0  0
    2.0344    3.8491    1.5849 S   0  0  0  0  0  0  0  0  0  0  0  0
    4.1543   -0.1632   -0.8679 C   0  0  0  0  0  0  0  0  0  0  0  0
    3.8532   -0.9348   -1.9979 C   0  0  0  0  0  0  0  0  0  0  0  0
    3.6628   -2.3029   -1.7125 C   0  0  0  0  0  0  0  0  0  0  0  0
    3.1329   -3.2729   -2.5945 C   0  0  0  0  0  0  0  0  0  0  0  0
    2.8320   -2.9555   -4.0055 C   0  0  0  0  0  0  0  0  0  0  0  0
    3.7294   -2.4429   -4.9348 C   0  0  0  0  0  0  0  0  0  0  0  0
    3.1406   -2.1581   -6.1720 C   0  0  0  0  0  0  0  0  0  0  0  0
    1.7829   -2.4514   -6.2200 C   0  0  0  0  0  0  0  0  0  0  0  0
    0.8773   -2.1927   -7.3892 C   0  0  0  0  0  0  0  0  0  0  0  0
   -0.0417   -3.3798   -7.6717 C   0  0  0  0  0  0  0  0  0  0  0  0
    1.3106   -3.0324   -4.7142 S   0  0  0  0  0  0  0  0  0  0  0  0
    2.7697   -4.5099   -2.0323 C   0  0  0  0  0  0  0  0  0  0  0  0
    2.8967   -4.7843   -0.6654 C   0  0  0  0  0  0  0  0  0  0  0  0
    3.4462   -3.8314    0.2076 C   0  0  0  0  0  0  0  0  0  0  0  0
    3.4271   -3.9992    1.6738 C   0  0  0  0  0  0  0  0  0  0  0  0
    2.2897   -4.2355    2.4413 C   0  0  0  0  0  0  0  0  0  0  0  0
    2.5330   -4.2201    3.8165 C   0  0  0  0  0  0  0  0  0  0  0  0
    3.8597   -3.9481    4.1343 C   0  0  0  0  0  0  0  0  0  0  0  0
    4.4319   -3.8713    5.5139 C   0  0  0  0  0  0  0  0  0  0  0  0
    5.2141   -5.1385    5.8404 C   0  0  0  0  0  0  0  0  0  0  0  0
    4.7305   -3.7452    2.7091 S   0  0  0  0  0  0  0  0  0  0  0  0
    3.8388   -2.6079   -0.3585 C   0  0  0  0  0  0  0  0  0  0  0  0
    4.2099   -1.2017    0.4567 S   0  0  0  0  0  0  0  0  0  0  0  0
    2.3803   -6.0346   -0.3005 C   0  0  0  0  0  0  0  0  0  0  0  0
    1.8241   -6.7241   -1.3740 C   0  0  0  0  0  0  0  0  0  0  0  0
    2.0342   -5.8248   -2.7874 S   0  0  0  0  0  0  0  0  0  0  0  0
    1.1207   -8.0139   -1.3017 C   0  0  0  0  0  0  0  0  0  0  0  0
    0.3378   -8.3818   -0.2731 C   0  0  0  0  0  0  0  0  0  0  0  0
   -0.0000   -9.7755    0.0204 C   0  0  0  0  0  0  0  0  0  0  0  0
    0.0938  -10.7396   -0.7820 O   0  0  0  0  0  0  0  0  0  0  0  0
   -0.3689   -9.8636    1.4291 C   0  0  0  0  0  0  0  0  0  0  0  0
   -0.5839  -10.9981    2.2234 C   0  0  0  0  0  0  0  0  0  0  0  0
   -0.6741  -12.6035    1.5000 Cl  0  0  0  0  0  0  0  0  0  0  0  0
   -0.6869  -10.8296    3.6186 C   0  0  0  0  0  0  0  0  0  0  0  0
   -0.9609  -12.2329    4.6541 Cl  0  0  0  0  0  0  0  0  0  0  0  0
   -0.5253   -9.5466    4.1928 C   0  0  0  0  0  0  0  0  0  0  0  0
   -0.5565   -9.3580    5.9457 Cl  0  0  0  0  0  0  0  0  0  0  0  0
   -0.3091   -8.4205    3.3693 C   0  0  0  0  0  0  0  0  0  0  0  0
    0.1513   -6.8783    4.0898 Cl  0  0  0  0  0  0  0  0  0  0  0  0
   -0.3246   -8.5930    1.9762 C   0  0  0  0  0  0  0  0  0  0  0  0
   -0.1145   -7.5906    0.8979 C   0  0  0  0  0  0  0  0  0  0  0  0
   -0.8002   -6.4197    0.8103 C   0  0  0  0  0  0  0  0  0  0  0  0
   -1.7741   -6.0423    1.8029 C   0  0  0  0  0  0  0  0  0  0  0  0
   -2.5779   -5.7715    2.5862 N   0  0  0  0  0  0  0  0  0  0  0  0
   -0.8476   -5.6427   -0.4075 C   0  0  0  0  0  0  0  0  0  0  0  0
   -0.9020   -5.0080   -1.3720 N   0  0  0  0  0  0  0  0  0  0  0  0
   -7.7944    0.1419    0.4189 H   0  0  0  0  0  0  0  0  0  0  0  0
  -11.1488    3.4189   -3.7007 H   0  0  0  0  0  0  0  0  0  0  0  0
  -11.4123   -1.5412   -3.5376 H   0  0  0  0  0  0  0  0  0  0  0  0
   -6.1651    1.2356    1.9731 H   0  0  0  0  0  0  0  0  0  0  0  0
   -3.8440    0.0471    2.0056 H   0  0  0  0  0  0  0  0  0  0  0  0
   -3.3630   -1.2170    4.2011 H   0  0  0  0  0  0  0  0  0  0  0  0
   -1.8511    0.6725    6.8661 H   0  0  0  0  0  0  0  0  0  0  0  0
   -2.8022   -0.8493    6.6595 H   0  0  0  0  0  0  0  0  0  0  0  0
   -3.8270    1.8600    7.7385 H   0  0  0  0  0  0  0  0  0  0  0  0
   -4.9019    0.4434    7.3555 H   0  0  0  0  0  0  0  0  0  0  0  0
   -3.6386    0.3031    8.6320 H   0  0  0  0  0  0  0  0  0  0  0  0
   -3.1437    7.4189   -0.4314 H   0  0  0  0  0  0  0  0  0  0  0  0
   -3.6723    8.8022   -2.5318 H   0  0  0  0  0  0  0  0  0  0  0  0
   -5.2268    6.8706   -5.4450 H   0  0  0  0  0  0  0  0  0  0  0  0
   -4.6248    8.5027   -4.9787 H   0  0  0  0  0  0  0  0  0  0  0  0
   -7.0602    8.5710   -5.3526 H   0  0  0  0  0  0  0  0  0  0  0  0
   -6.7229    8.8457   -3.6019 H   0  0  0  0  0  0  0  0  0  0  0  0
   -7.3296    7.2349   -4.1664 H   0  0  0  0  0  0  0  0  0  0  0  0
   -1.4182    5.6684   -0.7118 H   0  0  0  0  0  0  0  0  0  0  0  0
    0.6314    6.7706   -1.6751 H   0  0  0  0  0  0  0  0  0  0  0  0
    1.6641    8.3055   -3.3080 H   0  0  0  0  0  0  0  0  0  0  0  0
    4.4541    7.9720   -4.1769 H   0  0  0  0  0  0  0  0  0  0  0  0
    4.7534    6.6045   -5.3289 H   0  0  0  0  0  0  0  0  0  0  0  0
    5.1689    8.2963   -5.8063 H   0  0  0  0  0  0  0  0  0  0  0  0
    2.2200    5.0270   -6.0400 H   0  0  0  0  0  0  0  0  0  0  0  0
    1.1761    3.4893   -4.4067 H   0  0  0  0  0  0  0  0  0  0  0  0
   -1.7204    4.5512   -3.6694 H   0  0  0  0  0  0  0  0  0  0  0  0
   -3.6338    3.0708   -4.1091 H   0  0  0  0  0  0  0  0  0  0  0  0
   -4.2753   -1.1784   -4.7431 H   0  0  0  0  0  0  0  0  0  0  0  0
   -3.7022    0.4235   -5.3102 H   0  0  0  0  0  0  0  0  0  0  0  0
   -2.6330   -0.5927   -4.2466 H   0  0  0  0  0  0  0  0  0  0  0  0
   -2.1643    0.2683   -1.2032 H   0  0  0  0  0  0  0  0  0  0  0  0
   -0.2346    1.7218   -0.7520 H   0  0  0  0  0  0  0  0  0  0  0  0
    5.9419   -0.2891    2.9994 H   0  0  0  0  0  0  0  0  0  0  0  0
    8.3562   -0.7165    2.8143 H   0  0  0  0  0  0  0  0  0  0  0  0
   11.1518   -0.9767   -0.5469 H   0  0  0  0  0  0  0  0  0  0  0  0
    9.5555   -1.4662    0.1422 H   0  0  0  0  0  0  0  0  0  0  0  0
    9.6627   -0.0724   -1.0109 H   0  0  0  0  0  0  0  0  0  0  0  0
    8.7334    2.5473    0.0324 H   0  0  0  0  0  0  0  0  0  0  0  0
    6.3228    2.9934    0.2134 H   0  0  0  0  0  0  0  0  0  0  0  0
    5.2601    2.3958    4.1448 H   0  0  0  0  0  0  0  0  0  0  0  0
    4.0172    2.0536    6.2425 H   0  0  0  0  0  0  0  0  0  0  0  0
    1.9745   -1.2601    8.0899 H   0  0  0  0  0  0  0  0  0  0  0  0
    3.3849   -0.7584    7.0856 H   0  0  0  0  0  0  0  0  0  0  0  0
    1.9639   -1.5755    6.3120 H   0  0  0  0  0  0  0  0  0  0  0  0
    0.8550    0.0967    4.0675 H   0  0  0  0  0  0  0  0  0  0  0  0
    2.0935    0.4263    1.9659 H   0  0  0  0  0  0  0  0  0  0  0  0
    3.6333   -0.4981   -2.9609 H   0  0  0  0  0  0  0  0  0  0  0  0
    4.7722   -2.2651   -4.7224 H   0  0  0  0  0  0  0  0  0  0  0  0
    3.6951   -1.7453   -7.0070 H   0  0  0  0  0  0  0  0  0  0  0  0
    0.2634   -1.2875   -7.1875 H   0  0  0  0  0  0  0  0  0  0  0  0
    1.4919   -1.9990   -8.2966 H   0  0  0  0  0  0  0  0  0  0  0  0
   -0.7825   -3.5017   -6.8520 H   0  0  0  0  0  0  0  0  0  0  0  0
    0.5579   -4.3065   -7.7710 H   0  0  0  0  0  0  0  0  0  0  0  0
   -0.5948   -3.2064   -8.6205 H   0  0  0  0  0  0  0  0  0  0  0  0
    1.3046   -4.3822    2.0202 H   0  0  0  0  0  0  0  0  0  0  0  0
    1.7653   -4.3727    4.5605 H   0  0  0  0  0  0  0  0  0  0  0  0
    5.1058   -2.9905    5.5841 H   0  0  0  0  0  0  0  0  0  0  0  0
    3.6176   -3.7407    6.2568 H   0  0  0  0  0  0  0  0  0  0  0  0
    5.6007   -5.0821    6.8774 H   0  0  0  0  0  0  0  0  0  0  0  0
    4.5565   -6.0304    5.7525 H   0  0  0  0  0  0  0  0  0  0  0  0
    6.0779   -5.2467    5.1493 H   0  0  0  0  0  0  0  0  0  0  0  0
    2.3942   -6.4244    0.7078 H   0  0  0  0  0  0  0  0  0  0  0  0
    1.3118   -8.7237   -2.0999 H   0  0  0  0  0  0  0  0  0  0  0  0
  1  2  2  3
  2  3  1  0
  3  4  2  0
  3  5  1  0
  5  6  2  0
  6  7  1  0
  7  8  1  0
  7  9  2  0
  9 10  1  0
  9 11  1  0
 11 12  2  0
 12 13  1  0
 13 14  2  3
 14 15  1  0
 15 16  3  0
 14 17  1  0
 17 18  3  0
  1 19  1  0
 19 20  2  0
 20 21  1  0
 21 22  2  0
 22 23  1  0
 23 24  2  0
 24 25  1  0
 25 26  2  0
 26 27  1  0
 27 28  1  0
 26 29  1  0
 22 30  1  0
 30 31  2  0
 31 32  1  0
 32 33  1  0
 33 34  2  0
 34 35  1  0
 35 36  2  0
 36 37  1  0
 37 38  1  0
 36 39  1  0
 32 40  2  0
 40 41  1  0
 31 42  1  0
 42 43  2  0
 43 44  1  0
 43 45  1  0
 45 46  2  0
 46 47  1  0
 47 48  1  0
 48 49  2  0
 49 50  1  0
 50 51  2  0
 51 52  1  0
 52 53  1  0
 51 54  1  0
 54 55  2  0
 47 56  1  0
 56 57  2  0
 57 58  1  0
 58 59  2  0
 59 60  1  0
 60 61  1  0
 59 62  1  0
 62 63  2  0
 46 64  1  0
 64 65  1  0
 65 66  1  0
 66 67  2  0
 67 68  1  0
 68 69  1  0
 69 70  2  0
 70 71  1  0
 71 72  2  0
 72 73  1  0
 73 74  1  0
 72 75  1  0
 75 76  2  0
 68 77  1  0
 77 78  2  0
 78 79  1  0
 79 80  2  0
 80 81  1  0
 81 82  1  0
 80 83  1  0
 83 84  2  0
 67 85  1  0
 85 86  1  0
 66 87  1  0
 87 88  2  0
 88 89  1  0
 89 90  2  0
 90 91  1  0
 91 92  2  0
 92 93  1  0
 93 94  2  0
 94 95  1  0
 95 96  1  0
 94 97  1  0
 90 98  1  0
 98 99  2  0
 99100  1  0
100101  1  0
101102  2  0
102103  1  0
103104  2  0
104105  1  0
105106  1  0
104107  1  0
100108  2  0
108109  1  0
 99110  1  0
110111  2  0
111112  1  0
111113  1  0
113114  2  3
114115  1  0
115116  2  0
115117  1  0
117118  2  0
118119  1  0
118120  1  0
120121  1  0
120122  2  0
122123  1  0
122124  1  0
124125  1  0
124126  2  0
126127  1  0
127128  2  3
128129  1  0
129130  3  0
128131  1  0
131132  3  0
 13  2  1  0
 41 19  1  0
 86 45  1  0
109 87  1  0
127114  1  0
 12  5  1  0
 40 21  1  0
 55 48  1  0
 63 56  1  0
 85 64  2  0
108 89  1  0
126117  1  0
 29 23  1  0
 44 30  1  0
 76 69  1  0
 84 77  1  0
 97 91  1  0
112 98  1  0
 39 33  1  0
107101  1  0
  1133  1  0
  6134  1  0
 11135  1  0
 20136  1  0
 24137  1  0
 25138  1  0
 27139  1  0
 27140  1  0
 28141  1  0
 28142  1  0
 28143  1  0
 34144  1  0
 35145  1  0
 37146  1  0
 37147  1  0
 38148  1  0
 38149  1  0
 38150  1  0
 42151  1  0
 49152  1  0
 50153  1  0
 53154  1  0
 53155  1  0
 53156  1  0
 54157  1  0
 55158  1  0
 57159  1  0
 58160  1  0
 61161  1  0
 61162  1  0
 61163  1  0
 62164  1  0
 63165  1  0
 70166  1  0
 71167  1  0
 74168  1  0
 74169  1  0
 74170  1  0
 75171  1  0
 76172  1  0
 78173  1  0
 79174  1  0
 82175  1  0
 82176  1  0
 82177  1  0
 83178  1  0
 84179  1  0
 88180  1  0
 92181  1  0
 93182  1  0
 95183  1  0
 95184  1  0
 96185  1  0
 96186  1  0
 96187  1  0
102188  1  0
103189  1  0
105190  1  0
105191  1  0
106192  1  0
106193  1  0
106194  1  0
110195  1  0
113196  1  0
M  END

