
     RDKit          3D

165180  0  0  0  0  0  0  0  0999 V2000
   -1.9350   -9.6863   -2.6539 C   0  0  0  0  0  0  0  0  0  0  0  0
   -0.5929   -9.5439   -2.5697 C   0  0  0  0  0  0  0  0  0  0  0  0
    0.1220   -8.2609   -2.6631 C   0  0  0  0  0  0  0  0  0  0  0  0
   -0.3992   -7.1256   -2.8296 O   0  0  0  0  0  0  0  0  0  0  0  0
    1.5430   -8.5096   -2.6369 C   0  0  0  0  0  0  0  0  0  0  0  0
    2.5689   -7.5684   -2.6277 C   0  0  0  0  0  0  0  0  0  0  0  0
    3.8849   -8.0174   -2.4929 C   0  0  0  0  0  0  0  0  0  0  0  0
    5.2069   -6.8564   -2.4646 Cl  0  0  0  0  0  0  0  0  0  0  0  0
    4.1455   -9.3957   -2.3432 C   0  0  0  0  0  0  0  0  0  0  0  0
    5.4170   -9.8317   -2.1586 F   0  0  0  0  0  0  0  0  0  0  0  0
    3.0915  -10.3253   -2.3541 C   0  0  0  0  0  0  0  0  0  0  0  0
    1.7744   -9.8702   -2.5391 C   0  0  0  0  0  0  0  0  0  0  0  0
    0.4683  -10.6064   -2.5254 C   0  0  0  0  0  0  0  0  0  0  0  0
    0.2952  -11.9511   -2.4381 C   0  0  0  0  0  0  0  0  0  0  0  0
   -0.9755  -12.5671   -2.1672 C   0  0  0  0  0  0  0  0  0  0  0  0
   -1.9954  -13.0695   -1.9455 N   0  0  0  0  0  0  0  0  0  0  0  0
    1.3792  -12.8824   -2.6236 C   0  0  0  0  0  0  0  0  0  0  0  0
    2.2419  -13.6376   -2.7816 N   0  0  0  0  0  0  0  0  0  0  0  0
   -2.8594   -8.5513   -2.4824 C   0  0  0  0  0  0  0  0  0  0  0  0
   -2.7702   -7.7619   -1.3231 C   0  0  0  0  0  0  0  0  0  0  0  0
   -3.5119   -6.5887   -1.2635 C   0  0  0  0  0  0  0  0  0  0  0  0
   -3.3483   -5.4705   -0.3454 C   0  0  0  0  0  0  0  0  0  0  0  0
   -2.6158   -5.4420    0.6787 O   0  0  0  0  0  0  0  0  0  0  0  0
   -4.0754   -4.3498   -0.9310 C   0  0  0  0  0  0  0  0  0  0  0  0
   -4.6795   -4.7740   -2.0987 C   0  0  0  0  0  0  0  0  0  0  0  0
   -4.3210   -6.1837   -2.3130 C   0  0  0  0  0  0  0  0  0  0  0  0
   -4.4793   -6.9822   -3.4452 C   0  0  0  0  0  0  0  0  0  0  0  0
   -3.7534   -8.1901   -3.5184 C   0  0  0  0  0  0  0  0  0  0  0  0
   -5.2440   -3.8557   -2.9848 C   0  0  0  0  0  0  0  0  0  0  0  0
   -5.1298   -2.4841   -2.6888 C   0  0  0  0  0  0  0  0  0  0  0  0
   -4.4246   -2.0394   -1.5375 C   0  0  0  0  0  0  0  0  0  0  0  0
   -3.9295   -3.0001   -0.6331 C   0  0  0  0  0  0  0  0  0  0  0  0
   -3.9590   -0.6289   -1.4510 C   0  0  0  0  0  0  0  0  0  0  0  0
   -3.4247    0.0224   -0.3142 C   0  0  0  0  0  0  0  0  0  0  0  0
   -3.5501   -0.4329    1.0462 N   0  0  0  0  0  0  0  0  0  0  0  0
   -2.3651   -0.7343    1.8274 C   0  0  0  0  0  0  0  0  0  0  0  0
   -2.3349   -0.5135    3.2221 C   0  0  0  0  0  0  0  0  0  0  0  0
   -1.1743   -0.7703    3.9605 C   0  0  0  0  0  0  0  0  0  0  0  0
   -0.0230   -1.2440    3.3231 C   0  0  0  0  0  0  0  0  0  0  0  0
    1.4831   -1.5016    4.2648 S   0  0  0  0  0  0  0  0  0  0  0  0
    1.1675   -3.2692    4.5366 C   0  0  0  0  0  0  0  0  0  0  0  0
   -0.0381   -1.4689    1.9431 C   0  0  0  0  0  0  0  0  0  0  0  0
   -1.1994   -1.2214    1.2018 C   0  0  0  0  0  0  0  0  0  0  0  0
   -4.8398   -0.3302    1.6762 C   0  0  0  0  0  0  0  0  0  0  0  0
   -5.3500   -1.4000    2.4306 C   0  0  0  0  0  0  0  0  0  0  0  0
   -6.5539   -1.2591    3.1285 C   0  0  0  0  0  0  0  0  0  0  0  0
   -7.2561   -0.0468    3.0811 C   0  0  0  0  0  0  0  0  0  0  0  0
   -8.7666    0.1539    4.0235 S   0  0  0  0  0  0  0  0  0  0  0  0
   -7.9105    0.8082    5.4918 C   0  0  0  0  0  0  0  0  0  0  0  0
   -6.7681    1.0118    2.3083 C   0  0  0  0  0  0  0  0  0  0  0  0
   -5.5658    0.8726    1.6093 C   0  0  0  0  0  0  0  0  0  0  0  0
   -2.6625    1.1332   -0.6714 C   0  0  0  0  0  0  0  0  0  0  0  0
   -1.4897    1.9983    0.1491 S   0  0  0  0  0  0  0  0  0  0  0  0
   -0.8313    2.7069   -1.2492 C   0  0  0  0  0  0  0  0  0  0  0  0
   -1.5588    2.2640   -2.3705 C   0  0  0  0  0  0  0  0  0  0  0  0
   -1.2939    2.6402   -3.7311 N   0  0  0  0  0  0  0  0  0  0  0  0
   -0.0651    2.2234   -4.3340 C   0  0  0  0  0  0  0  0  0  0  0  0
    0.2081    0.8598   -4.5057 C   0  0  0  0  0  0  0  0  0  0  0  0
    1.4211    0.4509   -5.0627 C   0  0  0  0  0  0  0  0  0  0  0  0
    2.3835    1.4025   -5.4279 C   0  0  0  0  0  0  0  0  0  0  0  0
    3.9541    0.8698   -6.1118 S   0  0  0  0  0  0  0  0  0  0  0  0
    4.6839    0.5144   -4.4778 C   0  0  0  0  0  0  0  0  0  0  0  0
    2.1123    2.7680   -5.2593 C   0  0  0  0  0  0  0  0  0  0  0  0
    0.8839    3.1760   -4.7277 C   0  0  0  0  0  0  0  0  0  0  0  0
   -2.3028    3.3422   -4.4941 C   0  0  0  0  0  0  0  0  0  0  0  0
   -2.4229    3.1454   -5.8847 C   0  0  0  0  0  0  0  0  0  0  0  0
   -3.4336    3.7879   -6.6052 C   0  0  0  0  0  0  0  0  0  0  0  0
   -4.3317    4.6420   -5.9530 C   0  0  0  0  0  0  0  0  0  0  0  0
   -5.6432    5.4589   -6.8719 S   0  0  0  0  0  0  0  0  0  0  0  0
   -6.8208    4.0825   -6.6464 C   0  0  0  0  0  0  0  0  0  0  0  0
   -4.2018    4.8669   -4.5805 C   0  0  0  0  0  0  0  0  0  0  0  0
   -3.1938    4.2240   -3.8542 C   0  0  0  0  0  0  0  0  0  0  0  0
   -2.5738    1.3883   -2.0007 C   0  0  0  0  0  0  0  0  0  0  0  0
   -3.4532    0.2385   -2.8419 S   0  0  0  0  0  0  0  0  0  0  0  0
    0.5337    3.2426   -1.2244 C   0  0  0  0  0  0  0  0  0  0  0  0
    0.7884    4.3968   -0.4701 C   0  0  0  0  0  0  0  0  0  0  0  0
    2.0733    4.6109    0.0297 C   0  0  0  0  0  0  0  0  0  0  0  0
    2.4926    5.7834    1.3592 Si  0  0  0  0  0  4  0  0  0  0  0  0
    1.2679    5.6509    2.7810 C   0  0  0  0  0  0  0  0  0  0  0  0
    1.2268    4.2365    3.3444 C   0  0  0  0  0  0  0  0  0  0  0  0
    2.7721    7.5345    0.7570 C   0  0  0  0  0  0  0  0  0  0  0  0
    1.5241    8.0788    0.0669 C   0  0  0  0  0  0  0  0  0  0  0  0
    4.0574    4.8889    1.6589 C   0  0  0  0  0  0  0  0  0  0  0  0
    4.2354    3.8528    0.7430 C   0  0  0  0  0  0  0  0  0  0  0  0
    3.1038    3.7029   -0.1992 C   0  0  0  0  0  0  0  0  0  0  0  0
    2.8911    2.6121   -1.0503 C   0  0  0  0  0  0  0  0  0  0  0  0
    1.6012    2.3785   -1.5481 C   0  0  0  0  0  0  0  0  0  0  0  0
    5.2622    2.9213    0.9410 C   0  0  0  0  0  0  0  0  0  0  0  0
    6.0639    3.0144    2.0886 C   0  0  0  0  0  0  0  0  0  0  0  0
    5.8732    4.0568    3.0256 C   0  0  0  0  0  0  0  0  0  0  0  0
    4.8626    5.0046    2.7921 C   0  0  0  0  0  0  0  0  0  0  0  0
    6.4932    4.0160    4.3698 C   0  0  0  0  0  0  0  0  0  0  0  0
    7.7665    3.6764    4.6528 C   0  0  0  0  0  0  0  0  0  0  0  0
    8.8170    3.3249    3.6910 C   0  0  0  0  0  0  0  0  0  0  0  0
    8.8765    3.6801    2.4832 O   0  0  0  0  0  0  0  0  0  0  0  0
    9.8294    2.5596    4.3911 C   0  0  0  0  0  0  0  0  0  0  0  0
   10.9379    1.9027    3.8561 C   0  0  0  0  0  0  0  0  0  0  0  0
   11.7349    1.1343    4.7137 C   0  0  0  0  0  0  0  0  0  0  0  0
   11.4034    1.0187    6.0752 C   0  0  0  0  0  0  0  0  0  0  0  0
   12.5760   -0.1929    7.3369 I   0  0  0  0  0  0  0  0  0  0  0  0
   10.2846    1.6917    6.5937 C   0  0  0  0  0  0  0  0  0  0  0  0
    9.5163    2.4965    5.7377 C   0  0  0  0  0  0  0  0  0  0  0  0
    8.2953    3.3078    6.0045 C   0  0  0  0  0  0  0  0  0  0  0  0
    7.8969    3.8018    7.2069 C   0  0  0  0  0  0  0  0  0  0  0  0
    6.8952    4.8289    7.3215 C   0  0  0  0  0  0  0  0  0  0  0  0
    6.0929    5.6566    7.4259 N   0  0  0  0  0  0  0  0  0  0  0  0
    8.5523    3.4576    8.4448 C   0  0  0  0  0  0  0  0  0  0  0  0
    9.0716    3.1894    9.4444 N   0  0  0  0  0  0  0  0  0  0  0  0
   -2.3825  -10.6408   -2.8560 H   0  0  0  0  0  0  0  0  0  0  0  0
    2.3478   -6.5123   -2.6949 H   0  0  0  0  0  0  0  0  0  0  0  0
    3.3274  -11.3570   -2.1747 H   0  0  0  0  0  0  0  0  0  0  0  0
   -2.0655   -8.0006   -0.5362 H   0  0  0  0  0  0  0  0  0  0  0  0
   -5.0875   -6.6557   -4.2784 H   0  0  0  0  0  0  0  0  0  0  0  0
   -3.8213   -8.7956   -4.4145 H   0  0  0  0  0  0  0  0  0  0  0  0
   -5.6828   -4.1779   -3.9215 H   0  0  0  0  0  0  0  0  0  0  0  0
   -5.5011   -1.7652   -3.4079 H   0  0  0  0  0  0  0  0  0  0  0  0
   -3.3158   -2.7358    0.2125 H   0  0  0  0  0  0  0  0  0  0  0  0
   -3.2026   -0.1241    3.7415 H   0  0  0  0  0  0  0  0  0  0  0  0
   -1.1717   -0.5947    5.0293 H   0  0  0  0  0  0  0  0  0  0  0  0
    1.2151   -3.8132    3.5722 H   0  0  0  0  0  0  0  0  0  0  0  0
    1.9467   -3.6731    5.2135 H   0  0  0  0  0  0  0  0  0  0  0  0
    0.1701   -3.4198    5.0067 H   0  0  0  0  0  0  0  0  0  0  0  0
    0.8489   -1.8385    1.4438 H   0  0  0  0  0  0  0  0  0  0  0  0
   -1.1774   -1.4052    0.1366 H   0  0  0  0  0  0  0  0  0  0  0  0
   -4.8008   -2.3324    2.4868 H   0  0  0  0  0  0  0  0  0  0  0  0
   -6.9254   -2.0859    3.7196 H   0  0  0  0  0  0  0  0  0  0  0  0
   -7.1334    0.0942    5.8355 H   0  0  0  0  0  0  0  0  0  0  0  0
   -7.4349    1.7822    5.2528 H   0  0  0  0  0  0  0  0  0  0  0  0
   -8.6494    0.9588    6.3061 H   0  0  0  0  0  0  0  0  0  0  0  0
   -7.3028    1.9550    2.2675 H   0  0  0  0  0  0  0  0  0  0  0  0
   -5.1792    1.7159    1.0384 H   0  0  0  0  0  0  0  0  0  0  0  0
   -0.5188    0.1151   -4.2093 H   0  0  0  0  0  0  0  0  0  0  0  0
    1.6207   -0.6065   -5.2025 H   0  0  0  0  0  0  0  0  0  0  0  0
    4.7711    1.4523   -3.8833 H   0  0  0  0  0  0  0  0  0  0  0  0
    5.6862    0.0753   -4.6124 H   0  0  0  0  0  0  0  0  0  0  0  0
    4.0495   -0.2061   -3.9207 H   0  0  0  0  0  0  0  0  0  0  0  0
    2.8447    3.5125   -5.5534 H   0  0  0  0  0  0  0  0  0  0  0  0
    0.6824    4.2324   -4.5938 H   0  0  0  0  0  0  0  0  0  0  0  0
   -1.7586    2.4725   -6.4092 H   0  0  0  0  0  0  0  0  0  0  0  0
   -3.5334    3.6072   -7.6690 H   0  0  0  0  0  0  0  0  0  0  0  0
   -6.4767    3.1968   -7.2225 H   0  0  0  0  0  0  0  0  0  0  0  0
   -7.8166    4.3914   -7.0172 H   0  0  0  0  0  0  0  0  0  0  0  0
   -6.9022    3.8168   -5.5704 H   0  0  0  0  0  0  0  0  0  0  0  0
   -4.8806    5.5385   -4.0732 H   0  0  0  0  0  0  0  0  0  0  0  0
   -3.1160    4.4106   -2.7918 H   0  0  0  0  0  0  0  0  0  0  0  0
   -0.0303    5.0234   -0.1425 H   0  0  0  0  0  0  0  0  0  0  0  0
    0.2607    5.9191    2.3918 H   0  0  0  0  0  0  0  0  0  0  0  0
    1.5528    6.3668    3.5725 H   0  0  0  0  0  0  0  0  0  0  0  0
    0.9271    3.5096    2.5572 H   0  0  0  0  0  0  0  0  0  0  0  0
    2.2193    3.9575    3.7491 H   0  0  0  0  0  0  0  0  0  0  0  0
    0.4863    4.1900    4.1710 H   0  0  0  0  0  0  0  0  0  0  0  0
    3.6262    7.5391    0.0434 H   0  0  0  0  0  0  0  0  0  0  0  0
    3.0247    8.1684    1.6307 H   0  0  0  0  0  0  0  0  0  0  0  0
    0.6592    8.0551    0.7623 H   0  0  0  0  0  0  0  0  0  0  0  0
    1.7067    9.1270   -0.2425 H   0  0  0  0  0  0  0  0  0  0  0  0
    1.2909    7.4756   -0.8378 H   0  0  0  0  0  0  0  0  0  0  0  0
    3.6663    1.8799   -1.2292 H   0  0  0  0  0  0  0  0  0  0  0  0
    1.4167    1.4420   -2.0634 H   0  0  0  0  0  0  0  0  0  0  0  0
    5.3898    2.0793    0.2778 H   0  0  0  0  0  0  0  0  0  0  0  0
    6.7640    2.2138    2.2882 H   0  0  0  0  0  0  0  0  0  0  0  0
    4.6325    5.7567    3.5369 H   0  0  0  0  0  0  0  0  0  0  0  0
    5.8000    4.1846    5.1768 H   0  0  0  0  0  0  0  0  0  0  0  0
   11.1651    1.9634    2.7996 H   0  0  0  0  0  0  0  0  0  0  0  0
   12.5993    0.6169    4.3198 H   0  0  0  0  0  0  0  0  0  0  0  0
   10.0251    1.5485    7.6261 H   0  0  0  0  0  0  0  0  0  0  0  0
  1  2  2  3
  2  3  1  0
  3  4  2  0
  3  5  1  0
  5  6  2  0
  6  7  1  0
  7  8  1  0
  7  9  2  0
  9 10  1  0
  9 11  1  0
 11 12  2  0
 12 13  1  0
 13 14  2  3
 14 15  1  0
 15 16  3  0
 14 17  1  0
 17 18  3  0
  1 19  1  0
 19 20  2  0
 20 21  1  0
 21 22  1  0
 22 23  2  0
 22 24  1  0
 24 25  2  0
 25 26  1  0
 26 27  1  0
 27 28  2  0
 25 29  1  0
 29 30  2  0
 30 31  1  0
 31 32  2  0
 31 33  1  0
 33 34  2  0
 34 35  1  0
 35 36  1  0
 36 37  2  0
 37 38  1  0
 38 39  2  0
 39 40  1  0
 40 41  1  0
 39 42  1  0
 42 43  2  0
 35 44  1  0
 44 45  2  0
 45 46  1  0
 46 47  2  0
 47 48  1  0
 48 49  1  0
 47 50  1  0
 50 51  2  0
 34 52  1  0
 52 53  1  0
 53 54  1  0
 54 55  2  0
 55 56  1  0
 56 57  1  0
 57 58  2  0
 58 59  1  0
 59 60  2  0
 60 61  1  0
 61 62  1  0
 60 63  1  0
 63 64  2  0
 56 65  1  0
 65 66  2  0
 66 67  1  0
 67 68  2  0
 68 69  1  0
 69 70  1  0
 68 71  1  0
 71 72  2  0
 55 73  1  0
 73 74  1  0
 54 75  1  0
 75 76  2  0
 76 77  1  0
 77 78  1  0
 78 79  1  0
 79 80  1  0
 78 81  1  0
 81 82  1  0
 78 83  1  0
 83 84  2  0
 84 85  1  0
 85 86  1  0
 86 87  2  0
 84 88  1  0
 88 89  2  0
 89 90  1  0
 90 91  2  0
 90 92  1  0
 92 93  2  3
 93 94  1  0
 94 95  2  0
 94 96  1  0
 96 97  2  0
 97 98  1  0
 98 99  2  0
 99100  1  0
 99101  1  0
101102  2  0
102103  1  0
103104  2  3
104105  1  0
105106  3  0
104107  1  0
107108  3  0
 13  2  1  0
 28 19  1  0
 74 33  1  0
 87 75  1  0
103 93  1  0
 12  5  1  0
 26 21  2  0
 43 36  1  0
 51 44  1  0
 73 52  2  0
 85 77  2  0
102 96  1  0
 32 24  1  0
 64 57  1  0
 72 65  1  0
 91 83  1  0
  1109  1  0
  6110  1  0
 11111  1  0
 20112  1  0
 27113  1  0
 28114  1  0
 29115  1  0
 30116  1  0
 32117  1  0
 37118  1  0
 38119  1  0
 41120  1  0
 41121  1  0
 41122  1  0
 42123  1  0
 43124  1  0
 45125  1  0
 46126  1  0
 49127  1  0
 49128  1  0
 49129  1  0
 50130  1  0
 51131  1  0
 58132  1  0
 59133  1  0
 62134  1  0
 62135  1  0
 62136  1  0
 63137  1  0
 64138  1  0
 66139  1  0
 67140  1  0
 70141  1  0
 70142  1  0
 70143  1  0
 71144  1  0
 72145  1  0
 76146  1  0
 79147  1  0
 79148  1  0
 80149  1  0
 80150  1  0
 80151  1  0
 81152  1  0
 81153  1  0
 82154  1  0
 82155  1  0
 82156  1  0
 86157  1  0
 87158  1  0
 88159  1  0
 89160  1  0
 91161  1  0
 92162  1  0
 97163  1  0
 98164  1  0
101165  1  0
M  END

