
     RDKit          3D

122135  0  0  0  0  0  0  0  0999 V2000
   -4.8227    3.4958   -3.6764 C   0  0  0  0  0  0  0  0  0  0  0  0
   -5.1693    4.6228   -3.0238 C   0  0  0  0  0  0  0  0  0  0  0  0
   -6.1981    5.5423   -3.5123 C   0  0  0  0  0  0  0  0  0  0  0  0
   -7.1175    5.2677   -4.3337 O   0  0  0  0  0  0  0  0  0  0  0  0
   -5.9488    6.8475   -2.9296 C   0  0  0  0  0  0  0  0  0  0  0  0
   -6.5891    8.0592   -3.1994 C   0  0  0  0  0  0  0  0  0  0  0  0
   -6.0800    9.2292   -2.6058 C   0  0  0  0  0  0  0  0  0  0  0  0
   -6.8537   10.7731   -2.9207 Cl  0  0  0  0  0  0  0  0  0  0  0  0
   -4.9341    9.1654   -1.7834 C   0  0  0  0  0  0  0  0  0  0  0  0
   -4.4088   10.3018   -1.2577 F   0  0  0  0  0  0  0  0  0  0  0  0
   -4.3140    7.9333   -1.5215 C   0  0  0  0  0  0  0  0  0  0  0  0
   -4.8618    6.7651   -2.0750 C   0  0  0  0  0  0  0  0  0  0  0  0
   -4.4376    5.3481   -1.9440 C   0  0  0  0  0  0  0  0  0  0  0  0
   -3.8965    4.7999   -0.8282 C   0  0  0  0  0  0  0  0  0  0  0  0
   -3.3262    5.6022    0.2199 C   0  0  0  0  0  0  0  0  0  0  0  0
   -2.8505    6.2373    1.0639 N   0  0  0  0  0  0  0  0  0  0  0  0
   -4.0373    3.3992   -0.5176 C   0  0  0  0  0  0  0  0  0  0  0  0
   -4.1571    2.2802   -0.2444 N   0  0  0  0  0  0  0  0  0  0  0  0
   -3.5971    2.7077   -3.4139 C   0  0  0  0  0  0  0  0  0  0  0  0
   -3.6980    1.3259   -3.1966 C   0  0  0  0  0  0  0  0  0  0  0  0
   -2.5898    0.5719   -2.7433 C   0  0  0  0  0  0  0  0  0  0  0  0
   -2.8820   -0.7960   -2.4331 N   0  0  0  0  0  0  0  0  0  0  0  0
   -4.4397   -0.8452   -2.7781 S   0  0  0  0  0  4  0  0  0  0  0  0
   -4.9251    0.5919   -3.2798 N   0  0  0  0  0  0  0  0  0  0  0  0
   -1.3431    1.1712   -2.5218 C   0  0  0  0  0  0  0  0  0  0  0  0
   -1.1949    2.5265   -2.8551 C   0  0  0  0  0  0  0  0  0  0  0  0
   -0.0111    3.1842   -2.7459 N   0  0  0  0  0  0  0  0  0  0  0  0
   -0.4557    4.6851   -3.2810 S   0  0  0  0  0  0  0  0  0  0  0  0
   -2.0669    4.5901   -3.6363 N   0  0  0  0  0  0  0  0  0  0  0  0
   -2.3148    3.2916   -3.3211 C   0  0  0  0  0  0  0  0  0  0  0  0
   -0.2997    0.4379   -1.7946 C   0  0  0  0  0  0  0  0  0  0  0  0
    0.4726   -0.6215   -2.2933 C   0  0  0  0  0  0  0  0  0  0  0  0
    0.6431   -0.9179   -3.6868 N   0  0  0  0  0  0  0  0  0  0  0  0
    1.0915    0.1296   -4.5710 C   0  0  0  0  0  0  0  0  0  0  0  0
    0.4927    0.2972   -5.8313 C   0  0  0  0  0  0  0  0  0  0  0  0
    1.0180    1.2141   -6.7453 C   0  0  0  0  0  0  0  0  0  0  0  0
    2.1505    1.9659   -6.4091 C   0  0  0  0  0  0  0  0  0  0  0  0
    2.8999    3.0655   -7.6114 S   0  0  0  0  0  0  0  0  0  0  0  0
    2.0038    4.5540   -7.0714 C   0  0  0  0  0  0  0  0  0  0  0  0
    2.7296    1.8270   -5.1422 C   0  0  0  0  0  0  0  0  0  0  0  0
    2.2028    0.9163   -4.2271 C   0  0  0  0  0  0  0  0  0  0  0  0
    0.5674   -2.2831   -4.1596 C   0  0  0  0  0  0  0  0  0  0  0  0
   -0.4127   -3.1624   -3.6549 C   0  0  0  0  0  0  0  0  0  0  0  0
   -0.5011   -4.4730   -4.1353 C   0  0  0  0  0  0  0  0  0  0  0  0
    0.3901   -4.9247   -5.1158 C   0  0  0  0  0  0  0  0  0  0  0  0
    0.2458   -6.5982   -5.7454 S   0  0  0  0  0  0  0  0  0  0  0  0
    1.3987   -7.3009   -4.5221 C   0  0  0  0  0  0  0  0  0  0  0  0
    1.3806   -4.0677   -5.6106 C   0  0  0  0  0  0  0  0  0  0  0  0
    1.4703   -2.7558   -5.1345 C   0  0  0  0  0  0  0  0  0  0  0  0
    1.1626   -1.2573   -1.2649 C   0  0  0  0  0  0  0  0  0  0  0  0
    2.2586   -2.5312   -1.1790 S   0  0  0  0  0  0  0  0  0  0  0  0
    2.4774   -2.3834    0.5097 C   0  0  0  0  0  0  0  0  0  0  0  0
    1.6703   -1.3441    0.9981 C   0  0  0  0  0  0  0  0  0  0  0  0
    1.6411   -0.8963    2.3630 N   0  0  0  0  0  0  0  0  0  0  0  0
    2.7482   -0.1293    2.8803 C   0  0  0  0  0  0  0  0  0  0  0  0
    3.1348   -0.2680    4.2245 C   0  0  0  0  0  0  0  0  0  0  0  0
    4.1950    0.4838    4.7364 C   0  0  0  0  0  0  0  0  0  0  0  0
    4.8801    1.3801    3.9083 C   0  0  0  0  0  0  0  0  0  0  0  0
    6.2091    2.3770    4.5787 S   0  0  0  0  0  0  0  0  0  0  0  0
    5.1098    3.7750    4.9796 C   0  0  0  0  0  0  0  0  0  0  0  0
    4.5185    1.5100    2.5630 C   0  0  0  0  0  0  0  0  0  0  0  0
    3.4502    0.7696    2.0543 C   0  0  0  0  0  0  0  0  0  0  0  0
    0.4423   -1.0885    3.1436 C   0  0  0  0  0  0  0  0  0  0  0  0
   -0.0895   -0.0343    3.9093 C   0  0  0  0  0  0  0  0  0  0  0  0
   -1.2379   -0.2314    4.6818 C   0  0  0  0  0  0  0  0  0  0  0  0
   -1.8656   -1.4819    4.6997 C   0  0  0  0  0  0  0  0  0  0  0  0
   -3.3572   -1.7323    5.6642 S   0  0  0  0  0  0  0  0  0  0  0  0
   -2.4689   -2.0298    7.2243 C   0  0  0  0  0  0  0  0  0  0  0  0
   -1.3466   -2.5300    3.9362 C   0  0  0  0  0  0  0  0  0  0  0  0
   -0.2023   -2.3352    3.1564 C   0  0  0  0  0  0  0  0  0  0  0  0
    0.9570   -0.7390   -0.0262 C   0  0  0  0  0  0  0  0  0  0  0  0
   -0.1140    0.5445   -0.1054 S   0  0  0  0  0  0  0  0  0  0  0  0
    3.2475   -3.3213    1.3392 C   0  0  0  0  0  0  0  0  0  0  0  0
    2.7209   -4.5814    1.6458 C   0  0  0  0  0  0  0  0  0  0  0  0
    3.3764   -5.4501    2.5510 C   0  0  0  0  0  0  0  0  0  0  0  0
    2.7112   -6.7032    2.7612 N   0  0  0  0  0  0  0  0  0  0  0  0
    1.4378   -6.5215    1.8165 S   0  0  0  0  0  4  0  0  0  0  0  0
    1.4936   -5.0912    1.1084 N   0  0  0  0  0  0  0  0  0  0  0  0
    4.5794   -5.0808    3.1744 C   0  0  0  0  0  0  0  0  0  0  0  0
    5.1442   -3.8415    2.8292 C   0  0  0  0  0  0  0  0  0  0  0  0
    6.3195   -3.3974    3.3497 N   0  0  0  0  0  0  0  0  0  0  0  0
    6.4503   -1.9346    2.5944 S   0  0  0  0  0  0  0  0  0  0  0  0
    5.1120   -1.7932    1.6378 N   0  0  0  0  0  0  0  0  0  0  0  0
    4.4803   -2.9640    1.9126 C   0  0  0  0  0  0  0  0  0  0  0  0
    5.2359   -5.9609    4.1697 C   0  0  0  0  0  0  0  0  0  0  0  0
    4.6483   -6.3399    5.3174 C   0  0  0  0  0  0  0  0  0  0  0  0
    3.3475   -5.8494    5.7137 C   0  0  0  0  0  0  0  0  0  0  0  0
    2.3056   -5.4521    6.0270 N   0  0  0  0  0  0  0  0  0  0  0  0
    5.3521   -7.1946    6.2377 C   0  0  0  0  0  0  0  0  0  0  0  0
    5.9114   -7.8840    6.9840 N   0  0  0  0  0  0  0  0  0  0  0  0
   -5.4828    3.1279   -4.4562 H   0  0  0  0  0  0  0  0  0  0  0  0
   -7.4446    8.0985   -3.8615 H   0  0  0  0  0  0  0  0  0  0  0  0
   -3.4082    7.9128   -0.9328 H   0  0  0  0  0  0  0  0  0  0  0  0
   -0.3670   -0.2999   -6.1104 H   0  0  0  0  0  0  0  0  0  0  0  0
    0.5657    1.3208   -7.7243 H   0  0  0  0  0  0  0  0  0  0  0  0
    1.7449    4.5053   -5.9921 H   0  0  0  0  0  0  0  0  0  0  0  0
    1.0785    4.6659   -7.6678 H   0  0  0  0  0  0  0  0  0  0  0  0
    2.6577    5.4373   -7.2325 H   0  0  0  0  0  0  0  0  0  0  0  0
    3.6086    2.4023   -4.8804 H   0  0  0  0  0  0  0  0  0  0  0  0
    2.6890    0.7868   -3.2675 H   0  0  0  0  0  0  0  0  0  0  0  0
   -1.1198   -2.8287   -2.9042 H   0  0  0  0  0  0  0  0  0  0  0  0
   -1.2653   -5.1399   -3.7486 H   0  0  0  0  0  0  0  0  0  0  0  0
    2.4302   -6.9650   -4.7461 H   0  0  0  0  0  0  0  0  0  0  0  0
    1.3628   -8.4056   -4.5846 H   0  0  0  0  0  0  0  0  0  0  0  0
    1.1149   -6.9894   -3.4940 H   0  0  0  0  0  0  0  0  0  0  0  0
    2.0779   -4.4149   -6.3638 H   0  0  0  0  0  0  0  0  0  0  0  0
    2.2475   -2.1106   -5.5212 H   0  0  0  0  0  0  0  0  0  0  0  0
    2.6178   -0.9656    4.8733 H   0  0  0  0  0  0  0  0  0  0  0  0
    4.4776    0.3715    5.7753 H   0  0  0  0  0  0  0  0  0  0  0  0
    4.3235    3.4466    5.6929 H   0  0  0  0  0  0  0  0  0  0  0  0
    4.6333    4.1635    4.0534 H   0  0  0  0  0  0  0  0  0  0  0  0
    5.7048    4.5858    5.4475 H   0  0  0  0  0  0  0  0  0  0  0  0
    5.0553    2.1948    1.9180 H   0  0  0  0  0  0  0  0  0  0  0  0
    3.1749    0.8943    1.0161 H   0  0  0  0  0  0  0  0  0  0  0  0
    0.3867    0.9395    3.9064 H   0  0  0  0  0  0  0  0  0  0  0  0
   -1.6362    0.5892    5.2671 H   0  0  0  0  0  0  0  0  0  0  0  0
   -2.1102   -1.0601    7.6309 H   0  0  0  0  0  0  0  0  0  0  0  0
   -3.1653   -2.4874    7.9582 H   0  0  0  0  0  0  0  0  0  0  0  0
   -1.5976   -2.7098    7.0713 H   0  0  0  0  0  0  0  0  0  0  0  0
   -1.8305   -3.5006    3.9467 H   0  0  0  0  0  0  0  0  0  0  0  0
    0.1904   -3.1619    2.5780 H   0  0  0  0  0  0  0  0  0  0  0  0
    6.2582   -6.2649    3.9695 H   0  0  0  0  0  0  0  0  0  0  0  0
  1  2  2  3
  2  3  1  0
  3  4  2  0
  3  5  1  0
  5  6  2  0
  6  7  1  0
  7  8  1  0
  7  9  2  0
  9 10  1  0
  9 11  1  0
 11 12  2  0
 12 13  1  0
 13 14  2  3
 14 15  1  0
 15 16  3  0
 14 17  1  0
 17 18  3  0
  1 19  1  0
 19 20  2  0
 20 21  1  0
 21 22  1  0
 22 23  2  0
 23 24  2  0
 21 25  2  0
 25 26  1  0
 26 27  2  0
 27 28  1  0
 28 29  1  0
 29 30  2  0
 25 31  1  0
 31 32  2  0
 32 33  1  0
 33 34  1  0
 34 35  2  0
 35 36  1  0
 36 37  2  0
 37 38  1  0
 38 39  1  0
 37 40  1  0
 40 41  2  0
 33 42  1  0
 42 43  2  0
 43 44  1  0
 44 45  2  0
 45 46  1  0
 46 47  1  0
 45 48  1  0
 48 49  2  0
 32 50  1  0
 50 51  1  0
 51 52  1  0
 52 53  2  0
 53 54  1  0
 54 55  1  0
 55 56  2  0
 56 57  1  0
 57 58  2  0
 58 59  1  0
 59 60  1  0
 58 61  1  0
 61 62  2  0
 54 63  1  0
 63 64  2  0
 64 65  1  0
 65 66  2  0
 66 67  1  0
 67 68  1  0
 66 69  1  0
 69 70  2  0
 53 71  1  0
 71 72  1  0
 52 73  1  0
 73 74  2  0
 74 75  1  0
 75 76  1  0
 76 77  2  0
 77 78  2  0
 75 79  2  0
 79 80  1  0
 80 81  2  0
 81 82  1  0
 82 83  1  0
 83 84  2  0
 79 85  1  0
 85 86  2  3
 86 87  1  0
 87 88  3  0
 86 89  1  0
 89 90  3  0
 13  2  1  0
 30 19  1  0
 72 31  1  0
 84 73  1  0
 12  5  1  0
 24 20  1  0
 30 26  1  0
 41 34  1  0
 49 42  1  0
 71 50  2  0
 78 74  1  0
 84 80  1  0
 62 55  1  0
 70 63  1  0
  1 91  1  0
  6 92  1  0
 11 93  1  0
 35 94  1  0
 36 95  1  0
 39 96  1  0
 39 97  1  0
 39 98  1  0
 40 99  1  0
 41100  1  0
 43101  1  0
 44102  1  0
 47103  1  0
 47104  1  0
 47105  1  0
 48106  1  0
 49107  1  0
 56108  1  0
 57109  1  0
 60110  1  0
 60111  1  0
 60112  1  0
 61113  1  0
 62114  1  0
 64115  1  0
 65116  1  0
 68117  1  0
 68118  1  0
 68119  1  0
 69120  1  0
 70121  1  0
 85122  1  0
M  END

