
     RDKit          3D

133148  0  0  0  0  0  0  0  0999 V2000
   -8.2744    0.7319    0.4905 C   0  0  0  0  0  0  0  0  0  0  0  0
   -9.1785    1.4094   -0.2481 C   0  0  0  0  0  0  0  0  0  0  0  0
  -10.5933    1.3637    0.1324 C   0  0  0  0  0  0  0  0  0  0  0  0
  -11.0874    0.6625    1.0617 O   0  0  0  0  0  0  0  0  0  0  0  0
  -11.3341    2.2883   -0.6811 C   0  0  0  0  0  0  0  0  0  0  0  0
  -12.6992    2.5754   -0.6304 C   0  0  0  0  0  0  0  0  0  0  0  0
  -13.2120    3.5476   -1.5023 C   0  0  0  0  0  0  0  0  0  0  0  0
  -14.9285    3.8993   -1.4924 Cl  0  0  0  0  0  0  0  0  0  0  0  0
  -12.3450    4.2424   -2.3701 C   0  0  0  0  0  0  0  0  0  0  0  0
  -12.8324    5.2096   -3.1842 F   0  0  0  0  0  0  0  0  0  0  0  0
  -10.9727    3.9402   -2.3923 C   0  0  0  0  0  0  0  0  0  0  0  0
  -10.4730    2.9188   -1.5603 C   0  0  0  0  0  0  0  0  0  0  0  0
   -9.0917    2.3460   -1.4332 C   0  0  0  0  0  0  0  0  0  0  0  0
   -8.1049    2.4651   -2.3701 C   0  0  0  0  0  0  0  0  0  0  0  0
   -6.8577    1.7570   -2.3429 C   0  0  0  0  0  0  0  0  0  0  0  0
   -5.8399    1.2123   -2.3743 N   0  0  0  0  0  0  0  0  0  0  0  0
   -8.2810    3.2131   -3.5830 C   0  0  0  0  0  0  0  0  0  0  0  0
   -8.4042    3.8017   -4.5706 N   0  0  0  0  0  0  0  0  0  0  0  0
   -6.8123    0.7295    0.3857 C   0  0  0  0  0  0  0  0  0  0  0  0
   -6.1593   -0.4639    0.0514 C   0  0  0  0  0  0  0  0  0  0  0  0
   -4.7553   -0.5887    0.1548 C   0  0  0  0  0  0  0  0  0  0  0  0
   -4.2463   -1.8692   -0.2483 N   0  0  0  0  0  0  0  0  0  0  0  0
   -5.5942   -2.6166   -0.6581 S   0  0  0  0  0  4  0  0  0  0  0  0
   -6.8314   -1.6327   -0.4338 N   0  0  0  0  0  0  0  0  0  0  0  0
   -3.9609    0.4548    0.6503 C   0  0  0  0  0  0  0  0  0  0  0  0
   -4.6098    1.6545    1.0104 C   0  0  0  0  0  0  0  0  0  0  0  0
   -3.9615    2.7073    1.5716 N   0  0  0  0  0  0  0  0  0  0  0  0
   -5.2181    3.7498    1.8259 S   0  0  0  0  0  0  0  0  0  0  0  0
   -6.5714    2.9641    1.2956 N   0  0  0  0  0  0  0  0  0  0  0  0
   -6.0315    1.7941    0.8702 C   0  0  0  0  0  0  0  0  0  0  0  0
   -2.5215    0.2332    0.9046 C   0  0  0  0  0  0  0  0  0  0  0  0
   -1.4361    1.0226    0.4692 C   0  0  0  0  0  0  0  0  0  0  0  0
   -1.5407    2.1184   -0.4538 N   0  0  0  0  0  0  0  0  0  0  0  0
   -1.2602    1.8597   -1.8400 C   0  0  0  0  0  0  0  0  0  0  0  0
   -0.1449    2.4449   -2.4550 C   0  0  0  0  0  0  0  0  0  0  0  0
    0.1597    2.1506   -3.7839 C   0  0  0  0  0  0  0  0  0  0  0  0
   -0.6495    1.2726   -4.5104 C   0  0  0  0  0  0  0  0  0  0  0  0
   -0.2429    0.8886   -6.2187 S   0  0  0  0  0  0  0  0  0  0  0  0
   -1.1712    2.3044   -6.8941 C   0  0  0  0  0  0  0  0  0  0  0  0
   -1.7668    0.6909   -3.9051 C   0  0  0  0  0  0  0  0  0  0  0  0
   -2.0661    0.9748   -2.5693 C   0  0  0  0  0  0  0  0  0  0  0  0
   -1.5361    3.4796    0.0152 C   0  0  0  0  0  0  0  0  0  0  0  0
   -0.6530    3.9021    1.0162 C   0  0  0  0  0  0  0  0  0  0  0  0
   -0.5727    5.2564    1.3724 C   0  0  0  0  0  0  0  0  0  0  0  0
   -1.3631    6.2003    0.7069 C   0  0  0  0  0  0  0  0  0  0  0  0
   -1.1732    7.9444    1.0824 S   0  0  0  0  0  0  0  0  0  0  0  0
   -2.6011    8.0025    2.2124 C   0  0  0  0  0  0  0  0  0  0  0  0
   -2.2647    5.7829   -0.2742 C   0  0  0  0  0  0  0  0  0  0  0  0
   -2.3412    4.4340   -0.6337 C   0  0  0  0  0  0  0  0  0  0  0  0
   -0.2223    0.3937    0.7574 C   0  0  0  0  0  0  0  0  0  0  0  0
    1.3791    0.7569    0.4304 S   0  0  0  0  0  0  0  0  0  0  0  0
    1.9698   -0.7007    1.0869 C   0  0  0  0  0  0  0  0  0  0  0  0
    0.9004   -1.5019    1.5303 C   0  0  0  0  0  0  0  0  0  0  0  0
    0.9915   -2.9058    1.8721 N   0  0  0  0  0  0  0  0  0  0  0  0
   -0.0065   -3.8334    1.3960 C   0  0  0  0  0  0  0  0  0  0  0  0
   -0.4506   -3.7781    0.0613 C   0  0  0  0  0  0  0  0  0  0  0  0
   -1.4616   -4.6353   -0.3799 C   0  0  0  0  0  0  0  0  0  0  0  0
   -2.0374   -5.5565    0.5047 C   0  0  0  0  0  0  0  0  0  0  0  0
   -3.3880   -6.5968   -0.0408 S   0  0  0  0  0  0  0  0  0  0  0  0
   -2.3037   -7.9776   -0.5144 C   0  0  0  0  0  0  0  0  0  0  0  0
   -1.5823   -5.6310    1.8218 C   0  0  0  0  0  0  0  0  0  0  0  0
   -0.5693   -4.7779    2.2662 C   0  0  0  0  0  0  0  0  0  0  0  0
    2.1421   -3.4273    2.5560 C   0  0  0  0  0  0  0  0  0  0  0  0
    2.9568   -4.3838    1.9318 C   0  0  0  0  0  0  0  0  0  0  0  0
    4.0907   -4.8734    2.5808 C   0  0  0  0  0  0  0  0  0  0  0  0
    4.4019   -4.4344    3.8751 C   0  0  0  0  0  0  0  0  0  0  0  0
    5.8738   -5.0537    4.6957 S   0  0  0  0  0  0  0  0  0  0  0  0
    5.0178   -6.4831    5.4442 C   0  0  0  0  0  0  0  0  0  0  0  0
    3.5732   -3.5085    4.5168 C   0  0  0  0  0  0  0  0  0  0  0  0
    2.4460   -3.0042    3.8566 C   0  0  0  0  0  0  0  0  0  0  0  0
   -0.3071   -0.8213    1.3545 C   0  0  0  0  0  0  0  0  0  0  0  0
   -1.9141   -1.1934    1.6230 S   0  0  0  0  0  0  0  0  0  0  0  0
    3.4010   -0.9259    1.3177 C   0  0  0  0  0  0  0  0  0  0  0  0
    3.9838   -0.4881    2.5134 C   0  0  0  0  0  0  0  0  0  0  0  0
    5.3846   -0.5272    2.7057 C   0  0  0  0  0  0  0  0  0  0  0  0
    5.8336   -0.0186    3.9681 N   0  0  0  0  0  0  0  0  0  0  0  0
    4.4338    0.3983    4.6193 S   0  0  0  0  0  4  0  0  0  0  0  0
    3.2454    0.0693    3.6068 N   0  0  0  0  0  0  0  0  0  0  0  0
    6.2435   -0.9694    1.6908 C   0  0  0  0  0  0  0  0  0  0  0  0
    5.6680   -1.4571    0.5034 C   0  0  0  0  0  0  0  0  0  0  0  0
    6.4081   -1.9298   -0.5339 N   0  0  0  0  0  0  0  0  0  0  0  0
    5.2089   -2.2846   -1.6180 S   0  0  0  0  0  0  0  0  0  0  0  0
    3.7814   -1.8842   -0.8791 N   0  0  0  0  0  0  0  0  0  0  0  0
    4.2462   -1.4319    0.3168 C   0  0  0  0  0  0  0  0  0  0  0  0
    7.7033   -0.8354    1.8531 C   0  0  0  0  0  0  0  0  0  0  0  0
    8.4145    0.1139    1.2150 C   0  0  0  0  0  0  0  0  0  0  0  0
    7.8775    1.0681    0.2089 C   0  0  0  0  0  0  0  0  0  0  0  0
    6.6680    1.2714   -0.0809 O   0  0  0  0  0  0  0  0  0  0  0  0
    9.0026    1.7800   -0.3488 C   0  0  0  0  0  0  0  0  0  0  0  0
    9.1418    2.8147   -1.2687 C   0  0  0  0  0  0  0  0  0  0  0  0
   10.4779    3.2061   -1.3678 C   0  0  0  0  0  0  0  0  0  0  0  0
   11.0734    4.4854   -2.4031 Cl  0  0  0  0  0  0  0  0  0  0  0  0
   11.4399    2.2816   -0.3137 S   0  0  0  0  0  0  0  0  0  0  0  0
   10.1465    1.3607    0.2437 C   0  0  0  0  0  0  0  0  0  0  0  0
    9.8984    0.3583    1.2918 C   0  0  0  0  0  0  0  0  0  0  0  0
   10.8038   -0.0817    2.1950 C   0  0  0  0  0  0  0  0  0  0  0  0
   12.1961    0.2655    2.0799 C   0  0  0  0  0  0  0  0  0  0  0  0
   13.3149    0.5455    1.9914 N   0  0  0  0  0  0  0  0  0  0  0  0
   10.4328   -0.8286    3.3655 C   0  0  0  0  0  0  0  0  0  0  0  0
   10.1484   -1.4146    4.3266 N   0  0  0  0  0  0  0  0  0  0  0  0
   -8.6428    0.1009    1.2936 H   0  0  0  0  0  0  0  0  0  0  0  0
  -13.3485    2.0459    0.0532 H   0  0  0  0  0  0  0  0  0  0  0  0
  -10.3301    4.5450   -3.0064 H   0  0  0  0  0  0  0  0  0  0  0  0
    0.4994    3.1108   -1.8972 H   0  0  0  0  0  0  0  0  0  0  0  0
    1.0315    2.5940   -4.2433 H   0  0  0  0  0  0  0  0  0  0  0  0
   -0.7122    3.2542   -6.5454 H   0  0  0  0  0  0  0  0  0  0  0  0
   -1.1278    2.2672   -8.0040 H   0  0  0  0  0  0  0  0  0  0  0  0
   -2.2357    2.2619   -6.5690 H   0  0  0  0  0  0  0  0  0  0  0  0
   -2.3942    0.0042   -4.4647 H   0  0  0  0  0  0  0  0  0  0  0  0
   -2.9278    0.5047   -2.1126 H   0  0  0  0  0  0  0  0  0  0  0  0
   -0.0065    3.1939    1.5200 H   0  0  0  0  0  0  0  0  0  0  0  0
    0.1366    5.5707    2.1285 H   0  0  0  0  0  0  0  0  0  0  0  0
   -2.6603    9.0173    2.6627 H   0  0  0  0  0  0  0  0  0  0  0  0
   -3.5348    7.8082    1.6414 H   0  0  0  0  0  0  0  0  0  0  0  0
   -2.4847    7.2532    3.0228 H   0  0  0  0  0  0  0  0  0  0  0  0
   -2.8871    6.5059   -0.7839 H   0  0  0  0  0  0  0  0  0  0  0  0
   -3.0311    4.1278   -1.4095 H   0  0  0  0  0  0  0  0  0  0  0  0
   -0.0216   -3.0639   -0.6335 H   0  0  0  0  0  0  0  0  0  0  0  0
   -1.8068   -4.5771   -1.4066 H   0  0  0  0  0  0  0  0  0  0  0  0
   -1.7712   -8.3675    0.3799 H   0  0  0  0  0  0  0  0  0  0  0  0
   -2.9235   -8.7918   -0.9472 H   0  0  0  0  0  0  0  0  0  0  0  0
   -1.5676   -7.6448   -1.2759 H   0  0  0  0  0  0  0  0  0  0  0  0
   -2.0220   -6.3384    2.5120 H   0  0  0  0  0  0  0  0  0  0  0  0
   -0.2432   -4.8296    3.2959 H   0  0  0  0  0  0  0  0  0  0  0  0
    2.7211   -4.7283    0.9371 H   0  0  0  0  0  0  0  0  0  0  0  0
    4.7272   -5.5910    2.0811 H   0  0  0  0  0  0  0  0  0  0  0  0
    4.4140   -6.1350    6.3071 H   0  0  0  0  0  0  0  0  0  0  0  0
    4.3653   -6.9871    4.7001 H   0  0  0  0  0  0  0  0  0  0  0  0
    5.7819   -7.2060    5.8075 H   0  0  0  0  0  0  0  0  0  0  0  0
    3.8011   -3.1782    5.5236 H   0  0  0  0  0  0  0  0  0  0  0  0
    1.8135   -2.2864    4.3592 H   0  0  0  0  0  0  0  0  0  0  0  0
    8.1730   -1.5206    2.5369 H   0  0  0  0  0  0  0  0  0  0  0  0
    8.3212    3.2627   -1.8153 H   0  0  0  0  0  0  0  0  0  0  0  0
  1  2  2  3
  2  3  1  0
  3  4  2  0
  3  5  1  0
  5  6  2  0
  6  7  1  0
  7  8  1  0
  7  9  2  0
  9 10  1  0
  9 11  1  0
 11 12  2  0
 12 13  1  0
 13 14  2  3
 14 15  1  0
 15 16  3  0
 14 17  1  0
 17 18  3  0
  1 19  1  0
 19 20  2  0
 20 21  1  0
 21 22  1  0
 22 23  2  0
 23 24  2  0
 21 25  2  0
 25 26  1  0
 26 27  2  0
 27 28  1  0
 28 29  1  0
 29 30  2  0
 25 31  1  0
 31 32  2  0
 32 33  1  0
 33 34  1  0
 34 35  2  0
 35 36  1  0
 36 37  2  0
 37 38  1  0
 38 39  1  0
 37 40  1  0
 40 41  2  0
 33 42  1  0
 42 43  2  0
 43 44  1  0
 44 45  2  0
 45 46  1  0
 46 47  1  0
 45 48  1  0
 48 49  2  0
 32 50  1  0
 50 51  1  0
 51 52  1  0
 52 53  2  0
 53 54  1  0
 54 55  1  0
 55 56  2  0
 56 57  1  0
 57 58  2  0
 58 59  1  0
 59 60  1  0
 58 61  1  0
 61 62  2  0
 54 63  1  0
 63 64  2  0
 64 65  1  0
 65 66  2  0
 66 67  1  0
 67 68  1  0
 66 69  1  0
 69 70  2  0
 53 71  1  0
 71 72  1  0
 52 73  1  0
 73 74  2  0
 74 75  1  0
 75 76  1  0
 76 77  2  0
 77 78  2  0
 75 79  2  0
 79 80  1  0
 80 81  2  0
 81 82  1  0
 82 83  1  0
 83 84  2  0
 79 85  1  0
 85 86  2  3
 86 87  1  0
 87 88  2  0
 87 89  1  0
 89 90  1  0
 90 91  2  0
 91 92  1  0
 91 93  1  0
 93 94  1  0
 94 95  1  0
 95 96  2  3
 96 97  1  0
 97 98  3  0
 96 99  1  0
 99100  3  0
 13  2  1  0
 30 19  1  0
 72 31  1  0
 84 73  1  0
 95 86  1  0
 12  5  1  0
 24 20  1  0
 30 26  1  0
 41 34  1  0
 49 42  1  0
 71 50  2  0
 78 74  1  0
 84 80  1  0
 94 89  2  0
 62 55  1  0
 70 63  1  0
  1101  1  0
  6102  1  0
 11103  1  0
 35104  1  0
 36105  1  0
 39106  1  0
 39107  1  0
 39108  1  0
 40109  1  0
 41110  1  0
 43111  1  0
 44112  1  0
 47113  1  0
 47114  1  0
 47115  1  0
 48116  1  0
 49117  1  0
 56118  1  0
 57119  1  0
 60120  1  0
 60121  1  0
 60122  1  0
 61123  1  0
 62124  1  0
 64125  1  0
 65126  1  0
 68127  1  0
 68128  1  0
 68129  1  0
 69130  1  0
 70131  1  0
 85132  1  0
 90133  1  0
M  END

