
     RDKit          3D

135149  0  0  0  0  0  0  0  0999 V2000
   -1.8798   -5.2441    4.8876 C   0  0  0  0  0  0  0  0  0  0  0  0
   -0.6140   -5.7049    5.0003 C   0  0  0  0  0  0  0  0  0  0  0  0
    0.5693   -5.1251    4.3427 C   0  0  0  0  0  0  0  0  0  0  0  0
    0.5856   -4.3848    3.3288 O   0  0  0  0  0  0  0  0  0  0  0  0
    1.7468   -5.5612    5.0626 C   0  0  0  0  0  0  0  0  0  0  0  0
    3.0643   -5.1348    4.8815 C   0  0  0  0  0  0  0  0  0  0  0  0
    4.0437   -5.5875    5.7736 C   0  0  0  0  0  0  0  0  0  0  0  0
    5.7090   -5.0420    5.5950 Cl  0  0  0  0  0  0  0  0  0  0  0  0
    3.6887   -6.4555    6.8266 C   0  0  0  0  0  0  0  0  0  0  0  0
    4.6260   -6.8732    7.7081 F   0  0  0  0  0  0  0  0  0  0  0  0
    2.3540   -6.8721    6.9893 C   0  0  0  0  0  0  0  0  0  0  0  0
    1.3834   -6.4273    6.0775 C   0  0  0  0  0  0  0  0  0  0  0  0
   -0.0947   -6.6515    6.0354 C   0  0  0  0  0  0  0  0  0  0  0  0
   -0.7802   -7.6630    6.6344 C   0  0  0  0  0  0  0  0  0  0  0  0
   -2.1652   -7.9346    6.3466 C   0  0  0  0  0  0  0  0  0  0  0  0
   -3.2809   -8.1737    6.1300 N   0  0  0  0  0  0  0  0  0  0  0  0
   -0.1366   -8.6405    7.4731 C   0  0  0  0  0  0  0  0  0  0  0  0
    0.3677   -9.4447    8.1417 N   0  0  0  0  0  0  0  0  0  0  0  0
   -2.2726   -4.1429    3.9806 C   0  0  0  0  0  0  0  0  0  0  0  0
   -2.7240   -2.9227    4.5054 C   0  0  0  0  0  0  0  0  0  0  0  0
   -2.9719   -1.8074    3.6636 C   0  0  0  0  0  0  0  0  0  0  0  0
   -3.3649   -0.6230    4.3557 N   0  0  0  0  0  0  0  0  0  0  0  0
   -3.3198   -1.1343    5.8677 S   0  0  0  0  0  4  0  0  0  0  0  0
   -2.8878   -2.6690    5.9071 N   0  0  0  0  0  0  0  0  0  0  0  0
   -2.7569   -1.8734    2.2766 C   0  0  0  0  0  0  0  0  0  0  0  0
   -2.3967   -3.1259    1.7338 C   0  0  0  0  0  0  0  0  0  0  0  0
   -2.1889   -3.3233    0.4049 N   0  0  0  0  0  0  0  0  0  0  0  0
   -1.7736   -4.9231    0.3927 S   0  0  0  0  0  0  0  0  0  0  0  0
   -1.8076   -5.4151    1.9653 N   0  0  0  0  0  0  0  0  0  0  0  0
   -2.1753   -4.2595    2.5812 C   0  0  0  0  0  0  0  0  0  0  0  0
   -2.6335   -0.6452    1.4580 C   0  0  0  0  0  0  0  0  0  0  0  0
   -1.4817    0.1616    1.5287 C   0  0  0  0  0  0  0  0  0  0  0  0
   -0.9666    0.6864    2.7621 N   0  0  0  0  0  0  0  0  0  0  0  0
    0.3584    0.3229    3.1779 C   0  0  0  0  0  0  0  0  0  0  0  0
    0.6444   -0.9949    3.5785 C   0  0  0  0  0  0  0  0  0  0  0  0
    1.8886   -1.3095    4.1277 C   0  0  0  0  0  0  0  0  0  0  0  0
    2.8645   -0.3185    4.2720 C   0  0  0  0  0  0  0  0  0  0  0  0
    4.4620   -0.7183    4.9841 S   0  0  0  0  0  0  0  0  0  0  0  0
    3.8514   -0.6866    6.6981 C   0  0  0  0  0  0  0  0  0  0  0  0
    2.5974    0.9884    3.8409 C   0  0  0  0  0  0  0  0  0  0  0  0
    1.3488    1.3069    3.3048 C   0  0  0  0  0  0  0  0  0  0  0  0
   -1.7148    1.7043    3.4797 C   0  0  0  0  0  0  0  0  0  0  0  0
   -2.7149    2.4645    2.8320 C   0  0  0  0  0  0  0  0  0  0  0  0
   -3.4762    3.3915    3.5468 C   0  0  0  0  0  0  0  0  0  0  0  0
   -3.2547    3.5884    4.9078 C   0  0  0  0  0  0  0  0  0  0  0  0
   -4.2542    4.7709    5.8154 S   0  0  0  0  0  0  0  0  0  0  0  0
   -5.5159    3.5353    6.2646 C   0  0  0  0  0  0  0  0  0  0  0  0
   -2.2524    2.8605    5.5569 C   0  0  0  0  0  0  0  0  0  0  0  0
   -1.4854    1.9265    4.8541 C   0  0  0  0  0  0  0  0  0  0  0  0
   -1.2012    0.7583    0.3082 C   0  0  0  0  0  0  0  0  0  0  0  0
    0.1070    1.6085   -0.2754 S   0  0  0  0  0  0  0  0  0  0  0  0
   -0.4919    1.7125   -1.8678 C   0  0  0  0  0  0  0  0  0  0  0  0
   -1.7823    1.1294   -1.9109 C   0  0  0  0  0  0  0  0  0  0  0  0
   -2.7496    1.4103   -2.9442 N   0  0  0  0  0  0  0  0  0  0  0  0
   -3.6557    0.3911   -3.4247 C   0  0  0  0  0  0  0  0  0  0  0  0
   -3.2783   -0.9622   -3.4239 C   0  0  0  0  0  0  0  0  0  0  0  0
   -4.1501   -1.9454   -3.9011 C   0  0  0  0  0  0  0  0  0  0  0  0
   -5.4140   -1.5871   -4.3853 C   0  0  0  0  0  0  0  0  0  0  0  0
   -6.5319   -2.8370   -5.0231 S   0  0  0  0  0  0  0  0  0  0  0  0
   -5.8125   -2.8215   -6.6946 C   0  0  0  0  0  0  0  0  0  0  0  0
   -5.7974   -0.2463   -4.3968 C   0  0  0  0  0  0  0  0  0  0  0  0
   -4.9314    0.7380   -3.9104 C   0  0  0  0  0  0  0  0  0  0  0  0
   -2.8348    2.7691   -3.4313 C   0  0  0  0  0  0  0  0  0  0  0  0
   -2.8574    3.0373   -4.8135 C   0  0  0  0  0  0  0  0  0  0  0  0
   -2.9144    4.3568   -5.2764 C   0  0  0  0  0  0  0  0  0  0  0  0
   -2.9561    5.4191   -4.3635 C   0  0  0  0  0  0  0  0  0  0  0  0
   -3.0700    7.1187   -4.9440 S   0  0  0  0  0  0  0  0  0  0  0  0
   -1.2687    7.4057   -4.8935 C   0  0  0  0  0  0  0  0  0  0  0  0
   -2.9386    5.1571   -2.9890 C   0  0  0  0  0  0  0  0  0  0  0  0
   -2.8763    3.8439   -2.5251 C   0  0  0  0  0  0  0  0  0  0  0  0
   -2.1052    0.5530   -0.6786 C   0  0  0  0  0  0  0  0  0  0  0  0
   -3.3027   -0.4839   -0.1132 S   0  0  0  0  0  0  0  0  0  0  0  0
    0.3960    2.0234   -3.0281 C   0  0  0  0  0  0  0  0  0  0  0  0
    1.4895    2.8857   -2.8387 C   0  0  0  0  0  0  0  0  0  0  0  0
    2.5478    2.9405   -3.7602 C   0  0  0  0  0  0  0  0  0  0  0  0
    3.6248    3.7135   -3.4802 F   0  0  0  0  0  0  0  0  0  0  0  0
    2.5388    2.1341   -4.9078 C   0  0  0  0  0  0  0  0  0  0  0  0
    1.3816    1.3990   -5.2015 C   0  0  0  0  0  0  0  0  0  0  0  0
    0.3198    1.3140   -4.2507 C   0  0  0  0  0  0  0  0  0  0  0  0
   -0.6860    0.4601   -4.5662 N   0  0  0  0  0  0  0  0  0  0  0  0
   -0.1998   -0.0844   -6.0421 S   0  0  0  0  0  0  0  0  0  0  0  0
    1.2479    0.6557   -6.3311 N   0  0  0  0  0  0  0  0  0  0  0  0
    3.7593    2.0350   -5.7323 C   0  0  0  0  0  0  0  0  0  0  0  0
    4.4301    0.8840   -5.9385 C   0  0  0  0  0  0  0  0  0  0  0  0
    4.0128   -0.4657   -5.5226 C   0  0  0  0  0  0  0  0  0  0  0  0
    3.2158   -0.7541   -4.5914 O   0  0  0  0  0  0  0  0  0  0  0  0
    4.7189   -1.4280   -6.3405 C   0  0  0  0  0  0  0  0  0  0  0  0
    4.5024   -2.8022   -6.4329 C   0  0  0  0  0  0  0  0  0  0  0  0
    5.2261   -3.5279   -7.3895 C   0  0  0  0  0  0  0  0  0  0  0  0
    4.9540   -5.2570   -7.5508 Cl  0  0  0  0  0  0  0  0  0  0  0  0
    6.1320   -2.8655   -8.2423 C   0  0  0  0  0  0  0  0  0  0  0  0
    6.8038   -3.5649   -9.1908 F   0  0  0  0  0  0  0  0  0  0  0  0
    6.3304   -1.4778   -8.1319 C   0  0  0  0  0  0  0  0  0  0  0  0
    5.6247   -0.7665   -7.1494 C   0  0  0  0  0  0  0  0  0  0  0  0
    5.6046    0.6912   -6.8351 C   0  0  0  0  0  0  0  0  0  0  0  0
    6.6119    1.5736   -7.0599 C   0  0  0  0  0  0  0  0  0  0  0  0
    6.6375    2.8802   -6.4445 C   0  0  0  0  0  0  0  0  0  0  0  0
    6.6577    3.9262   -5.9491 N   0  0  0  0  0  0  0  0  0  0  0  0
    7.8157    1.2061   -7.7579 C   0  0  0  0  0  0  0  0  0  0  0  0
    8.7946    0.9223   -8.3073 N   0  0  0  0  0  0  0  0  0  0  0  0
   -2.6305   -5.5552    5.5950 H   0  0  0  0  0  0  0  0  0  0  0  0
    3.3210   -4.4426    4.0892 H   0  0  0  0  0  0  0  0  0  0  0  0
    2.1025   -7.4919    7.8355 H   0  0  0  0  0  0  0  0  0  0  0  0
   -0.1151   -1.7562    3.4986 H   0  0  0  0  0  0  0  0  0  0  0  0
    2.0787   -2.3127    4.4833 H   0  0  0  0  0  0  0  0  0  0  0  0
    4.7167   -0.6547    7.3942 H   0  0  0  0  0  0  0  0  0  0  0  0
    3.2745   -1.6125    6.8941 H   0  0  0  0  0  0  0  0  0  0  0  0
    3.2036    0.1952    6.8913 H   0  0  0  0  0  0  0  0  0  0  0  0
    3.3499    1.7585    3.9399 H   0  0  0  0  0  0  0  0  0  0  0  0
    1.1449    2.3284    2.9997 H   0  0  0  0  0  0  0  0  0  0  0  0
   -2.9266    2.3413    1.7810 H   0  0  0  0  0  0  0  0  0  0  0  0
   -4.2543    3.9487    3.0363 H   0  0  0  0  0  0  0  0  0  0  0  0
   -5.9236    3.0661    5.3434 H   0  0  0  0  0  0  0  0  0  0  0  0
   -5.0773    2.7537    6.9275 H   0  0  0  0  0  0  0  0  0  0  0  0
   -6.3505    4.0393    6.8063 H   0  0  0  0  0  0  0  0  0  0  0  0
   -2.0776    3.0077    6.6150 H   0  0  0  0  0  0  0  0  0  0  0  0
   -0.7501    1.3438    5.3996 H   0  0  0  0  0  0  0  0  0  0  0  0
   -2.3043   -1.2662   -3.0635 H   0  0  0  0  0  0  0  0  0  0  0  0
   -3.8344   -2.9826   -3.9012 H   0  0  0  0  0  0  0  0  0  0  0  0
   -4.9121   -3.4715   -6.7026 H   0  0  0  0  0  0  0  0  0  0  0  0
   -6.5488   -3.2316   -7.4144 H   0  0  0  0  0  0  0  0  0  0  0  0
   -5.5331   -1.7973   -7.0111 H   0  0  0  0  0  0  0  0  0  0  0  0
   -6.7756    0.0405   -4.7705 H   0  0  0  0  0  0  0  0  0  0  0  0
   -5.2694    1.7663   -3.9070 H   0  0  0  0  0  0  0  0  0  0  0  0
   -2.8209    2.2287   -5.5322 H   0  0  0  0  0  0  0  0  0  0  0  0
   -2.9305    4.5543   -6.3386 H   0  0  0  0  0  0  0  0  0  0  0  0
   -1.0745    8.4891   -5.0382 H   0  0  0  0  0  0  0  0  0  0  0  0
   -0.8543    7.0867   -3.9117 H   0  0  0  0  0  0  0  0  0  0  0  0
   -0.7748    6.8266   -5.7033 H   0  0  0  0  0  0  0  0  0  0  0  0
   -2.9761    5.9749   -2.2826 H   0  0  0  0  0  0  0  0  0  0  0  0
   -2.8698    3.6581   -1.4625 H   0  0  0  0  0  0  0  0  0  0  0  0
    1.5719    3.4691   -1.9283 H   0  0  0  0  0  0  0  0  0  0  0  0
    4.1151    2.9593   -6.1655 H   0  0  0  0  0  0  0  0  0  0  0  0
    3.7782   -3.2916   -5.7938 H   0  0  0  0  0  0  0  0  0  0  0  0
    6.9839   -0.9798   -8.8314 H   0  0  0  0  0  0  0  0  0  0  0  0
  1  2  2  3
  2  3  1  0
  3  4  2  0
  3  5  1  0
  5  6  2  0
  6  7  1  0
  7  8  1  0
  7  9  2  0
  9 10  1  0
  9 11  1  0
 11 12  2  0
 12 13  1  0
 13 14  2  3
 14 15  1  0
 15 16  3  0
 14 17  1  0
 17 18  3  0
  1 19  1  0
 19 20  2  0
 20 21  1  0
 21 22  1  0
 22 23  2  0
 23 24  2  0
 21 25  2  0
 25 26  1  0
 26 27  2  0
 27 28  1  0
 28 29  1  0
 29 30  2  0
 25 31  1  0
 31 32  2  0
 32 33  1  0
 33 34  1  0
 34 35  2  0
 35 36  1  0
 36 37  2  0
 37 38  1  0
 38 39  1  0
 37 40  1  0
 40 41  2  0
 33 42  1  0
 42 43  2  0
 43 44  1  0
 44 45  2  0
 45 46  1  0
 46 47  1  0
 45 48  1  0
 48 49  2  0
 32 50  1  0
 50 51  1  0
 51 52  1  0
 52 53  2  0
 53 54  1  0
 54 55  1  0
 55 56  2  0
 56 57  1  0
 57 58  2  0
 58 59  1  0
 59 60  1  0
 58 61  1  0
 61 62  2  0
 54 63  1  0
 63 64  2  0
 64 65  1  0
 65 66  2  0
 66 67  1  0
 67 68  1  0
 66 69  1  0
 69 70  2  0
 53 71  1  0
 71 72  1  0
 52 73  1  0
 73 74  2  0
 74 75  1  0
 75 76  1  0
 75 77  2  0
 77 78  1  0
 78 79  1  0
 79 80  2  0
 80 81  1  0
 81 82  1  0
 77 83  1  0
 83 84  2  3
 84 85  1  0
 85 86  2  0
 85 87  1  0
 87 88  2  0
 88 89  1  0
 89 90  1  0
 89 91  2  0
 91 92  1  0
 91 93  1  0
 93 94  2  0
 94 95  1  0
 95 96  2  3
 96 97  1  0
 97 98  3  0
 96 99  1  0
 99100  3  0
 13  2  1  0
 30 19  1  0
 72 31  1  0
 79 73  1  0
 95 84  1  0
 12  5  1  0
 24 20  1  0
 30 26  1  0
 41 34  1  0
 49 42  1  0
 71 50  2  0
 82 78  2  0
 94 87  1  0
 62 55  1  0
 70 63  1  0
  1101  1  0
  6102  1  0
 11103  1  0
 35104  1  0
 36105  1  0
 39106  1  0
 39107  1  0
 39108  1  0
 40109  1  0
 41110  1  0
 43111  1  0
 44112  1  0
 47113  1  0
 47114  1  0
 47115  1  0
 48116  1  0
 49117  1  0
 56118  1  0
 57119  1  0
 60120  1  0
 60121  1  0
 60122  1  0
 61123  1  0
 62124  1  0
 64125  1  0
 65126  1  0
 68127  1  0
 68128  1  0
 68129  1  0
 69130  1  0
 70131  1  0
 74132  1  0
 83133  1  0
 88134  1  0
 93135  1  0
M  END

