
     RDKit          3D

136151  0  0  0  0  0  0  0  0999 V2000
   -7.3952    0.0355   -2.2507 C   0  0  0  0  0  0  0  0  0  0  0  0
   -6.9879   -1.2629   -2.2873 C   0  0  0  0  0  0  0  0  0  0  0  0
   -5.6917   -1.7517   -2.7514 C   0  0  0  0  0  0  0  0  0  0  0  0
   -5.1126   -1.4034   -3.8239 O   0  0  0  0  0  0  0  0  0  0  0  0
   -5.1192   -2.6743   -1.7757 C   0  0  0  0  0  0  0  0  0  0  0  0
   -3.8040   -3.1123   -1.6539 C   0  0  0  0  0  0  0  0  0  0  0  0
   -3.4456   -3.8713   -0.5109 C   0  0  0  0  0  0  0  0  0  0  0  0
   -1.8211   -4.5008   -0.3595 Cl  0  0  0  0  0  0  0  0  0  0  0  0
   -4.4314   -4.1215    0.4800 C   0  0  0  0  0  0  0  0  0  0  0  0
   -4.1182   -4.9191    1.5381 F   0  0  0  0  0  0  0  0  0  0  0  0
   -5.7227   -3.5522    0.3737 C   0  0  0  0  0  0  0  0  0  0  0  0
   -6.0337   -2.8335   -0.7837 C   0  0  0  0  0  0  0  0  0  0  0  0
   -7.3164   -2.2415   -1.1951 C   0  0  0  0  0  0  0  0  0  0  0  0
   -8.4916   -2.9113   -1.1404 C   0  0  0  0  0  0  0  0  0  0  0  0
   -8.4366   -4.3150   -0.7316 C   0  0  0  0  0  0  0  0  0  0  0  0
   -8.3673   -5.4287   -0.4983 N   0  0  0  0  0  0  0  0  0  0  0  0
   -9.6352   -2.4115   -1.8886 C   0  0  0  0  0  0  0  0  0  0  0  0
  -10.5482   -1.9986   -2.4758 N   0  0  0  0  0  0  0  0  0  0  0  0
   -6.4071    1.1346   -2.0227 C   0  0  0  0  0  0  0  0  0  0  0  0
   -5.4176    1.3574   -2.9923 C   0  0  0  0  0  0  0  0  0  0  0  0
   -4.0818    1.0029   -2.7416 C   0  0  0  0  0  0  0  0  0  0  0  0
   -3.2967    0.8547   -3.9237 N   0  0  0  0  0  0  0  0  0  0  0  0
   -4.2762    1.4263   -5.0367 S   0  0  0  0  0  4  0  0  0  0  0  0
   -5.6802    1.7322   -4.3513 N   0  0  0  0  0  0  0  0  0  0  0  0
   -3.7059    0.5114   -1.4816 C   0  0  0  0  0  0  0  0  0  0  0  0
   -4.7213    0.4295   -0.4935 C   0  0  0  0  0  0  0  0  0  0  0  0
   -4.5940   -0.1595    0.7149 N   0  0  0  0  0  0  0  0  0  0  0  0
   -5.9374    0.4326    1.4786 S   0  0  0  0  0  0  0  0  0  0  0  0
   -6.7136    1.3309    0.3375 N   0  0  0  0  0  0  0  0  0  0  0  0
   -5.8865    1.1872   -0.7184 C   0  0  0  0  0  0  0  0  0  0  0  0
   -2.2851    0.4716   -1.1235 C   0  0  0  0  0  0  0  0  0  0  0  0
   -1.3412    1.4886   -1.3791 C   0  0  0  0  0  0  0  0  0  0  0  0
   -1.5846    2.7325   -2.0780 N   0  0  0  0  0  0  0  0  0  0  0  0
   -1.9651    3.8759   -1.2899 C   0  0  0  0  0  0  0  0  0  0  0  0
   -3.1864    3.9319   -0.6077 C   0  0  0  0  0  0  0  0  0  0  0  0
   -3.5073    5.0430    0.1802 C   0  0  0  0  0  0  0  0  0  0  0  0
   -2.6532    6.1418    0.2666 C   0  0  0  0  0  0  0  0  0  0  0  0
   -2.9105    7.4380    1.4909 S   0  0  0  0  0  0  0  0  0  0  0  0
   -4.6118    7.9616    1.0365 C   0  0  0  0  0  0  0  0  0  0  0  0
   -1.4574    6.1171   -0.4824 C   0  0  0  0  0  0  0  0  0  0  0  0
   -1.1115    4.9832   -1.2273 C   0  0  0  0  0  0  0  0  0  0  0  0
   -1.0099    2.9863   -3.3801 C   0  0  0  0  0  0  0  0  0  0  0  0
    0.2598    2.4662   -3.7546 C   0  0  0  0  0  0  0  0  0  0  0  0
    0.9159    2.9449   -4.8762 C   0  0  0  0  0  0  0  0  0  0  0  0
    0.2386    3.7931   -5.7441 C   0  0  0  0  0  0  0  0  0  0  0  0
    1.0790    4.2967   -7.2472 S   0  0  0  0  0  0  0  0  0  0  0  0
    1.1232    2.6381   -8.0217 C   0  0  0  0  0  0  0  0  0  0  0  0
   -1.0737    4.2003   -5.4820 C   0  0  0  0  0  0  0  0  0  0  0  0
   -1.6794    3.8109   -4.2883 C   0  0  0  0  0  0  0  0  0  0  0  0
   -0.1365    1.2132   -0.7305 C   0  0  0  0  0  0  0  0  0  0  0  0
    1.3033    2.0510   -0.5665 S   0  0  0  0  0  0  0  0  0  0  0  0
    2.0545    0.8204    0.3840 C   0  0  0  0  0  0  0  0  0  0  0  0
    1.1166   -0.1958    0.6676 C   0  0  0  0  0  0  0  0  0  0  0  0
    0.9895   -0.7674    1.9836 N   0  0  0  0  0  0  0  0  0  0  0  0
   -0.0811   -0.3080    2.8322 C   0  0  0  0  0  0  0  0  0  0  0  0
   -1.0497   -1.2041    3.3099 C   0  0  0  0  0  0  0  0  0  0  0  0
   -2.1826   -0.7501    3.9662 C   0  0  0  0  0  0  0  0  0  0  0  0
   -2.3729    0.6284    4.2220 C   0  0  0  0  0  0  0  0  0  0  0  0
   -3.8407    1.3031    5.1046 S   0  0  0  0  0  0  0  0  0  0  0  0
   -4.8318   -0.2233    5.3935 C   0  0  0  0  0  0  0  0  0  0  0  0
   -1.3925    1.5316    3.7835 C   0  0  0  0  0  0  0  0  0  0  0  0
   -0.2701    1.0710    3.0864 C   0  0  0  0  0  0  0  0  0  0  0  0
    1.5522   -2.0494    2.3215 C   0  0  0  0  0  0  0  0  0  0  0  0
    1.5401   -3.1248    1.4121 C   0  0  0  0  0  0  0  0  0  0  0  0
    1.6699   -4.4382    1.8665 C   0  0  0  0  0  0  0  0  0  0  0  0
    1.8347   -4.6850    3.2251 C   0  0  0  0  0  0  0  0  0  0  0  0
    1.7248   -6.3567    3.8834 S   0  0  0  0  0  0  0  0  0  0  0  0
    3.5067   -6.5846    4.0876 C   0  0  0  0  0  0  0  0  0  0  0  0
    1.9624   -3.6156    4.1102 C   0  0  0  0  0  0  0  0  0  0  0  0
    1.8414   -2.3121    3.6644 C   0  0  0  0  0  0  0  0  0  0  0  0
   -0.0711    0.0370   -0.0484 C   0  0  0  0  0  0  0  0  0  0  0  0
   -1.5745   -0.7207   -0.1133 S   0  0  0  0  0  0  0  0  0  0  0  0
    3.5101    0.5743    0.2030 C   0  0  0  0  0  0  0  0  0  0  0  0
    4.0979    0.6272   -1.0662 C   0  0  0  0  0  0  0  0  0  0  0  0
    5.4518    0.3563   -1.2801 C   0  0  0  0  0  0  0  0  0  0  0  0
    5.8628    0.3555   -2.6459 N   0  0  0  0  0  0  0  0  0  0  0  0
    4.4955    0.7030   -3.3875 S   0  0  0  0  0  4  0  0  0  0  0  0
    3.3503    0.8705   -2.2810 N   0  0  0  0  0  0  0  0  0  0  0  0
    6.2883    0.0439   -0.2195 C   0  0  0  0  0  0  0  0  0  0  0  0
    5.7244    0.0395    1.0724 C   0  0  0  0  0  0  0  0  0  0  0  0
    6.4382   -0.3305    2.1551 N   0  0  0  0  0  0  0  0  0  0  0  0
    5.2813   -0.4241    3.3155 S   0  0  0  0  0  0  0  0  0  0  0  0
    3.8785    0.0690    2.5768 N   0  0  0  0  0  0  0  0  0  0  0  0
    4.3352    0.2556    1.3043 C   0  0  0  0  0  0  0  0  0  0  0  0
    7.5022   -0.7636   -0.4520 C   0  0  0  0  0  0  0  0  0  0  0  0
    7.4005   -2.1308   -0.4482 C   0  0  0  0  0  0  0  0  0  0  0  0
    6.1195   -2.8665   -0.3594 C   0  0  0  0  0  0  0  0  0  0  0  0
    4.9703   -2.4311   -0.6676 O   0  0  0  0  0  0  0  0  0  0  0  0
    6.3804   -4.1952    0.0632 C   0  0  0  0  0  0  0  0  0  0  0  0
    5.4290   -5.1949    0.2883 C   0  0  0  0  0  0  0  0  0  0  0  0
    5.9003   -6.4857    0.5980 C   0  0  0  0  0  0  0  0  0  0  0  0
    4.7670   -7.7316    0.9611 Cl  0  0  0  0  0  0  0  0  0  0  0  0
    7.2952   -6.7273    0.6720 C   0  0  0  0  0  0  0  0  0  0  0  0
    7.7727   -7.9786    0.9761 F   0  0  0  0  0  0  0  0  0  0  0  0
    8.2076   -5.6678    0.4329 C   0  0  0  0  0  0  0  0  0  0  0  0
    7.7431   -4.3939    0.1802 C   0  0  0  0  0  0  0  0  0  0  0  0
    8.4782   -3.1378   -0.1372 C   0  0  0  0  0  0  0  0  0  0  0  0
    9.8221   -2.9394   -0.1998 C   0  0  0  0  0  0  0  0  0  0  0  0
   10.7309   -3.9040    0.3220 C   0  0  0  0  0  0  0  0  0  0  0  0
   11.4791   -4.6881    0.7479 N   0  0  0  0  0  0  0  0  0  0  0  0
   10.4336   -1.7885   -0.8112 C   0  0  0  0  0  0  0  0  0  0  0  0
   10.9055   -0.8540   -1.2883 N   0  0  0  0  0  0  0  0  0  0  0  0
   -8.3691    0.2238   -1.8326 H   0  0  0  0  0  0  0  0  0  0  0  0
   -3.0538   -2.9020   -2.4118 H   0  0  0  0  0  0  0  0  0  0  0  0
   -6.4626   -3.7269    1.1566 H   0  0  0  0  0  0  0  0  0  0  0  0
   -3.8863    3.1317   -0.6702 H   0  0  0  0  0  0  0  0  0  0  0  0
   -4.4437    5.0531    0.7486 H   0  0  0  0  0  0  0  0  0  0  0  0
   -5.0891    7.2526    0.3405 H   0  0  0  0  0  0  0  0  0  0  0  0
   -5.1805    7.9977    1.9984 H   0  0  0  0  0  0  0  0  0  0  0  0
   -4.5770    8.9769    0.6011 H   0  0  0  0  0  0  0  0  0  0  0  0
   -0.7714    6.9696   -0.4454 H   0  0  0  0  0  0  0  0  0  0  0  0
   -0.1590    4.9574   -1.7418 H   0  0  0  0  0  0  0  0  0  0  0  0
    0.7942    1.7728   -3.1187 H   0  0  0  0  0  0  0  0  0  0  0  0
    1.9185    2.6079   -5.0884 H   0  0  0  0  0  0  0  0  0  0  0  0
    1.2015    2.7454   -9.1313 H   0  0  0  0  0  0  0  0  0  0  0  0
    2.0371    2.0891   -7.6608 H   0  0  0  0  0  0  0  0  0  0  0  0
    0.2075    2.0682   -7.7690 H   0  0  0  0  0  0  0  0  0  0  0  0
   -1.5823    4.8459   -6.1824 H   0  0  0  0  0  0  0  0  0  0  0  0
   -2.6660    4.1827   -4.0895 H   0  0  0  0  0  0  0  0  0  0  0  0
   -0.9431   -2.2645    3.1773 H   0  0  0  0  0  0  0  0  0  0  0  0
   -2.9035   -1.4881    4.2993 H   0  0  0  0  0  0  0  0  0  0  0  0
   -5.8173    0.0216    5.8570 H   0  0  0  0  0  0  0  0  0  0  0  0
   -5.0285   -0.7257    4.4171 H   0  0  0  0  0  0  0  0  0  0  0  0
   -4.2650   -0.8813    6.0863 H   0  0  0  0  0  0  0  0  0  0  0  0
   -1.5097    2.5982    3.9341 H   0  0  0  0  0  0  0  0  0  0  0  0
    0.4699    1.7729    2.7247 H   0  0  0  0  0  0  0  0  0  0  0  0
    1.3188   -2.9415    0.3485 H   0  0  0  0  0  0  0  0  0  0  0  0
    1.5612   -5.2547    1.1553 H   0  0  0  0  0  0  0  0  0  0  0  0
    3.8339   -7.6427    3.9858 H   0  0  0  0  0  0  0  0  0  0  0  0
    3.7893   -6.1326    5.0698 H   0  0  0  0  0  0  0  0  0  0  0  0
    4.0737   -6.0498    3.2972 H   0  0  0  0  0  0  0  0  0  0  0  0
    2.1032   -3.7952    5.1683 H   0  0  0  0  0  0  0  0  0  0  0  0
    1.8416   -1.4841    4.3658 H   0  0  0  0  0  0  0  0  0  0  0  0
    8.4485   -0.2656   -0.3706 H   0  0  0  0  0  0  0  0  0  0  0  0
    4.3992   -4.9663    0.2693 H   0  0  0  0  0  0  0  0  0  0  0  0
    9.2558   -5.9188    0.4586 H   0  0  0  0  0  0  0  0  0  0  0  0
  1  2  2  3
  2  3  1  0
  3  4  2  0
  3  5  1  0
  5  6  2  0
  6  7  1  0
  7  8  1  0
  7  9  2  0
  9 10  1  0
  9 11  1  0
 11 12  2  0
 12 13  1  0
 13 14  2  3
 14 15  1  0
 15 16  3  0
 14 17  1  0
 17 18  3  0
  1 19  1  0
 19 20  2  0
 20 21  1  0
 21 22  1  0
 22 23  2  0
 23 24  2  0
 21 25  2  0
 25 26  1  0
 26 27  2  0
 27 28  1  0
 28 29  1  0
 29 30  2  0
 25 31  1  0
 31 32  2  0
 32 33  1  0
 33 34  1  0
 34 35  2  0
 35 36  1  0
 36 37  2  0
 37 38  1  0
 38 39  1  0
 37 40  1  0
 40 41  2  0
 33 42  1  0
 42 43  2  0
 43 44  1  0
 44 45  2  0
 45 46  1  0
 46 47  1  0
 45 48  1  0
 48 49  2  0
 32 50  1  0
 50 51  1  0
 51 52  1  0
 52 53  2  0
 53 54  1  0
 54 55  1  0
 55 56  2  0
 56 57  1  0
 57 58  2  0
 58 59  1  0
 59 60  1  0
 58 61  1  0
 61 62  2  0
 54 63  1  0
 63 64  2  0
 64 65  1  0
 65 66  2  0
 66 67  1  0
 67 68  1  0
 66 69  1  0
 69 70  2  0
 53 71  1  0
 71 72  1  0
 52 73  1  0
 73 74  2  0
 74 75  1  0
 75 76  1  0
 76 77  2  0
 77 78  2  0
 75 79  2  0
 79 80  1  0
 80 81  2  0
 81 82  1  0
 82 83  1  0
 83 84  2  0
 79 85  1  0
 85 86  2  3
 86 87  1  0
 87 88  2  0
 87 89  1  0
 89 90  2  0
 90 91  1  0
 91 92  1  0
 91 93  2  0
 93 94  1  0
 93 95  1  0
 95 96  2  0
 96 97  1  0
 97 98  2  3
 98 99  1  0
 99100  3  0
 98101  1  0
101102  3  0
 13  2  1  0
 30 19  1  0
 72 31  1  0
 84 73  1  0
 97 86  1  0
 12  5  1  0
 24 20  1  0
 30 26  1  0
 41 34  1  0
 49 42  1  0
 71 50  2  0
 78 74  1  0
 84 80  1  0
 96 89  1  0
 62 55  1  0
 70 63  1  0
  1103  1  0
  6104  1  0
 11105  1  0
 35106  1  0
 36107  1  0
 39108  1  0
 39109  1  0
 39110  1  0
 40111  1  0
 41112  1  0
 43113  1  0
 44114  1  0
 47115  1  0
 47116  1  0
 47117  1  0
 48118  1  0
 49119  1  0
 56120  1  0
 57121  1  0
 60122  1  0
 60123  1  0
 60124  1  0
 61125  1  0
 62126  1  0
 64127  1  0
 65128  1  0
 68129  1  0
 68130  1  0
 68131  1  0
 69132  1  0
 70133  1  0
 85134  1  0
 90135  1  0
 95136  1  0
M  END

