
     RDKit          3D

153168  0  0  0  0  0  0  0  0999 V2000
   -6.6891    2.4879   -7.6485 C   0  0  0  0  0  0  0  0  0  0  0  0
   -5.5465    3.1284   -7.9644 C   0  0  0  0  0  0  0  0  0  0  0  0
   -4.1866    2.5945   -7.7579 C   0  0  0  0  0  0  0  0  0  0  0  0
   -3.8624    1.6158   -7.0317 O   0  0  0  0  0  0  0  0  0  0  0  0
   -3.2672    3.3585   -8.5701 C   0  0  0  0  0  0  0  0  0  0  0  0
   -1.9010    3.1273   -8.7561 C   0  0  0  0  0  0  0  0  0  0  0  0
   -1.2058    3.9469   -9.6542 C   0  0  0  0  0  0  0  0  0  0  0  0
    0.4992    3.6396   -9.9590 Cl  0  0  0  0  0  0  0  0  0  0  0  0
   -1.8754    4.9763  -10.3401 C   0  0  0  0  0  0  0  0  0  0  0  0
   -1.1950    5.7533  -11.2276 F   0  0  0  0  0  0  0  0  0  0  0  0
   -3.2479    5.2007  -10.1232 C   0  0  0  0  0  0  0  0  0  0  0  0
   -3.9461    4.3715   -9.2205 C   0  0  0  0  0  0  0  0  0  0  0  0
   -5.3839    4.3561   -8.8056 C   0  0  0  0  0  0  0  0  0  0  0  0
   -6.2939    5.3524   -8.9694 C   0  0  0  0  0  0  0  0  0  0  0  0
   -7.5255    5.3967   -8.2288 C   0  0  0  0  0  0  0  0  0  0  0  0
   -8.5026    5.5019   -7.6074 N   0  0  0  0  0  0  0  0  0  0  0  0
   -6.0180    6.5382   -9.7406 C   0  0  0  0  0  0  0  0  0  0  0  0
   -5.8077    7.4957  -10.3518 N   0  0  0  0  0  0  0  0  0  0  0  0
   -6.6707    1.2248   -6.8886 C   0  0  0  0  0  0  0  0  0  0  0  0
   -6.6270    1.2783   -5.4849 C   0  0  0  0  0  0  0  0  0  0  0  0
   -6.2080    0.1488   -4.7880 C   0  0  0  0  0  0  0  0  0  0  0  0
   -5.7084    0.0875   -3.4264 C   0  0  0  0  0  0  0  0  0  0  0  0
   -5.8199    0.9815   -2.5476 O   0  0  0  0  0  0  0  0  0  0  0  0
   -4.9327   -1.1415   -3.3224 C   0  0  0  0  0  0  0  0  0  0  0  0
   -5.0060   -1.8135   -4.5338 C   0  0  0  0  0  0  0  0  0  0  0  0
   -5.8280   -1.0112   -5.4496 C   0  0  0  0  0  0  0  0  0  0  0  0
   -5.9426   -1.1130   -6.8392 C   0  0  0  0  0  0  0  0  0  0  0  0
   -6.3851    0.0130   -7.5625 C   0  0  0  0  0  0  0  0  0  0  0  0
   -4.1220   -2.8550   -4.8314 C   0  0  0  0  0  0  0  0  0  0  0  0
   -3.1080   -3.1646   -3.9037 C   0  0  0  0  0  0  0  0  0  0  0  0
   -2.9910   -2.4327   -2.7017 C   0  0  0  0  0  0  0  0  0  0  0  0
   -3.9396   -1.4404   -2.3921 C   0  0  0  0  0  0  0  0  0  0  0  0
   -1.7321   -2.4139   -1.9556 C   0  0  0  0  0  0  0  0  0  0  0  0
   -1.5402   -2.9566   -0.6731 C   0  0  0  0  0  0  0  0  0  0  0  0
   -2.2788   -4.0627   -0.1391 N   0  0  0  0  0  0  0  0  0  0  0  0
   -1.7334   -5.3951   -0.2308 C   0  0  0  0  0  0  0  0  0  0  0  0
   -1.0557   -5.8107   -1.3914 C   0  0  0  0  0  0  0  0  0  0  0  0
   -0.5332   -7.1039   -1.4812 C   0  0  0  0  0  0  0  0  0  0  0  0
   -0.6589   -7.9912   -0.4078 C   0  0  0  0  0  0  0  0  0  0  0  0
    0.0267   -9.6478   -0.5105 S   0  0  0  0  0  0  0  0  0  0  0  0
    1.7099   -9.1351   -0.0299 C   0  0  0  0  0  0  0  0  0  0  0  0
   -1.3274   -7.5872    0.7522 C   0  0  0  0  0  0  0  0  0  0  0  0
   -1.8752   -6.3025    0.8344 C   0  0  0  0  0  0  0  0  0  0  0  0
   -3.5404   -3.8393    0.4981 C   0  0  0  0  0  0  0  0  0  0  0  0
   -3.5967   -3.4764    1.8539 C   0  0  0  0  0  0  0  0  0  0  0  0
   -4.8234   -3.4069    2.5126 C   0  0  0  0  0  0  0  0  0  0  0  0
   -6.0082   -3.6873    1.8233 C   0  0  0  0  0  0  0  0  0  0  0  0
   -7.5827   -3.6782    2.6892 S   0  0  0  0  0  0  0  0  0  0  0  0
   -7.8373   -1.8906    2.4718 C   0  0  0  0  0  0  0  0  0  0  0  0
   -5.9614   -4.0122    0.4598 C   0  0  0  0  0  0  0  0  0  0  0  0
   -4.7301   -4.0997   -0.1994 C   0  0  0  0  0  0  0  0  0  0  0  0
   -0.4918   -2.3258   -0.0085 C   0  0  0  0  0  0  0  0  0  0  0  0
   -0.0591   -2.2083    1.6124 S   0  0  0  0  0  0  0  0  0  0  0  0
    0.9630   -0.8562    1.3755 C   0  0  0  0  0  0  0  0  0  0  0  0
    0.9610   -0.5047    0.0219 C   0  0  0  0  0  0  0  0  0  0  0  0
    1.4766    0.7330   -0.4936 N   0  0  0  0  0  0  0  0  0  0  0  0
    0.8764    1.9708   -0.0648 C   0  0  0  0  0  0  0  0  0  0  0  0
    1.6817    3.0840    0.2356 C   0  0  0  0  0  0  0  0  0  0  0  0
    1.0947    4.3088    0.5812 C   0  0  0  0  0  0  0  0  0  0  0  0
   -0.2977    4.4281    0.6237 C   0  0  0  0  0  0  0  0  0  0  0  0
   -1.0619    6.0077    0.9933 S   0  0  0  0  0  0  0  0  0  0  0  0
   -1.1871    5.6767    2.7783 C   0  0  0  0  0  0  0  0  0  0  0  0
   -1.1037    3.3188    0.3513 C   0  0  0  0  0  0  0  0  0  0  0  0
   -0.5202    2.0977    0.0142 C   0  0  0  0  0  0  0  0  0  0  0  0
    2.3714    0.6997   -1.6237 C   0  0  0  0  0  0  0  0  0  0  0  0
    2.2061    1.5921   -2.7014 C   0  0  0  0  0  0  0  0  0  0  0  0
    3.0428    1.5240   -3.8148 C   0  0  0  0  0  0  0  0  0  0  0  0
    4.0681    0.5718   -3.8618 C   0  0  0  0  0  0  0  0  0  0  0  0
    5.1454    0.4953   -5.2992 S   0  0  0  0  0  0  0  0  0  0  0  0
    6.3891    1.6214   -4.5972 C   0  0  0  0  0  0  0  0  0  0  0  0
    4.2395   -0.3219   -2.7994 C   0  0  0  0  0  0  0  0  0  0  0  0
    3.3925   -0.2643   -1.6894 C   0  0  0  0  0  0  0  0  0  0  0  0
    0.1337   -1.3460   -0.7136 C   0  0  0  0  0  0  0  0  0  0  0  0
   -0.5993   -1.1626   -2.2047 S   0  0  0  0  0  0  0  0  0  0  0  0
    1.6400   -0.1097    2.4450 C   0  0  0  0  0  0  0  0  0  0  0  0
    3.0069    0.2134    2.3244 C   0  0  0  0  0  0  0  0  0  0  0  0
    3.6351    0.8392    3.4003 C   0  0  0  0  0  0  0  0  0  0  0  0
    5.0576    1.0560    3.6383 C   0  0  0  0  0  0  0  0  0  0  0  0
    6.0007    0.8518    2.8267 O   0  0  0  0  0  0  0  0  0  0  0  0
    5.1885    1.4868    5.0266 C   0  0  0  0  0  0  0  0  0  0  0  0
    3.9172    1.5722    5.5723 C   0  0  0  0  0  0  0  0  0  0  0  0
    2.9450    1.1566    4.5579 C   0  0  0  0  0  0  0  0  0  0  0  0
    1.5905    0.8801    4.6878 C   0  0  0  0  0  0  0  0  0  0  0  0
    0.9348    0.2450    3.6175 C   0  0  0  0  0  0  0  0  0  0  0  0
    3.7250    1.8223    6.9313 C   0  0  0  0  0  0  0  0  0  0  0  0
    4.8583    1.9344    7.7518 C   0  0  0  0  0  0  0  0  0  0  0  0
    6.1550    1.7695    7.2074 C   0  0  0  0  0  0  0  0  0  0  0  0
    6.3288    1.5921    5.8167 C   0  0  0  0  0  0  0  0  0  0  0  0
    7.3081    1.5895    8.1088 C   0  0  0  0  0  0  0  0  0  0  0  0
    7.5246    0.4229    8.7641 C   0  0  0  0  0  0  0  0  0  0  0  0
    6.7017   -0.7874    8.6111 C   0  0  0  0  0  0  0  0  0  0  0  0
    5.6677   -0.9075    7.8978 O   0  0  0  0  0  0  0  0  0  0  0  0
    7.2731   -1.8484    9.4003 C   0  0  0  0  0  0  0  0  0  0  0  0
    6.7780   -3.1430    9.5975 C   0  0  0  0  0  0  0  0  0  0  0  0
    5.6533   -3.5848    8.9042 O   0  0  0  0  0  0  0  0  0  0  0  0
    7.4483   -3.9768   10.5047 C   0  0  0  0  0  0  0  0  0  0  0  0
    8.5632   -3.5013   11.2135 C   0  0  0  0  0  0  0  0  0  0  0  0
    9.0388   -2.1960   11.0015 C   0  0  0  0  0  0  0  0  0  0  0  0
    8.3973   -1.3773   10.0548 C   0  0  0  0  0  0  0  0  0  0  0  0
    8.6572    0.0468    9.6755 C   0  0  0  0  0  0  0  0  0  0  0  0
    9.7490    0.7865   10.0129 C   0  0  0  0  0  0  0  0  0  0  0  0
    9.8692    2.1968    9.7504 C   0  0  0  0  0  0  0  0  0  0  0  0
    9.9910    3.3347    9.5580 N   0  0  0  0  0  0  0  0  0  0  0  0
   10.9111    0.2020   10.6332 C   0  0  0  0  0  0  0  0  0  0  0  0
   11.8621   -0.2631   11.1045 N   0  0  0  0  0  0  0  0  0  0  0  0
   -7.6511    2.8619   -7.9656 H   0  0  0  0  0  0  0  0  0  0  0  0
   -1.3934    2.3208   -8.2362 H   0  0  0  0  0  0  0  0  0  0  0  0
   -3.7343    5.9725  -10.6955 H   0  0  0  0  0  0  0  0  0  0  0  0
   -6.7540    2.2204   -4.9634 H   0  0  0  0  0  0  0  0  0  0  0  0
   -5.6063   -1.9985   -7.3566 H   0  0  0  0  0  0  0  0  0  0  0  0
   -6.3957   -0.0248   -8.6440 H   0  0  0  0  0  0  0  0  0  0  0  0
   -4.1472   -3.3464   -5.7996 H   0  0  0  0  0  0  0  0  0  0  0  0
   -2.3568   -3.8979   -4.1776 H   0  0  0  0  0  0  0  0  0  0  0  0
   -3.8029   -0.7987   -1.5280 H   0  0  0  0  0  0  0  0  0  0  0  0
   -0.9434   -5.1384   -2.2328 H   0  0  0  0  0  0  0  0  0  0  0  0
   -0.0233   -7.4116   -2.3849 H   0  0  0  0  0  0  0  0  0  0  0  0
    2.2461   -8.7491   -0.9243 H   0  0  0  0  0  0  0  0  0  0  0  0
    2.2594  -10.0131    0.3665 H   0  0  0  0  0  0  0  0  0  0  0  0
    1.6837   -8.3497    0.7568 H   0  0  0  0  0  0  0  0  0  0  0  0
   -1.4216   -8.2657    1.5948 H   0  0  0  0  0  0  0  0  0  0  0  0
   -2.3809   -6.0098    1.7452 H   0  0  0  0  0  0  0  0  0  0  0  0
   -2.6834   -3.2983    2.4087 H   0  0  0  0  0  0  0  0  0  0  0  0
   -4.8539   -3.1627    3.5663 H   0  0  0  0  0  0  0  0  0  0  0  0
   -8.8201   -1.6118    2.9041 H   0  0  0  0  0  0  0  0  0  0  0  0
   -7.0405   -1.3292    3.0034 H   0  0  0  0  0  0  0  0  0  0  0  0
   -7.8296   -1.6303    1.3928 H   0  0  0  0  0  0  0  0  0  0  0  0
   -6.8704   -4.2345   -0.0836 H   0  0  0  0  0  0  0  0  0  0  0  0
   -4.6942   -4.3905   -1.2450 H   0  0  0  0  0  0  0  0  0  0  0  0
    2.7617    3.0049    0.1909 H   0  0  0  0  0  0  0  0  0  0  0  0
    1.7249    5.1596    0.8018 H   0  0  0  0  0  0  0  0  0  0  0  0
   -0.1770    5.6775    3.2322 H   0  0  0  0  0  0  0  0  0  0  0  0
   -1.6824    4.6999    2.9582 H   0  0  0  0  0  0  0  0  0  0  0  0
   -1.7972    6.4767    3.2515 H   0  0  0  0  0  0  0  0  0  0  0  0
   -2.1812    3.4059    0.3844 H   0  0  0  0  0  0  0  0  0  0  0  0
   -1.1601    1.2542   -0.2195 H   0  0  0  0  0  0  0  0  0  0  0  0
    1.4054    2.3181   -2.6917 H   0  0  0  0  0  0  0  0  0  0  0  0
    2.8916    2.2036   -4.6441 H   0  0  0  0  0  0  0  0  0  0  0  0
    7.0090    2.0372   -5.4153 H   0  0  0  0  0  0  0  0  0  0  0  0
    5.9090    2.4630   -4.0570 H   0  0  0  0  0  0  0  0  0  0  0  0
    7.0460    1.0603   -3.9018 H   0  0  0  0  0  0  0  0  0  0  0  0
    5.0286   -1.0647   -2.8363 H   0  0  0  0  0  0  0  0  0  0  0  0
    3.5393   -0.9656   -0.8777 H   0  0  0  0  0  0  0  0  0  0  0  0
    3.5742   -0.0672    1.4488 H   0  0  0  0  0  0  0  0  0  0  0  0
    1.0553    1.1057    5.6043 H   0  0  0  0  0  0  0  0  0  0  0  0
   -0.1180    0.0067    3.7168 H   0  0  0  0  0  0  0  0  0  0  0  0
    2.7305    1.8533    7.3544 H   0  0  0  0  0  0  0  0  0  0  0  0
    4.7340    2.0548    8.8190 H   0  0  0  0  0  0  0  0  0  0  0  0
    7.3153    1.4274    5.3935 H   0  0  0  0  0  0  0  0  0  0  0  0
    7.9985    2.4130    8.1647 H   0  0  0  0  0  0  0  0  0  0  0  0
    5.2987   -4.5244    9.0172 H   0  0  0  0  0  0  0  0  0  0  0  0
    7.0944   -4.9862   10.6832 H   0  0  0  0  0  0  0  0  0  0  0  0
    9.0526   -4.1433   11.9371 H   0  0  0  0  0  0  0  0  0  0  0  0
    9.8525   -1.8503   11.6153 H   0  0  0  0  0  0  0  0  0  0  0  0
  1  2  2  3
  2  3  1  0
  3  4  2  0
  3  5  1  0
  5  6  2  0
  6  7  1  0
  7  8  1  0
  7  9  2  0
  9 10  1  0
  9 11  1  0
 11 12  2  0
 12 13  1  0
 13 14  2  3
 14 15  1  0
 15 16  3  0
 14 17  1  0
 17 18  3  0
  1 19  1  0
 19 20  2  0
 20 21  1  0
 21 22  1  0
 22 23  2  0
 22 24  1  0
 24 25  2  0
 25 26  1  0
 26 27  1  0
 27 28  2  0
 25 29  1  0
 29 30  2  0
 30 31  1  0
 31 32  2  0
 31 33  1  0
 33 34  2  0
 34 35  1  0
 35 36  1  0
 36 37  2  0
 37 38  1  0
 38 39  2  0
 39 40  1  0
 40 41  1  0
 39 42  1  0
 42 43  2  0
 35 44  1  0
 44 45  2  0
 45 46  1  0
 46 47  2  0
 47 48  1  0
 48 49  1  0
 47 50  1  0
 50 51  2  0
 34 52  1  0
 52 53  1  0
 53 54  1  0
 54 55  2  0
 55 56  1  0
 56 57  1  0
 57 58  2  0
 58 59  1  0
 59 60  2  0
 60 61  1  0
 61 62  1  0
 60 63  1  0
 63 64  2  0
 56 65  1  0
 65 66  2  0
 66 67  1  0
 67 68  2  0
 68 69  1  0
 69 70  1  0
 68 71  1  0
 71 72  2  0
 55 73  1  0
 73 74  1  0
 54 75  1  0
 75 76  2  0
 76 77  1  0
 77 78  1  0
 78 79  2  0
 78 80  1  0
 80 81  2  0
 81 82  1  0
 82 83  1  0
 83 84  2  0
 81 85  1  0
 85 86  2  0
 86 87  1  0
 87 88  2  0
 87 89  1  0
 89 90  2  3
 90 91  1  0
 91 92  2  0
 91 93  1  0
 93 94  2  0
 94 95  1  0
 94 96  1  0
 96 97  2  0
 97 98  1  0
 98 99  2  0
 99100  1  0
100101  2  3
101102  1  0
102103  3  0
101104  1  0
104105  3  0
 13  2  1  0
 28 19  1  0
 74 33  1  0
 84 75  1  0
100 90  1  0
 12  5  1  0
 26 21  2  0
 43 36  1  0
 51 44  1  0
 73 52  2  0
 82 77  2  0
 99 93  1  0
 32 24  1  0
 64 57  1  0
 72 65  1  0
 88 80  1  0
  1106  1  0
  6107  1  0
 11108  1  0
 20109  1  0
 27110  1  0
 28111  1  0
 29112  1  0
 30113  1  0
 32114  1  0
 37115  1  0
 38116  1  0
 41117  1  0
 41118  1  0
 41119  1  0
 42120  1  0
 43121  1  0
 45122  1  0
 46123  1  0
 49124  1  0
 49125  1  0
 49126  1  0
 50127  1  0
 51128  1  0
 58129  1  0
 59130  1  0
 62131  1  0
 62132  1  0
 62133  1  0
 63134  1  0
 64135  1  0
 66136  1  0
 67137  1  0
 70138  1  0
 70139  1  0
 70140  1  0
 71141  1  0
 72142  1  0
 76143  1  0
 83144  1  0
 84145  1  0
 85146  1  0
 86147  1  0
 88148  1  0
 89149  1  0
 95150  1  0
 96151  1  0
 97152  1  0
 98153  1  0
M  END

