
     RDKit          3D

 92103  0  0  0  0  0  0  0  0999 V2000
    1.9348    3.9347    6.5183 C   0  0  0  0  0  0  0  0  0  0  0  0
    1.6353    3.1281    7.5513 C   0  0  0  0  0  0  0  0  0  0  0  0
    0.7213    1.9783    7.4863 C   0  0  0  0  0  0  0  0  0  0  0  0
    0.2561    1.4493    6.4444 O   0  0  0  0  0  0  0  0  0  0  0  0
    0.3680    1.6015    8.8384 C   0  0  0  0  0  0  0  0  0  0  0  0
   -0.5662    0.6523    9.2514 C   0  0  0  0  0  0  0  0  0  0  0  0
   -0.8217    0.5195   10.6223 C   0  0  0  0  0  0  0  0  0  0  0  0
   -1.9963   -0.6659   11.1654 Cl  0  0  0  0  0  0  0  0  0  0  0  0
   -0.1633    1.3534   11.5456 C   0  0  0  0  0  0  0  0  0  0  0  0
   -0.4339    1.2418   12.8718 F   0  0  0  0  0  0  0  0  0  0  0  0
    0.7612    2.3193   11.1061 C   0  0  0  0  0  0  0  0  0  0  0  0
    1.0424    2.4160    9.7356 C   0  0  0  0  0  0  0  0  0  0  0  0
    1.9493    3.3423    8.9967 C   0  0  0  0  0  0  0  0  0  0  0  0
    3.0061    4.0289    9.5074 C   0  0  0  0  0  0  0  0  0  0  0  0
    3.3320    4.0240   10.9094 C   0  0  0  0  0  0  0  0  0  0  0  0
    3.6111    4.0246   12.0329 N   0  0  0  0  0  0  0  0  0  0  0  0
    3.9770    4.6823    8.6693 C   0  0  0  0  0  0  0  0  0  0  0  0
    4.7656    5.2035    8.0003 N   0  0  0  0  0  0  0  0  0  0  0  0
    1.6074    3.5825    5.1278 C   0  0  0  0  0  0  0  0  0  0  0  0
    2.4035    2.6752    4.4192 C   0  0  0  0  0  0  0  0  0  0  0  0
    2.0854    2.3082    3.0904 C   0  0  0  0  0  0  0  0  0  0  0  0
    3.0049    1.3917    2.4905 N   0  0  0  0  0  0  0  0  0  0  0  0
    4.0344    1.1867    3.6936 S   0  0  0  0  0  4  0  0  0  0  0  0
    3.5874    2.0661    4.9452 N   0  0  0  0  0  0  0  0  0  0  0  0
    0.9574    2.8289    2.4355 C   0  0  0  0  0  0  0  0  0  0  0  0
    0.1590    3.7516    3.1376 C   0  0  0  0  0  0  0  0  0  0  0  0
   -0.9632    4.3089    2.6119 N   0  0  0  0  0  0  0  0  0  0  0  0
   -1.4573    5.2513    3.8753 S   0  0  0  0  0  0  0  0  0  0  0  0
   -0.3523    5.0119    5.0825 N   0  0  0  0  0  0  0  0  0  0  0  0
    0.4874    4.1310    4.4801 C   0  0  0  0  0  0  0  0  0  0  0  0
    0.6425    2.4181    1.0480 C   0  0  0  0  0  0  0  0  0  0  0  0
    0.7474    3.3503    0.0003 C   0  0  0  0  0  0  0  0  0  0  0  0
    1.0716    4.6406    0.2650 F   0  0  0  0  0  0  0  0  0  0  0  0
    0.5864    2.9456   -1.3295 C   0  0  0  0  0  0  0  0  0  0  0  0
    0.7521    3.8571   -2.3236 F   0  0  0  0  0  0  0  0  0  0  0  0
    0.3128    1.5996   -1.6329 C   0  0  0  0  0  0  0  0  0  0  0  0
    0.1539    0.6738   -0.5830 C   0  0  0  0  0  0  0  0  0  0  0  0
   -0.1516   -0.6250   -0.8389 N   0  0  0  0  0  0  0  0  0  0  0  0
   -0.2927   -1.5532    0.1467 C   0  0  0  0  0  0  0  0  0  0  0  0
   -0.6715   -2.9527   -0.2647 C   0  0  0  0  0  0  0  0  0  0  0  0
   -2.0970   -2.9824   -0.8091 C   0  0  0  0  0  0  0  0  0  0  0  0
   -0.0976   -1.1491    1.4910 C   0  0  0  0  0  0  0  0  0  0  0  0
    0.1967    0.1555    1.7401 N   0  0  0  0  0  0  0  0  0  0  0  0
    0.3231    1.0793    0.7514 C   0  0  0  0  0  0  0  0  0  0  0  0
   -0.1826   -2.0806    2.6718 C   0  0  0  0  0  0  0  0  0  0  0  0
   -1.6318   -2.3393    3.0702 C   0  0  0  0  0  0  0  0  0  0  0  0
    0.2975    1.1494   -3.0439 C   0  0  0  0  0  0  0  0  0  0  0  0
    1.2751    0.2622   -3.5149 C   0  0  0  0  0  0  0  0  0  0  0  0
    1.3146   -0.1394   -4.8723 C   0  0  0  0  0  0  0  0  0  0  0  0
    2.4250   -0.9801   -5.2110 N   0  0  0  0  0  0  0  0  0  0  0  0
    3.1491   -1.0916   -3.7932 S   0  0  0  0  0  4  0  0  0  0  0  0
    2.3395   -0.2551   -2.7060 N   0  0  0  0  0  0  0  0  0  0  0  0
    0.3541    0.3064   -5.7980 C   0  0  0  0  0  0  0  0  0  0  0  0
   -0.6246    1.2056   -5.3379 C   0  0  0  0  0  0  0  0  0  0  0  0
   -1.5888    1.7221   -6.1465 N   0  0  0  0  0  0  0  0  0  0  0  0
   -2.4112    2.6652   -5.0708 S   0  0  0  0  0  0  0  0  0  0  0  0
   -1.6390    2.4880   -3.6200 N   0  0  0  0  0  0  0  0  0  0  0  0
   -0.6522    1.6249   -3.9663 C   0  0  0  0  0  0  0  0  0  0  0  0
    0.4536   -0.0323   -7.2350 C   0  0  0  0  0  0  0  0  0  0  0  0
    0.5310   -1.2865   -7.7137 C   0  0  0  0  0  0  0  0  0  0  0  0
    0.2115   -2.5247   -6.9940 C   0  0  0  0  0  0  0  0  0  0  0  0
   -0.0265   -2.6278   -5.7613 O   0  0  0  0  0  0  0  0  0  0  0  0
    0.0821   -3.5993   -7.9714 C   0  0  0  0  0  0  0  0  0  0  0  0
   -0.3294   -4.9234   -7.7736 C   0  0  0  0  0  0  0  0  0  0  0  0
   -0.5380   -5.5715   -6.1487 Cl  0  0  0  0  0  0  0  0  0  0  0  0
   -0.5780   -5.7249   -8.9035 C   0  0  0  0  0  0  0  0  0  0  0  0
   -1.0661   -7.4090   -8.6957 Cl  0  0  0  0  0  0  0  0  0  0  0  0
   -0.4864   -5.1672  -10.2004 C   0  0  0  0  0  0  0  0  0  0  0  0
   -0.9173   -6.1468  -11.6058 Cl  0  0  0  0  0  0  0  0  0  0  0  0
   -0.0914   -3.8232  -10.3745 C   0  0  0  0  0  0  0  0  0  0  0  0
   -0.3203   -3.0471  -11.9476 Cl  0  0  0  0  0  0  0  0  0  0  0  0
    0.2904   -3.0815   -9.2384 C   0  0  0  0  0  0  0  0  0  0  0  0
    0.7519   -1.6733   -9.1321 C   0  0  0  0  0  0  0  0  0  0  0  0
    1.6517   -1.0823   -9.9596 C   0  0  0  0  0  0  0  0  0  0  0  0
    2.2086    0.2193   -9.6883 C   0  0  0  0  0  0  0  0  0  0  0  0
    2.6655    1.2617   -9.4734 N   0  0  0  0  0  0  0  0  0  0  0  0
    2.3044   -1.8132  -11.0158 C   0  0  0  0  0  0  0  0  0  0  0  0
    2.8444   -2.3988  -11.8538 N   0  0  0  0  0  0  0  0  0  0  0  0
    2.4245    4.8821    6.6791 H   0  0  0  0  0  0  0  0  0  0  0  0
   -1.0937    0.0515    8.5224 H   0  0  0  0  0  0  0  0  0  0  0  0
    1.2054    2.9760   11.8393 H   0  0  0  0  0  0  0  0  0  0  0  0
   -0.5820   -3.6804    0.5656 H   0  0  0  0  0  0  0  0  0  0  0  0
    0.0216   -3.2874   -1.0682 H   0  0  0  0  0  0  0  0  0  0  0  0
   -2.8105   -2.5748   -0.0636 H   0  0  0  0  0  0  0  0  0  0  0  0
   -2.3926   -4.0263   -1.0387 H   0  0  0  0  0  0  0  0  0  0  0  0
   -2.1629   -2.3833   -1.7407 H   0  0  0  0  0  0  0  0  0  0  0  0
    0.3456   -3.0331    2.4670 H   0  0  0  0  0  0  0  0  0  0  0  0
    0.3398   -1.6164    3.5354 H   0  0  0  0  0  0  0  0  0  0  0  0
   -1.6532   -2.9476    3.9978 H   0  0  0  0  0  0  0  0  0  0  0  0
   -2.1621   -1.3810    3.2558 H   0  0  0  0  0  0  0  0  0  0  0  0
   -2.1557   -2.9033    2.2748 H   0  0  0  0  0  0  0  0  0  0  0  0
    0.4311    0.7973   -7.9287 H   0  0  0  0  0  0  0  0  0  0  0  0
  1  2  2  3
  2  3  1  0
  3  4  2  0
  3  5  1  0
  5  6  2  0
  6  7  1  0
  7  8  1  0
  7  9  2  0
  9 10  1  0
  9 11  1  0
 11 12  2  0
 12 13  1  0
 13 14  2  3
 14 15  1  0
 15 16  3  0
 14 17  1  0
 17 18  3  0
  1 19  1  0
 19 20  2  0
 20 21  1  0
 21 22  1  0
 22 23  2  0
 23 24  2  0
 21 25  2  0
 25 26  1  0
 26 27  2  0
 27 28  1  0
 28 29  1  0
 29 30  2  0
 25 31  1  0
 31 32  2  0
 32 33  1  0
 32 34  1  0
 34 35  1  0
 34 36  2  0
 36 37  1  0
 37 38  2  0
 38 39  1  0
 39 40  1  0
 40 41  1  0
 39 42  2  0
 42 43  1  0
 43 44  2  0
 42 45  1  0
 45 46  1  0
 36 47  1  0
 47 48  2  0
 48 49  1  0
 49 50  1  0
 50 51  2  0
 51 52  2  0
 49 53  2  0
 53 54  1  0
 54 55  2  0
 55 56  1  0
 56 57  1  0
 57 58  2  0
 53 59  1  0
 59 60  2  3
 60 61  1  0
 61 62  2  0
 61 63  1  0
 63 64  2  0
 64 65  1  0
 64 66  1  0
 66 67  1  0
 66 68  2  0
 68 69  1  0
 68 70  1  0
 70 71  1  0
 70 72  2  0
 72 73  1  0
 73 74  2  3
 74 75  1  0
 75 76  3  0
 74 77  1  0
 77 78  3  0
 13  2  1  0
 30 19  1  0
 44 31  1  0
 58 47  1  0
 73 60  1  0
 12  5  1  0
 24 20  1  0
 30 26  1  0
 44 37  1  0
 52 48  1  0
 58 54  1  0
 72 63  1  0
  1 79  1  0
  6 80  1  0
 11 81  1  0
 40 82  1  0
 40 83  1  0
 41 84  1  0
 41 85  1  0
 41 86  1  0
 45 87  1  0
 45 88  1  0
 46 89  1  0
 46 90  1  0
 46 91  1  0
 59 92  1  0
M  END

