
     RDKit          3D

152167  0  0  0  0  0  0  0  0999 V2000
    3.1614    5.6544  -10.0457 C   0  0  0  0  0  0  0  0  0  0  0  0
    3.6956    4.6408  -10.7572 C   0  0  0  0  0  0  0  0  0  0  0  0
    4.6300    4.8576  -11.8625 C   0  0  0  0  0  0  0  0  0  0  0  0
    4.7747    5.9280  -12.5121 O   0  0  0  0  0  0  0  0  0  0  0  0
    5.4375    3.6629  -12.0107 C   0  0  0  0  0  0  0  0  0  0  0  0
    6.5358    3.4560  -12.8443 C   0  0  0  0  0  0  0  0  0  0  0  0
    7.2196    2.2347  -12.7624 C   0  0  0  0  0  0  0  0  0  0  0  0
    8.6079    1.9442  -13.7960 Cl  0  0  0  0  0  0  0  0  0  0  0  0
    6.8111    1.2574  -11.8334 C   0  0  0  0  0  0  0  0  0  0  0  0
    7.4871    0.0853  -11.7341 F   0  0  0  0  0  0  0  0  0  0  0  0
    5.7049    1.4862  -11.0022 C   0  0  0  0  0  0  0  0  0  0  0  0
    5.0079    2.6986  -11.1138 C   0  0  0  0  0  0  0  0  0  0  0  0
    3.8129    3.1987  -10.3843 C   0  0  0  0  0  0  0  0  0  0  0  0
    2.8404    2.4382   -9.8184 C   0  0  0  0  0  0  0  0  0  0  0  0
    3.0271    1.0484   -9.4927 C   0  0  0  0  0  0  0  0  0  0  0  0
    3.1567   -0.0695   -9.2120 N   0  0  0  0  0  0  0  0  0  0  0  0
    1.5086    2.9434   -9.6127 C   0  0  0  0  0  0  0  0  0  0  0  0
    0.4290    3.3366   -9.4555 N   0  0  0  0  0  0  0  0  0  0  0  0
    2.7144    5.5289   -8.6418 C   0  0  0  0  0  0  0  0  0  0  0  0
    3.4834    4.7963   -7.7134 C   0  0  0  0  0  0  0  0  0  0  0  0
    2.9686    4.5950   -6.4419 C   0  0  0  0  0  0  0  0  0  0  0  0
    3.4570    3.7268   -5.3829 C   0  0  0  0  0  0  0  0  0  0  0  0
    4.5106    3.0395   -5.3958 O   0  0  0  0  0  0  0  0  0  0  0  0
    2.4337    3.7355   -4.3458 C   0  0  0  0  0  0  0  0  0  0  0  0
    1.4064    4.5699   -4.7431 C   0  0  0  0  0  0  0  0  0  0  0  0
    1.7377    5.1071   -6.0658 C   0  0  0  0  0  0  0  0  0  0  0  0
    0.9894    5.8954   -6.9395 C   0  0  0  0  0  0  0  0  0  0  0  0
    1.4972    6.1249   -8.2324 C   0  0  0  0  0  0  0  0  0  0  0  0
    0.2455    4.6861   -3.9824 C   0  0  0  0  0  0  0  0  0  0  0  0
    0.1367    3.9279   -2.8025 C   0  0  0  0  0  0  0  0  0  0  0  0
    1.1696    3.0307   -2.4081 C   0  0  0  0  0  0  0  0  0  0  0  0
    2.3456    2.9644   -3.1958 C   0  0  0  0  0  0  0  0  0  0  0  0
    1.0548    2.1401   -1.2166 C   0  0  0  0  0  0  0  0  0  0  0  0
   -0.0816    1.8410   -0.4213 C   0  0  0  0  0  0  0  0  0  0  0  0
   -1.4336    2.2191   -0.7226 N   0  0  0  0  0  0  0  0  0  0  0  0
   -2.2159    1.2732   -1.4776 C   0  0  0  0  0  0  0  0  0  0  0  0
   -1.8130    0.8823   -2.7644 C   0  0  0  0  0  0  0  0  0  0  0  0
   -2.5308   -0.0885   -3.4653 C   0  0  0  0  0  0  0  0  0  0  0  0
   -3.6426   -0.6978   -2.8765 C   0  0  0  0  0  0  0  0  0  0  0  0
   -4.5247   -1.9913   -3.7471 S   0  0  0  0  0  0  0  0  0  0  0  0
   -3.4363   -3.3090   -3.1226 C   0  0  0  0  0  0  0  0  0  0  0  0
   -4.0525   -0.3139   -1.5941 C   0  0  0  0  0  0  0  0  0  0  0  0
   -3.3450    0.6688   -0.8974 C   0  0  0  0  0  0  0  0  0  0  0  0
   -2.0731    3.3170   -0.0244 C   0  0  0  0  0  0  0  0  0  0  0  0
   -1.5310    3.8384    1.1688 C   0  0  0  0  0  0  0  0  0  0  0  0
   -2.1772    4.8741    1.8510 C   0  0  0  0  0  0  0  0  0  0  0  0
   -3.3640    5.4152    1.3468 C   0  0  0  0  0  0  0  0  0  0  0  0
   -4.2136    6.7137    2.2446 S   0  0  0  0  0  0  0  0  0  0  0  0
   -5.2287    5.5441    3.2036 C   0  0  0  0  0  0  0  0  0  0  0  0
   -3.8895    4.9369    0.1432 C   0  0  0  0  0  0  0  0  0  0  0  0
   -3.2501    3.8976   -0.5390 C   0  0  0  0  0  0  0  0  0  0  0  0
    0.2174    0.8963    0.5586 C   0  0  0  0  0  0  0  0  0  0  0  0
   -0.6629    0.0949    1.7355 S   0  0  0  0  0  0  0  0  0  0  0  0
    0.6363   -0.9005    2.2473 C   0  0  0  0  0  0  0  0  0  0  0  0
    1.7589   -0.5970    1.4482 C   0  0  0  0  0  0  0  0  0  0  0  0
    2.9837   -1.3476    1.3948 N   0  0  0  0  0  0  0  0  0  0  0  0
    3.9998   -1.1526    2.4045 C   0  0  0  0  0  0  0  0  0  0  0  0
    4.8688   -2.2035    2.7501 C   0  0  0  0  0  0  0  0  0  0  0  0
    5.8791   -2.0069    3.6968 C   0  0  0  0  0  0  0  0  0  0  0  0
    6.0300   -0.7599    4.3141 C   0  0  0  0  0  0  0  0  0  0  0  0
    7.3430   -0.4986    5.5049 S   0  0  0  0  0  0  0  0  0  0  0  0
    8.5263    0.0793    4.2474 C   0  0  0  0  0  0  0  0  0  0  0  0
    5.1482    0.2817    4.0030 C   0  0  0  0  0  0  0  0  0  0  0  0
    4.1412    0.0892    3.0543 C   0  0  0  0  0  0  0  0  0  0  0  0
    3.2109   -2.1792    0.2325 C   0  0  0  0  0  0  0  0  0  0  0  0
    2.1635   -2.9498   -0.3032 C   0  0  0  0  0  0  0  0  0  0  0  0
    2.3635   -3.7177   -1.4541 C   0  0  0  0  0  0  0  0  0  0  0  0
    3.6110   -3.7207   -2.0874 C   0  0  0  0  0  0  0  0  0  0  0  0
    3.8655   -4.7067   -3.5604 S   0  0  0  0  0  0  0  0  0  0  0  0
    3.4820   -3.3377   -4.6935 C   0  0  0  0  0  0  0  0  0  0  0  0
    4.6616   -2.9602   -1.5604 C   0  0  0  0  0  0  0  0  0  0  0  0
    4.4627   -2.1870   -0.4133 C   0  0  0  0  0  0  0  0  0  0  0  0
    1.4798    0.4223    0.5487 C   0  0  0  0  0  0  0  0  0  0  0  0
    2.3504    1.1697   -0.6579 S   0  0  0  0  0  0  0  0  0  0  0  0
    0.5364   -1.8912    3.3535 C   0  0  0  0  0  0  0  0  0  0  0  0
   -0.4264   -1.6901    4.3709 C   0  0  0  0  0  0  0  0  0  0  0  0
   -0.5097   -2.6146    5.4082 C   0  0  0  0  0  0  0  0  0  0  0  0
   -1.4738   -2.7057    6.4955 C   0  0  0  0  0  0  0  0  0  0  0  0
   -2.4160   -1.9062    6.7372 O   0  0  0  0  0  0  0  0  0  0  0  0
   -1.1845   -3.9463    7.1993 C   0  0  0  0  0  0  0  0  0  0  0  0
   -0.0995   -4.5547    6.5934 C   0  0  0  0  0  0  0  0  0  0  0  0
    0.3183   -3.7229    5.4633 C   0  0  0  0  0  0  0  0  0  0  0  0
    1.2568   -3.9674    4.4677 C   0  0  0  0  0  0  0  0  0  0  0  0
    1.3605   -3.0489    3.4078 C   0  0  0  0  0  0  0  0  0  0  0  0
    0.3592   -5.8021    7.0168 C   0  0  0  0  0  0  0  0  0  0  0  0
   -0.3506   -6.4598    8.0386 C   0  0  0  0  0  0  0  0  0  0  0  0
   -1.5159   -5.8800    8.5937 C   0  0  0  0  0  0  0  0  0  0  0  0
   -1.9022   -4.5776    8.2080 C   0  0  0  0  0  0  0  0  0  0  0  0
   -2.3475   -6.6575    9.5346 C   0  0  0  0  0  0  0  0  0  0  0  0
   -3.6948   -6.6868    9.4920 C   0  0  0  0  0  0  0  0  0  0  0  0
   -4.5223   -6.9684   10.6641 C   0  0  0  0  0  0  0  0  0  0  0  0
   -4.1668   -7.5983   11.6926 O   0  0  0  0  0  0  0  0  0  0  0  0
   -5.8193   -6.3489   10.4509 C   0  0  0  0  0  0  0  0  0  0  0  0
   -6.8715   -6.2061   11.3540 C   0  0  0  0  0  0  0  0  0  0  0  0
   -7.9863   -5.4441   10.9711 C   0  0  0  0  0  0  0  0  0  0  0  0
   -9.3279   -5.2442   12.0863 Cl  0  0  0  0  0  0  0  0  0  0  0  0
   -8.0133   -4.8192    9.7056 C   0  0  0  0  0  0  0  0  0  0  0  0
   -9.0692   -4.0456    9.3500 F   0  0  0  0  0  0  0  0  0  0  0  0
   -6.9378   -4.9735    8.8144 C   0  0  0  0  0  0  0  0  0  0  0  0
   -5.8543   -5.7752    9.1930 C   0  0  0  0  0  0  0  0  0  0  0  0
   -4.6012   -6.0967    8.4649 C   0  0  0  0  0  0  0  0  0  0  0  0
   -4.4765   -6.2313    7.1222 C   0  0  0  0  0  0  0  0  0  0  0  0
   -3.4115   -6.9964    6.5278 C   0  0  0  0  0  0  0  0  0  0  0  0
   -2.5719   -7.6207    6.0266 N   0  0  0  0  0  0  0  0  0  0  0  0
   -5.4891   -5.7803    6.2055 C   0  0  0  0  0  0  0  0  0  0  0  0
   -6.2947   -5.4351    5.4506 N   0  0  0  0  0  0  0  0  0  0  0  0
    3.1692    6.6511  -10.4668 H   0  0  0  0  0  0  0  0  0  0  0  0
    6.8619    4.2271  -13.5327 H   0  0  0  0  0  0  0  0  0  0  0  0
    5.4397    0.7399  -10.2728 H   0  0  0  0  0  0  0  0  0  0  0  0
    4.4322    4.3528   -7.9880 H   0  0  0  0  0  0  0  0  0  0  0  0
    0.0207    6.2819   -6.6477 H   0  0  0  0  0  0  0  0  0  0  0  0
    0.9136    6.7022   -8.9389 H   0  0  0  0  0  0  0  0  0  0  0  0
   -0.5664    5.3270   -4.3025 H   0  0  0  0  0  0  0  0  0  0  0  0
   -0.7677    4.0359   -2.2301 H   0  0  0  0  0  0  0  0  0  0  0  0
    3.1597    2.2952   -2.9587 H   0  0  0  0  0  0  0  0  0  0  0  0
   -0.9421    1.3262   -3.2241 H   0  0  0  0  0  0  0  0  0  0  0  0
   -2.2083   -0.3838   -4.4558 H   0  0  0  0  0  0  0  0  0  0  0  0
   -2.3991   -3.1471   -3.4868 H   0  0  0  0  0  0  0  0  0  0  0  0
   -3.4464   -3.3214   -2.0121 H   0  0  0  0  0  0  0  0  0  0  0  0
   -3.7986   -4.2882   -3.4947 H   0  0  0  0  0  0  0  0  0  0  0  0
   -4.9077   -0.7909   -1.1309 H   0  0  0  0  0  0  0  0  0  0  0  0
   -3.6559    0.9395    0.1039 H   0  0  0  0  0  0  0  0  0  0  0  0
   -0.6202    3.4366    1.5940 H   0  0  0  0  0  0  0  0  0  0  0  0
   -1.7603    5.2475    2.7795 H   0  0  0  0  0  0  0  0  0  0  0  0
   -4.5746    4.8756    3.8020 H   0  0  0  0  0  0  0  0  0  0  0  0
   -5.8878    6.1157    3.8941 H   0  0  0  0  0  0  0  0  0  0  0  0
   -5.8608    4.9389    2.5204 H   0  0  0  0  0  0  0  0  0  0  0  0
   -4.7981    5.3651   -0.2609 H   0  0  0  0  0  0  0  0  0  0  0  0
   -3.6760    3.5463   -1.4687 H   0  0  0  0  0  0  0  0  0  0  0  0
    4.7665   -3.1781    2.2873 H   0  0  0  0  0  0  0  0  0  0  0  0
    6.5488   -2.8223    3.9441 H   0  0  0  0  0  0  0  0  0  0  0  0
    8.6763   -0.7044    3.4737 H   0  0  0  0  0  0  0  0  0  0  0  0
    9.5003    0.2912    4.7345 H   0  0  0  0  0  0  0  0  0  0  0  0
    8.1524    1.0096    3.7702 H   0  0  0  0  0  0  0  0  0  0  0  0
    5.2569    1.2471    4.4852 H   0  0  0  0  0  0  0  0  0  0  0  0
    3.4873    0.9138    2.8111 H   0  0  0  0  0  0  0  0  0  0  0  0
    1.1892   -2.9601    0.1656 H   0  0  0  0  0  0  0  0  0  0  0  0
    1.5478   -4.3086   -1.8517 H   0  0  0  0  0  0  0  0  0  0  0  0
    4.2343   -2.5293   -4.5731 H   0  0  0  0  0  0  0  0  0  0  0  0
    2.4682   -2.9354   -4.4861 H   0  0  0  0  0  0  0  0  0  0  0  0
    3.5145   -3.7146   -5.7362 H   0  0  0  0  0  0  0  0  0  0  0  0
    5.6309   -2.9612   -2.0418 H   0  0  0  0  0  0  0  0  0  0  0  0
    5.2740   -1.5813   -0.0350 H   0  0  0  0  0  0  0  0  0  0  0  0
   -1.0994   -0.8425    4.3550 H   0  0  0  0  0  0  0  0  0  0  0  0
    1.8722   -4.8577    4.4891 H   0  0  0  0  0  0  0  0  0  0  0  0
    2.0589   -3.2801    2.6208 H   0  0  0  0  0  0  0  0  0  0  0  0
    1.2171   -6.2705    6.5481 H   0  0  0  0  0  0  0  0  0  0  0  0
   -0.0317   -7.4456    8.3539 H   0  0  0  0  0  0  0  0  0  0  0  0
   -2.7641   -4.0898    8.6389 H   0  0  0  0  0  0  0  0  0  0  0  0
   -1.8369   -7.1385   10.3607 H   0  0  0  0  0  0  0  0  0  0  0  0
   -6.8189   -6.6586   12.3373 H   0  0  0  0  0  0  0  0  0  0  0  0
   -6.9643   -4.4538    7.8678 H   0  0  0  0  0  0  0  0  0  0  0  0
  1  2  2  3
  2  3  1  0
  3  4  2  0
  3  5  1  0
  5  6  2  0
  6  7  1  0
  7  8  1  0
  7  9  2  0
  9 10  1  0
  9 11  1  0
 11 12  2  0
 12 13  1  0
 13 14  2  3
 14 15  1  0
 15 16  3  0
 14 17  1  0
 17 18  3  0
  1 19  1  0
 19 20  2  0
 20 21  1  0
 21 22  1  0
 22 23  2  0
 22 24  1  0
 24 25  2  0
 25 26  1  0
 26 27  1  0
 27 28  2  0
 25 29  1  0
 29 30  2  0
 30 31  1  0
 31 32  2  0
 31 33  1  0
 33 34  2  0
 34 35  1  0
 35 36  1  0
 36 37  2  0
 37 38  1  0
 38 39  2  0
 39 40  1  0
 40 41  1  0
 39 42  1  0
 42 43  2  0
 35 44  1  0
 44 45  2  0
 45 46  1  0
 46 47  2  0
 47 48  1  0
 48 49  1  0
 47 50  1  0
 50 51  2  0
 34 52  1  0
 52 53  1  0
 53 54  1  0
 54 55  2  0
 55 56  1  0
 56 57  1  0
 57 58  2  0
 58 59  1  0
 59 60  2  0
 60 61  1  0
 61 62  1  0
 60 63  1  0
 63 64  2  0
 56 65  1  0
 65 66  2  0
 66 67  1  0
 67 68  2  0
 68 69  1  0
 69 70  1  0
 68 71  1  0
 71 72  2  0
 55 73  1  0
 73 74  1  0
 54 75  1  0
 75 76  2  0
 76 77  1  0
 77 78  1  0
 78 79  2  0
 78 80  1  0
 80 81  2  0
 81 82  1  0
 82 83  1  0
 83 84  2  0
 81 85  1  0
 85 86  2  0
 86 87  1  0
 87 88  2  0
 87 89  1  0
 89 90  2  3
 90 91  1  0
 91 92  2  0
 91 93  1  0
 93 94  2  0
 94 95  1  0
 95 96  1  0
 95 97  2  0
 97 98  1  0
 97 99  1  0
 99100  2  0
100101  1  0
101102  2  3
102103  1  0
103104  3  0
102105  1  0
105106  3  0
 13  2  1  0
 28 19  1  0
 74 33  1  0
 84 75  1  0
101 90  1  0
 12  5  1  0
 26 21  2  0
 43 36  1  0
 51 44  1  0
 73 52  2  0
 82 77  2  0
100 93  1  0
 32 24  1  0
 64 57  1  0
 72 65  1  0
 88 80  1  0
  1107  1  0
  6108  1  0
 11109  1  0
 20110  1  0
 27111  1  0
 28112  1  0
 29113  1  0
 30114  1  0
 32115  1  0
 37116  1  0
 38117  1  0
 41118  1  0
 41119  1  0
 41120  1  0
 42121  1  0
 43122  1  0
 45123  1  0
 46124  1  0
 49125  1  0
 49126  1  0
 49127  1  0
 50128  1  0
 51129  1  0
 58130  1  0
 59131  1  0
 62132  1  0
 62133  1  0
 62134  1  0
 63135  1  0
 64136  1  0
 66137  1  0
 67138  1  0
 70139  1  0
 70140  1  0
 70141  1  0
 71142  1  0
 72143  1  0
 76144  1  0
 83145  1  0
 84146  1  0
 85147  1  0
 86148  1  0
 88149  1  0
 89150  1  0
 94151  1  0
 99152  1  0
M  END

