
     RDKit          3D

174191  0  0  0  0  0  0  0  0999 V2000
    4.4217    8.7971   -4.7582 C   0  0  0  0  0  0  0  0  0  0  0  0
    5.3643    7.9637   -4.2755 C   0  0  0  0  0  0  0  0  0  0  0  0
    6.3990    7.3692   -5.1213 C   0  0  0  0  0  0  0  0  0  0  0  0
    6.8697    7.8674   -6.1813 O   0  0  0  0  0  0  0  0  0  0  0  0
    6.7053    6.0444   -4.5949 C   0  0  0  0  0  0  0  0  0  0  0  0
    7.5058    5.0431   -5.1544 C   0  0  0  0  0  0  0  0  0  0  0  0
    7.5558    3.7925   -4.5173 C   0  0  0  0  0  0  0  0  0  0  0  0
    8.5313    2.5095   -5.2096 Cl  0  0  0  0  0  0  0  0  0  0  0  0
    6.7972    3.5611   -3.3523 C   0  0  0  0  0  0  0  0  0  0  0  0
    6.8424    2.3498   -2.7414 F   0  0  0  0  0  0  0  0  0  0  0  0
    5.9940    4.5776   -2.8134 C   0  0  0  0  0  0  0  0  0  0  0  0
    5.9711    5.8280   -3.4429 C   0  0  0  0  0  0  0  0  0  0  0  0
    5.2214    7.0581   -3.0979 C   0  0  0  0  0  0  0  0  0  0  0  0
    4.8720    7.4580   -1.8537 C   0  0  0  0  0  0  0  0  0  0  0  0
    4.7492    8.8580   -1.5440 C   0  0  0  0  0  0  0  0  0  0  0  0
    4.6815    9.9910   -1.2964 N   0  0  0  0  0  0  0  0  0  0  0  0
    4.8107    6.5602   -0.7268 C   0  0  0  0  0  0  0  0  0  0  0  0
    4.7541    5.8451    0.1832 N   0  0  0  0  0  0  0  0  0  0  0  0
    3.0179    8.6552   -4.3438 C   0  0  0  0  0  0  0  0  0  0  0  0
    2.3302    7.4829   -4.7138 C   0  0  0  0  0  0  0  0  0  0  0  0
    1.0841    7.2431   -4.1495 C   0  0  0  0  0  0  0  0  0  0  0  0
    0.3255    6.0033   -4.1493 C   0  0  0  0  0  0  0  0  0  0  0  0
    0.5514    4.9849   -4.8584 O   0  0  0  0  0  0  0  0  0  0  0  0
   -0.6572    6.1186   -3.0863 C   0  0  0  0  0  0  0  0  0  0  0  0
   -0.5319    7.3699   -2.4995 C   0  0  0  0  0  0  0  0  0  0  0  0
    0.5463    8.0924   -3.1992 C   0  0  0  0  0  0  0  0  0  0  0  0
    1.1681    9.3009   -2.8743 C   0  0  0  0  0  0  0  0  0  0  0  0
    2.3979    9.6030   -3.4893 C   0  0  0  0  0  0  0  0  0  0  0  0
   -1.0954    7.6329   -1.2499 C   0  0  0  0  0  0  0  0  0  0  0  0
   -1.7547    6.5871   -0.5789 C   0  0  0  0  0  0  0  0  0  0  0  0
   -1.8231    5.2845   -1.1421 C   0  0  0  0  0  0  0  0  0  0  0  0
   -1.3036    5.0743   -2.4397 C   0  0  0  0  0  0  0  0  0  0  0  0
   -2.0961    4.1110   -0.2756 C   0  0  0  0  0  0  0  0  0  0  0  0
   -2.3512    2.7992   -0.7189 C   0  0  0  0  0  0  0  0  0  0  0  0
   -2.9734    2.4554   -1.9697 N   0  0  0  0  0  0  0  0  0  0  0  0
   -4.3540    2.8415   -2.1467 C   0  0  0  0  0  0  0  0  0  0  0  0
   -5.2890    2.6253   -1.1134 C   0  0  0  0  0  0  0  0  0  0  0  0
   -6.6341    2.9377   -1.3048 C   0  0  0  0  0  0  0  0  0  0  0  0
   -7.0672    3.4595   -2.5308 C   0  0  0  0  0  0  0  0  0  0  0  0
   -8.8095    3.7866   -2.7994 S   0  0  0  0  0  0  0  0  0  0  0  0
   -9.1728    2.0786   -3.3374 C   0  0  0  0  0  0  0  0  0  0  0  0
   -6.1372    3.7042   -3.5500 C   0  0  0  0  0  0  0  0  0  0  0  0
   -4.7836    3.4071   -3.3582 C   0  0  0  0  0  0  0  0  0  0  0  0
   -2.3367    1.5249   -2.8832 C   0  0  0  0  0  0  0  0  0  0  0  0
   -3.1065    0.6935   -3.7210 C   0  0  0  0  0  0  0  0  0  0  0  0
   -2.4906   -0.1255   -4.6696 C   0  0  0  0  0  0  0  0  0  0  0  0
   -1.1024   -0.1462   -4.7866 C   0  0  0  0  0  0  0  0  0  0  0  0
   -0.3425   -1.1585   -6.0556 S   0  0  0  0  0  0  0  0  0  0  0  0
   -0.3442    0.1815   -7.2975 C   0  0  0  0  0  0  0  0  0  0  0  0
   -0.3192    0.6184   -3.9161 C   0  0  0  0  0  0  0  0  0  0  0  0
   -0.9295    1.4386   -2.9590 C   0  0  0  0  0  0  0  0  0  0  0  0
   -2.0912    1.8671    0.2749 C   0  0  0  0  0  0  0  0  0  0  0  0
   -2.0443    0.1989    0.3105 S   0  0  0  0  0  0  0  0  0  0  0  0
   -1.4776    0.1154    1.9146 C   0  0  0  0  0  0  0  0  0  0  0  0
   -1.3312    1.4172    2.4136 C   0  0  0  0  0  0  0  0  0  0  0  0
   -1.0347    1.7259    3.7807 N   0  0  0  0  0  0  0  0  0  0  0  0
   -2.0264    1.4180    4.7800 C   0  0  0  0  0  0  0  0  0  0  0  0
   -3.3854    1.7216    4.5605 C   0  0  0  0  0  0  0  0  0  0  0  0
   -4.3456    1.4017    5.5194 C   0  0  0  0  0  0  0  0  0  0  0  0
   -3.9617    0.7747    6.7084 C   0  0  0  0  0  0  0  0  0  0  0  0
   -5.2021    0.3296    7.9234 S   0  0  0  0  0  0  0  0  0  0  0  0
   -5.5078   -1.2982    7.1618 C   0  0  0  0  0  0  0  0  0  0  0  0
   -2.6140    0.4669    6.9376 C   0  0  0  0  0  0  0  0  0  0  0  0
   -1.6492    0.8004    5.9830 C   0  0  0  0  0  0  0  0  0  0  0  0
    0.1670    2.4372    4.1183 C   0  0  0  0  0  0  0  0  0  0  0  0
    1.3949    2.0810    3.5305 C   0  0  0  0  0  0  0  0  0  0  0  0
    2.5661    2.7674    3.8575 C   0  0  0  0  0  0  0  0  0  0  0  0
    2.5221    3.8303    4.7707 C   0  0  0  0  0  0  0  0  0  0  0  0
    4.0281    4.7086    5.1946 S   0  0  0  0  0  0  0  0  0  0  0  0
    4.3971    3.6289    6.6160 C   0  0  0  0  0  0  0  0  0  0  0  0
    1.3022    4.2035    5.3485 C   0  0  0  0  0  0  0  0  0  0  0  0
    0.1275    3.5111    5.0187 C   0  0  0  0  0  0  0  0  0  0  0  0
   -1.6823    2.3634    1.4566 C   0  0  0  0  0  0  0  0  0  0  0  0
   -1.5879    4.0355    1.3631 S   0  0  0  0  0  0  0  0  0  0  0  0
   -0.6667   -1.0168    2.3435 C   0  0  0  0  0  0  0  0  0  0  0  0
   -1.1655   -2.1975    2.8909 C   0  0  0  0  0  0  0  0  0  0  0  0
   -0.3002   -3.2946    2.6914 C   0  0  0  0  0  0  0  0  0  0  0  0
   -0.5573   -4.6286    3.0550 C   0  0  0  0  0  0  0  0  0  0  0  0
   -1.6938   -4.9818    3.9249 C   0  0  0  0  0  0  0  0  0  0  0  0
   -1.7521   -4.6496    5.5706 S   0  0  0  0  0  0  0  0  0  0  0  0
   -3.1648   -5.5131    5.8872 C   0  0  0  0  0  0  0  0  0  0  0  0
   -3.7096   -5.7544    7.2628 C   0  0  0  0  0  0  0  0  0  0  0  0
   -5.0954   -5.1417    7.4449 C   0  0  0  0  0  0  0  0  0  0  0  0
   -3.6216   -6.0618    4.6874 C   0  0  0  0  0  0  0  0  0  0  0  0
   -5.0403   -7.0871    4.5545 Cl  0  0  0  0  0  0  0  0  0  0  0  0
   -2.7902   -5.7745    3.5886 C   0  0  0  0  0  0  0  0  0  0  0  0
   -3.0726   -6.4411    1.9791 Cl  0  0  0  0  0  0  0  0  0  0  0  0
    0.3482   -5.6017    2.5850 C   0  0  0  0  0  0  0  0  0  0  0  0
    1.4655   -5.2734    1.8081 C   0  0  0  0  0  0  0  0  0  0  0  0
    1.7695   -3.9284    1.5169 C   0  0  0  0  0  0  0  0  0  0  0  0
    3.0031   -3.5434    0.8023 C   0  0  0  0  0  0  0  0  0  0  0  0
    4.2947   -3.7849    1.2598 C   0  0  0  0  0  0  0  0  0  0  0  0
    5.2837   -3.2813    0.4124 C   0  0  0  0  0  0  0  0  0  0  0  0
    4.7763   -2.6336   -0.7081 C   0  0  0  0  0  0  0  0  0  0  0  0
    5.6167   -2.0657   -1.8187 C   0  0  0  0  0  0  0  0  0  0  0  0
    4.9205   -0.9164   -2.5504 C   0  0  0  0  0  0  0  0  0  0  0  0
    3.0847   -2.7180   -0.6611 S   0  0  0  0  0  0  0  0  0  0  0  0
    0.8543   -2.9665    1.9647 C   0  0  0  0  0  0  0  0  0  0  0  0
    0.8191   -1.3319    1.6080 S   0  0  0  0  0  0  0  0  0  0  0  0
    2.1434   -6.3990    1.3074 C   0  0  0  0  0  0  0  0  0  0  0  0
    1.5441   -7.5976    1.6887 C   0  0  0  0  0  0  0  0  0  0  0  0
    0.2527   -7.2724    2.7173 S   0  0  0  0  0  0  0  0  0  0  0  0
    1.9274   -8.9469    1.2491 C   0  0  0  0  0  0  0  0  0  0  0  0
    2.3566   -9.2685    0.0066 C   0  0  0  0  0  0  0  0  0  0  0  0
    3.0965  -10.4969   -0.2674 C   0  0  0  0  0  0  0  0  0  0  0  0
    3.1639  -11.5101    0.4763 O   0  0  0  0  0  0  0  0  0  0  0  0
    3.7573  -10.3486   -1.5503 C   0  0  0  0  0  0  0  0  0  0  0  0
    4.5845  -11.2704   -2.2035 C   0  0  0  0  0  0  0  0  0  0  0  0
    5.0767  -10.9445   -3.4801 C   0  0  0  0  0  0  0  0  0  0  0  0
    6.1216  -12.0789   -4.3090 Cl  0  0  0  0  0  0  0  0  0  0  0  0
    4.7366   -9.7117   -4.0676 C   0  0  0  0  0  0  0  0  0  0  0  0
    5.1809   -9.4158   -5.3206 F   0  0  0  0  0  0  0  0  0  0  0  0
    3.9009   -8.8056   -3.3947 C   0  0  0  0  0  0  0  0  0  0  0  0
    3.4023   -9.1360   -2.1217 C   0  0  0  0  0  0  0  0  0  0  0  0
    2.4047   -8.4504   -1.2468 C   0  0  0  0  0  0  0  0  0  0  0  0
    1.4445   -7.5907   -1.6743 C   0  0  0  0  0  0  0  0  0  0  0  0
    0.1954   -7.4217   -0.9794 C   0  0  0  0  0  0  0  0  0  0  0  0
   -0.8010   -7.2835   -0.4183 N   0  0  0  0  0  0  0  0  0  0  0  0
    1.5644   -6.8368   -2.8990 C   0  0  0  0  0  0  0  0  0  0  0  0
    1.6580   -6.2111   -3.8731 N   0  0  0  0  0  0  0  0  0  0  0  0
    4.5996    9.3056   -5.6984 H   0  0  0  0  0  0  0  0  0  0  0  0
    8.0587    5.2233   -6.0697 H   0  0  0  0  0  0  0  0  0  0  0  0
    5.3847    4.3615   -1.9494 H   0  0  0  0  0  0  0  0  0  0  0  0
    2.8028    6.7367   -5.3413 H   0  0  0  0  0  0  0  0  0  0  0  0
    0.7520    9.9545   -2.1167 H   0  0  0  0  0  0  0  0  0  0  0  0
    2.9069   10.5199   -3.2353 H   0  0  0  0  0  0  0  0  0  0  0  0
   -0.9361    8.5802   -0.7545 H   0  0  0  0  0  0  0  0  0  0  0  0
   -2.1105    6.7581    0.4316 H   0  0  0  0  0  0  0  0  0  0  0  0
   -1.2406    4.0931   -2.8751 H   0  0  0  0  0  0  0  0  0  0  0  0
   -4.9803    2.1784   -0.1775 H   0  0  0  0  0  0  0  0  0  0  0  0
   -7.3474    2.7458   -0.5167 H   0  0  0  0  0  0  0  0  0  0  0  0
   -8.5743    1.8275   -4.2348 H   0  0  0  0  0  0  0  0  0  0  0  0
  -10.2497    1.9978   -3.5901 H   0  0  0  0  0  0  0  0  0  0  0  0
   -8.9439    1.3656   -2.5207 H   0  0  0  0  0  0  0  0  0  0  0  0
   -6.4660    4.1211   -4.4944 H   0  0  0  0  0  0  0  0  0  0  0  0
   -4.0762    3.5831   -4.1566 H   0  0  0  0  0  0  0  0  0  0  0  0
   -4.1826    0.6840   -3.6567 H   0  0  0  0  0  0  0  0  0  0  0  0
   -3.0990   -0.7313   -5.3265 H   0  0  0  0  0  0  0  0  0  0  0  0
   -0.0956   -0.2515   -8.2975 H   0  0  0  0  0  0  0  0  0  0  0  0
    0.4124    0.9492   -7.0176 H   0  0  0  0  0  0  0  0  0  0  0  0
   -1.3535    0.6513   -7.3563 H   0  0  0  0  0  0  0  0  0  0  0  0
    0.7639    0.5864   -3.9821 H   0  0  0  0  0  0  0  0  0  0  0  0
   -0.2993    2.0244   -2.3005 H   0  0  0  0  0  0  0  0  0  0  0  0
   -3.6965    2.1998    3.6396 H   0  0  0  0  0  0  0  0  0  0  0  0
   -5.3885    1.6438    5.3374 H   0  0  0  0  0  0  0  0  0  0  0  0
   -6.1885   -1.8939    7.8100 H   0  0  0  0  0  0  0  0  0  0  0  0
   -5.9820   -1.1746    6.1671 H   0  0  0  0  0  0  0  0  0  0  0  0
   -4.5514   -1.8462    7.0499 H   0  0  0  0  0  0  0  0  0  0  0  0
   -2.3182   -0.0284    7.8484 H   0  0  0  0  0  0  0  0  0  0  0  0
   -0.6132    0.5487    6.1623 H   0  0  0  0  0  0  0  0  0  0  0  0
    1.4455    1.2591    2.8358 H   0  0  0  0  0  0  0  0  0  0  0  0
    3.5050    2.4780    3.4019 H   0  0  0  0  0  0  0  0  0  0  0  0
    4.4020    2.5680    6.2947 H   0  0  0  0  0  0  0  0  0  0  0  0
    5.3946    3.8825    7.0172 H   0  0  0  0  0  0  0  0  0  0  0  0
    3.6363    3.7767    7.4075 H   0  0  0  0  0  0  0  0  0  0  0  0
    1.2608    5.0249    6.0516 H   0  0  0  0  0  0  0  0  0  0  0  0
   -0.8144    3.8241    5.4645 H   0  0  0  0  0  0  0  0  0  0  0  0
   -2.1603   -2.2805    3.3205 H   0  0  0  0  0  0  0  0  0  0  0  0
   -3.0296   -5.2979    8.0166 H   0  0  0  0  0  0  0  0  0  0  0  0
   -3.7555   -6.8482    7.4500 H   0  0  0  0  0  0  0  0  0  0  0  0
   -5.0601   -4.0652    7.2003 H   0  0  0  0  0  0  0  0  0  0  0  0
   -5.4028   -5.2652    8.5039 H   0  0  0  0  0  0  0  0  0  0  0  0
   -5.8448   -5.6402    6.7983 H   0  0  0  0  0  0  0  0  0  0  0  0
    4.5183   -4.2913    2.1878 H   0  0  0  0  0  0  0  0  0  0  0  0
    6.3401   -3.3890    0.6200 H   0  0  0  0  0  0  0  0  0  0  0  0
    6.5691   -1.6783   -1.3911 H   0  0  0  0  0  0  0  0  0  0  0  0
    5.8640   -2.8787   -2.5386 H   0  0  0  0  0  0  0  0  0  0  0  0
    4.6193   -0.1253   -1.8281 H   0  0  0  0  0  0  0  0  0  0  0  0
    5.6199   -0.4779   -3.2954 H   0  0  0  0  0  0  0  0  0  0  0  0
    4.0215   -1.2871   -3.0883 H   0  0  0  0  0  0  0  0  0  0  0  0
    2.9928   -6.3346    0.6404 H   0  0  0  0  0  0  0  0  0  0  0  0
    1.9032   -9.7160    2.0092 H   0  0  0  0  0  0  0  0  0  0  0  0
    4.8332  -12.2112   -1.7369 H   0  0  0  0  0  0  0  0  0  0  0  0
    3.6555   -7.8766   -3.8858 H   0  0  0  0  0  0  0  0  0  0  0  0
  1  2  2  3
  2  3  1  0
  3  4  2  0
  3  5  1  0
  5  6  2  0
  6  7  1  0
  7  8  1  0
  7  9  2  0
  9 10  1  0
  9 11  1  0
 11 12  2  0
 12 13  1  0
 13 14  2  3
 14 15  1  0
 15 16  3  0
 14 17  1  0
 17 18  3  0
  1 19  1  0
 19 20  2  0
 20 21  1  0
 21 22  1  0
 22 23  2  0
 22 24  1  0
 24 25  2  0
 25 26  1  0
 26 27  1  0
 27 28  2  0
 25 29  1  0
 29 30  2  0
 30 31  1  0
 31 32  2  0
 31 33  1  0
 33 34  2  0
 34 35  1  0
 35 36  1  0
 36 37  2  0
 37 38  1  0
 38 39  2  0
 39 40  1  0
 40 41  1  0
 39 42  1  0
 42 43  2  0
 35 44  1  0
 44 45  2  0
 45 46  1  0
 46 47  2  0
 47 48  1  0
 48 49  1  0
 47 50  1  0
 50 51  2  0
 34 52  1  0
 52 53  1  0
 53 54  1  0
 54 55  2  0
 55 56  1  0
 56 57  1  0
 57 58  2  0
 58 59  1  0
 59 60  2  0
 60 61  1  0
 61 62  1  0
 60 63  1  0
 63 64  2  0
 56 65  1  0
 65 66  2  0
 66 67  1  0
 67 68  2  0
 68 69  1  0
 69 70  1  0
 68 71  1  0
 71 72  2  0
 55 73  1  0
 73 74  1  0
 54 75  1  0
 75 76  2  0
 76 77  1  0
 77 78  2  0
 78 79  1  0
 79 80  1  0
 80 81  1  0
 81 82  1  0
 82 83  1  0
 81 84  2  0
 84 85  1  0
 84 86  1  0
 86 87  1  0
 78 88  1  0
 88 89  2  0
 89 90  1  0
 90 91  1  0
 91 92  2  0
 92 93  1  0
 93 94  2  0
 94 95  1  0
 95 96  1  0
 94 97  1  0
 90 98  2  0
 98 99  1  0
 89100  1  0
100101  2  0
101102  1  0
101103  1  0
103104  2  3
104105  1  0
105106  2  0
105107  1  0
107108  2  0
108109  1  0
109110  1  0
109111  2  0
111112  1  0
111113  1  0
113114  2  0
114115  1  0
115116  2  3
116117  1  0
117118  3  0
116119  1  0
119120  3  0
 13  2  1  0
 28 19  1  0
 74 33  1  0
 99 75  1  0
115104  1  0
 12  5  1  0
 26 21  2  0
 43 36  1  0
 51 44  1  0
 73 52  2  0
 98 77  1  0
114107  1  0
 32 24  1  0
 64 57  1  0
 72 65  1  0
 86 79  2  0
102 88  1  0
 97 91  1  0
  1121  1  0
  6122  1  0
 11123  1  0
 20124  1  0
 27125  1  0
 28126  1  0
 29127  1  0
 30128  1  0
 32129  1  0
 37130  1  0
 38131  1  0
 41132  1  0
 41133  1  0
 41134  1  0
 42135  1  0
 43136  1  0
 45137  1  0
 46138  1  0
 49139  1  0
 49140  1  0
 49141  1  0
 50142  1  0
 51143  1  0
 58144  1  0
 59145  1  0
 62146  1  0
 62147  1  0
 62148  1  0
 63149  1  0
 64150  1  0
 66151  1  0
 67152  1  0
 70153  1  0
 70154  1  0
 70155  1  0
 71156  1  0
 72157  1  0
 76158  1  0
 82159  1  0
 82160  1  0
 83161  1  0
 83162  1  0
 83163  1  0
 92164  1  0
 93165  1  0
 95166  1  0
 95167  1  0
 96168  1  0
 96169  1  0
 96170  1  0
100171  1  0
103172  1  0
108173  1  0
113174  1  0
M  END

