
     RDKit          3D

200217  0  0  0  0  0  0  0  0999 V2000
    0.3050   -6.6169    2.7532 C   0  0  0  0  0  0  0  0  0  0  0  0
    1.4729   -6.1887    3.2711 C   0  0  0  0  0  0  0  0  0  0  0  0
    2.1268   -6.8683    4.3826 C   0  0  0  0  0  0  0  0  0  0  0  0
    1.8912   -8.0411    4.7658 O   0  0  0  0  0  0  0  0  0  0  0  0
    2.9579   -5.9049    5.0696 C   0  0  0  0  0  0  0  0  0  0  0  0
    3.7033   -6.0825    6.2317 C   0  0  0  0  0  0  0  0  0  0  0  0
    4.4363   -4.9948    6.7275 C   0  0  0  0  0  0  0  0  0  0  0  0
    5.4342   -5.2113    8.1575 Cl  0  0  0  0  0  0  0  0  0  0  0  0
    4.3813   -3.7452    6.0808 C   0  0  0  0  0  0  0  0  0  0  0  0
    5.1017   -2.6991    6.5608 F   0  0  0  0  0  0  0  0  0  0  0  0
    3.5972   -3.5762    4.9282 C   0  0  0  0  0  0  0  0  0  0  0  0
    2.8929   -4.6823    4.4180 C   0  0  0  0  0  0  0  0  0  0  0  0
    2.0620   -4.8202    3.1930 C   0  0  0  0  0  0  0  0  0  0  0  0
    2.1630   -4.0639    2.0735 C   0  0  0  0  0  0  0  0  0  0  0  0
    1.9235   -4.6150    0.7680 C   0  0  0  0  0  0  0  0  0  0  0  0
    1.7473   -5.0327   -0.2985 N   0  0  0  0  0  0  0  0  0  0  0  0
    2.6213   -2.6975    2.0938 C   0  0  0  0  0  0  0  0  0  0  0  0
    2.9656   -1.5936    2.0793 N   0  0  0  0  0  0  0  0  0  0  0  0
   -0.6648   -5.7328    2.0851 C   0  0  0  0  0  0  0  0  0  0  0  0
   -1.1111   -4.4627    2.5400 C   0  0  0  0  0  0  0  0  0  0  0  0
   -0.9726   -3.9829    3.8980 N   0  0  0  0  0  0  0  0  0  0  0  0
   -0.9769   -4.9052    5.0083 C   0  0  0  0  0  0  0  0  0  0  0  0
   -1.9397   -5.9256    5.0852 C   0  0  0  0  0  0  0  0  0  0  0  0
   -1.9638   -6.7911    6.1839 C   0  0  0  0  0  0  0  0  0  0  0  0
   -1.0089   -6.6637    7.1971 C   0  0  0  0  0  0  0  0  0  0  0  0
   -1.0126   -7.8012    8.5834 S   0  0  0  0  0  0  0  0  0  0  0  0
    0.0714   -9.0105    7.7577 C   0  0  0  0  0  0  0  0  0  0  0  0
   -0.0667   -5.6330    7.1407 C   0  0  0  0  0  0  0  0  0  0  0  0
   -0.0625   -4.7457    6.0621 C   0  0  0  0  0  0  0  0  0  0  0  0
   -1.2052   -2.6087    4.2372 C   0  0  0  0  0  0  0  0  0  0  0  0
   -2.4940   -2.1993    4.6058 C   0  0  0  0  0  0  0  0  0  0  0  0
   -2.7100   -0.9095    5.0996 C   0  0  0  0  0  0  0  0  0  0  0  0
   -1.6335   -0.0252    5.2333 C   0  0  0  0  0  0  0  0  0  0  0  0
   -1.8972    1.5881    5.9642 S   0  0  0  0  0  0  0  0  0  0  0  0
   -2.1796    2.4070    4.3643 C   0  0  0  0  0  0  0  0  0  0  0  0
   -0.3451   -0.4249    4.8582 C   0  0  0  0  0  0  0  0  0  0  0  0
   -0.1308   -1.7177    4.3579 C   0  0  0  0  0  0  0  0  0  0  0  0
   -1.7690   -3.7848    1.5055 C   0  0  0  0  0  0  0  0  0  0  0  0
   -2.3689   -2.2362    1.2714 S   0  0  0  0  0  0  0  0  0  0  0  0
   -2.8411   -2.4828   -0.3480 C   0  0  0  0  0  0  0  0  0  0  0  0
   -2.5195   -3.8060   -0.7096 C   0  0  0  0  0  0  0  0  0  0  0  0
   -3.0030   -4.4661   -1.8934 N   0  0  0  0  0  0  0  0  0  0  0  0
   -4.3350   -4.9918   -1.7407 C   0  0  0  0  0  0  0  0  0  0  0  0
   -4.5239   -6.3576   -1.4582 C   0  0  0  0  0  0  0  0  0  0  0  0
   -5.7709   -6.8322   -1.0537 C   0  0  0  0  0  0  0  0  0  0  0  0
   -6.8404   -5.9443   -0.8970 C   0  0  0  0  0  0  0  0  0  0  0  0
   -8.3960   -6.5260   -0.2243 S   0  0  0  0  0  0  0  0  0  0  0  0
   -7.9386   -6.1133    1.4908 C   0  0  0  0  0  0  0  0  0  0  0  0
   -6.6763   -4.5923   -1.2150 C   0  0  0  0  0  0  0  0  0  0  0  0
   -5.4289   -4.1174   -1.6343 C   0  0  0  0  0  0  0  0  0  0  0  0
   -2.0925   -5.0360   -2.8722 C   0  0  0  0  0  0  0  0  0  0  0  0
   -0.6942   -4.9450   -2.7141 C   0  0  0  0  0  0  0  0  0  0  0  0
    0.1683   -5.5913   -3.6007 C   0  0  0  0  0  0  0  0  0  0  0  0
   -0.3451   -6.3221   -4.6747 C   0  0  0  0  0  0  0  0  0  0  0  0
    0.7597   -7.2486   -5.7479 S   0  0  0  0  0  0  0  0  0  0  0  0
    0.9639   -5.8904   -6.9381 C   0  0  0  0  0  0  0  0  0  0  0  0
   -1.7248   -6.3719   -4.8826 C   0  0  0  0  0  0  0  0  0  0  0  0
   -2.5951   -5.7266   -3.9964 C   0  0  0  0  0  0  0  0  0  0  0  0
   -1.9277   -4.4947    0.3554 C   0  0  0  0  0  0  0  0  0  0  0  0
   -1.2406   -6.0155    0.5076 S   0  0  0  0  0  0  0  0  0  0  0  0
   -3.0495   -1.3452   -1.2652 C   0  0  0  0  0  0  0  0  0  0  0  0
   -2.1207   -1.1150   -2.2787 C   0  0  0  0  0  0  0  0  0  0  0  0
   -1.1144   -1.9201   -2.6581 N   0  0  0  0  0  0  0  0  0  0  0  0
   -0.3181   -1.1615   -3.3939 N   0  0  0  0  0  0  0  0  0  0  0  0
    0.9128   -1.6542   -4.0077 C   0  0  0  0  0  0  0  0  0  0  0  0
    0.5998   -2.3633   -5.3203 C   0  0  0  0  0  0  0  0  0  0  0  0
   -0.7359    0.0944   -3.4737 N   0  0  0  0  0  0  0  0  0  0  0  0
   -1.8932    0.1321   -2.7887 C   0  0  0  0  0  0  0  0  0  0  0  0
   -2.5928    1.2641   -2.3504 C   0  0  0  0  0  0  0  0  0  0  0  0
   -3.6655    1.0319   -1.4514 C   0  0  0  0  0  0  0  0  0  0  0  0
   -3.8805   -0.2577   -0.9024 C   0  0  0  0  0  0  0  0  0  0  0  0
   -4.8051   -0.4063    0.0846 F   0  0  0  0  0  0  0  0  0  0  0  0
   -4.3880    2.0838   -0.9761 F   0  0  0  0  0  0  0  0  0  0  0  0
   -1.9391    2.5969   -2.3989 C   0  0  0  0  0  0  0  0  0  0  0  0
   -1.0333    3.0089   -3.4053 C   0  0  0  0  0  0  0  0  0  0  0  0
   -1.2261    2.7400   -4.8144 N   0  0  0  0  0  0  0  0  0  0  0  0
   -2.5445    2.8927   -5.3626 C   0  0  0  0  0  0  0  0  0  0  0  0
   -3.2413    4.0998   -5.1908 C   0  0  0  0  0  0  0  0  0  0  0  0
   -4.4776    4.2972   -5.8114 C   0  0  0  0  0  0  0  0  0  0  0  0
   -5.0303    3.2855   -6.6085 C   0  0  0  0  0  0  0  0  0  0  0  0
   -6.5776    3.5727   -7.4737 S   0  0  0  0  0  0  0  0  0  0  0  0
   -7.6088    3.0256   -6.0802 C   0  0  0  0  0  0  0  0  0  0  0  0
   -4.3535    2.0718   -6.7615 C   0  0  0  0  0  0  0  0  0  0  0  0
   -3.1059    1.8774   -6.1517 C   0  0  0  0  0  0  0  0  0  0  0  0
   -0.1272    2.7564   -5.7389 C   0  0  0  0  0  0  0  0  0  0  0  0
    0.4732    1.5548   -6.1361 C   0  0  0  0  0  0  0  0  0  0  0  0
    1.5597    1.5626   -7.0131 C   0  0  0  0  0  0  0  0  0  0  0  0
    2.0422    2.7743   -7.5210 C   0  0  0  0  0  0  0  0  0  0  0  0
    3.4705    2.7898   -8.6045 S   0  0  0  0  0  0  0  0  0  0  0  0
    2.4912    2.4965  -10.1120 C   0  0  0  0  0  0  0  0  0  0  0  0
    1.4153    3.9799   -7.1623 C   0  0  0  0  0  0  0  0  0  0  0  0
    0.3236    3.9671   -6.2881 C   0  0  0  0  0  0  0  0  0  0  0  0
    0.0081    3.7800   -2.8650 C   0  0  0  0  0  0  0  0  0  0  0  0
    1.5734    4.1661   -3.3535 S   0  0  0  0  0  0  0  0  0  0  0  0
    2.0691    4.7350   -1.8232 C   0  0  0  0  0  0  0  0  0  0  0  0
    0.9944    4.6386   -0.9250 C   0  0  0  0  0  0  0  0  0  0  0  0
    0.9991    5.0773    0.4470 N   0  0  0  0  0  0  0  0  0  0  0  0
   -0.1636    5.7560    0.9621 C   0  0  0  0  0  0  0  0  0  0  0  0
   -0.8002    6.7474    0.1922 C   0  0  0  0  0  0  0  0  0  0  0  0
   -2.0232    7.2800    0.6023 C   0  0  0  0  0  0  0  0  0  0  0  0
   -2.6257    6.8275    1.7781 C   0  0  0  0  0  0  0  0  0  0  0  0
   -4.2808    7.3785    2.2052 S   0  0  0  0  0  0  0  0  0  0  0  0
   -5.0884    6.1126    1.1695 C   0  0  0  0  0  0  0  0  0  0  0  0
   -1.9632    5.8949    2.5846 C   0  0  0  0  0  0  0  0  0  0  0  0
   -0.7298    5.3659    2.1861 C   0  0  0  0  0  0  0  0  0  0  0  0
    2.1196    4.8183    1.3035 C   0  0  0  0  0  0  0  0  0  0  0  0
    2.9530    5.8695    1.7096 C   0  0  0  0  0  0  0  0  0  0  0  0
    4.1005    5.6072    2.4626 C   0  0  0  0  0  0  0  0  0  0  0  0
    4.4176    4.2912    2.8238 C   0  0  0  0  0  0  0  0  0  0  0  0
    5.9176    3.9489    3.7455 S   0  0  0  0  0  0  0  0  0  0  0  0
    5.1543    4.3070    5.3563 C   0  0  0  0  0  0  0  0  0  0  0  0
    3.5846    3.2414    2.4281 C   0  0  0  0  0  0  0  0  0  0  0  0
    2.4466    3.4969    1.6517 C   0  0  0  0  0  0  0  0  0  0  0  0
   -0.1210    4.0814   -1.5462 C   0  0  0  0  0  0  0  0  0  0  0  0
   -1.4740    3.3258   -0.9300 S   0  0  0  0  0  0  0  0  0  0  0  0
    3.4606    5.0226   -1.4490 C   0  0  0  0  0  0  0  0  0  0  0  0
    4.3519    4.0443   -1.1927 C   0  0  0  0  0  0  0  0  0  0  0  0
    4.0508    2.6012   -1.2032 C   0  0  0  0  0  0  0  0  0  0  0  0
    3.0700    2.0361   -1.7509 O   0  0  0  0  0  0  0  0  0  0  0  0
    5.0628    1.9140   -0.4320 C   0  0  0  0  0  0  0  0  0  0  0  0
    5.1023    0.5669   -0.0868 C   0  0  0  0  0  0  0  0  0  0  0  0
    6.1272    0.1178    0.7582 C   0  0  0  0  0  0  0  0  0  0  0  0
    6.2063   -1.5715    1.2147 Cl  0  0  0  0  0  0  0  0  0  0  0  0
    7.0867    1.0295    1.2394 C   0  0  0  0  0  0  0  0  0  0  0  0
    8.0726    0.6001    2.0659 F   0  0  0  0  0  0  0  0  0  0  0  0
    7.0315    2.3834    0.8704 C   0  0  0  0  0  0  0  0  0  0  0  0
    6.0049    2.8246    0.0164 C   0  0  0  0  0  0  0  0  0  0  0  0
    5.6717    4.1905   -0.5026 C   0  0  0  0  0  0  0  0  0  0  0  0
    6.4488    5.3058   -0.4561 C   0  0  0  0  0  0  0  0  0  0  0  0
    7.7174    5.3413    0.2268 C   0  0  0  0  0  0  0  0  0  0  0  0
    8.7405    5.3799    0.7781 N   0  0  0  0  0  0  0  0  0  0  0  0
    6.1147    6.5122   -1.1621 C   0  0  0  0  0  0  0  0  0  0  0  0
    5.8542    7.4853   -1.7321 N   0  0  0  0  0  0  0  0  0  0  0  0
   -0.0129   -7.6302    2.9400 H   0  0  0  0  0  0  0  0  0  0  0  0
    3.7271   -7.0472    6.7240 H   0  0  0  0  0  0  0  0  0  0  0  0
    3.5550   -2.6098    4.4624 H   0  0  0  0  0  0  0  0  0  0  0  0
   -2.6830   -6.0354    4.3033 H   0  0  0  0  0  0  0  0  0  0  0  0
   -2.7098   -7.5738    6.2373 H   0  0  0  0  0  0  0  0  0  0  0  0
    0.2207   -9.8773    8.4389 H   0  0  0  0  0  0  0  0  0  0  0  0
    1.0582   -8.5489    7.5398 H   0  0  0  0  0  0  0  0  0  0  0  0
   -0.3971   -9.3652    6.8145 H   0  0  0  0  0  0  0  0  0  0  0  0
    0.6743   -5.5210    7.9250 H   0  0  0  0  0  0  0  0  0  0  0  0
    0.6628   -3.9436    6.0348 H   0  0  0  0  0  0  0  0  0  0  0  0
   -3.3240   -2.8915    4.5264 H   0  0  0  0  0  0  0  0  0  0  0  0
   -3.7069   -0.6105    5.3919 H   0  0  0  0  0  0  0  0  0  0  0  0
   -2.5100    3.4496    4.5560 H   0  0  0  0  0  0  0  0  0  0  0  0
   -1.2320    2.4193    3.7864 H   0  0  0  0  0  0  0  0  0  0  0  0
   -2.9680    1.8746    3.7904 H   0  0  0  0  0  0  0  0  0  0  0  0
    0.4905    0.2468    4.9738 H   0  0  0  0  0  0  0  0  0  0  0  0
    0.8781   -2.0434    4.1375 H   0  0  0  0  0  0  0  0  0  0  0  0
   -3.6861   -7.0440   -1.5066 H   0  0  0  0  0  0  0  0  0  0  0  0
   -5.8970   -7.8801   -0.8137 H   0  0  0  0  0  0  0  0  0  0  0  0
   -7.8485   -5.0113    1.5961 H   0  0  0  0  0  0  0  0  0  0  0  0
   -8.7323   -6.4764    2.1797 H   0  0  0  0  0  0  0  0  0  0  0  0
   -6.9730   -6.5929    1.7611 H   0  0  0  0  0  0  0  0  0  0  0  0
   -7.5027   -3.9013   -1.0954 H   0  0  0  0  0  0  0  0  0  0  0  0
   -5.3037   -3.0592   -1.8348 H   0  0  0  0  0  0  0  0  0  0  0  0
   -0.2601   -4.3735   -1.9036 H   0  0  0  0  0  0  0  0  0  0  0  0
    1.2385   -5.5342   -3.4475 H   0  0  0  0  0  0  0  0  0  0  0  0
   -0.0227   -5.5892   -7.3442 H   0  0  0  0  0  0  0  0  0  0  0  0
    1.4487   -5.0288   -6.4414 H   0  0  0  0  0  0  0  0  0  0  0  0
    1.6068   -6.2302   -7.7746 H   0  0  0  0  0  0  0  0  0  0  0  0
   -2.1191   -6.9205   -5.7253 H   0  0  0  0  0  0  0  0  0  0  0  0
   -3.6577   -5.7867   -4.1809 H   0  0  0  0  0  0  0  0  0  0  0  0
    1.6054   -0.8067   -4.1913 H   0  0  0  0  0  0  0  0  0  0  0  0
    1.4168   -2.3633   -3.3134 H   0  0  0  0  0  0  0  0  0  0  0  0
   -0.0782   -3.2227   -5.1454 H   0  0  0  0  0  0  0  0  0  0  0  0
    1.5517   -2.7259   -5.7708 H   0  0  0  0  0  0  0  0  0  0  0  0
    0.1143   -1.6741   -6.0378 H   0  0  0  0  0  0  0  0  0  0  0  0
   -2.8193    4.8960   -4.5869 H   0  0  0  0  0  0  0  0  0  0  0  0
   -4.9978    5.2392   -5.6914 H   0  0  0  0  0  0  0  0  0  0  0  0
   -7.3609    1.9774   -5.8127 H   0  0  0  0  0  0  0  0  0  0  0  0
   -8.6755    3.0791   -6.3759 H   0  0  0  0  0  0  0  0  0  0  0  0
   -7.4431    3.6847   -5.2039 H   0  0  0  0  0  0  0  0  0  0  0  0
   -4.7814    1.2814   -7.3683 H   0  0  0  0  0  0  0  0  0  0  0  0
   -2.5831    0.9393   -6.2822 H   0  0  0  0  0  0  0  0  0  0  0  0
    0.0856    0.6158   -5.7811 H   0  0  0  0  0  0  0  0  0  0  0  0
    2.0292    0.6301   -7.2951 H   0  0  0  0  0  0  0  0  0  0  0  0
    2.0971    1.4600  -10.1097 H   0  0  0  0  0  0  0  0  0  0  0  0
    3.1496    2.6118  -10.9989 H   0  0  0  0  0  0  0  0  0  0  0  0
    1.6534    3.2236  -10.1867 H   0  0  0  0  0  0  0  0  0  0  0  0
    1.7795    4.9202   -7.5502 H   0  0  0  0  0  0  0  0  0  0  0  0
   -0.1439    4.9019   -5.9996 H   0  0  0  0  0  0  0  0  0  0  0  0
   -0.3744    7.0633   -0.7541 H   0  0  0  0  0  0  0  0  0  0  0  0
   -2.5199    8.0160   -0.0122 H   0  0  0  0  0  0  0  0  0  0  0  0
   -4.7670    6.2145    0.1122 H   0  0  0  0  0  0  0  0  0  0  0  0
   -6.1888    6.2466    1.2155 H   0  0  0  0  0  0  0  0  0  0  0  0
   -4.8359    5.0968    1.5376 H   0  0  0  0  0  0  0  0  0  0  0  0
   -2.4225    5.5579    3.5041 H   0  0  0  0  0  0  0  0  0  0  0  0
   -0.2602    4.5975    2.7935 H   0  0  0  0  0  0  0  0  0  0  0  0
    2.7200    6.8881    1.4198 H   0  0  0  0  0  0  0  0  0  0  0  0
    4.7603    6.4170    2.7373 H   0  0  0  0  0  0  0  0  0  0  0  0
    4.2235    3.7161    5.4906 H   0  0  0  0  0  0  0  0  0  0  0  0
    5.8722    4.0475    6.1625 H   0  0  0  0  0  0  0  0  0  0  0  0
    4.9215    5.3909    5.4246 H   0  0  0  0  0  0  0  0  0  0  0  0
    3.8341    2.2216    2.6930 H   0  0  0  0  0  0  0  0  0  0  0  0
    1.8310    2.6700    1.3155 H   0  0  0  0  0  0  0  0  0  0  0  0
    3.6607    6.0390   -1.1623 H   0  0  0  0  0  0  0  0  0  0  0  0
    4.3420   -0.1186   -0.4571 H   0  0  0  0  0  0  0  0  0  0  0  0
    7.7720    3.0508    1.2826 H   0  0  0  0  0  0  0  0  0  0  0  0
  1  2  2  3
  2  3  1  0
  3  4  2  0
  3  5  1  0
  5  6  2  0
  6  7  1  0
  7  8  1  0
  7  9  2  0
  9 10  1  0
  9 11  1  0
 11 12  2  0
 12 13  1  0
 13 14  2  3
 14 15  1  0
 15 16  3  0
 14 17  1  0
 17 18  3  0
  1 19  1  0
 19 20  2  0
 20 21  1  0
 21 22  1  0
 22 23  2  0
 23 24  1  0
 24 25  2  0
 25 26  1  0
 26 27  1  0
 25 28  1  0
 28 29  2  0
 21 30  1  0
 30 31  2  0
 31 32  1  0
 32 33  2  0
 33 34  1  0
 34 35  1  0
 33 36  1  0
 36 37  2  0
 20 38  1  0
 38 39  1  0
 39 40  1  0
 40 41  2  0
 41 42  1  0
 42 43  1  0
 43 44  2  0
 44 45  1  0
 45 46  2  0
 46 47  1  0
 47 48  1  0
 46 49  1  0
 49 50  2  0
 42 51  1  0
 51 52  2  0
 52 53  1  0
 53 54  2  0
 54 55  1  0
 55 56  1  0
 54 57  1  0
 57 58  2  0
 41 59  1  0
 59 60  1  0
 40 61  1  0
 61 62  1  0
 62 63  2  0
 63 64  1  0
 64 65  1  0
 65 66  1  0
 64 67  1  0
 67 68  2  0
 68 69  1  0
 69 70  2  0
 70 71  1  0
 71 72  1  0
 70 73  1  0
 69 74  1  0
 74 75  2  0
 75 76  1  0
 76 77  1  0
 77 78  2  0
 78 79  1  0
 79 80  2  0
 80 81  1  0
 81 82  1  0
 80 83  1  0
 83 84  2  0
 76 85  1  0
 85 86  2  0
 86 87  1  0
 87 88  2  0
 88 89  1  0
 89 90  1  0
 88 91  1  0
 91 92  2  0
 75 93  1  0
 93 94  1  0
 94 95  1  0
 95 96  2  0
 96 97  1  0
 97 98  1  0
 98 99  2  0
 99100  1  0
100101  2  0
101102  1  0
102103  1  0
101104  1  0
104105  2  0
 97106  1  0
106107  2  0
107108  1  0
108109  2  0
109110  1  0
110111  1  0
109112  1  0
112113  2  0
 96114  1  0
114115  1  0
 95116  1  0
116117  2  3
117118  1  0
118119  2  0
118120  1  0
120121  2  0
121122  1  0
122123  1  0
122124  2  0
124125  1  0
124126  1  0
126127  2  0
127128  1  0
128129  2  3
129130  1  0
130131  3  0
129132  1  0
132133  3  0
 13  2  1  0
 60 19  1  0
 71 61  2  0
115 74  1  0
128117  1  0
 12  5  1  0
 29 22  1  0
 37 30  1  0
 59 38  2  0
 68 62  1  0
 84 77  1  0
 92 85  1  0
114 93  2  0
127120  1  0
 50 43  1  0
 58 51  1  0
105 98  1  0
113106  1  0
  1134  1  0
  6135  1  0
 11136  1  0
 23137  1  0
 24138  1  0
 27139  1  0
 27140  1  0
 27141  1  0
 28142  1  0
 29143  1  0
 31144  1  0
 32145  1  0
 35146  1  0
 35147  1  0
 35148  1  0
 36149  1  0
 37150  1  0
 44151  1  0
 45152  1  0
 48153  1  0
 48154  1  0
 48155  1  0
 49156  1  0
 50157  1  0
 52158  1  0
 53159  1  0
 56160  1  0
 56161  1  0
 56162  1  0
 57163  1  0
 58164  1  0
 65165  1  0
 65166  1  0
 66167  1  0
 66168  1  0
 66169  1  0
 78170  1  0
 79171  1  0
 82172  1  0
 82173  1  0
 82174  1  0
 83175  1  0
 84176  1  0
 86177  1  0
 87178  1  0
 90179  1  0
 90180  1  0
 90181  1  0
 91182  1  0
 92183  1  0
 99184  1  0
100185  1  0
103186  1  0
103187  1  0
103188  1  0
104189  1  0
105190  1  0
107191  1  0
108192  1  0
111193  1  0
111194  1  0
111195  1  0
112196  1  0
113197  1  0
116198  1  0
121199  1  0
126200  1  0
M  END

