
     RDKit          3D

150166  0  0  0  0  0  0  0  0999 V2000
    3.3715    2.8065   -6.0060 C   0  0  0  0  0  0  0  0  0  0  0  0
    4.5148    2.2462   -5.5423 C   0  0  0  0  0  0  0  0  0  0  0  0
    4.6258    1.3206   -4.4004 C   0  0  0  0  0  0  0  0  0  0  0  0
    3.6781    0.8807   -3.6956 O   0  0  0  0  0  0  0  0  0  0  0  0
    5.9764    0.8175   -4.3403 C   0  0  0  0  0  0  0  0  0  0  0  0
    6.5073   -0.0892   -3.4232 C   0  0  0  0  0  0  0  0  0  0  0  0
    7.8305   -0.5191   -3.6003 C   0  0  0  0  0  0  0  0  0  0  0  0
    8.5012   -1.7143   -2.4941 Cl  0  0  0  0  0  0  0  0  0  0  0  0
    8.5862   -0.0466   -4.6885 C   0  0  0  0  0  0  0  0  0  0  0  0
    9.8451   -0.5052   -4.8930 F   0  0  0  0  0  0  0  0  0  0  0  0
    8.0269    0.8607   -5.6011 C   0  0  0  0  0  0  0  0  0  0  0  0
    6.7116    1.3207   -5.3974 C   0  0  0  0  0  0  0  0  0  0  0  0
    5.8748    2.2921   -6.1744 C   0  0  0  0  0  0  0  0  0  0  0  0
    6.3256    3.1828   -7.0981 C   0  0  0  0  0  0  0  0  0  0  0  0
    7.6899    3.2293   -7.5444 C   0  0  0  0  0  0  0  0  0  0  0  0
    8.7857    3.2807   -7.9176 N   0  0  0  0  0  0  0  0  0  0  0  0
    5.5099    4.2634   -7.5873 C   0  0  0  0  0  0  0  0  0  0  0  0
    4.8770    5.1496   -7.9860 N   0  0  0  0  0  0  0  0  0  0  0  0
    2.0724    2.7680   -5.2867 C   0  0  0  0  0  0  0  0  0  0  0  0
    0.8936    2.4135   -5.9580 C   0  0  0  0  0  0  0  0  0  0  0  0
   -0.3239    2.2167   -5.2566 C   0  0  0  0  0  0  0  0  0  0  0  0
   -1.4156    1.7677   -6.0639 N   0  0  0  0  0  0  0  0  0  0  0  0
   -0.7027    1.6814   -7.4919 S   0  0  0  0  0  4  0  0  0  0  0  0
    0.8282    2.1195   -7.3581 N   0  0  0  0  0  0  0  0  0  0  0  0
   -0.3935    2.3700   -3.8659 C   0  0  0  0  0  0  0  0  0  0  0  0
    0.7406    2.8884   -3.2127 C   0  0  0  0  0  0  0  0  0  0  0  0
    0.7681    3.1672   -1.8804 N   0  0  0  0  0  0  0  0  0  0  0  0
    2.3084    3.7389   -1.7131 S   0  0  0  0  0  0  0  0  0  0  0  0
    2.9907    3.6422   -3.2115 N   0  0  0  0  0  0  0  0  0  0  0  0
    1.9599    3.1162   -3.9262 C   0  0  0  0  0  0  0  0  0  0  0  0
   -1.5410    1.8612   -3.0872 C   0  0  0  0  0  0  0  0  0  0  0  0
   -1.8851    0.4953   -2.9728 C   0  0  0  0  0  0  0  0  0  0  0  0
   -1.5172   -0.5325   -3.9120 N   0  0  0  0  0  0  0  0  0  0  0  0
   -0.2809   -1.2484   -3.7304 C   0  0  0  0  0  0  0  0  0  0  0  0
   -0.2334   -2.3672   -2.8835 C   0  0  0  0  0  0  0  0  0  0  0  0
    0.8765   -3.2220   -2.8943 C   0  0  0  0  0  0  0  0  0  0  0  0
    1.9354   -2.9837   -3.7758 C   0  0  0  0  0  0  0  0  0  0  0  0
    3.2540   -4.1924   -3.9315 S   0  0  0  0  0  0  0  0  0  0  0  0
    4.4494   -3.2080   -2.9809 C   0  0  0  0  0  0  0  0  0  0  0  0
    1.9134   -1.8526   -4.5982 C   0  0  0  0  0  0  0  0  0  0  0  0
    0.8160   -0.9868   -4.5688 C   0  0  0  0  0  0  0  0  0  0  0  0
   -2.4902   -1.0396   -4.8658 C   0  0  0  0  0  0  0  0  0  0  0  0
   -3.8791   -0.9068   -4.6383 C   0  0  0  0  0  0  0  0  0  0  0  0
   -4.8039   -1.4884   -5.5100 C   0  0  0  0  0  0  0  0  0  0  0  0
   -4.3634   -2.1970   -6.6300 C   0  0  0  0  0  0  0  0  0  0  0  0
   -5.5453   -3.0383   -7.6825 S   0  0  0  0  0  0  0  0  0  0  0  0
   -5.4245   -4.6012   -6.7494 C   0  0  0  0  0  0  0  0  0  0  0  0
   -2.9972   -2.2795   -6.9057 C   0  0  0  0  0  0  0  0  0  0  0  0
   -2.0680   -1.7153   -6.0316 C   0  0  0  0  0  0  0  0  0  0  0  0
   -2.6314    0.2634   -1.8140 C   0  0  0  0  0  0  0  0  0  0  0  0
   -3.0286   -1.1030   -0.9329 S   0  0  0  0  0  0  0  0  0  0  0  0
   -3.5459   -0.2783    0.4808 C   0  0  0  0  0  0  0  0  0  0  0  0
   -3.4355    1.1149    0.2015 C   0  0  0  0  0  0  0  0  0  0  0  0
   -3.7212    2.1834    1.1145 N   0  0  0  0  0  0  0  0  0  0  0  0
   -5.0986    2.4719    1.4455 C   0  0  0  0  0  0  0  0  0  0  0  0
   -5.4524    2.8577    2.7521 C   0  0  0  0  0  0  0  0  0  0  0  0
   -6.7928    3.0384    3.0968 C   0  0  0  0  0  0  0  0  0  0  0  0
   -7.7969    2.8497    2.1372 C   0  0  0  0  0  0  0  0  0  0  0  0
   -9.5176    3.0554    2.5932 S   0  0  0  0  0  0  0  0  0  0  0  0
   -9.7513    1.2913    2.9759 C   0  0  0  0  0  0  0  0  0  0  0  0
   -7.4526    2.5101    0.8268 C   0  0  0  0  0  0  0  0  0  0  0  0
   -6.1126    2.3088    0.4856 C   0  0  0  0  0  0  0  0  0  0  0  0
   -2.6267    2.9677    1.6384 C   0  0  0  0  0  0  0  0  0  0  0  0
   -2.7431    4.3632    1.7713 C   0  0  0  0  0  0  0  0  0  0  0  0
   -1.6667    5.1215    2.2467 C   0  0  0  0  0  0  0  0  0  0  0  0
   -0.4687    4.4891    2.6049 C   0  0  0  0  0  0  0  0  0  0  0  0
    0.9104    5.4518    3.2225 S   0  0  0  0  0  0  0  0  0  0  0  0
    1.7353    5.5291    1.6029 C   0  0  0  0  0  0  0  0  0  0  0  0
   -0.3490    3.1015    2.4853 C   0  0  0  0  0  0  0  0  0  0  0  0
   -1.4131    2.3471    1.9876 C   0  0  0  0  0  0  0  0  0  0  0  0
   -2.9029    1.3565   -1.0636 C   0  0  0  0  0  0  0  0  0  0  0  0
   -2.2175    2.7111   -1.7707 S   0  0  0  0  0  0  0  0  0  0  0  0
   -3.6122   -0.9540    1.8209 C   0  0  0  0  0  0  0  0  0  0  0  0
   -3.5596   -0.2098    3.0238 C   0  0  0  0  0  0  0  0  0  0  0  0
   -3.2115   -0.8457    4.2085 C   0  0  0  0  0  0  0  0  0  0  0  0
   -2.6480   -0.2162    5.3935 C   0  0  0  0  0  0  0  0  0  0  0  0
   -2.6455    1.0155    5.6591 O   0  0  0  0  0  0  0  0  0  0  0  0
   -1.9343   -1.2548    6.1182 C   0  0  0  0  0  0  0  0  0  0  0  0
   -2.1312   -2.4623    5.4601 C   0  0  0  0  0  0  0  0  0  0  0  0
   -2.9319   -2.1990    4.2525 C   0  0  0  0  0  0  0  0  0  0  0  0
   -3.0734   -2.9866    3.1119 C   0  0  0  0  0  0  0  0  0  0  0  0
   -3.4396   -2.3658    1.9024 C   0  0  0  0  0  0  0  0  0  0  0  0
   -1.3336   -3.5736    5.7459 C   0  0  0  0  0  0  0  0  0  0  0  0
   -0.2773   -3.4241    6.6623 C   0  0  0  0  0  0  0  0  0  0  0  0
   -0.0065   -2.1620    7.2409 C   0  0  0  0  0  0  0  0  0  0  0  0
   -0.8804   -1.0801    7.0113 C   0  0  0  0  0  0  0  0  0  0  0  0
    1.3293   -1.8649    7.7818 C   0  0  0  0  0  0  0  0  0  0  0  0
    2.3411   -1.4967    6.9658 C   0  0  0  0  0  0  0  0  0  0  0  0
    2.2373   -1.3586    5.5036 C   0  0  0  0  0  0  0  0  0  0  0  0
    1.3507   -1.8654    4.7624 O   0  0  0  0  0  0  0  0  0  0  0  0
    3.3088   -0.5175    5.0389 C   0  0  0  0  0  0  0  0  0  0  0  0
    3.4898   -0.0074    3.7566 C   0  0  0  0  0  0  0  0  0  0  0  0
    4.5257    0.9106    3.5395 C   0  0  0  0  0  0  0  0  0  0  0  0
    4.7258    1.4646    2.2655 C   0  0  0  0  0  0  0  0  0  0  0  0
    5.7436    2.4001    2.0618 C   0  0  0  0  0  0  0  0  0  0  0  0
    5.9267    2.9333    0.8262 F   0  0  0  0  0  0  0  0  0  0  0  0
    6.5683    2.7862    3.1220 C   0  0  0  0  0  0  0  0  0  0  0  0
    7.5521    3.6988    2.9158 F   0  0  0  0  0  0  0  0  0  0  0  0
    6.3798    2.2457    4.3977 C   0  0  0  0  0  0  0  0  0  0  0  0
    5.3620    1.3067    4.6231 C   0  0  0  0  0  0  0  0  0  0  0  0
    5.1497    0.7713    5.9111 C   0  0  0  0  0  0  0  0  0  0  0  0
    4.1192   -0.1642    6.1043 C   0  0  0  0  0  0  0  0  0  0  0  0
    3.6357   -0.8436    7.3460 C   0  0  0  0  0  0  0  0  0  0  0  0
    4.3127   -0.9919    8.5151 C   0  0  0  0  0  0  0  0  0  0  0  0
    5.6174   -0.4275    8.7293 C   0  0  0  0  0  0  0  0  0  0  0  0
    6.6693    0.0213    8.9169 N   0  0  0  0  0  0  0  0  0  0  0  0
    3.8342   -1.8394    9.5771 C   0  0  0  0  0  0  0  0  0  0  0  0
    3.4625   -2.5197   10.4359 N   0  0  0  0  0  0  0  0  0  0  0  0
    3.3375    3.1974   -7.0044 H   0  0  0  0  0  0  0  0  0  0  0  0
    5.9130   -0.4521   -2.5944 H   0  0  0  0  0  0  0  0  0  0  0  0
    8.6091    1.1506   -6.4558 H   0  0  0  0  0  0  0  0  0  0  0  0
   -1.0809   -2.6241   -2.2674 H   0  0  0  0  0  0  0  0  0  0  0  0
    0.8792   -4.1082   -2.2716 H   0  0  0  0  0  0  0  0  0  0  0  0
    4.0189   -2.9214   -2.0003 H   0  0  0  0  0  0  0  0  0  0  0  0
    4.7099   -2.3025   -3.5615 H   0  0  0  0  0  0  0  0  0  0  0  0
    5.3746   -3.7995   -2.8182 H   0  0  0  0  0  0  0  0  0  0  0  0
    2.7221   -1.6663   -5.2926 H   0  0  0  0  0  0  0  0  0  0  0  0
    0.7804   -0.1776   -5.2749 H   0  0  0  0  0  0  0  0  0  0  0  0
   -4.2597   -0.3784   -3.7791 H   0  0  0  0  0  0  0  0  0  0  0  0
   -5.8626   -1.4120   -5.2975 H   0  0  0  0  0  0  0  0  0  0  0  0
   -5.6726   -4.4257   -5.6814 H   0  0  0  0  0  0  0  0  0  0  0  0
   -4.3962   -5.0112   -6.8392 H   0  0  0  0  0  0  0  0  0  0  0  0
   -6.1453   -5.3342   -7.1649 H   0  0  0  0  0  0  0  0  0  0  0  0
   -2.6544   -2.8149   -7.7841 H   0  0  0  0  0  0  0  0  0  0  0  0
   -1.0204   -1.8189   -6.2694 H   0  0  0  0  0  0  0  0  0  0  0  0
   -4.6926    2.9860    3.5112 H   0  0  0  0  0  0  0  0  0  0  0  0
   -7.0532    3.2999    4.1105 H   0  0  0  0  0  0  0  0  0  0  0  0
  -10.7656    1.1422    3.4019 H   0  0  0  0  0  0  0  0  0  0  0  0
   -8.9971    0.9535    3.7170 H   0  0  0  0  0  0  0  0  0  0  0  0
   -9.6583    0.6870    2.0499 H   0  0  0  0  0  0  0  0  0  0  0  0
   -8.2240    2.3731    0.0779 H   0  0  0  0  0  0  0  0  0  0  0  0
   -5.8675    2.0317   -0.5334 H   0  0  0  0  0  0  0  0  0  0  0  0
   -3.6584    4.8664    1.4838 H   0  0  0  0  0  0  0  0  0  0  0  0
   -1.7642    6.1971    2.3296 H   0  0  0  0  0  0  0  0  0  0  0  0
    2.0310    4.5061    1.2831 H   0  0  0  0  0  0  0  0  0  0  0  0
    1.0564    5.9786    0.8458 H   0  0  0  0  0  0  0  0  0  0  0  0
    2.6471    6.1548    1.6876 H   0  0  0  0  0  0  0  0  0  0  0  0
    0.5767    2.6056    2.7527 H   0  0  0  0  0  0  0  0  0  0  0  0
   -1.2940    1.2764    1.8895 H   0  0  0  0  0  0  0  0  0  0  0  0
   -3.6120    0.8549    3.0523 H   0  0  0  0  0  0  0  0  0  0  0  0
   -2.8082   -4.0374    3.1307 H   0  0  0  0  0  0  0  0  0  0  0  0
   -3.4644   -2.9819    1.0120 H   0  0  0  0  0  0  0  0  0  0  0  0
   -1.4479   -4.4986    5.1931 H   0  0  0  0  0  0  0  0  0  0  0  0
    0.4086   -4.2463    6.8126 H   0  0  0  0  0  0  0  0  0  0  0  0
   -0.6404   -0.0877    7.3749 H   0  0  0  0  0  0  0  0  0  0  0  0
    1.4052   -1.7394    8.8488 H   0  0  0  0  0  0  0  0  0  0  0  0
    2.8192   -0.2971    2.9560 H   0  0  0  0  0  0  0  0  0  0  0  0
    4.0912    1.1805    1.4345 H   0  0  0  0  0  0  0  0  0  0  0  0
    7.0265    2.5626    5.2092 H   0  0  0  0  0  0  0  0  0  0  0  0
    5.7504    1.1284    6.7310 H   0  0  0  0  0  0  0  0  0  0  0  0
  1  2  2  3
  2  3  1  0
  3  4  2  0
  3  5  1  0
  5  6  2  0
  6  7  1  0
  7  8  1  0
  7  9  2  0
  9 10  1  0
  9 11  1  0
 11 12  2  0
 12 13  1  0
 13 14  2  3
 14 15  1  0
 15 16  3  0
 14 17  1  0
 17 18  3  0
  1 19  1  0
 19 20  2  0
 20 21  1  0
 21 22  1  0
 22 23  2  0
 23 24  2  0
 21 25  2  0
 25 26  1  0
 26 27  2  0
 27 28  1  0
 28 29  1  0
 29 30  2  0
 25 31  1  0
 31 32  2  0
 32 33  1  0
 33 34  1  0
 34 35  2  0
 35 36  1  0
 36 37  2  0
 37 38  1  0
 38 39  1  0
 37 40  1  0
 40 41  2  0
 33 42  1  0
 42 43  2  0
 43 44  1  0
 44 45  2  0
 45 46  1  0
 46 47  1  0
 45 48  1  0
 48 49  2  0
 32 50  1  0
 50 51  1  0
 51 52  1  0
 52 53  2  0
 53 54  1  0
 54 55  1  0
 55 56  2  0
 56 57  1  0
 57 58  2  0
 58 59  1  0
 59 60  1  0
 58 61  1  0
 61 62  2  0
 54 63  1  0
 63 64  2  0
 64 65  1  0
 65 66  2  0
 66 67  1  0
 67 68  1  0
 66 69  1  0
 69 70  2  0
 53 71  1  0
 71 72  1  0
 52 73  1  0
 73 74  2  0
 74 75  1  0
 75 76  1  0
 76 77  2  0
 76 78  1  0
 78 79  2  0
 79 80  1  0
 80 81  1  0
 81 82  2  0
 79 83  1  0
 83 84  2  0
 84 85  1  0
 85 86  2  0
 85 87  1  0
 87 88  2  3
 88 89  1  0
 89 90  2  0
 89 91  1  0
 91 92  2  0
 92 93  1  0
 93 94  2  0
 94 95  1  0
 95 96  1  0
 95 97  2  0
 97 98  1  0
 97 99  1  0
 99100  2  0
100101  1  0
101102  2  0
102103  1  0
103104  2  3
104105  1  0
105106  3  0
104107  1  0
107108  3  0
 13  2  1  0
 30 19  1  0
 72 31  1  0
 82 73  1  0
103 88  1  0
 12  5  1  0
 24 20  1  0
 30 26  1  0
 41 34  1  0
 49 42  1  0
 71 50  2  0
 80 75  2  0
102 91  1  0
 62 55  1  0
 70 63  1  0
 86 78  1  0
100 93  1  0
  1109  1  0
  6110  1  0
 11111  1  0
 35112  1  0
 36113  1  0
 39114  1  0
 39115  1  0
 39116  1  0
 40117  1  0
 41118  1  0
 43119  1  0
 44120  1  0
 47121  1  0
 47122  1  0
 47123  1  0
 48124  1  0
 49125  1  0
 56126  1  0
 57127  1  0
 60128  1  0
 60129  1  0
 60130  1  0
 61131  1  0
 62132  1  0
 64133  1  0
 65134  1  0
 68135  1  0
 68136  1  0
 68137  1  0
 69138  1  0
 70139  1  0
 74140  1  0
 81141  1  0
 82142  1  0
 83143  1  0
 84144  1  0
 86145  1  0
 87146  1  0
 92147  1  0
 94148  1  0
 99149  1  0
101150  1  0
M  END

