
     RDKit          3D

202221  0  0  0  0  0  0  0  0999 V2000
   -0.5100    3.9111   -6.9010 C   0  0  0  0  0  0  0  0  0  0  0  0
    0.6190    4.2895   -6.2671 C   0  0  0  0  0  0  0  0  0  0  0  0
    0.8931    4.1037   -4.8337 C   0  0  0  0  0  0  0  0  0  0  0  0
    0.0669    3.7387   -3.9519 O   0  0  0  0  0  0  0  0  0  0  0  0
    2.2964    4.3566   -4.5973 C   0  0  0  0  0  0  0  0  0  0  0  0
    3.0015    4.2532   -3.3984 C   0  0  0  0  0  0  0  0  0  0  0  0
    4.3775    4.5145   -3.4050 C   0  0  0  0  0  0  0  0  0  0  0  0
    5.2860    4.4122   -1.9052 Cl  0  0  0  0  0  0  0  0  0  0  0  0
    5.0262    4.8572   -4.6091 C   0  0  0  0  0  0  0  0  0  0  0  0
    6.3583    5.1137   -4.6163 F   0  0  0  0  0  0  0  0  0  0  0  0
    4.2959    4.9520   -5.8072 C   0  0  0  0  0  0  0  0  0  0  0  0
    2.9112    4.7129   -5.7867 C   0  0  0  0  0  0  0  0  0  0  0  0
    1.8896    4.7888   -6.8773 C   0  0  0  0  0  0  0  0  0  0  0  0
    2.0151    5.4216   -8.0690 C   0  0  0  0  0  0  0  0  0  0  0  0
    0.8702    5.7638   -8.8760 C   0  0  0  0  0  0  0  0  0  0  0  0
   -0.0443    6.0514   -9.5228 N   0  0  0  0  0  0  0  0  0  0  0  0
    3.2706    5.9158   -8.5636 C   0  0  0  0  0  0  0  0  0  0  0  0
    4.2723    6.3234   -8.9794 N   0  0  0  0  0  0  0  0  0  0  0  0
   -1.6892    3.4136   -6.1693 C   0  0  0  0  0  0  0  0  0  0  0  0
   -2.6732    4.3055   -5.7201 C   0  0  0  0  0  0  0  0  0  0  0  0
   -3.6730    3.8940   -4.8073 C   0  0  0  0  0  0  0  0  0  0  0  0
   -4.5461    4.9428   -4.3715 N   0  0  0  0  0  0  0  0  0  0  0  0
   -3.9391    6.1804   -5.1722 S   0  0  0  0  0  4  0  0  0  0  0  0
   -2.6946    5.7007   -6.0463 N   0  0  0  0  0  0  0  0  0  0  0  0
   -3.7021    2.5850   -4.2970 C   0  0  0  0  0  0  0  0  0  0  0  0
   -2.7400    1.6715   -4.7836 C   0  0  0  0  0  0  0  0  0  0  0  0
   -2.6303    0.3987   -4.3299 N   0  0  0  0  0  0  0  0  0  0  0  0
   -1.3276   -0.1343   -5.1904 S   0  0  0  0  0  0  0  0  0  0  0  0
   -0.8401    1.1469   -6.1096 N   0  0  0  0  0  0  0  0  0  0  0  0
   -1.7548    2.0807   -5.7378 C   0  0  0  0  0  0  0  0  0  0  0  0
   -4.4855    2.2836   -3.0739 C   0  0  0  0  0  0  0  0  0  0  0  0
   -5.0326    1.0211   -2.7487 C   0  0  0  0  0  0  0  0  0  0  0  0
   -5.4870    0.0517   -3.7287 N   0  0  0  0  0  0  0  0  0  0  0  0
   -5.8781   -1.2632   -3.3223 C   0  0  0  0  0  0  0  0  0  0  0  0
   -4.9448   -2.3126   -3.3297 C   0  0  0  0  0  0  0  0  0  0  0  0
   -5.2913   -3.5593   -2.7998 C   0  0  0  0  0  0  0  0  0  0  0  0
   -6.5634   -3.7614   -2.2525 C   0  0  0  0  0  0  0  0  0  0  0  0
   -6.9732   -5.3246   -1.4743 S   0  0  0  0  0  0  0  0  0  0  0  0
   -6.4607   -4.7568    0.1814 C   0  0  0  0  0  0  0  0  0  0  0  0
   -7.5120   -2.7360   -2.2986 C   0  0  0  0  0  0  0  0  0  0  0  0
   -7.1734   -1.4881   -2.8271 C   0  0  0  0  0  0  0  0  0  0  0  0
   -5.8359    0.4588   -5.0599 C   0  0  0  0  0  0  0  0  0  0  0  0
   -6.7302    1.5206   -5.2629 C   0  0  0  0  0  0  0  0  0  0  0  0
   -7.0254    1.9518   -6.5591 C   0  0  0  0  0  0  0  0  0  0  0  0
   -6.4262    1.3299   -7.6609 C   0  0  0  0  0  0  0  0  0  0  0  0
   -6.7729    1.9117   -9.3166 S   0  0  0  0  0  0  0  0  0  0  0  0
   -5.3293    3.0274   -9.3503 C   0  0  0  0  0  0  0  0  0  0  0  0
   -5.5588    0.2512   -7.4658 C   0  0  0  0  0  0  0  0  0  0  0  0
   -5.2673   -0.1891   -6.1705 C   0  0  0  0  0  0  0  0  0  0  0  0
   -4.9853    0.8034   -1.3618 C   0  0  0  0  0  0  0  0  0  0  0  0
   -4.7638   -0.6016   -0.4814 S   0  0  0  0  0  0  0  0  0  0  0  0
   -4.0483    0.1210    0.8791 C   0  0  0  0  0  0  0  0  0  0  0  0
   -4.0266    1.5153    0.6612 C   0  0  0  0  0  0  0  0  0  0  0  0
   -3.4765    2.4799    1.5873 N   0  0  0  0  0  0  0  0  0  0  0  0
   -2.5109    3.4388    1.1105 C   0  0  0  0  0  0  0  0  0  0  0  0
   -1.4210    3.0184    0.3239 C   0  0  0  0  0  0  0  0  0  0  0  0
   -0.5603    3.9579   -0.2504 C   0  0  0  0  0  0  0  0  0  0  0  0
   -0.7747    5.3258   -0.0381 C   0  0  0  0  0  0  0  0  0  0  0  0
    0.2750    6.5400   -0.8422 S   0  0  0  0  0  0  0  0  0  0  0  0
   -0.8580    6.7520   -2.2582 C   0  0  0  0  0  0  0  0  0  0  0  0
   -1.8235    5.7478    0.7864 C   0  0  0  0  0  0  0  0  0  0  0  0
   -2.6949    4.8129    1.3472 C   0  0  0  0  0  0  0  0  0  0  0  0
   -4.0012    2.5687    2.9333 C   0  0  0  0  0  0  0  0  0  0  0  0
   -5.3075    2.1296    3.2304 C   0  0  0  0  0  0  0  0  0  0  0  0
   -5.7715    2.1261    4.5493 C   0  0  0  0  0  0  0  0  0  0  0  0
   -4.9484    2.5704    5.5845 C   0  0  0  0  0  0  0  0  0  0  0  0
   -5.5251    2.5185    7.2808 S   0  0  0  0  0  0  0  0  0  0  0  0
   -6.3408    4.1444    7.1944 C   0  0  0  0  0  0  0  0  0  0  0  0
   -3.6581    3.0272    5.3026 C   0  0  0  0  0  0  0  0  0  0  0  0
   -3.1870    3.0269    3.9877 C   0  0  0  0  0  0  0  0  0  0  0  0
   -4.5225    1.8449   -0.6101 C   0  0  0  0  0  0  0  0  0  0  0  0
   -4.1086    3.1029   -1.6343 S   0  0  0  0  0  0  0  0  0  0  0  0
   -3.1256   -0.6375    1.7501 C   0  0  0  0  0  0  0  0  0  0  0  0
   -2.6361   -1.9017    1.4263 C   0  0  0  0  0  0  0  0  0  0  0  0
   -1.5297   -2.2872    2.1934 C   0  0  0  0  0  0  0  0  0  0  0  0
   -0.7012   -3.4057    1.9456 C   0  0  0  0  0  0  0  0  0  0  0  0
   -0.4956   -3.8774    0.5427 C   0  0  0  0  0  0  0  0  0  0  0  0
   -0.5179   -2.9929   -0.5538 C   0  0  0  0  0  0  0  0  0  0  0  0
    0.0527   -3.5580   -1.6802 C   0  0  0  0  0  0  0  0  0  0  0  0
    0.5666   -2.9046   -3.1312 S   0  0  0  0  0  0  0  0  0  0  0  0
    1.4646   -4.2838   -3.5623 C   0  0  0  0  0  0  0  0  0  0  0  0
    2.5074   -4.3848   -5.0884 Si  0  0  0  0  0  4  0  0  0  0  0  0
    3.6833   -5.8572   -5.0086 C   0  0  0  0  0  0  0  0  0  0  0  0
    4.7368   -5.7089   -3.9162 C   0  0  0  0  0  0  0  0  0  0  0  0
    3.4264   -2.7591   -5.3876 C   0  0  0  0  0  0  0  0  0  0  0  0
    4.0190   -2.1506   -4.1205 C   0  0  0  0  0  0  0  0  0  0  0  0
    1.3393   -4.6350   -6.5374 C   0  0  0  0  0  0  0  0  0  0  0  0
    2.0918   -4.8058   -7.8532 C   0  0  0  0  0  0  0  0  0  0  0  0
    1.3427   -5.2690   -2.5709 C   0  0  0  0  0  0  0  0  0  0  0  0
    0.5434   -4.8104   -1.5274 C   0  0  0  0  0  0  0  0  0  0  0  0
    0.2786   -5.3219    0.0485 S   0  0  0  0  0  0  0  0  0  0  0  0
    0.2324   -3.7005    2.9601 C   0  0  0  0  0  0  0  0  0  0  0  0
    0.5371   -2.7953    3.9851 C   0  0  0  0  0  0  0  0  0  0  0  0
   -0.0881   -1.5307    4.0239 C   0  0  0  0  0  0  0  0  0  0  0  0
    0.6150   -0.3449    4.5481 C   0  0  0  0  0  0  0  0  0  0  0  0
    1.1604   -0.1020    6.1493 S   0  0  0  0  0  0  0  0  0  0  0  0
    2.1664    1.1750    5.7339 C   0  0  0  0  0  0  0  0  0  0  0  0
    3.1907    1.8419    6.3971 C   0  0  0  0  0  0  0  0  0  0  0  0
    3.9266    2.6278    5.5015 C   0  0  0  0  0  0  0  0  0  0  0  0
    5.5388    3.4372    5.8827 Si  0  0  0  0  0  4  0  0  0  0  0  0
    6.8937    2.1299    5.8612 C   0  0  0  0  0  0  0  0  0  0  0  0
    6.6160    1.0071    6.8484 C   0  0  0  0  0  0  0  0  0  0  0  0
    5.9764    4.6976    4.5552 C   0  0  0  0  0  0  0  0  0  0  0  0
    5.0066    5.8755    4.5423 C   0  0  0  0  0  0  0  0  0  0  0  0
    5.4458    4.2670    7.5707 C   0  0  0  0  0  0  0  0  0  0  0  0
    6.7787    4.8950    7.9663 C   0  0  0  0  0  0  0  0  0  0  0  0
    3.3148    2.4472    3.9226 S   0  0  0  0  0  0  0  0  0  0  0  0
    2.0961    1.4033    4.3987 C   0  0  0  0  0  0  0  0  0  0  0  0
    1.2403    0.5731    3.6934 C   0  0  0  0  0  0  0  0  0  0  0  0
   -1.1918   -1.3608    3.1761 C   0  0  0  0  0  0  0  0  0  0  0  0
   -2.1870   -0.0250    3.0139 S   0  0  0  0  0  0  0  0  0  0  0  0
    1.5036   -3.2769    4.8826 C   0  0  0  0  0  0  0  0  0  0  0  0
    1.9397   -4.5673    4.5901 C   0  0  0  0  0  0  0  0  0  0  0  0
    1.1395   -5.0974    3.1990 S   0  0  0  0  0  0  0  0  0  0  0  0
    2.6154   -5.4347    5.5731 C   0  0  0  0  0  0  0  0  0  0  0  0
    3.3412   -6.5316    5.2785 C   0  0  0  0  0  0  0  0  0  0  0  0
    3.7229   -6.9852    3.9360 C   0  0  0  0  0  0  0  0  0  0  0  0
    3.8529   -6.2655    2.9103 O   0  0  0  0  0  0  0  0  0  0  0  0
    4.0404   -8.3923    4.0074 C   0  0  0  0  0  0  0  0  0  0  0  0
    4.2896   -9.2722    2.9525 C   0  0  0  0  0  0  0  0  0  0  0  0
    4.4544  -10.6309    3.2415 C   0  0  0  0  0  0  0  0  0  0  0  0
    4.7344  -11.7664    1.9333 Cl  0  0  0  0  0  0  0  0  0  0  0  0
    4.3523  -11.0910    4.5672 C   0  0  0  0  0  0  0  0  0  0  0  0
    4.4630  -12.4164    4.8405 F   0  0  0  0  0  0  0  0  0  0  0  0
    4.1051  -10.1901    5.6175 C   0  0  0  0  0  0  0  0  0  0  0  0
    3.9730   -8.8198    5.3252 C   0  0  0  0  0  0  0  0  0  0  0  0
    3.6675   -7.6587    6.2080 C   0  0  0  0  0  0  0  0  0  0  0  0
    3.8345   -7.5982    7.5550 C   0  0  0  0  0  0  0  0  0  0  0  0
    3.7240   -6.3698    8.3001 C   0  0  0  0  0  0  0  0  0  0  0  0
    3.6412   -5.3895    8.9132 N   0  0  0  0  0  0  0  0  0  0  0  0
    4.2752   -8.7275    8.3298 C   0  0  0  0  0  0  0  0  0  0  0  0
    4.6275   -9.6302    8.9661 N   0  0  0  0  0  0  0  0  0  0  0  0
   -0.5796    3.9185   -7.9769 H   0  0  0  0  0  0  0  0  0  0  0  0
    2.4959    3.9762   -2.4838 H   0  0  0  0  0  0  0  0  0  0  0  0
    4.8267    5.1938   -6.7124 H   0  0  0  0  0  0  0  0  0  0  0  0
   -3.9469   -2.1495   -3.7098 H   0  0  0  0  0  0  0  0  0  0  0  0
   -4.5541   -4.3575   -2.7795 H   0  0  0  0  0  0  0  0  0  0  0  0
   -5.3650   -4.5568    0.1938 H   0  0  0  0  0  0  0  0  0  0  0  0
   -6.6970   -5.5397    0.9287 H   0  0  0  0  0  0  0  0  0  0  0  0
   -7.0042   -3.8263    0.4634 H   0  0  0  0  0  0  0  0  0  0  0  0
   -8.5012   -2.8899   -1.8799 H   0  0  0  0  0  0  0  0  0  0  0  0
   -7.9002   -0.6857   -2.8211 H   0  0  0  0  0  0  0  0  0  0  0  0
   -7.1962    2.0148   -4.4189 H   0  0  0  0  0  0  0  0  0  0  0  0
   -7.7175    2.7720   -6.7078 H   0  0  0  0  0  0  0  0  0  0  0  0
   -4.3920    2.4623   -9.1600 H   0  0  0  0  0  0  0  0  0  0  0  0
   -5.4523    3.8218   -8.5814 H   0  0  0  0  0  0  0  0  0  0  0  0
   -5.2661    3.5046  -10.3526 H   0  0  0  0  0  0  0  0  0  0  0  0
   -5.0923   -0.2360   -8.3127 H   0  0  0  0  0  0  0  0  0  0  0  0
   -4.5748   -1.0050   -6.0301 H   0  0  0  0  0  0  0  0  0  0  0  0
   -1.2633    1.9645    0.1330 H   0  0  0  0  0  0  0  0  0  0  0  0
    0.2539    3.6238   -0.8790 H   0  0  0  0  0  0  0  0  0  0  0  0
   -1.8364    7.1473   -1.9093 H   0  0  0  0  0  0  0  0  0  0  0  0
   -0.4150    7.4672   -2.9800 H   0  0  0  0  0  0  0  0  0  0  0  0
   -1.0190    5.7821   -2.7722 H   0  0  0  0  0  0  0  0  0  0  0  0
   -1.9858    6.8035    0.9611 H   0  0  0  0  0  0  0  0  0  0  0  0
   -3.5336    5.1574    1.9398 H   0  0  0  0  0  0  0  0  0  0  0  0
   -5.9660    1.7760    2.4482 H   0  0  0  0  0  0  0  0  0  0  0  0
   -6.7715    1.7696    4.7610 H   0  0  0  0  0  0  0  0  0  0  0  0
   -5.6668    4.9023    6.7401 H   0  0  0  0  0  0  0  0  0  0  0  0
   -7.2730    4.0682    6.5988 H   0  0  0  0  0  0  0  0  0  0  0  0
   -6.5861    4.4727    8.2209 H   0  0  0  0  0  0  0  0  0  0  0  0
   -3.0072    3.3652    6.1030 H   0  0  0  0  0  0  0  0  0  0  0  0
   -2.1694    3.3424    3.7973 H   0  0  0  0  0  0  0  0  0  0  0  0
   -3.0121   -2.4944    0.6036 H   0  0  0  0  0  0  0  0  0  0  0  0
   -0.7922   -1.9512   -0.5021 H   0  0  0  0  0  0  0  0  0  0  0  0
    3.0913   -6.7749   -4.8207 H   0  0  0  0  0  0  0  0  0  0  0  0
    4.2010   -5.9589   -5.9837 H   0  0  0  0  0  0  0  0  0  0  0  0
    5.4660   -4.9208   -4.1946 H   0  0  0  0  0  0  0  0  0  0  0  0
    4.2658   -5.4648   -2.9424 H   0  0  0  0  0  0  0  0  0  0  0  0
    5.2998   -6.6622   -3.8130 H   0  0  0  0  0  0  0  0  0  0  0  0
    4.2319   -2.9370   -6.1337 H   0  0  0  0  0  0  0  0  0  0  0  0
    2.7027   -2.0381   -5.8222 H   0  0  0  0  0  0  0  0  0  0  0  0
    3.2255   -1.9276   -3.3826 H   0  0  0  0  0  0  0  0  0  0  0  0
    4.5283   -1.2000   -4.3798 H   0  0  0  0  0  0  0  0  0  0  0  0
    4.7638   -2.8248   -3.6610 H   0  0  0  0  0  0  0  0  0  0  0  0
    0.7127   -5.5340   -6.3532 H   0  0  0  0  0  0  0  0  0  0  0  0
    0.6815   -3.7459   -6.6088 H   0  0  0  0  0  0  0  0  0  0  0  0
    1.3636   -4.8627   -8.6924 H   0  0  0  0  0  0  0  0  0  0  0  0
    2.6813   -5.7473   -7.8436 H   0  0  0  0  0  0  0  0  0  0  0  0
    2.7733   -3.9457   -8.0306 H   0  0  0  0  0  0  0  0  0  0  0  0
    1.8661   -6.2173   -2.5715 H   0  0  0  0  0  0  0  0  0  0  0  0
    3.4463    1.6919    7.4361 H   0  0  0  0  0  0  0  0  0  0  0  0
    6.9587    1.7056    4.8353 H   0  0  0  0  0  0  0  0  0  0  0  0
    7.8629    2.6123    6.1029 H   0  0  0  0  0  0  0  0  0  0  0  0
    7.4543    0.2793    6.8295 H   0  0  0  0  0  0  0  0  0  0  0  0
    5.6860    0.4692    6.5737 H   0  0  0  0  0  0  0  0  0  0  0  0
    6.5204    1.4033    7.8792 H   0  0  0  0  0  0  0  0  0  0  0  0
    5.9578    4.1924    3.5661 H   0  0  0  0  0  0  0  0  0  0  0  0
    7.0059    5.0662    4.7413 H   0  0  0  0  0  0  0  0  0  0  0  0
    5.3015    6.5821    3.7361 H   0  0  0  0  0  0  0  0  0  0  0  0
    5.0356    6.4145    5.5112 H   0  0  0  0  0  0  0  0  0  0  0  0
    3.9714    5.5191    4.3430 H   0  0  0  0  0  0  0  0  0  0  0  0
    4.6636    5.0533    7.5346 H   0  0  0  0  0  0  0  0  0  0  0  0
    5.1499    3.5135    8.3255 H   0  0  0  0  0  0  0  0  0  0  0  0
    6.6644    5.4472    8.9243 H   0  0  0  0  0  0  0  0  0  0  0  0
    7.1252    5.6097    7.1913 H   0  0  0  0  0  0  0  0  0  0  0  0
    7.5435    4.1064    8.1115 H   0  0  0  0  0  0  0  0  0  0  0  0
    1.1697    0.5561    2.6124 H   0  0  0  0  0  0  0  0  0  0  0  0
    1.8215   -2.7562    5.7763 H   0  0  0  0  0  0  0  0  0  0  0  0
    2.3598   -5.2214    6.5918 H   0  0  0  0  0  0  0  0  0  0  0  0
    4.3271   -8.9069    1.9299 H   0  0  0  0  0  0  0  0  0  0  0  0
    3.9784  -10.5776    6.6138 H   0  0  0  0  0  0  0  0  0  0  0  0
  1  2  2  3
  2  3  1  0
  3  4  2  0
  3  5  1  0
  5  6  2  0
  6  7  1  0
  7  8  1  0
  7  9  2  0
  9 10  1  0
  9 11  1  0
 11 12  2  0
 12 13  1  0
 13 14  2  3
 14 15  1  0
 15 16  3  0
 14 17  1  0
 17 18  3  0
  1 19  1  0
 19 20  2  0
 20 21  1  0
 21 22  1  0
 22 23  2  0
 23 24  2  0
 21 25  2  0
 25 26  1  0
 26 27  2  0
 27 28  1  0
 28 29  1  0
 29 30  2  0
 25 31  1  0
 31 32  2  0
 32 33  1  0
 33 34  1  0
 34 35  2  0
 35 36  1  0
 36 37  2  0
 37 38  1  0
 38 39  1  0
 37 40  1  0
 40 41  2  0
 33 42  1  0
 42 43  2  0
 43 44  1  0
 44 45  2  0
 45 46  1  0
 46 47  1  0
 45 48  1  0
 48 49  2  0
 32 50  1  0
 50 51  1  0
 51 52  1  0
 52 53  2  0
 53 54  1  0
 54 55  1  0
 55 56  2  0
 56 57  1  0
 57 58  2  0
 58 59  1  0
 59 60  1  0
 58 61  1  0
 61 62  2  0
 54 63  1  0
 63 64  2  0
 64 65  1  0
 65 66  2  0
 66 67  1  0
 67 68  1  0
 66 69  1  0
 69 70  2  0
 53 71  1  0
 71 72  1  0
 52 73  1  0
 73 74  2  0
 74 75  1  0
 75 76  2  0
 76 77  1  0
 77 78  2  0
 78 79  1  0
 79 80  1  0
 80 81  1  0
 81 82  1  0
 82 83  1  0
 83 84  1  0
 82 85  1  0
 85 86  1  0
 82 87  1  0
 87 88  1  0
 81 89  2  0
 89 90  1  0
 90 91  1  0
 76 92  1  0
 92 93  2  0
 93 94  1  0
 94 95  1  0
 95 96  1  0
 96 97  1  0
 97 98  1  0
 98 99  2  0
 99100  1  0
100101  1  0
101102  1  0
100103  1  0
103104  1  0
100105  1  0
105106  1  0
 99107  1  0
107108  1  0
108109  1  0
 94110  2  0
110111  1  0
 93112  1  0
112113  2  0
113114  1  0
113115  1  0
115116  2  3
116117  1  0
117118  2  0
117119  1  0
119120  2  0
120121  1  0
121122  1  0
121123  2  0
123124  1  0
123125  1  0
125126  2  0
126127  1  0
127128  2  3
128129  1  0
129130  3  0
128131  1  0
131132  3  0
 13  2  1  0
 30 19  1  0
 72 31  1  0
111 73  1  0
127116  1  0
 12  5  1  0
 24 20  1  0
 30 26  1  0
 41 34  1  0
 49 42  1  0
 71 50  2  0
110 75  1  0
126119  1  0
 62 55  1  0
 70 63  1  0
 91 77  1  0
114 92  1  0
 90 79  2  0
109 95  2  0
108 97  2  0
  1133  1  0
  6134  1  0
 11135  1  0
 35136  1  0
 36137  1  0
 39138  1  0
 39139  1  0
 39140  1  0
 40141  1  0
 41142  1  0
 43143  1  0
 44144  1  0
 47145  1  0
 47146  1  0
 47147  1  0
 48148  1  0
 49149  1  0
 56150  1  0
 57151  1  0
 60152  1  0
 60153  1  0
 60154  1  0
 61155  1  0
 62156  1  0
 64157  1  0
 65158  1  0
 68159  1  0
 68160  1  0
 68161  1  0
 69162  1  0
 70163  1  0
 74164  1  0
 78165  1  0
 83166  1  0
 83167  1  0
 84168  1  0
 84169  1  0
 84170  1  0
 85171  1  0
 85172  1  0
 86173  1  0
 86174  1  0
 86175  1  0
 87176  1  0
 87177  1  0
 88178  1  0
 88179  1  0
 88180  1  0
 89181  1  0
 98182  1  0
101183  1  0
101184  1  0
102185  1  0
102186  1  0
102187  1  0
103188  1  0
103189  1  0
104190  1  0
104191  1  0
104192  1  0
105193  1  0
105194  1  0
106195  1  0
106196  1  0
106197  1  0
109198  1  0
112199  1  0
115200  1  0
120201  1  0
125202  1  0
M  END

