
     RDKit          3D

152167  0  0  0  0  0  0  0  0999 V2000
    0.7905    1.8416  -10.9715 C   0  0  0  0  0  0  0  0  0  0  0  0
    0.9728    0.6729  -11.6120 C   0  0  0  0  0  0  0  0  0  0  0  0
    0.5805   -0.6440  -11.0944 C   0  0  0  0  0  0  0  0  0  0  0  0
    0.2909   -0.9316   -9.9028 O   0  0  0  0  0  0  0  0  0  0  0  0
    0.5425   -1.5702  -12.2052 C   0  0  0  0  0  0  0  0  0  0  0  0
    0.1052   -2.8947  -12.1993 C   0  0  0  0  0  0  0  0  0  0  0  0
    0.0515   -3.5870  -13.4153 C   0  0  0  0  0  0  0  0  0  0  0  0
   -0.5045   -5.2525  -13.4417 Cl  0  0  0  0  0  0  0  0  0  0  0  0
    0.4296   -2.9429  -14.6102 C   0  0  0  0  0  0  0  0  0  0  0  0
    0.3606   -3.6048  -15.7928 F   0  0  0  0  0  0  0  0  0  0  0  0
    0.8713   -1.6086  -14.5939 C   0  0  0  0  0  0  0  0  0  0  0  0
    0.9343   -0.9242  -13.3679 C   0  0  0  0  0  0  0  0  0  0  0  0
    1.3291    0.4800  -13.0512 C   0  0  0  0  0  0  0  0  0  0  0  0
    2.0612    1.3213  -13.8278 C   0  0  0  0  0  0  0  0  0  0  0  0
    2.3976    1.0285  -15.1968 C   0  0  0  0  0  0  0  0  0  0  0  0
    2.6769    0.8117  -16.2956 N   0  0  0  0  0  0  0  0  0  0  0  0
    2.6413    2.5331  -13.3048 C   0  0  0  0  0  0  0  0  0  0  0  0
    3.1190    3.5039  -12.8893 N   0  0  0  0  0  0  0  0  0  0  0  0
    0.3270    1.9092   -9.5781 C   0  0  0  0  0  0  0  0  0  0  0  0
    1.2726    1.8706   -8.5345 C   0  0  0  0  0  0  0  0  0  0  0  0
    0.8017    1.7777   -7.2290 C   0  0  0  0  0  0  0  0  0  0  0  0
    1.5393    1.4980   -6.0019 C   0  0  0  0  0  0  0  0  0  0  0  0
    2.7927    1.3964   -5.8830 O   0  0  0  0  0  0  0  0  0  0  0  0
    0.5471    1.2081   -4.9787 C   0  0  0  0  0  0  0  0  0  0  0  0
   -0.7099    1.3467   -5.5365 C   0  0  0  0  0  0  0  0  0  0  0  0
   -0.5535    1.7048   -6.9488 C   0  0  0  0  0  0  0  0  0  0  0  0
   -1.5070    1.7583   -7.9621 C   0  0  0  0  0  0  0  0  0  0  0  0
   -1.0577    1.8745   -9.2895 C   0  0  0  0  0  0  0  0  0  0  0  0
   -1.8519    0.9632   -4.8387 C   0  0  0  0  0  0  0  0  0  0  0  0
   -1.6997    0.4037   -3.5593 C   0  0  0  0  0  0  0  0  0  0  0  0
   -0.4144    0.2165   -2.9899 C   0  0  0  0  0  0  0  0  0  0  0  0
    0.7191    0.6568   -3.7132 C   0  0  0  0  0  0  0  0  0  0  0  0
   -0.2129   -0.5392   -1.7223 C   0  0  0  0  0  0  0  0  0  0  0  0
   -1.1334   -0.8060   -0.6813 C   0  0  0  0  0  0  0  0  0  0  0  0
   -2.4653   -0.2752   -0.5713 N   0  0  0  0  0  0  0  0  0  0  0  0
   -2.6300    0.9178    0.2187 C   0  0  0  0  0  0  0  0  0  0  0  0
   -3.3968    0.8893    1.3952 C   0  0  0  0  0  0  0  0  0  0  0  0
   -3.4628    2.0172    2.2242 C   0  0  0  0  0  0  0  0  0  0  0  0
   -2.7640    3.1822    1.8816 C   0  0  0  0  0  0  0  0  0  0  0  0
   -2.7637    4.5875    3.0007 S   0  0  0  0  0  0  0  0  0  0  0  0
   -4.1727    5.4064    2.1932 C   0  0  0  0  0  0  0  0  0  0  0  0
   -2.0135    3.2226    0.6986 C   0  0  0  0  0  0  0  0  0  0  0  0
   -1.9445    2.0967   -0.1251 C   0  0  0  0  0  0  0  0  0  0  0  0
   -3.6066   -1.0723   -0.9836 C   0  0  0  0  0  0  0  0  0  0  0  0
   -4.8613   -0.4663   -1.1975 C   0  0  0  0  0  0  0  0  0  0  0  0
   -5.9434   -1.2149   -1.6704 C   0  0  0  0  0  0  0  0  0  0  0  0
   -5.7905   -2.5751   -1.9466 C   0  0  0  0  0  0  0  0  0  0  0  0
   -7.1689   -3.5199   -2.6036 S   0  0  0  0  0  0  0  0  0  0  0  0
   -7.6484   -4.1899   -0.9835 C   0  0  0  0  0  0  0  0  0  0  0  0
   -4.5513   -3.1901   -1.7453 C   0  0  0  0  0  0  0  0  0  0  0  0
   -3.4682   -2.4498   -1.2622 C   0  0  0  0  0  0  0  0  0  0  0  0
   -0.5418   -1.5433    0.3469 C   0  0  0  0  0  0  0  0  0  0  0  0
   -1.0279   -2.0419    1.8696 S   0  0  0  0  0  0  0  0  0  0  0  0
    0.5038   -2.6594    2.3348 C   0  0  0  0  0  0  0  0  0  0  0  0
    1.3940   -2.4632    1.2537 C   0  0  0  0  0  0  0  0  0  0  0  0
    2.8086   -2.7101    1.2791 N   0  0  0  0  0  0  0  0  0  0  0  0
    3.7266   -1.5912    1.1981 C   0  0  0  0  0  0  0  0  0  0  0  0
    3.3725   -0.3340    1.7326 C   0  0  0  0  0  0  0  0  0  0  0  0
    4.2574    0.7428    1.6698 C   0  0  0  0  0  0  0  0  0  0  0  0
    5.5023    0.5936    1.0540 C   0  0  0  0  0  0  0  0  0  0  0  0
    6.6283    1.9850    0.9967 S   0  0  0  0  0  0  0  0  0  0  0  0
    5.9552    2.6249   -0.5711 C   0  0  0  0  0  0  0  0  0  0  0  0
    5.8649   -0.6410    0.5104 C   0  0  0  0  0  0  0  0  0  0  0  0
    4.9857   -1.7280    0.5767 C   0  0  0  0  0  0  0  0  0  0  0  0
    3.2769   -4.0734    1.2446 C   0  0  0  0  0  0  0  0  0  0  0  0
    2.7718   -4.9718    0.2898 C   0  0  0  0  0  0  0  0  0  0  0  0
    3.2687   -6.2778    0.2135 C   0  0  0  0  0  0  0  0  0  0  0  0
    4.2500   -6.7087    1.1149 C   0  0  0  0  0  0  0  0  0  0  0  0
    4.9428   -8.3621    0.9705 S   0  0  0  0  0  0  0  0  0  0  0  0
    3.7354   -9.1207    2.0997 C   0  0  0  0  0  0  0  0  0  0  0  0
    4.7411   -5.8260    2.0822 C   0  0  0  0  0  0  0  0  0  0  0  0
    4.2578   -4.5134    2.1487 C   0  0  0  0  0  0  0  0  0  0  0  0
    0.7611   -1.8484    0.1772 C   0  0  0  0  0  0  0  0  0  0  0  0
    1.2888   -1.2378   -1.2830 S   0  0  0  0  0  0  0  0  0  0  0  0
    0.8414   -2.9732    3.7497 C   0  0  0  0  0  0  0  0  0  0  0  0
    2.0785   -2.5642    4.2930 C   0  0  0  0  0  0  0  0  0  0  0  0
    2.2244   -2.5111    5.6719 C   0  0  0  0  0  0  0  0  0  0  0  0
    3.1907   -1.7217    6.4180 C   0  0  0  0  0  0  0  0  0  0  0  0
    4.2165   -1.1486    5.9435 O   0  0  0  0  0  0  0  0  0  0  0  0
    2.6542   -1.5518    7.7557 C   0  0  0  0  0  0  0  0  0  0  0  0
    1.4678   -2.2684    7.8444 C   0  0  0  0  0  0  0  0  0  0  0  0
    1.1931   -2.8660    6.5281 C   0  0  0  0  0  0  0  0  0  0  0  0
   -0.0086   -3.3587    6.0216 C   0  0  0  0  0  0  0  0  0  0  0  0
   -0.1753   -3.4295    4.6275 C   0  0  0  0  0  0  0  0  0  0  0  0
    0.5910   -2.0781    8.9161 C   0  0  0  0  0  0  0  0  0  0  0  0
    0.9062   -1.1025    9.8747 C   0  0  0  0  0  0  0  0  0  0  0  0
    2.0707   -0.3079    9.7267 C   0  0  0  0  0  0  0  0  0  0  0  0
    2.9743   -0.5622    8.6797 C   0  0  0  0  0  0  0  0  0  0  0  0
    2.2055    0.9422   10.4777 C   0  0  0  0  0  0  0  0  0  0  0  0
    1.7001    2.0997   10.0132 C   0  0  0  0  0  0  0  0  0  0  0  0
    0.8088    2.2665    8.8590 C   0  0  0  0  0  0  0  0  0  0  0  0
    0.5618    1.3902    7.9842 O   0  0  0  0  0  0  0  0  0  0  0  0
    0.1643    3.5646    8.9551 C   0  0  0  0  0  0  0  0  0  0  0  0
   -0.8927    4.0805    8.1975 C   0  0  0  0  0  0  0  0  0  0  0  0
   -1.4792    3.2289    6.7700 Cl  0  0  0  0  0  0  0  0  0  0  0  0
   -1.5011    5.2794    8.6196 C   0  0  0  0  0  0  0  0  0  0  0  0
   -2.8095    5.9834    7.6694 Cl  0  0  0  0  0  0  0  0  0  0  0  0
   -1.0909    5.8954    9.8292 C   0  0  0  0  0  0  0  0  0  0  0  0
   -1.9399    7.3245   10.4184 Cl  0  0  0  0  0  0  0  0  0  0  0  0
   -0.0395    5.3337   10.5917 C   0  0  0  0  0  0  0  0  0  0  0  0
    0.2348    5.9040   12.2393 Cl  0  0  0  0  0  0  0  0  0  0  0  0
    0.6466    4.2195   10.0792 C   0  0  0  0  0  0  0  0  0  0  0  0
    1.7734    3.4333   10.6669 C   0  0  0  0  0  0  0  0  0  0  0  0
    2.9115    3.9579   11.1934 C   0  0  0  0  0  0  0  0  0  0  0  0
    4.0780    3.1524   11.4508 C   0  0  0  0  0  0  0  0  0  0  0  0
    5.0229    2.5151   11.6696 N   0  0  0  0  0  0  0  0  0  0  0  0
    3.1054    5.3748   11.3678 C   0  0  0  0  0  0  0  0  0  0  0  0
    3.2859    6.5041   11.5373 N   0  0  0  0  0  0  0  0  0  0  0  0
    0.9031    2.7789  -11.4886 H   0  0  0  0  0  0  0  0  0  0  0  0
   -0.1989   -3.3748  -11.2802 H   0  0  0  0  0  0  0  0  0  0  0  0
    1.1164   -1.1334  -15.5302 H   0  0  0  0  0  0  0  0  0  0  0  0
    2.3355    1.8336   -8.7374 H   0  0  0  0  0  0  0  0  0  0  0  0
   -2.5576    1.6499   -7.7395 H   0  0  0  0  0  0  0  0  0  0  0  0
   -1.7825    1.8751  -10.0929 H   0  0  0  0  0  0  0  0  0  0  0  0
   -2.8307    1.0325   -5.2923 H   0  0  0  0  0  0  0  0  0  0  0  0
   -2.5869    0.0534   -3.0700 H   0  0  0  0  0  0  0  0  0  0  0  0
    1.7278    0.5122   -3.3446 H   0  0  0  0  0  0  0  0  0  0  0  0
   -3.9099   -0.0179    1.6855 H   0  0  0  0  0  0  0  0  0  0  0  0
   -4.0378    1.9726    3.1401 H   0  0  0  0  0  0  0  0  0  0  0  0
   -3.9237    5.6496    1.1376 H   0  0  0  0  0  0  0  0  0  0  0  0
   -5.0693    4.7561    2.2285 H   0  0  0  0  0  0  0  0  0  0  0  0
   -4.3903    6.3496    2.7316 H   0  0  0  0  0  0  0  0  0  0  0  0
   -1.4822    4.1237    0.4304 H   0  0  0  0  0  0  0  0  0  0  0  0
   -1.3489    2.1397   -1.0274 H   0  0  0  0  0  0  0  0  0  0  0  0
   -4.9961    0.5953   -1.0343 H   0  0  0  0  0  0  0  0  0  0  0  0
   -6.8966   -0.7278   -1.8466 H   0  0  0  0  0  0  0  0  0  0  0  0
   -7.9919   -3.3749   -0.3157 H   0  0  0  0  0  0  0  0  0  0  0  0
   -8.4753   -4.9172   -1.1193 H   0  0  0  0  0  0  0  0  0  0  0  0
   -6.7860   -4.7142   -0.5221 H   0  0  0  0  0  0  0  0  0  0  0  0
   -4.4212   -4.2438   -1.9603 H   0  0  0  0  0  0  0  0  0  0  0  0
   -2.5256   -2.9567   -1.1225 H   0  0  0  0  0  0  0  0  0  0  0  0
    2.4154   -0.1885    2.2191 H   0  0  0  0  0  0  0  0  0  0  0  0
    3.9777    1.6920    2.1134 H   0  0  0  0  0  0  0  0  0  0  0  0
    6.2746    1.9580   -1.4006 H   0  0  0  0  0  0  0  0  0  0  0  0
    4.8465    2.6870   -0.5361 H   0  0  0  0  0  0  0  0  0  0  0  0
    6.3623    3.6412   -0.7491 H   0  0  0  0  0  0  0  0  0  0  0  0
    6.8349   -0.7662    0.0474 H   0  0  0  0  0  0  0  0  0  0  0  0
    5.2848   -2.6689    0.1340 H   0  0  0  0  0  0  0  0  0  0  0  0
    2.0257   -4.6448   -0.4261 H   0  0  0  0  0  0  0  0  0  0  0  0
    2.9003   -6.9505   -0.5503 H   0  0  0  0  0  0  0  0  0  0  0  0
    3.9474  -10.2072    2.1806 H   0  0  0  0  0  0  0  0  0  0  0  0
    2.7070   -8.9837    1.7028 H   0  0  0  0  0  0  0  0  0  0  0  0
    3.8147   -8.6572    3.1062 H   0  0  0  0  0  0  0  0  0  0  0  0
    5.4980   -6.1491    2.7823 H   0  0  0  0  0  0  0  0  0  0  0  0
    4.6547   -3.8355    2.8975 H   0  0  0  0  0  0  0  0  0  0  0  0
    2.8528   -2.1321    3.6886 H   0  0  0  0  0  0  0  0  0  0  0  0
   -0.8347   -3.5877    6.6816 H   0  0  0  0  0  0  0  0  0  0  0  0
   -1.1399   -3.7308    4.2361 H   0  0  0  0  0  0  0  0  0  0  0  0
   -0.3565   -2.5990    8.9593 H   0  0  0  0  0  0  0  0  0  0  0  0
    0.1891   -0.8754   10.6586 H   0  0  0  0  0  0  0  0  0  0  0  0
    3.8153    0.0944    8.5055 H   0  0  0  0  0  0  0  0  0  0  0  0
    2.7258    0.9091   11.4265 H   0  0  0  0  0  0  0  0  0  0  0  0
  1  2  2  3
  2  3  1  0
  3  4  2  0
  3  5  1  0
  5  6  2  0
  6  7  1  0
  7  8  1  0
  7  9  2  0
  9 10  1  0
  9 11  1  0
 11 12  2  0
 12 13  1  0
 13 14  2  3
 14 15  1  0
 15 16  3  0
 14 17  1  0
 17 18  3  0
  1 19  1  0
 19 20  2  0
 20 21  1  0
 21 22  1  0
 22 23  2  0
 22 24  1  0
 24 25  2  0
 25 26  1  0
 26 27  1  0
 27 28  2  0
 25 29  1  0
 29 30  2  0
 30 31  1  0
 31 32  2  0
 31 33  1  0
 33 34  2  0
 34 35  1  0
 35 36  1  0
 36 37  2  0
 37 38  1  0
 38 39  2  0
 39 40  1  0
 40 41  1  0
 39 42  1  0
 42 43  2  0
 35 44  1  0
 44 45  2  0
 45 46  1  0
 46 47  2  0
 47 48  1  0
 48 49  1  0
 47 50  1  0
 50 51  2  0
 34 52  1  0
 52 53  1  0
 53 54  1  0
 54 55  2  0
 55 56  1  0
 56 57  1  0
 57 58  2  0
 58 59  1  0
 59 60  2  0
 60 61  1  0
 61 62  1  0
 60 63  1  0
 63 64  2  0
 56 65  1  0
 65 66  2  0
 66 67  1  0
 67 68  2  0
 68 69  1  0
 69 70  1  0
 68 71  1  0
 71 72  2  0
 55 73  1  0
 73 74  1  0
 54 75  1  0
 75 76  2  0
 76 77  1  0
 77 78  1  0
 78 79  2  0
 78 80  1  0
 80 81  2  0
 81 82  1  0
 82 83  1  0
 83 84  2  0
 81 85  1  0
 85 86  2  0
 86 87  1  0
 87 88  2  0
 87 89  1  0
 89 90  2  3
 90 91  1  0
 91 92  2  0
 91 93  1  0
 93 94  2  0
 94 95  1  0
 94 96  1  0
 96 97  1  0
 96 98  2  0
 98 99  1  0
 98100  1  0
100101  1  0
100102  2  0
102103  1  0
103104  2  3
104105  1  0
105106  3  0
104107  1  0
107108  3  0
 13  2  1  0
 28 19  1  0
 74 33  1  0
 84 75  1  0
103 90  1  0
 12  5  1  0
 26 21  2  0
 43 36  1  0
 51 44  1  0
 73 52  2  0
 82 77  2  0
102 93  1  0
 32 24  1  0
 64 57  1  0
 72 65  1  0
 88 80  1  0
  1109  1  0
  6110  1  0
 11111  1  0
 20112  1  0
 27113  1  0
 28114  1  0
 29115  1  0
 30116  1  0
 32117  1  0
 37118  1  0
 38119  1  0
 41120  1  0
 41121  1  0
 41122  1  0
 42123  1  0
 43124  1  0
 45125  1  0
 46126  1  0
 49127  1  0
 49128  1  0
 49129  1  0
 50130  1  0
 51131  1  0
 58132  1  0
 59133  1  0
 62134  1  0
 62135  1  0
 62136  1  0
 63137  1  0
 64138  1  0
 66139  1  0
 67140  1  0
 70141  1  0
 70142  1  0
 70143  1  0
 71144  1  0
 72145  1  0
 76146  1  0
 83147  1  0
 84148  1  0
 85149  1  0
 86150  1  0
 88151  1  0
 89152  1  0
M  END

