
     RDKit          3D

176194  0  0  0  0  0  0  0  0999 V2000
   -7.2765    0.9451   -6.9283 C   0  0  0  0  0  0  0  0  0  0  0  0
   -8.2715    1.6732   -6.3850 C   0  0  0  0  0  0  0  0  0  0  0  0
   -8.4473    1.8434   -4.9364 C   0  0  0  0  0  0  0  0  0  0  0  0
   -7.5287    2.0427   -4.0951 O   0  0  0  0  0  0  0  0  0  0  0  0
   -9.8505    1.6783   -4.6205 C   0  0  0  0  0  0  0  0  0  0  0  0
  -10.4034    1.3512   -3.3808 C   0  0  0  0  0  0  0  0  0  0  0  0
  -11.7182    0.8772   -3.3436 C   0  0  0  0  0  0  0  0  0  0  0  0
  -12.4003    0.3573   -1.8176 Cl  0  0  0  0  0  0  0  0  0  0  0  0
  -12.4604    0.7593   -4.5364 C   0  0  0  0  0  0  0  0  0  0  0  0
  -13.7154    0.2499   -4.5069 F   0  0  0  0  0  0  0  0  0  0  0  0
  -11.8822    1.0958   -5.7737 C   0  0  0  0  0  0  0  0  0  0  0  0
  -10.5663    1.5741   -5.8031 C   0  0  0  0  0  0  0  0  0  0  0  0
   -9.6396    1.7447   -6.9568 C   0  0  0  0  0  0  0  0  0  0  0  0
   -9.9612    2.0527   -8.2352 C   0  0  0  0  0  0  0  0  0  0  0  0
   -8.9455    2.3278   -9.2207 C   0  0  0  0  0  0  0  0  0  0  0  0
   -8.1249    2.5408  -10.0112 N   0  0  0  0  0  0  0  0  0  0  0  0
  -11.3285    2.2100   -8.6569 C   0  0  0  0  0  0  0  0  0  0  0  0
  -12.4295    2.3349   -9.0043 N   0  0  0  0  0  0  0  0  0  0  0  0
   -6.4038    0.1271   -6.0742 C   0  0  0  0  0  0  0  0  0  0  0  0
   -6.9117   -0.7892   -5.1546 C   0  0  0  0  0  0  0  0  0  0  0  0
   -6.0133   -1.0835   -4.1239 C   0  0  0  0  0  0  0  0  0  0  0  0
   -6.3220   -1.7927   -2.9448 C   0  0  0  0  0  0  0  0  0  0  0  0
   -7.6243   -2.4500   -2.7568 C   0  0  0  0  0  0  0  0  0  0  0  0
   -8.6672   -1.9901   -1.9644 C   0  0  0  0  0  0  0  0  0  0  0  0
   -9.8202   -2.7767   -2.0573 C   0  0  0  0  0  0  0  0  0  0  0  0
   -9.6765   -3.8435   -2.9384 C   0  0  0  0  0  0  0  0  0  0  0  0
  -10.7623   -4.7911   -3.3517 C   0  0  0  0  0  0  0  0  0  0  0  0
  -11.4167   -4.3270   -4.6487 C   0  0  0  0  0  0  0  0  0  0  0  0
   -8.1462   -3.7901   -3.6266 S   0  0  0  0  0  0  0  0  0  0  0  0
   -5.3550   -1.7895   -1.9296 C   0  0  0  0  0  0  0  0  0  0  0  0
   -4.1028   -1.1898   -2.1002 C   0  0  0  0  0  0  0  0  0  0  0  0
   -3.7740   -0.5249   -3.2979 C   0  0  0  0  0  0  0  0  0  0  0  0
   -2.4610    0.1204   -3.4831 C   0  0  0  0  0  0  0  0  0  0  0  0
   -2.2252    1.4798   -3.6406 C   0  0  0  0  0  0  0  0  0  0  0  0
   -0.8632    1.8016   -3.6996 C   0  0  0  0  0  0  0  0  0  0  0  0
   -0.0337    0.6864   -3.6163 C   0  0  0  0  0  0  0  0  0  0  0  0
    1.4663    0.6939   -3.6113 C   0  0  0  0  0  0  0  0  0  0  0  0
    2.0099    0.5551   -2.1926 C   0  0  0  0  0  0  0  0  0  0  0  0
   -0.9869   -0.6882   -3.4274 S   0  0  0  0  0  0  0  0  0  0  0  0
   -4.7777   -0.4525   -4.2796 C   0  0  0  0  0  0  0  0  0  0  0  0
   -4.8140    0.5130   -5.6616 S   0  0  0  0  0  0  0  0  0  0  0  0
   -3.3359   -1.1826   -0.9361 C   0  0  0  0  0  0  0  0  0  0  0  0
   -3.9854   -1.7638    0.1486 C   0  0  0  0  0  0  0  0  0  0  0  0
   -5.5128   -2.2981   -0.3259 S   0  0  0  0  0  0  0  0  0  0  0  0
   -3.5361   -1.5420    1.5237 C   0  0  0  0  0  0  0  0  0  0  0  0
   -3.2660   -0.2470    1.9655 C   0  0  0  0  0  0  0  0  0  0  0  0
   -2.1808   -0.1709    2.8465 C   0  0  0  0  0  0  0  0  0  0  0  0
   -1.4959    1.0129    3.1860 C   0  0  0  0  0  0  0  0  0  0  0  0
   -1.9624    2.3304    2.7183 C   0  0  0  0  0  0  0  0  0  0  0  0
   -2.6525    3.1785    3.5945 C   0  0  0  0  0  0  0  0  0  0  0  0
   -3.1633    4.3960    3.1355 C   0  0  0  0  0  0  0  0  0  0  0  0
   -2.9835    4.7786    1.8000 C   0  0  0  0  0  0  0  0  0  0  0  0
   -3.6291    6.3500    1.2201 S   0  0  0  0  0  0  0  0  0  0  0  0
   -2.1390    7.3046    1.6741 C   0  0  0  0  0  0  0  0  0  0  0  0
   -1.1315    7.3236    0.5328 C   0  0  0  0  0  0  0  0  0  0  0  0
   -2.2953    3.9294    0.9204 C   0  0  0  0  0  0  0  0  0  0  0  0
   -1.7763    2.7165    1.3806 C   0  0  0  0  0  0  0  0  0  0  0  0
   -0.2409    0.8646    3.7974 C   0  0  0  0  0  0  0  0  0  0  0  0
    0.2887   -0.3894    4.1238 C   0  0  0  0  0  0  0  0  0  0  0  0
   -0.4390   -1.5674    3.8557 C   0  0  0  0  0  0  0  0  0  0  0  0
    0.1385   -2.8997    4.0925 C   0  0  0  0  0  0  0  0  0  0  0  0
    0.8488   -3.5565    3.0708 C   0  0  0  0  0  0  0  0  0  0  0  0
    1.4039   -4.8163    3.3033 C   0  0  0  0  0  0  0  0  0  0  0  0
    1.2464   -5.4340    4.5521 C   0  0  0  0  0  0  0  0  0  0  0  0
    2.0142   -7.0245    4.8697 S   0  0  0  0  0  0  0  0  0  0  0  0
    0.5695   -7.9872    4.3184 C   0  0  0  0  0  0  0  0  0  0  0  0
    0.7457   -9.4505    4.6915 C   0  0  0  0  0  0  0  0  0  0  0  0
    0.5355   -4.7824    5.5669 C   0  0  0  0  0  0  0  0  0  0  0  0
   -0.0185   -3.5166    5.3383 C   0  0  0  0  0  0  0  0  0  0  0  0
   -1.6538   -1.4217    3.1754 C   0  0  0  0  0  0  0  0  0  0  0  0
   -2.4806   -2.6017    2.3032 S   0  0  0  0  0  0  0  0  0  0  0  0
    1.6483   -0.3436    4.4720 C   0  0  0  0  0  0  0  0  0  0  0  0
    2.2033    0.9292    4.3547 C   0  0  0  0  0  0  0  0  0  0  0  0
    0.9916    2.0093    3.8852 S   0  0  0  0  0  0  0  0  0  0  0  0
    3.6303    1.1425    4.0716 C   0  0  0  0  0  0  0  0  0  0  0  0
    4.0923    1.8523    2.9601 C   0  0  0  0  0  0  0  0  0  0  0  0
    5.3886    1.4863    2.5595 C   0  0  0  0  0  0  0  0  0  0  0  0
    6.0152    1.8588    1.3485 C   0  0  0  0  0  0  0  0  0  0  0  0
    5.4184    2.8618    0.4401 C   0  0  0  0  0  0  0  0  0  0  0  0
    5.0119    4.1444    0.8026 C   0  0  0  0  0  0  0  0  0  0  0  0
    4.4813    4.8834   -0.2659 C   0  0  0  0  0  0  0  0  0  0  0  0
    4.4837    4.1867   -1.4665 C   0  0  0  0  0  0  0  0  0  0  0  0
    4.0016    4.7112   -2.7853 C   0  0  0  0  0  0  0  0  0  0  0  0
    2.4784    4.7360   -2.8465 C   0  0  0  0  0  0  0  0  0  0  0  0
    5.1161    2.6495   -1.2066 S   0  0  0  0  0  0  0  0  0  0  0  0
    7.1987    1.1703    1.0169 C   0  0  0  0  0  0  0  0  0  0  0  0
    7.7615    0.1901    1.8463 C   0  0  0  0  0  0  0  0  0  0  0  0
    7.1626   -0.1378    3.0783 C   0  0  0  0  0  0  0  0  0  0  0  0
    7.7093   -1.1832    3.9624 C   0  0  0  0  0  0  0  0  0  0  0  0
    7.9074   -2.5183    3.6324 C   0  0  0  0  0  0  0  0  0  0  0  0
    8.4076   -3.2783    4.6978 C   0  0  0  0  0  0  0  0  0  0  0  0
    8.6126   -2.5349    5.8560 C   0  0  0  0  0  0  0  0  0  0  0  0
    9.0901   -3.0642    7.1682 C   0  0  0  0  0  0  0  0  0  0  0  0
    7.9151   -3.4758    8.0483 C   0  0  0  0  0  0  0  0  0  0  0  0
    8.1338   -0.9450    5.5738 S   0  0  0  0  0  0  0  0  0  0  0  0
    5.9652    0.5208    3.3940 C   0  0  0  0  0  0  0  0  0  0  0  0
    4.8570    0.0967    4.5864 S   0  0  0  0  0  0  0  0  0  0  0  0
    8.8878   -0.4326    1.2844 C   0  0  0  0  0  0  0  0  0  0  0  0
    9.1812    0.0445    0.0098 C   0  0  0  0  0  0  0  0  0  0  0  0
    8.0946    1.2676   -0.4059 S   0  0  0  0  0  0  0  0  0  0  0  0
   10.1567   -0.5635   -0.9015 C   0  0  0  0  0  0  0  0  0  0  0  0
    9.8000   -1.4333   -1.8638 C   0  0  0  0  0  0  0  0  0  0  0  0
    8.4246   -1.7749   -2.2480 C   0  0  0  0  0  0  0  0  0  0  0  0
    7.3762   -1.5279   -1.5910 O   0  0  0  0  0  0  0  0  0  0  0  0
    8.4564   -2.4186   -3.5408 C   0  0  0  0  0  0  0  0  0  0  0  0
    7.3751   -2.7822   -4.3488 C   0  0  0  0  0  0  0  0  0  0  0  0
    7.6395   -3.3049   -5.6206 C   0  0  0  0  0  0  0  0  0  0  0  0
    6.3013   -3.7591   -6.6640 Cl  0  0  0  0  0  0  0  0  0  0  0  0
    8.9681   -3.4234   -6.0733 C   0  0  0  0  0  0  0  0  0  0  0  0
    9.2180   -3.8834   -7.3233 F   0  0  0  0  0  0  0  0  0  0  0  0
   10.0386   -3.0399   -5.2482 C   0  0  0  0  0  0  0  0  0  0  0  0
    9.7691   -2.5574   -3.9562 C   0  0  0  0  0  0  0  0  0  0  0  0
   10.6868   -2.0702   -2.8867 C   0  0  0  0  0  0  0  0  0  0  0  0
   12.0035   -2.3777   -2.7432 C   0  0  0  0  0  0  0  0  0  0  0  0
   12.7326   -2.1119   -1.5321 C   0  0  0  0  0  0  0  0  0  0  0  0
   13.3260   -1.9061   -0.5601 N   0  0  0  0  0  0  0  0  0  0  0  0
   12.7330   -3.1338   -3.7300 C   0  0  0  0  0  0  0  0  0  0  0  0
   13.3377   -3.7473   -4.5052 N   0  0  0  0  0  0  0  0  0  0  0  0
   -7.2922    0.6911   -7.9785 H   0  0  0  0  0  0  0  0  0  0  0  0
   -9.7926    1.3786   -2.4825 H   0  0  0  0  0  0  0  0  0  0  0  0
  -12.4335    0.9040   -6.6818 H   0  0  0  0  0  0  0  0  0  0  0  0
   -7.9494   -1.1072   -5.1552 H   0  0  0  0  0  0  0  0  0  0  0  0
   -8.5944   -1.1245   -1.3185 H   0  0  0  0  0  0  0  0  0  0  0  0
  -10.7395   -2.5776   -1.5144 H   0  0  0  0  0  0  0  0  0  0  0  0
  -10.3264   -5.8041   -3.4998 H   0  0  0  0  0  0  0  0  0  0  0  0
  -11.5291   -4.8577   -2.5494 H   0  0  0  0  0  0  0  0  0  0  0  0
  -10.6603   -4.2517   -5.4582 H   0  0  0  0  0  0  0  0  0  0  0  0
  -11.8984   -3.3366   -4.5024 H   0  0  0  0  0  0  0  0  0  0  0  0
  -12.1910   -5.0643   -4.9541 H   0  0  0  0  0  0  0  0  0  0  0  0
   -3.0129    2.2244   -3.6959 H   0  0  0  0  0  0  0  0  0  0  0  0
   -0.4923    2.8151   -3.7976 H   0  0  0  0  0  0  0  0  0  0  0  0
    1.8323   -0.1581   -4.2253 H   0  0  0  0  0  0  0  0  0  0  0  0
    1.8505    1.6373   -4.0622 H   0  0  0  0  0  0  0  0  0  0  0  0
    1.7470    1.4527   -1.5904 H   0  0  0  0  0  0  0  0  0  0  0  0
    1.5861   -0.3489   -1.6981 H   0  0  0  0  0  0  0  0  0  0  0  0
    3.1113    0.4485   -2.2251 H   0  0  0  0  0  0  0  0  0  0  0  0
   -2.3892   -0.6670   -0.8424 H   0  0  0  0  0  0  0  0  0  0  0  0
   -3.7099    0.6220    1.4998 H   0  0  0  0  0  0  0  0  0  0  0  0
   -2.8106    2.8864    4.6249 H   0  0  0  0  0  0  0  0  0  0  0  0
   -3.7017    5.0389    3.8187 H   0  0  0  0  0  0  0  0  0  0  0  0
   -2.4502    8.3500    1.8985 H   0  0  0  0  0  0  0  0  0  0  0  0
   -1.6670    6.8933    2.5910 H   0  0  0  0  0  0  0  0  0  0  0  0
   -1.5476    7.8796   -0.3308 H   0  0  0  0  0  0  0  0  0  0  0  0
   -0.8820    6.2913    0.2159 H   0  0  0  0  0  0  0  0  0  0  0  0
   -0.1997    7.8182    0.8714 H   0  0  0  0  0  0  0  0  0  0  0  0
   -2.1671    4.2115   -0.1164 H   0  0  0  0  0  0  0  0  0  0  0  0
   -1.2459    2.0696    0.6910 H   0  0  0  0  0  0  0  0  0  0  0  0
    0.9756   -3.0897    2.1008 H   0  0  0  0  0  0  0  0  0  0  0  0
    1.9563   -5.3110    2.5203 H   0  0  0  0  0  0  0  0  0  0  0  0
    0.4582   -7.9040    3.2182 H   0  0  0  0  0  0  0  0  0  0  0  0
   -0.3529   -7.6066    4.7994 H   0  0  0  0  0  0  0  0  0  0  0  0
    0.8721   -9.5437    5.7901 H   0  0  0  0  0  0  0  0  0  0  0  0
   -0.1515  -10.0242    4.3819 H   0  0  0  0  0  0  0  0  0  0  0  0
    1.6388   -9.8691    4.1854 H   0  0  0  0  0  0  0  0  0  0  0  0
    0.4072   -5.2550    6.5354 H   0  0  0  0  0  0  0  0  0  0  0  0
   -0.5678   -3.0247    6.1311 H   0  0  0  0  0  0  0  0  0  0  0  0
    2.2471   -1.2316    4.6245 H   0  0  0  0  0  0  0  0  0  0  0  0
    3.4444    2.4804    2.3632 H   0  0  0  0  0  0  0  0  0  0  0  0
    5.1069    4.5425    1.8043 H   0  0  0  0  0  0  0  0  0  0  0  0
    4.1189    5.8984   -0.1587 H   0  0  0  0  0  0  0  0  0  0  0  0
    4.3987    5.7363   -2.9407 H   0  0  0  0  0  0  0  0  0  0  0  0
    4.3911    4.0665   -3.6035 H   0  0  0  0  0  0  0  0  0  0  0  0
    2.0738    5.4485   -2.0976 H   0  0  0  0  0  0  0  0  0  0  0  0
    2.0632    3.7276   -2.6579 H   0  0  0  0  0  0  0  0  0  0  0  0
    2.1535    5.0613   -3.8576 H   0  0  0  0  0  0  0  0  0  0  0  0
    7.6831   -2.9334    2.6593 H   0  0  0  0  0  0  0  0  0  0  0  0
    8.6090   -4.3419    4.6222 H   0  0  0  0  0  0  0  0  0  0  0  0
    9.7647   -3.9347    7.0081 H   0  0  0  0  0  0  0  0  0  0  0  0
    9.6740   -2.2739    7.6881 H   0  0  0  0  0  0  0  0  0  0  0  0
    8.2931   -3.8882    9.0060 H   0  0  0  0  0  0  0  0  0  0  0  0
    7.2793   -2.5941    8.2742 H   0  0  0  0  0  0  0  0  0  0  0  0
    7.3092   -4.2554    7.5401 H   0  0  0  0  0  0  0  0  0  0  0  0
    9.4398   -1.2372    1.7488 H   0  0  0  0  0  0  0  0  0  0  0  0
   11.1837   -0.2682   -0.7640 H   0  0  0  0  0  0  0  0  0  0  0  0
    6.3571   -2.6464   -4.0024 H   0  0  0  0  0  0  0  0  0  0  0  0
   11.0446   -3.0962   -5.6381 H   0  0  0  0  0  0  0  0  0  0  0  0
  1  2  2  3
  2  3  1  0
  3  4  2  0
  3  5  1  0
  5  6  2  0
  6  7  1  0
  7  8  1  0
  7  9  2  0
  9 10  1  0
  9 11  1  0
 11 12  2  0
 12 13  1  0
 13 14  2  3
 14 15  1  0
 15 16  3  0
 14 17  1  0
 17 18  3  0
  1 19  1  0
 19 20  2  0
 20 21  1  0
 21 22  2  0
 22 23  1  0
 23 24  2  0
 24 25  1  0
 25 26  2  0
 26 27  1  0
 27 28  1  0
 26 29  1  0
 22 30  1  0
 30 31  2  0
 31 32  1  0
 32 33  1  0
 33 34  2  0
 34 35  1  0
 35 36  2  0
 36 37  1  0
 37 38  1  0
 36 39  1  0
 32 40  2  0
 40 41  1  0
 31 42  1  0
 42 43  2  0
 43 44  1  0
 43 45  1  0
 45 46  2  0
 46 47  1  0
 47 48  2  0
 48 49  1  0
 49 50  2  0
 50 51  1  0
 51 52  2  0
 52 53  1  0
 53 54  1  0
 54 55  1  0
 52 56  1  0
 56 57  2  0
 48 58  1  0
 58 59  2  0
 59 60  1  0
 60 61  1  0
 61 62  2  0
 62 63  1  0
 63 64  2  0
 64 65  1  0
 65 66  1  0
 66 67  1  0
 64 68  1  0
 68 69  2  0
 60 70  2  0
 70 71  1  0
 59 72  1  0
 72 73  2  0
 73 74  1  0
 73 75  1  0
 75 76  2  0
 76 77  1  0
 77 78  2  0
 78 79  1  0
 79 80  2  0
 80 81  1  0
 81 82  2  0
 82 83  1  0
 83 84  1  0
 82 85  1  0
 78 86  1  0
 86 87  2  0
 87 88  1  0
 88 89  1  0
 89 90  2  0
 90 91  1  0
 91 92  2  0
 92 93  1  0
 93 94  1  0
 92 95  1  0
 88 96  2  0
 96 97  1  0
 87 98  1  0
 98 99  2  0
 99100  1  0
 99101  1  0
101102  2  3
102103  1  0
103104  2  0
103105  1  0
105106  2  0
106107  1  0
107108  1  0
107109  2  0
109110  1  0
109111  1  0
111112  2  0
112113  1  0
113114  2  3
114115  1  0
115116  3  0
114117  1  0
117118  3  0
 13  2  1  0
 41 19  1  0
 71 45  1  0
 97 75  1  0
113102  1  0
 12  5  1  0
 40 21  1  0
 70 47  1  0
 96 77  1  0
112105  1  0
 29 23  1  0
 44 30  1  0
 57 49  1  0
 74 58  1  0
 85 79  1  0
100 86  1  0
 39 33  1  0
 69 61  1  0
 95 89  1  0
  1119  1  0
  6120  1  0
 11121  1  0
 20122  1  0
 24123  1  0
 25124  1  0
 27125  1  0
 27126  1  0
 28127  1  0
 28128  1  0
 28129  1  0
 34130  1  0
 35131  1  0
 37132  1  0
 37133  1  0
 38134  1  0
 38135  1  0
 38136  1  0
 42137  1  0
 46138  1  0
 50139  1  0
 51140  1  0
 54141  1  0
 54142  1  0
 55143  1  0
 55144  1  0
 55145  1  0
 56146  1  0
 57147  1  0
 62148  1  0
 63149  1  0
 66150  1  0
 66151  1  0
 67152  1  0
 67153  1  0
 67154  1  0
 68155  1  0
 69156  1  0
 72157  1  0
 76158  1  0
 80159  1  0
 81160  1  0
 83161  1  0
 83162  1  0
 84163  1  0
 84164  1  0
 84165  1  0
 90166  1  0
 91167  1  0
 93168  1  0
 93169  1  0
 94170  1  0
 94171  1  0
 94172  1  0
 98173  1  0
101174  1  0
106175  1  0
111176  1  0
M  END

