
     RDKit          3D

206222  0  0  0  0  0  0  0  0999 V2000
   -5.8269    6.1808    3.0953 C   0  0  0  0  0  0  0  0  0  0  0  0
   -6.7677    5.2130    2.9726 C   0  0  0  0  0  0  0  0  0  0  0  0
   -8.0848    5.3097    3.5918 C   0  0  0  0  0  0  0  0  0  0  0  0
   -8.6774    6.3740    3.9039 O   0  0  0  0  0  0  0  0  0  0  0  0
   -8.5300    3.9684    3.9316 C   0  0  0  0  0  0  0  0  0  0  0  0
   -9.6077    3.5779    4.7307 C   0  0  0  0  0  0  0  0  0  0  0  0
   -9.7514    2.2143    5.0429 C   0  0  0  0  0  0  0  0  0  0  0  0
  -11.0827    1.6854    6.0599 Cl  0  0  0  0  0  0  0  0  0  0  0  0
   -8.8062    1.2805    4.5770 C   0  0  0  0  0  0  0  0  0  0  0  0
   -8.9207   -0.0316    4.9163 F   0  0  0  0  0  0  0  0  0  0  0  0
   -7.7106    1.6979    3.8064 C   0  0  0  0  0  0  0  0  0  0  0  0
   -7.6084    3.0499    3.4562 C   0  0  0  0  0  0  0  0  0  0  0  0
   -6.5497    3.7571    2.6906 C   0  0  0  0  0  0  0  0  0  0  0  0
   -5.7702    3.2331    1.7096 C   0  0  0  0  0  0  0  0  0  0  0  0
   -5.1222    4.0693    0.7307 C   0  0  0  0  0  0  0  0  0  0  0  0
   -4.6040    4.7264   -0.0695 N   0  0  0  0  0  0  0  0  0  0  0  0
   -5.6994    1.8212    1.4557 C   0  0  0  0  0  0  0  0  0  0  0  0
   -5.6506    0.6862    1.2411 N   0  0  0  0  0  0  0  0  0  0  0  0
   -4.3758    5.8831    3.0882 C   0  0  0  0  0  0  0  0  0  0  0  0
   -3.4923    6.5724    2.2433 C   0  0  0  0  0  0  0  0  0  0  0  0
   -3.9972    7.6844    1.5551 O   0  0  0  0  0  0  0  0  0  0  0  0
   -3.5693    8.1584    0.2771 C   0  0  0  0  0  0  0  0  0  0  0  0
   -4.6738    9.0179   -0.3240 C   0  0  0  0  0  0  0  0  0  0  0  0
   -2.1663    6.0852    2.0801 C   0  0  0  0  0  0  0  0  0  0  0  0
   -1.2456    6.7695    1.2756 O   0  0  0  0  0  0  0  0  0  0  0  0
   -0.5498    7.9371    1.7199 C   0  0  0  0  0  0  0  0  0  0  0  0
    0.5681    7.5615    2.6792 C   0  0  0  0  0  0  0  0  0  0  0  0
   -1.7811    4.8718    2.7094 C   0  0  0  0  0  0  0  0  0  0  0  0
   -2.6604    4.2816    3.6344 C   0  0  0  0  0  0  0  0  0  0  0  0
   -3.9126    4.8116    3.8621 C   0  0  0  0  0  0  0  0  0  0  0  0
   -0.6039    4.0875    2.2380 C   0  0  0  0  0  0  0  0  0  0  0  0
   -0.0604    2.9532    2.8961 C   0  0  0  0  0  0  0  0  0  0  0  0
   -0.0275    2.7743    4.3328 N   0  0  0  0  0  0  0  0  0  0  0  0
    0.1930    1.4705    4.8941 C   0  0  0  0  0  0  0  0  0  0  0  0
    1.4825    1.1053    5.3220 C   0  0  0  0  0  0  0  0  0  0  0  0
    1.7477   -0.2135    5.6918 C   0  0  0  0  0  0  0  0  0  0  0  0
    0.7319   -1.1774    5.6438 C   0  0  0  0  0  0  0  0  0  0  0  0
    1.1080   -2.8931    6.0176 S   0  0  0  0  0  0  0  0  0  0  0  0
    1.4493   -3.3157    4.2755 C   0  0  0  0  0  0  0  0  0  0  0  0
   -0.5673   -0.8027    5.2761 C   0  0  0  0  0  0  0  0  0  0  0  0
   -0.8376    0.5172    4.8950 C   0  0  0  0  0  0  0  0  0  0  0  0
    0.1621    3.9108    5.1930 C   0  0  0  0  0  0  0  0  0  0  0  0
    1.1792    4.8390    4.9342 C   0  0  0  0  0  0  0  0  0  0  0  0
    1.3355    5.9568    5.7586 C   0  0  0  0  0  0  0  0  0  0  0  0
    0.4645    6.1626    6.8317 C   0  0  0  0  0  0  0  0  0  0  0  0
    0.5965    7.6470    7.8325 S   0  0  0  0  0  0  0  0  0  0  0  0
    1.6652    6.8557    9.0693 C   0  0  0  0  0  0  0  0  0  0  0  0
   -0.5342    5.2194    7.1137 C   0  0  0  0  0  0  0  0  0  0  0  0
   -0.6729    4.0912    6.3093 C   0  0  0  0  0  0  0  0  0  0  0  0
    0.5355    2.0786    1.9779 C   0  0  0  0  0  0  0  0  0  0  0  0
    1.0328    0.4686    2.0237 S   0  0  0  0  0  0  0  0  0  0  0  0
    1.3685    0.3954    0.3644 C   0  0  0  0  0  0  0  0  0  0  0  0
    1.0966    1.6336   -0.2377 C   0  0  0  0  0  0  0  0  0  0  0  0
    1.6859    2.0437   -1.4812 N   0  0  0  0  0  0  0  0  0  0  0  0
    1.0224    1.6998   -2.7073 C   0  0  0  0  0  0  0  0  0  0  0  0
    1.5001    0.6417   -3.4976 C   0  0  0  0  0  0  0  0  0  0  0  0
    0.8606    0.3148   -4.6989 C   0  0  0  0  0  0  0  0  0  0  0  0
   -0.2301    1.0715   -5.1362 C   0  0  0  0  0  0  0  0  0  0  0  0
   -1.1003    0.5961   -6.6328 S   0  0  0  0  0  0  0  0  0  0  0  0
   -0.1699    1.7352   -7.7000 C   0  0  0  0  0  0  0  0  0  0  0  0
   -0.6766    2.1589   -4.3721 C   0  0  0  0  0  0  0  0  0  0  0  0
   -0.0583    2.4690   -3.1602 C   0  0  0  0  0  0  0  0  0  0  0  0
    3.0174    2.6212   -1.5057 C   0  0  0  0  0  0  0  0  0  0  0  0
    3.4879    3.2861   -2.6603 C   0  0  0  0  0  0  0  0  0  0  0  0
    4.7786    3.8144   -2.7032 C   0  0  0  0  0  0  0  0  0  0  0  0
    5.6172    3.7052   -1.5897 C   0  0  0  0  0  0  0  0  0  0  0  0
    7.2778    4.3851   -1.6494 S   0  0  0  0  0  0  0  0  0  0  0  0
    8.0297    2.8098   -2.1699 C   0  0  0  0  0  0  0  0  0  0  0  0
    5.1599    3.0766   -0.4325 C   0  0  0  0  0  0  0  0  0  0  0  0
    3.8757    2.5308   -0.3882 C   0  0  0  0  0  0  0  0  0  0  0  0
    0.6040    2.5327    0.7003 C   0  0  0  0  0  0  0  0  0  0  0  0
   -0.1735    4.0065    0.5827 S   0  0  0  0  0  0  0  0  0  0  0  0
    1.6378   -0.8373   -0.3713 C   0  0  0  0  0  0  0  0  0  0  0  0
    0.7057   -1.4830   -1.1900 C   0  0  0  0  0  0  0  0  0  0  0  0
   -0.7140   -1.3665   -0.9824 N   0  0  0  0  0  0  0  0  0  0  0  0
   -1.3150   -2.0336    0.1431 C   0  0  0  0  0  0  0  0  0  0  0  0
   -2.1141   -1.3296    1.0577 C   0  0  0  0  0  0  0  0  0  0  0  0
   -2.7599   -2.0018    2.1055 C   0  0  0  0  0  0  0  0  0  0  0  0
   -2.6211   -3.3834    2.2348 C   0  0  0  0  0  0  0  0  0  0  0  0
   -3.5380   -4.2684    3.4944 S   0  0  0  0  0  0  0  0  0  0  0  0
   -5.0391   -4.3983    2.4689 C   0  0  0  0  0  0  0  0  0  0  0  0
   -1.7874   -4.0904    1.3611 C   0  0  0  0  0  0  0  0  0  0  0  0
   -1.1348   -3.4192    0.3275 C   0  0  0  0  0  0  0  0  0  0  0  0
   -1.5632   -0.6949   -1.9327 C   0  0  0  0  0  0  0  0  0  0  0  0
   -2.1213    0.5621   -1.6260 C   0  0  0  0  0  0  0  0  0  0  0  0
   -3.0745    1.1353   -2.4681 C   0  0  0  0  0  0  0  0  0  0  0  0
   -3.4583    0.4798   -3.6428 C   0  0  0  0  0  0  0  0  0  0  0  0
   -4.6254    1.2524   -4.7618 S   0  0  0  0  0  0  0  0  0  0  0  0
   -6.0586    0.3354   -4.1137 C   0  0  0  0  0  0  0  0  0  0  0  0
   -2.8868   -0.7544   -3.9680 C   0  0  0  0  0  0  0  0  0  0  0  0
   -1.9550   -1.3483   -3.1090 C   0  0  0  0  0  0  0  0  0  0  0  0
    1.3116   -2.5517   -1.8560 C   0  0  0  0  0  0  0  0  0  0  0  0
    0.7823   -3.7546   -2.8912 S   0  0  0  0  0  0  0  0  0  0  0  0
    2.2311   -4.6569   -2.8358 C   0  0  0  0  0  0  0  0  0  0  0  0
    3.1440   -3.9934   -1.9968 C   0  0  0  0  0  0  0  0  0  0  0  0
    4.2483   -4.6530   -1.3606 N   0  0  0  0  0  0  0  0  0  0  0  0
    3.9971   -5.6432   -0.3306 C   0  0  0  0  0  0  0  0  0  0  0  0
    4.9756   -6.6114   -0.0156 C   0  0  0  0  0  0  0  0  0  0  0  0
    4.7463   -7.5488    0.9971 C   0  0  0  0  0  0  0  0  0  0  0  0
    3.5404   -7.5311    1.7095 C   0  0  0  0  0  0  0  0  0  0  0  0
    3.2134   -8.7587    2.9792 S   0  0  0  0  0  0  0  0  0  0  0  0
    3.8507   -7.7242    4.3423 C   0  0  0  0  0  0  0  0  0  0  0  0
    2.5632   -6.5856    1.4027 C   0  0  0  0  0  0  0  0  0  0  0  0
    2.7853   -5.6483    0.3940 C   0  0  0  0  0  0  0  0  0  0  0  0
    5.5763   -4.1291   -1.5391 C   0  0  0  0  0  0  0  0  0  0  0  0
    6.2960   -4.4138   -2.7106 C   0  0  0  0  0  0  0  0  0  0  0  0
    7.6401   -4.0459   -2.8152 C   0  0  0  0  0  0  0  0  0  0  0  0
    8.2761   -3.3958   -1.7496 C   0  0  0  0  0  0  0  0  0  0  0  0
   10.0350   -3.0402   -1.8241 S   0  0  0  0  0  0  0  0  0  0  0  0
   10.5085   -4.6334   -1.0766 C   0  0  0  0  0  0  0  0  0  0  0  0
    7.5454   -3.0614   -0.6028 C   0  0  0  0  0  0  0  0  0  0  0  0
    6.2087   -3.4419   -0.4872 C   0  0  0  0  0  0  0  0  0  0  0  0
    2.6027   -2.8048   -1.5043 C   0  0  0  0  0  0  0  0  0  0  0  0
    3.1241   -1.6646   -0.3809 S   0  0  0  0  0  0  0  0  0  0  0  0
    2.5976   -5.7639   -3.7401 C   0  0  0  0  0  0  0  0  0  0  0  0
    1.7414   -6.5703   -4.3963 C   0  0  0  0  0  0  0  0  0  0  0  0
    0.2935   -6.6523   -4.1904 C   0  0  0  0  0  0  0  0  0  0  0  0
   -0.3198   -6.4569   -3.1098 O   0  0  0  0  0  0  0  0  0  0  0  0
   -0.3125   -7.1578   -5.4011 C   0  0  0  0  0  0  0  0  0  0  0  0
   -1.6665   -7.2693   -5.7086 C   0  0  0  0  0  0  0  0  0  0  0  0
   -2.0342   -7.6964   -6.9946 C   0  0  0  0  0  0  0  0  0  0  0  0
   -3.7311   -7.8439   -7.4004 Cl  0  0  0  0  0  0  0  0  0  0  0  0
   -1.0465   -7.9835   -7.9500 C   0  0  0  0  0  0  0  0  0  0  0  0
   -1.3969   -8.3612   -9.2045 F   0  0  0  0  0  0  0  0  0  0  0  0
    0.3185   -7.8632   -7.6233 C   0  0  0  0  0  0  0  0  0  0  0  0
    0.6781   -7.4770   -6.3192 C   0  0  0  0  0  0  0  0  0  0  0  0
    2.0145   -7.2772   -5.6903 C   0  0  0  0  0  0  0  0  0  0  0  0
    3.1925   -7.8096   -6.1026 C   0  0  0  0  0  0  0  0  0  0  0  0
    3.3262   -8.5274   -7.3439 C   0  0  0  0  0  0  0  0  0  0  0  0
    3.4325   -9.0911   -8.3528 N   0  0  0  0  0  0  0  0  0  0  0  0
    4.3737   -7.8029   -5.2766 C   0  0  0  0  0  0  0  0  0  0  0  0
    5.3296   -7.8094   -4.6218 N   0  0  0  0  0  0  0  0  0  0  0  0
   -6.1303    7.1850    3.3614 H   0  0  0  0  0  0  0  0  0  0  0  0
  -10.2974    4.3154    5.1266 H   0  0  0  0  0  0  0  0  0  0  0  0
   -6.9577    0.9751    3.5344 H   0  0  0  0  0  0  0  0  0  0  0  0
   -2.6668    8.7926    0.3784 H   0  0  0  0  0  0  0  0  0  0  0  0
   -3.3515    7.3010   -0.4014 H   0  0  0  0  0  0  0  0  0  0  0  0
   -5.6064    8.4212   -0.4403 H   0  0  0  0  0  0  0  0  0  0  0  0
   -4.3607    9.3923   -1.3206 H   0  0  0  0  0  0  0  0  0  0  0  0
   -4.8752    9.8846    0.3446 H   0  0  0  0  0  0  0  0  0  0  0  0
   -1.2398    8.6371    2.2272 H   0  0  0  0  0  0  0  0  0  0  0  0
   -0.1173    8.4478    0.8335 H   0  0  0  0  0  0  0  0  0  0  0  0
    0.1307    7.1237    3.5902 H   0  0  0  0  0  0  0  0  0  0  0  0
    1.1332    8.4772    2.9698 H   0  0  0  0  0  0  0  0  0  0  0  0
    1.2673    6.8411    2.1996 H   0  0  0  0  0  0  0  0  0  0  0  0
   -2.4354    3.3436    4.1146 H   0  0  0  0  0  0  0  0  0  0  0  0
   -4.5754    4.3085    4.5608 H   0  0  0  0  0  0  0  0  0  0  0  0
    2.2862    1.8332    5.3097 H   0  0  0  0  0  0  0  0  0  0  0  0
    2.7553   -0.4990    5.9759 H   0  0  0  0  0  0  0  0  0  0  0  0
    1.8322   -4.3539    4.2218 H   0  0  0  0  0  0  0  0  0  0  0  0
    0.5093   -3.2574    3.6903 H   0  0  0  0  0  0  0  0  0  0  0  0
    2.2071   -2.6273    3.8443 H   0  0  0  0  0  0  0  0  0  0  0  0
   -1.3594   -1.5447    5.2400 H   0  0  0  0  0  0  0  0  0  0  0  0
   -1.8345    0.7884    4.5721 H   0  0  0  0  0  0  0  0  0  0  0  0
    1.8454    4.6933    4.0974 H   0  0  0  0  0  0  0  0  0  0  0  0
    2.1167    6.6739    5.5385 H   0  0  0  0  0  0  0  0  0  0  0  0
    2.6066    6.5146    8.5903 H   0  0  0  0  0  0  0  0  0  0  0  0
    1.9000    7.5871    9.8673 H   0  0  0  0  0  0  0  0  0  0  0  0
    1.1358    5.9899    9.5203 H   0  0  0  0  0  0  0  0  0  0  0  0
   -1.2063    5.3656    7.9488 H   0  0  0  0  0  0  0  0  0  0  0  0
   -1.4557    3.3708    6.5269 H   0  0  0  0  0  0  0  0  0  0  0  0
    2.3552    0.0647   -3.1697 H   0  0  0  0  0  0  0  0  0  0  0  0
    1.2136   -0.5239   -5.2836 H   0  0  0  0  0  0  0  0  0  0  0  0
    0.9212    1.5867   -7.5790 H   0  0  0  0  0  0  0  0  0  0  0  0
   -0.4408    1.5414   -8.7573 H   0  0  0  0  0  0  0  0  0  0  0  0
   -0.4320    2.7824   -7.4456 H   0  0  0  0  0  0  0  0  0  0  0  0
   -1.5245    2.7484   -4.7077 H   0  0  0  0  0  0  0  0  0  0  0  0
   -0.4185    3.3001   -2.5657 H   0  0  0  0  0  0  0  0  0  0  0  0
    2.8577    3.3862   -3.5347 H   0  0  0  0  0  0  0  0  0  0  0  0
    5.1246    4.3049   -3.6027 H   0  0  0  0  0  0  0  0  0  0  0  0
    7.5709    2.4614   -3.1165 H   0  0  0  0  0  0  0  0  0  0  0  0
    7.8721    2.0381   -1.3837 H   0  0  0  0  0  0  0  0  0  0  0  0
    9.1194    2.9536   -2.3209 H   0  0  0  0  0  0  0  0  0  0  0  0
    5.8085    2.9916    0.4326 H   0  0  0  0  0  0  0  0  0  0  0  0
    3.5730    2.0264    0.5179 H   0  0  0  0  0  0  0  0  0  0  0  0
   -2.2494   -0.2601    0.9809 H   0  0  0  0  0  0  0  0  0  0  0  0
   -3.3896   -1.4471    2.7902 H   0  0  0  0  0  0  0  0  0  0  0  0
   -4.7922   -4.6854    1.4281 H   0  0  0  0  0  0  0  0  0  0  0  0
   -5.5691   -3.4230    2.4586 H   0  0  0  0  0  0  0  0  0  0  0  0
   -5.7110   -5.1705    2.9024 H   0  0  0  0  0  0  0  0  0  0  0  0
   -1.6704   -5.1585    1.4702 H   0  0  0  0  0  0  0  0  0  0  0  0
   -0.5187   -3.9922   -0.3532 H   0  0  0  0  0  0  0  0  0  0  0  0
   -1.8143    1.1016   -0.7349 H   0  0  0  0  0  0  0  0  0  0  0  0
   -3.4969    2.1016   -2.2233 H   0  0  0  0  0  0  0  0  0  0  0  0
   -6.1643    0.5022   -3.0203 H   0  0  0  0  0  0  0  0  0  0  0  0
   -6.9772    0.6949   -4.6231 H   0  0  0  0  0  0  0  0  0  0  0  0
   -5.9385   -0.7492   -4.3169 H   0  0  0  0  0  0  0  0  0  0  0  0
   -3.1752   -1.2595   -4.8787 H   0  0  0  0  0  0  0  0  0  0  0  0
   -1.5607   -2.3212   -3.3539 H   0  0  0  0  0  0  0  0  0  0  0  0
    5.9155   -6.6359   -0.5505 H   0  0  0  0  0  0  0  0  0  0  0  0
    5.4996   -8.2855    1.2302 H   0  0  0  0  0  0  0  0  0  0  0  0
    4.9601   -7.7236    4.3191 H   0  0  0  0  0  0  0  0  0  0  0  0
    3.4813   -6.6830    4.2586 H   0  0  0  0  0  0  0  0  0  0  0  0
    3.5076   -8.1454    5.3106 H   0  0  0  0  0  0  0  0  0  0  0  0
    1.6311   -6.5735    1.9530 H   0  0  0  0  0  0  0  0  0  0  0  0
    2.0122   -4.9146    0.2019 H   0  0  0  0  0  0  0  0  0  0  0  0
    5.8278   -4.9515   -3.5251 H   0  0  0  0  0  0  0  0  0  0  0  0
    8.1992   -4.2967   -3.7095 H   0  0  0  0  0  0  0  0  0  0  0  0
   11.6084   -4.6543   -0.9276 H   0  0  0  0  0  0  0  0  0  0  0  0
   10.2182   -5.4605   -1.7569 H   0  0  0  0  0  0  0  0  0  0  0  0
   10.0037   -4.7638   -0.0947 H   0  0  0  0  0  0  0  0  0  0  0  0
    8.0308   -2.5464    0.2171 H   0  0  0  0  0  0  0  0  0  0  0  0
    5.6697   -3.2281    0.4252 H   0  0  0  0  0  0  0  0  0  0  0  0
    3.6384   -5.7733   -4.0190 H   0  0  0  0  0  0  0  0  0  0  0  0
   -2.4209   -7.0180   -4.9671 H   0  0  0  0  0  0  0  0  0  0  0  0
    1.0527   -8.0404   -8.3941 H   0  0  0  0  0  0  0  0  0  0  0  0
  1  2  2  3
  2  3  1  0
  3  4  2  0
  3  5  1  0
  5  6  2  0
  6  7  1  0
  7  8  1  0
  7  9  2  0
  9 10  1  0
  9 11  1  0
 11 12  2  0
 12 13  1  0
 13 14  2  3
 14 15  1  0
 15 16  3  0
 14 17  1  0
 17 18  3  0
  1 19  1  0
 19 20  2  0
 20 21  1  0
 21 22  1  0
 22 23  1  0
 20 24  1  0
 24 25  1  0
 25 26  1  0
 26 27  1  0
 24 28  2  0
 28 29  1  0
 29 30  2  0
 28 31  1  0
 31 32  2  0
 32 33  1  0
 33 34  1  0
 34 35  2  0
 35 36  1  0
 36 37  2  0
 37 38  1  0
 38 39  1  0
 37 40  1  0
 40 41  2  0
 33 42  1  0
 42 43  2  0
 43 44  1  0
 44 45  2  0
 45 46  1  0
 46 47  1  0
 45 48  1  0
 48 49  2  0
 32 50  1  0
 50 51  1  0
 51 52  1  0
 52 53  2  0
 53 54  1  0
 54 55  1  0
 55 56  2  0
 56 57  1  0
 57 58  2  0
 58 59  1  0
 59 60  1  0
 58 61  1  0
 61 62  2  0
 54 63  1  0
 63 64  2  0
 64 65  1  0
 65 66  2  0
 66 67  1  0
 67 68  1  0
 66 69  1  0
 69 70  2  0
 53 71  1  0
 71 72  1  0
 52 73  1  0
 73 74  2  0
 74 75  1  0
 75 76  1  0
 76 77  2  0
 77 78  1  0
 78 79  2  0
 79 80  1  0
 80 81  1  0
 79 82  1  0
 82 83  2  0
 75 84  1  0
 84 85  2  0
 85 86  1  0
 86 87  2  0
 87 88  1  0
 88 89  1  0
 87 90  1  0
 90 91  2  0
 74 92  1  0
 92 93  1  0
 93 94  1  0
 94 95  2  0
 95 96  1  0
 96 97  1  0
 97 98  2  0
 98 99  1  0
 99100  2  0
100101  1  0
101102  1  0
100103  1  0
103104  2  0
 96105  1  0
105106  2  0
106107  1  0
107108  2  0
108109  1  0
109110  1  0
108111  1  0
111112  2  0
 95113  1  0
113114  1  0
 94115  1  0
115116  2  3
116117  1  0
117118  2  0
117119  1  0
119120  2  0
120121  1  0
121122  1  0
121123  2  0
123124  1  0
123125  1  0
125126  2  0
126127  1  0
127128  2  3
128129  1  0
129130  3  0
128131  1  0
131132  3  0
 13  2  1  0
 30 19  1  0
 72 31  1  0
114 73  1  0
127116  1  0
 12  5  1  0
 41 34  1  0
 49 42  1  0
 71 50  2  0
 83 76  1  0
 91 84  1  0
113 92  2  0
126119  1  0
 62 55  1  0
 70 63  1  0
104 97  1  0
112105  1  0
  1133  1  0
  6134  1  0
 11135  1  0
 22136  1  0
 22137  1  0
 23138  1  0
 23139  1  0
 23140  1  0
 26141  1  0
 26142  1  0
 27143  1  0
 27144  1  0
 27145  1  0
 29146  1  0
 30147  1  0
 35148  1  0
 36149  1  0
 39150  1  0
 39151  1  0
 39152  1  0
 40153  1  0
 41154  1  0
 43155  1  0
 44156  1  0
 47157  1  0
 47158  1  0
 47159  1  0
 48160  1  0
 49161  1  0
 56162  1  0
 57163  1  0
 60164  1  0
 60165  1  0
 60166  1  0
 61167  1  0
 62168  1  0
 64169  1  0
 65170  1  0
 68171  1  0
 68172  1  0
 68173  1  0
 69174  1  0
 70175  1  0
 77176  1  0
 78177  1  0
 81178  1  0
 81179  1  0
 81180  1  0
 82181  1  0
 83182  1  0
 85183  1  0
 86184  1  0
 89185  1  0
 89186  1  0
 89187  1  0
 90188  1  0
 91189  1  0
 98190  1  0
 99191  1  0
102192  1  0
102193  1  0
102194  1  0
103195  1  0
104196  1  0
106197  1  0
107198  1  0
110199  1  0
110200  1  0
110201  1  0
111202  1  0
112203  1  0
115204  1  0
120205  1  0
125206  1  0
M  END

