
     RDKit          3D

198215  0  0  0  0  0  0  0  0999 V2000
    3.6088   -4.8802   -3.3100 C   0  0  0  0  0  0  0  0  0  0  0  0
    4.3256   -5.3814   -2.2822 C   0  0  0  0  0  0  0  0  0  0  0  0
    4.3547   -4.8417   -0.9196 C   0  0  0  0  0  0  0  0  0  0  0  0
    3.9696   -3.7036   -0.5515 O   0  0  0  0  0  0  0  0  0  0  0  0
    4.9472   -5.8314   -0.0507 C   0  0  0  0  0  0  0  0  0  0  0  0
    5.0575   -5.7916    1.3383 C   0  0  0  0  0  0  0  0  0  0  0  0
    5.6094   -6.8994    1.9938 C   0  0  0  0  0  0  0  0  0  0  0  0
    5.7784   -6.8741    3.7469 Cl  0  0  0  0  0  0  0  0  0  0  0  0
    6.0173   -8.0303    1.2566 C   0  0  0  0  0  0  0  0  0  0  0  0
    6.5320   -9.1146    1.8965 F   0  0  0  0  0  0  0  0  0  0  0  0
    5.8948   -8.0448   -0.1464 C   0  0  0  0  0  0  0  0  0  0  0  0
    5.3723   -6.9149   -0.7960 C   0  0  0  0  0  0  0  0  0  0  0  0
    5.1238   -6.6502   -2.2428 C   0  0  0  0  0  0  0  0  0  0  0  0
    5.7057   -7.2868   -3.2913 C   0  0  0  0  0  0  0  0  0  0  0  0
    6.6412   -8.3661   -3.1125 C   0  0  0  0  0  0  0  0  0  0  0  0
    7.4121   -9.2232   -2.9860 N   0  0  0  0  0  0  0  0  0  0  0  0
    5.5758   -6.8231   -4.6490 C   0  0  0  0  0  0  0  0  0  0  0  0
    5.4973   -6.4583   -5.7453 N   0  0  0  0  0  0  0  0  0  0  0  0
    2.7648   -3.6736   -3.2369 C   0  0  0  0  0  0  0  0  0  0  0  0
    1.7421   -3.3686   -2.3021 C   0  0  0  0  0  0  0  0  0  0  0  0
    1.1887   -4.2941   -1.3347 N   0  0  0  0  0  0  0  0  0  0  0  0
    1.1553   -5.7064   -1.6065 C   0  0  0  0  0  0  0  0  0  0  0  0
    1.4869   -6.6292   -0.6026 C   0  0  0  0  0  0  0  0  0  0  0  0
    1.4706   -8.0007   -0.8679 C   0  0  0  0  0  0  0  0  0  0  0  0
    1.1198   -8.4716   -2.1430 C   0  0  0  0  0  0  0  0  0  0  0  0
    1.0715   -9.9419   -2.4328 C   0  0  0  0  0  0  0  0  0  0  0  0
    0.7456   -7.5514   -3.1352 C   0  0  0  0  0  0  0  0  0  0  0  0
    0.7561   -6.1802   -2.8691 C   0  0  0  0  0  0  0  0  0  0  0  0
    0.3895   -3.8176   -0.2339 C   0  0  0  0  0  0  0  0  0  0  0  0
   -0.9884   -4.0826   -0.2080 C   0  0  0  0  0  0  0  0  0  0  0  0
   -1.7943   -3.5449    0.7959 C   0  0  0  0  0  0  0  0  0  0  0  0
   -1.2314   -2.7336    1.7930 C   0  0  0  0  0  0  0  0  0  0  0  0
   -2.1004   -2.1413    2.8614 C   0  0  0  0  0  0  0  0  0  0  0  0
    0.1545   -2.5159    1.8078 C   0  0  0  0  0  0  0  0  0  0  0  0
    0.9584   -3.0416    0.7909 C   0  0  0  0  0  0  0  0  0  0  0  0
    1.2197   -2.0921   -2.5569 C   0  0  0  0  0  0  0  0  0  0  0  0
    0.0418   -1.1326   -1.8435 S   0  0  0  0  0  0  0  0  0  0  0  0
    0.1772    0.1261   -2.9749 C   0  0  0  0  0  0  0  0  0  0  0  0
    1.1131   -0.2236   -3.9561 C   0  0  0  0  0  0  0  0  0  0  0  0
    1.0712    0.3294   -5.2746 N   0  0  0  0  0  0  0  0  0  0  0  0
    2.1809    1.1065   -5.7330 C   0  0  0  0  0  0  0  0  0  0  0  0
    3.1578    0.5208   -6.5458 C   0  0  0  0  0  0  0  0  0  0  0  0
    4.2037    1.2973   -7.0543 C   0  0  0  0  0  0  0  0  0  0  0  0
    4.2724    2.6686   -6.7660 C   0  0  0  0  0  0  0  0  0  0  0  0
    5.3904    3.4955   -7.3323 C   0  0  0  0  0  0  0  0  0  0  0  0
    3.2950    3.2484   -5.9414 C   0  0  0  0  0  0  0  0  0  0  0  0
    2.2562    2.4717   -5.4282 C   0  0  0  0  0  0  0  0  0  0  0  0
   -0.0634    0.0567   -6.1373 C   0  0  0  0  0  0  0  0  0  0  0  0
   -0.8829   -1.0733   -5.9134 C   0  0  0  0  0  0  0  0  0  0  0  0
   -1.9694   -1.3476   -6.7473 C   0  0  0  0  0  0  0  0  0  0  0  0
   -2.2905   -0.4781   -7.7970 C   0  0  0  0  0  0  0  0  0  0  0  0
   -3.4301   -0.7977   -8.7218 C   0  0  0  0  0  0  0  0  0  0  0  0
   -1.4824    0.6451   -8.0316 C   0  0  0  0  0  0  0  0  0  0  0  0
   -0.3781    0.9089   -7.2120 C   0  0  0  0  0  0  0  0  0  0  0  0
    1.7055   -1.4551   -3.6561 C   0  0  0  0  0  0  0  0  0  0  0  0
    2.8544   -2.4230   -4.3946 S   0  0  0  0  0  0  0  0  0  0  0  0
   -0.3219    1.4749   -2.6912 C   0  0  0  0  0  0  0  0  0  0  0  0
    0.4070    2.4209   -1.9437 C   0  0  0  0  0  0  0  0  0  0  0  0
    1.8479    2.5444   -1.8769 N   0  0  0  0  0  0  0  0  0  0  0  0
    2.4264    3.8692   -1.7119 C   0  0  0  0  0  0  0  0  0  0  0  0
    3.5224    4.0695   -0.8408 C   0  0  0  0  0  0  0  0  0  0  0  0
    3.9885    5.3555   -0.5657 C   0  0  0  0  0  0  0  0  0  0  0  0
    3.3603    6.4649   -1.1252 C   0  0  0  0  0  0  0  0  0  0  0  0
    3.8304    8.1114   -0.5867 S   0  0  0  0  0  0  0  0  0  0  0  0
    4.8815    8.4479   -2.0369 C   0  0  0  0  0  0  0  0  0  0  0  0
    2.2941    6.2856   -2.0168 C   0  0  0  0  0  0  0  0  0  0  0  0
    1.8431    4.9955   -2.3257 C   0  0  0  0  0  0  0  0  0  0  0  0
    2.6853    1.4024   -1.6404 C   0  0  0  0  0  0  0  0  0  0  0  0
    2.4843    0.6027   -0.5036 C   0  0  0  0  0  0  0  0  0  0  0  0
    3.4648   -0.3109   -0.1063 C   0  0  0  0  0  0  0  0  0  0  0  0
    4.6610   -0.4094   -0.8279 C   0  0  0  0  0  0  0  0  0  0  0  0
    6.0036   -1.4246   -0.2123 S   0  0  0  0  0  0  0  0  0  0  0  0
    6.6159   -0.1332    0.9267 C   0  0  0  0  0  0  0  0  0  0  0  0
    4.8354    0.3316   -1.9983 C   0  0  0  0  0  0  0  0  0  0  0  0
    3.8560    1.2338   -2.4042 C   0  0  0  0  0  0  0  0  0  0  0  0
   -0.4411    3.1936   -1.1560 C   0  0  0  0  0  0  0  0  0  0  0  0
   -0.1709    3.7288    0.3996 S   0  0  0  0  0  0  0  0  0  0  0  0
   -1.8024    3.8236    0.8291 C   0  0  0  0  0  0  0  0  0  0  0  0
   -2.5809    3.4198   -0.2710 C   0  0  0  0  0  0  0  0  0  0  0  0
   -3.9099    3.9518   -0.4728 N   0  0  0  0  0  0  0  0  0  0  0  0
   -4.8500    3.3196   -1.3549 C   0  0  0  0  0  0  0  0  0  0  0  0
   -5.5141    2.1493   -0.9589 C   0  0  0  0  0  0  0  0  0  0  0  0
   -6.5239    1.6099   -1.7674 C   0  0  0  0  0  0  0  0  0  0  0  0
   -6.8823    2.2530   -2.9615 C   0  0  0  0  0  0  0  0  0  0  0  0
   -8.2161    1.6157   -3.9817 S   0  0  0  0  0  0  0  0  0  0  0  0
   -7.1068    0.5662   -4.9775 C   0  0  0  0  0  0  0  0  0  0  0  0
   -6.2191    3.4209   -3.3549 C   0  0  0  0  0  0  0  0  0  0  0  0
   -5.2181    3.9579   -2.5489 C   0  0  0  0  0  0  0  0  0  0  0  0
   -4.1504    5.3235   -0.1052 C   0  0  0  0  0  0  0  0  0  0  0  0
   -5.2410    5.6576    0.7085 C   0  0  0  0  0  0  0  0  0  0  0  0
   -5.3845    6.9639    1.1894 C   0  0  0  0  0  0  0  0  0  0  0  0
   -4.4402    7.9414    0.8372 C   0  0  0  0  0  0  0  0  0  0  0  0
   -4.4879    9.5541    1.6180 S   0  0  0  0  0  0  0  0  0  0  0  0
   -3.4320    9.0112    3.0002 C   0  0  0  0  0  0  0  0  0  0  0  0
   -3.3994    7.6282   -0.0407 C   0  0  0  0  0  0  0  0  0  0  0  0
   -3.2487    6.3253   -0.5056 C   0  0  0  0  0  0  0  0  0  0  0  0
   -1.7777    3.0266   -1.3474 C   0  0  0  0  0  0  0  0  0  0  0  0
   -1.9777    1.7389   -2.4019 S   0  0  0  0  0  0  0  0  0  0  0  0
   -2.2103    3.4833    2.1891 C   0  0  0  0  0  0  0  0  0  0  0  0
   -2.9569    4.2494    3.0729 C   0  0  0  0  0  0  0  0  0  0  0  0
   -3.2677    3.5518    4.2599 C   0  0  0  0  0  0  0  0  0  0  0  0
   -4.0814    4.0426    5.2895 O   0  0  0  0  0  0  0  0  0  0  0  0
   -4.6540    5.3469    5.3209 C   0  0  0  0  0  0  0  0  0  0  0  0
   -3.6121    6.3630    5.7551 C   0  0  0  0  0  0  0  0  0  0  0  0
   -2.7243    2.2663    4.3166 C   0  0  0  0  0  0  0  0  0  0  0  0
   -1.9495    1.9725    2.8594 S   0  0  0  0  0  0  0  0  0  0  0  0
   -3.0345    1.2635    5.3526 C   0  0  0  0  0  0  0  0  0  0  0  0
   -2.2780    0.1852    5.6512 C   0  0  0  0  0  0  0  0  0  0  0  0
   -0.8444    0.0293    5.3598 C   0  0  0  0  0  0  0  0  0  0  0  0
   -0.1003    0.8715    4.7994 O   0  0  0  0  0  0  0  0  0  0  0  0
   -0.3754   -1.1938    5.9741 C   0  0  0  0  0  0  0  0  0  0  0  0
    0.9035   -1.7405    5.9108 C   0  0  0  0  0  0  0  0  0  0  0  0
    1.1643   -2.9213    6.6218 C   0  0  0  0  0  0  0  0  0  0  0  0
    2.4398   -3.5042    6.5951 C   0  0  0  0  0  0  0  0  0  0  0  0
    2.6970   -4.6626    7.3324 C   0  0  0  0  0  0  0  0  0  0  0  0
    1.6883   -5.2529    8.0946 C   0  0  0  0  0  0  0  0  0  0  0  0
    1.9537   -6.3624    8.8287 F   0  0  0  0  0  0  0  0  0  0  0  0
    0.4068   -4.6947    8.1160 C   0  0  0  0  0  0  0  0  0  0  0  0
    0.1310   -3.5356    7.3792 C   0  0  0  0  0  0  0  0  0  0  0  0
   -1.1618   -2.9711    7.3972 C   0  0  0  0  0  0  0  0  0  0  0  0
   -1.4090   -1.7861    6.6838 C   0  0  0  0  0  0  0  0  0  0  0  0
   -2.6674   -0.9954    6.4972 C   0  0  0  0  0  0  0  0  0  0  0  0
   -3.9282   -1.3637    6.8585 C   0  0  0  0  0  0  0  0  0  0  0  0
   -4.2022   -2.4647    7.7460 C   0  0  0  0  0  0  0  0  0  0  0  0
   -4.4427   -3.3237    8.4759 N   0  0  0  0  0  0  0  0  0  0  0  0
   -5.1052   -0.7078    6.3651 C   0  0  0  0  0  0  0  0  0  0  0  0
   -6.0739   -0.1899    5.9856 N   0  0  0  0  0  0  0  0  0  0  0  0
    3.5952   -5.3782   -4.2641 H   0  0  0  0  0  0  0  0  0  0  0  0
    4.7062   -4.9306    1.8995 H   0  0  0  0  0  0  0  0  0  0  0  0
    6.1642   -8.9408   -0.6796 H   0  0  0  0  0  0  0  0  0  0  0  0
    1.7794   -6.2858    0.3785 H   0  0  0  0  0  0  0  0  0  0  0  0
    1.7368   -8.6976   -0.0858 H   0  0  0  0  0  0  0  0  0  0  0  0
    1.6759  -10.5166   -1.7001 H   0  0  0  0  0  0  0  0  0  0  0  0
    0.0180  -10.2893   -2.3866 H   0  0  0  0  0  0  0  0  0  0  0  0
    1.4760  -10.1481   -3.4487 H   0  0  0  0  0  0  0  0  0  0  0  0
    0.4418   -7.9001   -4.1117 H   0  0  0  0  0  0  0  0  0  0  0  0
    0.4574   -5.4845   -3.6422 H   0  0  0  0  0  0  0  0  0  0  0  0
   -1.4386   -4.6803   -0.9919 H   0  0  0  0  0  0  0  0  0  0  0  0
   -2.8604   -3.7357    0.7833 H   0  0  0  0  0  0  0  0  0  0  0  0
   -3.1390   -1.9951    2.4946 H   0  0  0  0  0  0  0  0  0  0  0  0
   -2.1149   -2.8088    3.7502 H   0  0  0  0  0  0  0  0  0  0  0  0
   -1.7081   -1.1451    3.1491 H   0  0  0  0  0  0  0  0  0  0  0  0
    0.6115   -1.9216    2.5933 H   0  0  0  0  0  0  0  0  0  0  0  0
    2.0203   -2.8447    0.8010 H   0  0  0  0  0  0  0  0  0  0  0  0
    3.1081   -0.5362   -6.7788 H   0  0  0  0  0  0  0  0  0  0  0  0
    4.9506    0.8291   -7.6839 H   0  0  0  0  0  0  0  0  0  0  0  0
    5.1273    4.5744   -7.3265 H   0  0  0  0  0  0  0  0  0  0  0  0
    5.5954    3.1951   -8.3823 H   0  0  0  0  0  0  0  0  0  0  0  0
    6.3030    3.3425   -6.7222 H   0  0  0  0  0  0  0  0  0  0  0  0
    3.3364    4.2998   -5.7029 H   0  0  0  0  0  0  0  0  0  0  0  0
    1.4992    2.9317   -4.8071 H   0  0  0  0  0  0  0  0  0  0  0  0
   -0.6722   -1.7664   -5.1118 H   0  0  0  0  0  0  0  0  0  0  0  0
   -2.5691   -2.2311   -6.5669 H   0  0  0  0  0  0  0  0  0  0  0  0
   -4.1626   -1.4815   -8.2343 H   0  0  0  0  0  0  0  0  0  0  0  0
   -3.0338   -1.2936   -9.6349 H   0  0  0  0  0  0  0  0  0  0  0  0
   -3.9645    0.1313   -9.0201 H   0  0  0  0  0  0  0  0  0  0  0  0
   -1.7038    1.3123   -8.8547 H   0  0  0  0  0  0  0  0  0  0  0  0
    0.2315    1.7748   -7.4246 H   0  0  0  0  0  0  0  0  0  0  0  0
    3.9874    3.2370   -0.3284 H   0  0  0  0  0  0  0  0  0  0  0  0
    4.8030    5.4840    0.1394 H   0  0  0  0  0  0  0  0  0  0  0  0
    4.2434    8.6875   -2.9133 H   0  0  0  0  0  0  0  0  0  0  0  0
    5.5401    7.5839   -2.2744 H   0  0  0  0  0  0  0  0  0  0  0  0
    5.5289    9.3251   -1.8222 H   0  0  0  0  0  0  0  0  0  0  0  0
    1.8067    7.1475   -2.4593 H   0  0  0  0  0  0  0  0  0  0  0  0
    1.0067    4.8815   -3.0138 H   0  0  0  0  0  0  0  0  0  0  0  0
    1.6025    0.7378    0.1149 H   0  0  0  0  0  0  0  0  0  0  0  0
    3.3266   -0.8962    0.7929 H   0  0  0  0  0  0  0  0  0  0  0  0
    5.8571    0.0580    1.7222 H   0  0  0  0  0  0  0  0  0  0  0  0
    7.5603   -0.4879    1.3999 H   0  0  0  0  0  0  0  0  0  0  0  0
    6.8236    0.8143    0.3757 H   0  0  0  0  0  0  0  0  0  0  0  0
    5.7574    0.2591   -2.5620 H   0  0  0  0  0  0  0  0  0  0  0  0
    4.0285    1.8435   -3.2757 H   0  0  0  0  0  0  0  0  0  0  0  0
   -5.2508    1.6575   -0.0300 H   0  0  0  0  0  0  0  0  0  0  0  0
   -7.0393    0.7054   -1.4600 H   0  0  0  0  0  0  0  0  0  0  0  0
   -7.6718    0.1848   -5.8560 H   0  0  0  0  0  0  0  0  0  0  0  0
   -6.7607   -0.2920   -4.3528 H   0  0  0  0  0  0  0  0  0  0  0  0
   -6.2293    1.1524   -5.3412 H   0  0  0  0  0  0  0  0  0  0  0  0
   -6.5215    3.9431   -4.2545 H   0  0  0  0  0  0  0  0  0  0  0  0
   -4.7378    4.8862   -2.8434 H   0  0  0  0  0  0  0  0  0  0  0  0
   -5.9419    4.8899    1.0156 H   0  0  0  0  0  0  0  0  0  0  0  0
   -6.1974    7.2111    1.8620 H   0  0  0  0  0  0  0  0  0  0  0  0
   -3.9876    8.2740    3.6104 H   0  0  0  0  0  0  0  0  0  0  0  0
   -3.1661    9.8845    3.6290 H   0  0  0  0  0  0  0  0  0  0  0  0
   -2.4986    8.5440    2.6216 H   0  0  0  0  0  0  0  0  0  0  0  0
   -2.6802    8.3896   -0.3225 H   0  0  0  0  0  0  0  0  0  0  0  0
   -2.4234    6.0912   -1.1585 H   0  0  0  0  0  0  0  0  0  0  0  0
   -3.2909    5.2537    2.8439 H   0  0  0  0  0  0  0  0  0  0  0  0
   -5.4750    5.3504    6.0634 H   0  0  0  0  0  0  0  0  0  0  0  0
   -5.0818    5.6271    4.3308 H   0  0  0  0  0  0  0  0  0  0  0  0
   -3.1406    6.0439    6.7146 H   0  0  0  0  0  0  0  0  0  0  0  0
   -4.0887    7.3570    5.9155 H   0  0  0  0  0  0  0  0  0  0  0  0
   -2.8157    6.4598    4.9858 H   0  0  0  0  0  0  0  0  0  0  0  0
   -3.9606    1.4211    5.8746 H   0  0  0  0  0  0  0  0  0  0  0  0
    1.6730   -1.2454    5.3328 H   0  0  0  0  0  0  0  0  0  0  0  0
    3.2385   -3.0647    6.0124 H   0  0  0  0  0  0  0  0  0  0  0  0
    3.6889   -5.0979    7.3209 H   0  0  0  0  0  0  0  0  0  0  0  0
   -0.3719   -5.1676    8.7051 H   0  0  0  0  0  0  0  0  0  0  0  0
   -1.9280   -3.4582    7.9735 H   0  0  0  0  0  0  0  0  0  0  0  0
  1  2  2  3
  2  3  1  0
  3  4  2  0
  3  5  1  0
  5  6  2  0
  6  7  1  0
  7  8  1  0
  7  9  2  0
  9 10  1  0
  9 11  1  0
 11 12  2  0
 12 13  1  0
 13 14  2  3
 14 15  1  0
 15 16  3  0
 14 17  1  0
 17 18  3  0
  1 19  1  0
 19 20  2  0
 20 21  1  0
 21 22  1  0
 22 23  2  0
 23 24  1  0
 24 25  2  0
 25 26  1  0
 25 27  1  0
 27 28  2  0
 21 29  1  0
 29 30  2  0
 30 31  1  0
 31 32  2  0
 32 33  1  0
 32 34  1  0
 34 35  2  0
 20 36  1  0
 36 37  1  0
 37 38  1  0
 38 39  2  0
 39 40  1  0
 40 41  1  0
 41 42  2  0
 42 43  1  0
 43 44  2  0
 44 45  1  0
 44 46  1  0
 46 47  2  0
 40 48  1  0
 48 49  2  0
 49 50  1  0
 50 51  2  0
 51 52  1  0
 51 53  1  0
 53 54  2  0
 39 55  1  0
 55 56  1  0
 38 57  1  0
 57 58  2  0
 58 59  1  0
 59 60  1  0
 60 61  2  0
 61 62  1  0
 62 63  2  0
 63 64  1  0
 64 65  1  0
 63 66  1  0
 66 67  2  0
 59 68  1  0
 68 69  2  0
 69 70  1  0
 70 71  2  0
 71 72  1  0
 72 73  1  0
 71 74  1  0
 74 75  2  0
 58 76  1  0
 76 77  1  0
 77 78  1  0
 78 79  2  0
 79 80  1  0
 80 81  1  0
 81 82  2  0
 82 83  1  0
 83 84  2  0
 84 85  1  0
 85 86  1  0
 84 87  1  0
 87 88  2  0
 80 89  1  0
 89 90  2  0
 90 91  1  0
 91 92  2  0
 92 93  1  0
 93 94  1  0
 92 95  1  0
 95 96  2  0
 79 97  1  0
 97 98  1  0
 78 99  1  0
 99100  2  0
100101  1  0
101102  1  0
102103  1  0
103104  1  0
101105  2  0
105106  1  0
105107  1  0
107108  2  3
108109  1  0
109110  2  0
109111  1  0
111112  2  0
112113  1  0
113114  2  0
114115  1  0
115116  2  0
116117  1  0
116118  1  0
118119  2  0
119120  1  0
120121  2  0
121122  1  0
122123  2  3
123124  1  0
124125  3  0
123126  1  0
126127  3  0
 13  2  1  0
 56 19  1  0
 98 57  1  0
106 99  1  0
122108  1  0
 12  5  1  0
 28 22  1  0
 35 29  1  0
 55 36  2  0
 67 60  1  0
 75 68  1  0
 97 76  2  0
121111  1  0
 47 41  1  0
 54 48  1  0
 88 81  1  0
 96 89  1  0
119113  1  0
  1128  1  0
  6129  1  0
 11130  1  0
 23131  1  0
 24132  1  0
 26133  1  0
 26134  1  0
 26135  1  0
 27136  1  0
 28137  1  0
 30138  1  0
 31139  1  0
 33140  1  0
 33141  1  0
 33142  1  0
 34143  1  0
 35144  1  0
 42145  1  0
 43146  1  0
 45147  1  0
 45148  1  0
 45149  1  0
 46150  1  0
 47151  1  0
 49152  1  0
 50153  1  0
 52154  1  0
 52155  1  0
 52156  1  0
 53157  1  0
 54158  1  0
 61159  1  0
 62160  1  0
 65161  1  0
 65162  1  0
 65163  1  0
 66164  1  0
 67165  1  0
 69166  1  0
 70167  1  0
 73168  1  0
 73169  1  0
 73170  1  0
 74171  1  0
 75172  1  0
 82173  1  0
 83174  1  0
 86175  1  0
 86176  1  0
 86177  1  0
 87178  1  0
 88179  1  0
 90180  1  0
 91181  1  0
 94182  1  0
 94183  1  0
 94184  1  0
 95185  1  0
 96186  1  0
100187  1  0
103188  1  0
103189  1  0
104190  1  0
104191  1  0
104192  1  0
107193  1  0
112194  1  0
114195  1  0
115196  1  0
118197  1  0
120198  1  0
M  END

