
     RDKit          3D

198216  0  0  0  0  0  0  0  0999 V2000
    6.6483   -3.7514   -2.4940 C   0  0  0  0  0  0  0  0  0  0  0  0
    7.3281   -4.7976   -1.9783 C   0  0  0  0  0  0  0  0  0  0  0  0
    7.0535   -5.4626   -0.7007 C   0  0  0  0  0  0  0  0  0  0  0  0
    5.9275   -5.5753   -0.1433 O   0  0  0  0  0  0  0  0  0  0  0  0
    8.2663   -6.1094   -0.2495 C   0  0  0  0  0  0  0  0  0  0  0  0
    8.5268   -6.6948    0.9862 C   0  0  0  0  0  0  0  0  0  0  0  0
    9.8295   -7.1430    1.2480 C   0  0  0  0  0  0  0  0  0  0  0  0
   10.1973   -7.8733    2.8020 Cl  0  0  0  0  0  0  0  0  0  0  0  0
   10.8455   -6.9735    0.2883 C   0  0  0  0  0  0  0  0  0  0  0  0
   12.1173   -7.3624    0.5578 F   0  0  0  0  0  0  0  0  0  0  0  0
   10.5543   -6.3840   -0.9541 C   0  0  0  0  0  0  0  0  0  0  0  0
    9.2411   -5.9793   -1.2248 C   0  0  0  0  0  0  0  0  0  0  0  0
    8.6712   -5.2872   -2.4144 C   0  0  0  0  0  0  0  0  0  0  0  0
    9.1546   -5.3220   -3.6782 C   0  0  0  0  0  0  0  0  0  0  0  0
    8.4135   -4.8102   -4.8016 C   0  0  0  0  0  0  0  0  0  0  0  0
    7.8114   -4.4165   -5.7124 N   0  0  0  0  0  0  0  0  0  0  0  0
   10.3623   -6.0330   -4.0143 C   0  0  0  0  0  0  0  0  0  0  0  0
   11.3191   -6.6212   -4.3029 N   0  0  0  0  0  0  0  0  0  0  0  0
    5.5848   -3.0385   -1.7579 C   0  0  0  0  0  0  0  0  0  0  0  0
    4.4232   -2.4629   -2.3112 C   0  0  0  0  0  0  0  0  0  0  0  0
    4.1167   -2.4086   -3.7177 N   0  0  0  0  0  0  0  0  0  0  0  0
    5.0197   -1.7644   -4.6469 C   0  0  0  0  0  0  0  0  0  0  0  0
    5.0330   -2.1352   -6.0081 C   0  0  0  0  0  0  0  0  0  0  0  0
    5.8970   -1.5075   -6.9129 C   0  0  0  0  0  0  0  0  0  0  0  0
    6.7739   -0.5076   -6.4699 C   0  0  0  0  0  0  0  0  0  0  0  0
    7.6746    0.1876   -7.4494 C   0  0  0  0  0  0  0  0  0  0  0  0
    6.7648   -0.1304   -5.1206 C   0  0  0  0  0  0  0  0  0  0  0  0
    5.8889   -0.7454   -4.2198 C   0  0  0  0  0  0  0  0  0  0  0  0
    2.8157   -2.8247   -4.1557 C   0  0  0  0  0  0  0  0  0  0  0  0
    1.9189   -1.8968   -4.7084 C   0  0  0  0  0  0  0  0  0  0  0  0
    0.6269   -2.2860   -5.0573 C   0  0  0  0  0  0  0  0  0  0  0  0
    0.2158   -3.6179   -4.8808 C   0  0  0  0  0  0  0  0  0  0  0  0
   -1.2015   -4.0193   -5.1663 C   0  0  0  0  0  0  0  0  0  0  0  0
    1.1187   -4.5505   -4.3409 C   0  0  0  0  0  0  0  0  0  0  0  0
    2.4140   -4.1557   -3.9966 C   0  0  0  0  0  0  0  0  0  0  0  0
    3.6673   -1.8204   -1.3293 C   0  0  0  0  0  0  0  0  0  0  0  0
    2.2050   -1.0140   -1.3187 S   0  0  0  0  0  0  0  0  0  0  0  0
    2.2596   -0.6404    0.3415 C   0  0  0  0  0  0  0  0  0  0  0  0
    3.4741   -1.0975    0.8910 C   0  0  0  0  0  0  0  0  0  0  0  0
    3.9424   -0.7580    2.2177 N   0  0  0  0  0  0  0  0  0  0  0  0
    3.6726    0.5480    2.7427 C   0  0  0  0  0  0  0  0  0  0  0  0
    4.3696    1.6637    2.2551 C   0  0  0  0  0  0  0  0  0  0  0  0
    4.1178    2.9372    2.7873 C   0  0  0  0  0  0  0  0  0  0  0  0
    3.2014    3.0905    3.8373 C   0  0  0  0  0  0  0  0  0  0  0  0
    2.9054    4.4495    4.4069 C   0  0  0  0  0  0  0  0  0  0  0  0
    2.4852    1.9705    4.3041 C   0  0  0  0  0  0  0  0  0  0  0  0
    2.7379    0.7059    3.7675 C   0  0  0  0  0  0  0  0  0  0  0  0
    4.8939   -1.5590    2.9255 C   0  0  0  0  0  0  0  0  0  0  0  0
    6.2727   -1.3842    2.7157 C   0  0  0  0  0  0  0  0  0  0  0  0
    7.1969   -2.1760    3.4098 C   0  0  0  0  0  0  0  0  0  0  0  0
    6.7510   -3.1380    4.3328 C   0  0  0  0  0  0  0  0  0  0  0  0
    7.7434   -3.9778    5.0826 C   0  0  0  0  0  0  0  0  0  0  0  0
    5.3784   -3.2511    4.5994 C   0  0  0  0  0  0  0  0  0  0  0  0
    4.4560   -2.4453    3.9149 C   0  0  0  0  0  0  0  0  0  0  0  0
    4.2069   -1.7978   -0.0799 C   0  0  0  0  0  0  0  0  0  0  0  0
    5.6717   -2.6123   -0.1102 S   0  0  0  0  0  0  0  0  0  0  0  0
    1.1050   -0.0840    1.0511 C   0  0  0  0  0  0  0  0  0  0  0  0
    0.1663   -0.8076    1.8226 C   0  0  0  0  0  0  0  0  0  0  0  0
    0.3239   -2.1605    2.3140 N   0  0  0  0  0  0  0  0  0  0  0  0
   -0.1430   -2.5160    3.6482 C   0  0  0  0  0  0  0  0  0  0  0  0
   -0.2125   -1.5571    4.6818 C   0  0  0  0  0  0  0  0  0  0  0  0
   -0.6787   -1.9008    5.9508 C   0  0  0  0  0  0  0  0  0  0  0  0
   -1.0717   -3.2128    6.2225 C   0  0  0  0  0  0  0  0  0  0  0  0
   -1.6361   -3.6638    7.8675 S   0  0  0  0  0  0  0  0  0  0  0  0
   -3.3888   -3.3420    7.4907 C   0  0  0  0  0  0  0  0  0  0  0  0
   -1.0116   -4.1808    5.2133 C   0  0  0  0  0  0  0  0  0  0  0  0
   -0.5602   -3.8354    3.9391 C   0  0  0  0  0  0  0  0  0  0  0  0
    0.8443   -3.1814    1.4390 C   0  0  0  0  0  0  0  0  0  0  0  0
    0.3054   -3.3573    0.1569 C   0  0  0  0  0  0  0  0  0  0  0  0
    0.8068   -4.3527   -0.6867 C   0  0  0  0  0  0  0  0  0  0  0  0
    1.8579   -5.1742   -0.2566 C   0  0  0  0  0  0  0  0  0  0  0  0
    2.5190   -6.4431   -1.3345 S   0  0  0  0  0  0  0  0  0  0  0  0
    1.3951   -7.7357   -0.7157 C   0  0  0  0  0  0  0  0  0  0  0  0
    2.3978   -5.0014    1.0192 C   0  0  0  0  0  0  0  0  0  0  0  0
    1.8777   -4.0234    1.8682 C   0  0  0  0  0  0  0  0  0  0  0  0
   -1.0005   -0.0627    1.9989 C   0  0  0  0  0  0  0  0  0  0  0  0
   -2.5319   -0.4141    2.5779 S   0  0  0  0  0  0  0  0  0  0  0  0
   -3.2043    1.1010    2.1681 C   0  0  0  0  0  0  0  0  0  0  0  0
   -2.1907    1.8840    1.5592 C   0  0  0  0  0  0  0  0  0  0  0  0
   -2.3248    3.2462    1.1151 N   0  0  0  0  0  0  0  0  0  0  0  0
   -2.0740    4.3378    2.0374 C   0  0  0  0  0  0  0  0  0  0  0  0
   -2.6166    5.6180    1.7963 C   0  0  0  0  0  0  0  0  0  0  0  0
   -2.4461    6.6494    2.7227 C   0  0  0  0  0  0  0  0  0  0  0  0
   -1.7400    6.4232    3.9090 C   0  0  0  0  0  0  0  0  0  0  0  0
   -1.5592    7.7443    5.1117 S   0  0  0  0  0  0  0  0  0  0  0  0
   -3.0490    7.2578    6.0460 C   0  0  0  0  0  0  0  0  0  0  0  0
   -1.1840    5.1660    4.1549 C   0  0  0  0  0  0  0  0  0  0  0  0
   -1.3485    4.1283    3.2315 C   0  0  0  0  0  0  0  0  0  0  0  0
   -2.5775    3.4915   -0.2844 C   0  0  0  0  0  0  0  0  0  0  0  0
   -3.7004    2.9266   -0.9114 C   0  0  0  0  0  0  0  0  0  0  0  0
   -3.9883    3.2246   -2.2456 C   0  0  0  0  0  0  0  0  0  0  0  0
   -3.1404    4.0645   -2.9749 C   0  0  0  0  0  0  0  0  0  0  0  0
   -3.5450    4.4786   -4.6714 S   0  0  0  0  0  0  0  0  0  0  0  0
   -4.4872    5.9657   -4.2113 C   0  0  0  0  0  0  0  0  0  0  0  0
   -1.9935    4.5917   -2.3732 C   0  0  0  0  0  0  0  0  0  0  0  0
   -1.7124    4.3125   -1.0302 C   0  0  0  0  0  0  0  0  0  0  0  0
   -0.9920    1.1826    1.4664 C   0  0  0  0  0  0  0  0  0  0  0  0
    0.4568    1.4490    0.6705 S   0  0  0  0  0  0  0  0  0  0  0  0
   -4.6598    1.3816    2.2050 C   0  0  0  0  0  0  0  0  0  0  0  0
   -5.1444    2.7008    2.2889 C   0  0  0  0  0  0  0  0  0  0  0  0
   -6.5018    2.9245    2.0920 C   0  0  0  0  0  0  0  0  0  0  0  0
   -7.1874    4.1764    1.8058 C   0  0  0  0  0  0  0  0  0  0  0  0
   -6.6854    5.3323    1.8315 O   0  0  0  0  0  0  0  0  0  0  0  0
   -8.5323    3.8171    1.3797 C   0  0  0  0  0  0  0  0  0  0  0  0
   -8.6740    2.4432    1.4738 C   0  0  0  0  0  0  0  0  0  0  0  0
   -7.3883    1.8833    1.8865 C   0  0  0  0  0  0  0  0  0  0  0  0
   -6.9457    0.5643    1.8429 C   0  0  0  0  0  0  0  0  0  0  0  0
   -5.5775    0.3140    2.0113 C   0  0  0  0  0  0  0  0  0  0  0  0
   -9.8405    1.8039    1.0548 C   0  0  0  0  0  0  0  0  0  0  0  0
  -10.8582    2.5886    0.4797 C   0  0  0  0  0  0  0  0  0  0  0  0
  -10.6480    3.9675    0.2445 C   0  0  0  0  0  0  0  0  0  0  0  0
   -9.4932    4.6017    0.7501 C   0  0  0  0  0  0  0  0  0  0  0  0
  -11.5929    4.7415   -0.5820 C   0  0  0  0  0  0  0  0  0  0  0  0
  -11.1912    5.4372   -1.6608 C   0  0  0  0  0  0  0  0  0  0  0  0
  -11.8247    6.6831   -2.0939 C   0  0  0  0  0  0  0  0  0  0  0  0
  -13.0018    7.0536   -1.8179 O   0  0  0  0  0  0  0  0  0  0  0  0
  -10.8358    7.4634   -2.8157 C   0  0  0  0  0  0  0  0  0  0  0  0
  -10.9298    8.7750   -3.2865 C   0  0  0  0  0  0  0  0  0  0  0  0
   -9.7954    9.3591   -3.8709 C   0  0  0  0  0  0  0  0  0  0  0  0
   -9.8534   10.6348   -4.3289 F   0  0  0  0  0  0  0  0  0  0  0  0
   -8.5872    8.6356   -3.9530 C   0  0  0  0  0  0  0  0  0  0  0  0
   -7.4836    9.2189   -4.4815 F   0  0  0  0  0  0  0  0  0  0  0  0
   -8.5124    7.3212   -3.4657 C   0  0  0  0  0  0  0  0  0  0  0  0
   -9.6601    6.7362   -2.9170 C   0  0  0  0  0  0  0  0  0  0  0  0
   -9.8673    5.3775   -2.3519 C   0  0  0  0  0  0  0  0  0  0  0  0
   -9.2494    4.2468   -2.7668 C   0  0  0  0  0  0  0  0  0  0  0  0
   -9.8321    2.9509   -2.5455 C   0  0  0  0  0  0  0  0  0  0  0  0
  -10.3044    1.9014   -2.4043 N   0  0  0  0  0  0  0  0  0  0  0  0
   -8.1305    4.2603   -3.6689 C   0  0  0  0  0  0  0  0  0  0  0  0
   -7.2303    4.2471   -4.3982 N   0  0  0  0  0  0  0  0  0  0  0  0
    6.9730   -3.2919   -3.4134 H   0  0  0  0  0  0  0  0  0  0  0  0
    7.7448   -6.7766    1.7257 H   0  0  0  0  0  0  0  0  0  0  0  0
   11.3651   -6.2166   -1.6515 H   0  0  0  0  0  0  0  0  0  0  0  0
    4.3848   -2.9242   -6.3719 H   0  0  0  0  0  0  0  0  0  0  0  0
    5.8727   -1.7902   -7.9569 H   0  0  0  0  0  0  0  0  0  0  0  0
    8.4554    0.7836   -6.9293 H   0  0  0  0  0  0  0  0  0  0  0  0
    7.0759    0.8705   -8.0890 H   0  0  0  0  0  0  0  0  0  0  0  0
    8.1880   -0.5592   -8.0940 H   0  0  0  0  0  0  0  0  0  0  0  0
    7.4254    0.6501   -4.7614 H   0  0  0  0  0  0  0  0  0  0  0  0
    5.8940   -0.4274   -3.1900 H   0  0  0  0  0  0  0  0  0  0  0  0
    2.2133   -0.8626   -4.8255 H   0  0  0  0  0  0  0  0  0  0  0  0
   -0.0621   -1.5510   -5.4550 H   0  0  0  0  0  0  0  0  0  0  0  0
   -1.8153   -3.8624   -4.2526 H   0  0  0  0  0  0  0  0  0  0  0  0
   -1.2542   -5.0918   -5.4572 H   0  0  0  0  0  0  0  0  0  0  0  0
   -1.6242   -3.4132   -5.9965 H   0  0  0  0  0  0  0  0  0  0  0  0
    0.8092   -5.5765   -4.1651 H   0  0  0  0  0  0  0  0  0  0  0  0
    3.1055   -4.8807   -3.5919 H   0  0  0  0  0  0  0  0  0  0  0  0
    5.1236    1.5413    1.4903 H   0  0  0  0  0  0  0  0  0  0  0  0
    4.6814    3.7856    2.4193 H   0  0  0  0  0  0  0  0  0  0  0  0
    2.9841    4.4139    5.5126 H   0  0  0  0  0  0  0  0  0  0  0  0
    3.6139    5.2081    4.0194 H   0  0  0  0  0  0  0  0  0  0  0  0
    1.8765    4.7532    4.1357 H   0  0  0  0  0  0  0  0  0  0  0  0
    1.7523    2.0738    5.0913 H   0  0  0  0  0  0  0  0  0  0  0  0
    2.1999   -0.1553    4.1352 H   0  0  0  0  0  0  0  0  0  0  0  0
    6.6291   -0.6460    2.0087 H   0  0  0  0  0  0  0  0  0  0  0  0
    8.2559   -2.0456    3.2255 H   0  0  0  0  0  0  0  0  0  0  0  0
    8.5079   -4.3753    4.3807 H   0  0  0  0  0  0  0  0  0  0  0  0
    7.2512   -4.8378    5.5784 H   0  0  0  0  0  0  0  0  0  0  0  0
    8.2501   -3.3526    5.8510 H   0  0  0  0  0  0  0  0  0  0  0  0
    5.0201   -3.9464    5.3503 H   0  0  0  0  0  0  0  0  0  0  0  0
    3.4054   -2.5061    4.1713 H   0  0  0  0  0  0  0  0  0  0  0  0
    0.0675   -0.5323    4.5084 H   0  0  0  0  0  0  0  0  0  0  0  0
   -0.7409   -1.1460    6.7235 H   0  0  0  0  0  0  0  0  0  0  0  0
   -3.7312   -4.0106    6.6735 H   0  0  0  0  0  0  0  0  0  0  0  0
   -3.9958   -3.5464    8.3962 H   0  0  0  0  0  0  0  0  0  0  0  0
   -3.5294   -2.2818    7.1941 H   0  0  0  0  0  0  0  0  0  0  0  0
   -1.3306   -5.1955    5.4163 H   0  0  0  0  0  0  0  0  0  0  0  0
   -0.5578   -4.5978    3.1735 H   0  0  0  0  0  0  0  0  0  0  0  0
   -0.5073   -2.7283   -0.1846 H   0  0  0  0  0  0  0  0  0  0  0  0
    0.3661   -4.4894   -1.6676 H   0  0  0  0  0  0  0  0  0  0  0  0
    1.5652   -7.8967    0.3710 H   0  0  0  0  0  0  0  0  0  0  0  0
    0.3387   -7.4412   -0.8994 H   0  0  0  0  0  0  0  0  0  0  0  0
    1.6058   -8.6792   -1.2580 H   0  0  0  0  0  0  0  0  0  0  0  0
    3.2062   -5.6384    1.3608 H   0  0  0  0  0  0  0  0  0  0  0  0
    2.2742   -3.9373    2.8673 H   0  0  0  0  0  0  0  0  0  0  0  0
   -3.2080    5.8113    0.9130 H   0  0  0  0  0  0  0  0  0  0  0  0
   -2.8781    7.6222    2.5263 H   0  0  0  0  0  0  0  0  0  0  0  0
   -3.9524    7.3041    5.3925 H   0  0  0  0  0  0  0  0  0  0  0  0
   -3.1882    7.9554    6.8994 H   0  0  0  0  0  0  0  0  0  0  0  0
   -2.9306    6.2230    6.4413 H   0  0  0  0  0  0  0  0  0  0  0  0
   -0.6296    4.9840    5.0648 H   0  0  0  0  0  0  0  0  0  0  0  0
   -0.9196    3.1642    3.4639 H   0  0  0  0  0  0  0  0  0  0  0  0
   -4.3720    2.2821   -0.3671 H   0  0  0  0  0  0  0  0  0  0  0  0
   -4.8733    2.8095   -2.7038 H   0  0  0  0  0  0  0  0  0  0  0  0
   -5.2245    5.7323   -3.4123 H   0  0  0  0  0  0  0  0  0  0  0  0
   -3.7949    6.7539   -3.8476 H   0  0  0  0  0  0  0  0  0  0  0  0
   -5.0378    6.3409   -5.0999 H   0  0  0  0  0  0  0  0  0  0  0  0
   -1.3318    5.2387   -2.9321 H   0  0  0  0  0  0  0  0  0  0  0  0
   -0.8350    4.7408   -0.5691 H   0  0  0  0  0  0  0  0  0  0  0  0
   -4.4934    3.5417    2.4333 H   0  0  0  0  0  0  0  0  0  0  0  0
   -7.6303   -0.2385    1.6034 H   0  0  0  0  0  0  0  0  0  0  0  0
   -5.2332   -0.7033    1.9051 H   0  0  0  0  0  0  0  0  0  0  0  0
   -9.9449    0.7315    1.1231 H   0  0  0  0  0  0  0  0  0  0  0  0
  -11.7556    2.1006    0.1132 H   0  0  0  0  0  0  0  0  0  0  0  0
   -9.3139    5.6545    0.5790 H   0  0  0  0  0  0  0  0  0  0  0  0
  -12.5925    4.8978   -0.1898 H   0  0  0  0  0  0  0  0  0  0  0  0
  -11.8544    9.3351   -3.1888 H   0  0  0  0  0  0  0  0  0  0  0  0
   -7.5681    6.7937   -3.4943 H   0  0  0  0  0  0  0  0  0  0  0  0
  1  2  2  3
  2  3  1  0
  3  4  2  0
  3  5  1  0
  5  6  2  0
  6  7  1  0
  7  8  1  0
  7  9  2  0
  9 10  1  0
  9 11  1  0
 11 12  2  0
 12 13  1  0
 13 14  2  3
 14 15  1  0
 15 16  3  0
 14 17  1  0
 17 18  3  0
  1 19  1  0
 19 20  2  0
 20 21  1  0
 21 22  1  0
 22 23  2  0
 23 24  1  0
 24 25  2  0
 25 26  1  0
 25 27  1  0
 27 28  2  0
 21 29  1  0
 29 30  2  0
 30 31  1  0
 31 32  2  0
 32 33  1  0
 32 34  1  0
 34 35  2  0
 20 36  1  0
 36 37  1  0
 37 38  1  0
 38 39  2  0
 39 40  1  0
 40 41  1  0
 41 42  2  0
 42 43  1  0
 43 44  2  0
 44 45  1  0
 44 46  1  0
 46 47  2  0
 40 48  1  0
 48 49  2  0
 49 50  1  0
 50 51  2  0
 51 52  1  0
 51 53  1  0
 53 54  2  0
 39 55  1  0
 55 56  1  0
 38 57  1  0
 57 58  2  0
 58 59  1  0
 59 60  1  0
 60 61  2  0
 61 62  1  0
 62 63  2  0
 63 64  1  0
 64 65  1  0
 63 66  1  0
 66 67  2  0
 59 68  1  0
 68 69  2  0
 69 70  1  0
 70 71  2  0
 71 72  1  0
 72 73  1  0
 71 74  1  0
 74 75  2  0
 58 76  1  0
 76 77  1  0
 77 78  1  0
 78 79  2  0
 79 80  1  0
 80 81  1  0
 81 82  2  0
 82 83  1  0
 83 84  2  0
 84 85  1  0
 85 86  1  0
 84 87  1  0
 87 88  2  0
 80 89  1  0
 89 90  2  0
 90 91  1  0
 91 92  2  0
 92 93  1  0
 93 94  1  0
 92 95  1  0
 95 96  2  0
 79 97  1  0
 97 98  1  0
 78 99  1  0
 99100  2  0
100101  1  0
101102  1  0
102103  2  0
102104  1  0
104105  2  0
105106  1  0
106107  1  0
107108  2  0
105109  1  0
109110  2  0
110111  1  0
111112  2  0
111113  1  0
113114  2  3
114115  1  0
115116  2  0
115117  1  0
117118  2  0
118119  1  0
119120  1  0
119121  2  0
121122  1  0
121123  1  0
123124  2  0
124125  1  0
125126  2  3
126127  1  0
127128  3  0
126129  1  0
129130  3  0
 13  2  1  0
 56 19  1  0
 98 57  1  0
108 99  1  0
125114  1  0
 12  5  1  0
 28 22  1  0
 35 29  1  0
 55 36  2  0
 67 60  1  0
 75 68  1  0
 97 76  2  0
106101  2  0
124117  1  0
 47 41  1  0
 54 48  1  0
 88 81  1  0
 96 89  1  0
112104  1  0
  1131  1  0
  6132  1  0
 11133  1  0
 23134  1  0
 24135  1  0
 26136  1  0
 26137  1  0
 26138  1  0
 27139  1  0
 28140  1  0
 30141  1  0
 31142  1  0
 33143  1  0
 33144  1  0
 33145  1  0
 34146  1  0
 35147  1  0
 42148  1  0
 43149  1  0
 45150  1  0
 45151  1  0
 45152  1  0
 46153  1  0
 47154  1  0
 49155  1  0
 50156  1  0
 52157  1  0
 52158  1  0
 52159  1  0
 53160  1  0
 54161  1  0
 61162  1  0
 62163  1  0
 65164  1  0
 65165  1  0
 65166  1  0
 66167  1  0
 67168  1  0
 69169  1  0
 70170  1  0
 73171  1  0
 73172  1  0
 73173  1  0
 74174  1  0
 75175  1  0
 82176  1  0
 83177  1  0
 86178  1  0
 86179  1  0
 86180  1  0
 87181  1  0
 88182  1  0
 90183  1  0
 91184  1  0
 94185  1  0
 94186  1  0
 94187  1  0
 95188  1  0
 96189  1  0
100190  1  0
107191  1  0
108192  1  0
109193  1  0
110194  1  0
112195  1  0
113196  1  0
118197  1  0
123198  1  0
M  END

