
     RDKit          3D

247268  0  0  0  0  0  0  0  0999 V2000
   -5.6997    1.7698   -6.3455 C   0  0  0  0  0  0  0  0  0  0  0  0
   -6.9351    2.1812   -6.6903 C   0  0  0  0  0  0  0  0  0  0  0  0
   -7.9235    2.8640   -5.8435 C   0  0  0  0  0  0  0  0  0  0  0  0
   -7.8860    3.0053   -4.5950 O   0  0  0  0  0  0  0  0  0  0  0  0
   -8.9189    3.4707   -6.7130 C   0  0  0  0  0  0  0  0  0  0  0  0
  -10.0179    4.2514   -6.3530 C   0  0  0  0  0  0  0  0  0  0  0  0
  -10.8353    4.7798   -7.3614 C   0  0  0  0  0  0  0  0  0  0  0  0
  -12.2249    5.7614   -6.9316 Cl  0  0  0  0  0  0  0  0  0  0  0  0
  -10.5315    4.5278   -8.7114 C   0  0  0  0  0  0  0  0  0  0  0  0
  -11.3138    5.0380   -9.6932 F   0  0  0  0  0  0  0  0  0  0  0  0
   -9.4134    3.7509   -9.0574 C   0  0  0  0  0  0  0  0  0  0  0  0
   -8.6117    3.2079   -8.0334 C   0  0  0  0  0  0  0  0  0  0  0  0
   -7.4216    2.3211   -8.1001 C   0  0  0  0  0  0  0  0  0  0  0  0
   -7.0094    1.5894   -9.1709 C   0  0  0  0  0  0  0  0  0  0  0  0
   -6.0792    0.5018   -9.0461 C   0  0  0  0  0  0  0  0  0  0  0  0
   -5.3244   -0.3792   -8.9580 N   0  0  0  0  0  0  0  0  0  0  0  0
   -7.5582    1.7493  -10.4873 C   0  0  0  0  0  0  0  0  0  0  0  0
   -7.9825    1.8995  -11.5542 N   0  0  0  0  0  0  0  0  0  0  0  0
   -5.1251    1.5106   -5.0031 C   0  0  0  0  0  0  0  0  0  0  0  0
   -3.7598    1.2477   -4.8465 C   0  0  0  0  0  0  0  0  0  0  0  0
   -2.7574    1.5265   -5.8308 N   0  0  0  0  0  0  0  0  0  0  0  0
   -2.2768    0.4722   -6.7023 C   0  0  0  0  0  0  0  0  0  0  0  0
   -2.5493   -0.8845   -6.4232 C   0  0  0  0  0  0  0  0  0  0  0  0
   -2.0088   -1.9018   -7.2170 C   0  0  0  0  0  0  0  0  0  0  0  0
   -1.1767   -1.5825   -8.2961 C   0  0  0  0  0  0  0  0  0  0  0  0
   -0.5790   -2.6698   -9.1356 C   0  0  0  0  0  0  0  0  0  0  0  0
   -0.9655   -0.2401   -8.6311 C   0  0  0  0  0  0  0  0  0  0  0  0
   -1.5107    0.7771   -7.8414 C   0  0  0  0  0  0  0  0  0  0  0  0
   -2.0817    2.8015   -5.7083 C   0  0  0  0  0  0  0  0  0  0  0  0
   -2.8260    3.9846   -5.5821 C   0  0  0  0  0  0  0  0  0  0  0  0
   -2.1892    5.2066   -5.3558 C   0  0  0  0  0  0  0  0  0  0  0  0
   -0.7943    5.2668   -5.2518 C   0  0  0  0  0  0  0  0  0  0  0  0
   -0.1263    6.5833   -4.9721 C   0  0  0  0  0  0  0  0  0  0  0  0
   -0.0440    4.0905   -5.3834 C   0  0  0  0  0  0  0  0  0  0  0  0
   -0.6797    2.8621   -5.5962 C   0  0  0  0  0  0  0  0  0  0  0  0
   -3.4537    0.8013   -3.5748 C   0  0  0  0  0  0  0  0  0  0  0  0
   -2.0255    0.3388   -2.8396 S   0  0  0  0  0  0  0  0  0  0  0  0
   -2.7648    0.0276   -1.3401 C   0  0  0  0  0  0  0  0  0  0  0  0
   -4.1373    0.3302   -1.4127 C   0  0  0  0  0  0  0  0  0  0  0  0
   -4.9556    0.5800   -0.2639 N   0  0  0  0  0  0  0  0  0  0  0  0
   -4.8775    1.8534    0.4250 C   0  0  0  0  0  0  0  0  0  0  0  0
   -4.3702    2.9980   -0.2281 C   0  0  0  0  0  0  0  0  0  0  0  0
   -4.2812    4.2217    0.4430 C   0  0  0  0  0  0  0  0  0  0  0  0
   -4.6929    4.3292    1.7753 C   0  0  0  0  0  0  0  0  0  0  0  0
   -4.6435    5.6634    2.4633 C   0  0  0  0  0  0  0  0  0  0  0  0
   -5.1882    3.1984    2.4379 C   0  0  0  0  0  0  0  0  0  0  0  0
   -5.2819    1.9706    1.7692 C   0  0  0  0  0  0  0  0  0  0  0  0
   -5.8827   -0.4279    0.1564 C   0  0  0  0  0  0  0  0  0  0  0  0
   -7.2563   -0.2294   -0.0413 C   0  0  0  0  0  0  0  0  0  0  0  0
   -8.1714   -1.1671    0.4377 C   0  0  0  0  0  0  0  0  0  0  0  0
   -7.7296   -2.3175    1.1081 C   0  0  0  0  0  0  0  0  0  0  0  0
   -8.7315   -3.3007    1.6348 C   0  0  0  0  0  0  0  0  0  0  0  0
   -6.3525   -2.5111    1.3160 C   0  0  0  0  0  0  0  0  0  0  0  0
   -5.4353   -1.5751    0.8260 C   0  0  0  0  0  0  0  0  0  0  0  0
   -4.4944    0.7182   -2.7119 C   0  0  0  0  0  0  0  0  0  0  0  0
   -5.9076    1.1778   -3.5118 S   0  0  0  0  0  0  0  0  0  0  0  0
   -2.0194   -0.5051   -0.1921 C   0  0  0  0  0  0  0  0  0  0  0  0
   -1.0198   -1.4920   -0.2914 C   0  0  0  0  0  0  0  0  0  0  0  0
   -0.9489   -2.4598   -1.3528 N   0  0  0  0  0  0  0  0  0  0  0  0
   -2.1478   -3.1396   -1.7426 C   0  0  0  0  0  0  0  0  0  0  0  0
   -2.6182   -3.0391   -3.0604 C   0  0  0  0  0  0  0  0  0  0  0  0
   -3.8462   -3.5958   -3.4112 C   0  0  0  0  0  0  0  0  0  0  0  0
   -4.6057   -4.2814   -2.4543 C   0  0  0  0  0  0  0  0  0  0  0  0
   -6.1957   -4.9781   -2.9078 S   0  0  0  0  0  0  0  0  0  0  0  0
   -7.1265   -3.4823   -2.4445 C   0  0  0  0  0  0  0  0  0  0  0  0
   -4.1191   -4.4258   -1.1475 C   0  0  0  0  0  0  0  0  0  0  0  0
   -2.9008   -3.8446   -0.7876 C   0  0  0  0  0  0  0  0  0  0  0  0
    0.3045   -2.8877   -1.9089 C   0  0  0  0  0  0  0  0  0  0  0  0
    0.8476   -4.1336   -1.5503 C   0  0  0  0  0  0  0  0  0  0  0  0
    2.0080   -4.6009   -2.1743 C   0  0  0  0  0  0  0  0  0  0  0  0
    2.6125   -3.8472   -3.1895 C   0  0  0  0  0  0  0  0  0  0  0  0
    4.0329   -4.5114   -4.0781 S   0  0  0  0  0  0  0  0  0  0  0  0
    5.2477   -3.5589   -3.1083 C   0  0  0  0  0  0  0  0  0  0  0  0
    2.0707   -2.6060   -3.5539 C   0  0  0  0  0  0  0  0  0  0  0  0
    0.9288   -2.1205   -2.9065 C   0  0  0  0  0  0  0  0  0  0  0  0
   -0.3011   -1.5904    0.8915 C   0  0  0  0  0  0  0  0  0  0  0  0
    0.9974   -2.4967    1.4103 S   0  0  0  0  0  0  0  0  0  0  0  0
    1.0797   -1.7922    2.9622 C   0  0  0  0  0  0  0  0  0  0  0  0
   -0.0068   -0.8955    3.0821 C   0  0  0  0  0  0  0  0  0  0  0  0
   -0.6213   -0.6189    4.3499 N   0  0  0  0  0  0  0  0  0  0  0  0
   -1.3040   -1.7163    4.9964 C   0  0  0  0  0  0  0  0  0  0  0  0
   -2.2854   -2.4493    4.3006 C   0  0  0  0  0  0  0  0  0  0  0  0
   -2.9186   -3.5331    4.9184 C   0  0  0  0  0  0  0  0  0  0  0  0
   -2.5989   -3.8818    6.2342 C   0  0  0  0  0  0  0  0  0  0  0  0
   -3.4339   -5.2598    7.0321 S   0  0  0  0  0  0  0  0  0  0  0  0
   -2.2001   -6.4673    6.4621 C   0  0  0  0  0  0  0  0  0  0  0  0
   -1.6353   -3.1476    6.9370 C   0  0  0  0  0  0  0  0  0  0  0  0
   -0.9997   -2.0667    6.3202 C   0  0  0  0  0  0  0  0  0  0  0  0
   -0.7040    0.7316    4.8714 C   0  0  0  0  0  0  0  0  0  0  0  0
   -1.6569    1.0684    5.8537 C   0  0  0  0  0  0  0  0  0  0  0  0
   -1.7296    2.3670    6.3576 C   0  0  0  0  0  0  0  0  0  0  0  0
   -0.8726    3.3571    5.8749 C   0  0  0  0  0  0  0  0  0  0  0  0
   -0.9955    5.0314    6.5123 S   0  0  0  0  0  0  0  0  0  0  0  0
   -2.2897    5.5143    5.3217 C   0  0  0  0  0  0  0  0  0  0  0  0
    0.0759    3.0392    4.8951 C   0  0  0  0  0  0  0  0  0  0  0  0
    0.1627    1.7387    4.3971 C   0  0  0  0  0  0  0  0  0  0  0  0
   -0.7094   -0.7710    1.8870 C   0  0  0  0  0  0  0  0  0  0  0  0
   -2.0054    0.1694    1.3791 S   0  0  0  0  0  0  0  0  0  0  0  0
    2.4112   -1.3732    3.3873 C   0  0  0  0  0  0  0  0  0  0  0  0
    3.2634   -1.9743    4.3305 C   0  0  0  0  0  0  0  0  0  0  0  0
    2.8117   -2.7351    5.4614 N   0  0  0  0  0  0  0  0  0  0  0  0
    2.6871   -2.0268    6.7186 C   0  0  0  0  0  0  0  0  0  0  0  0
    3.0816   -2.6095    7.9352 C   0  0  0  0  0  0  0  0  0  0  0  0
    2.9948   -1.8890    9.1327 C   0  0  0  0  0  0  0  0  0  0  0  0
    2.5314   -0.5654    9.1320 C   0  0  0  0  0  0  0  0  0  0  0  0
    2.3999    0.2067   10.4089 C   0  0  0  0  0  0  0  0  0  0  0  0
    2.1624    0.0288    7.9202 C   0  0  0  0  0  0  0  0  0  0  0  0
    2.2391   -0.6905    6.7273 C   0  0  0  0  0  0  0  0  0  0  0  0
    2.6684   -4.1738    5.3507 C   0  0  0  0  0  0  0  0  0  0  0  0
    1.7862   -4.8721    6.1972 C   0  0  0  0  0  0  0  0  0  0  0  0
    1.6830   -6.2657    6.1208 C   0  0  0  0  0  0  0  0  0  0  0  0
    2.3980   -6.9817    5.1526 C   0  0  0  0  0  0  0  0  0  0  0  0
    2.2438   -8.4708    5.0671 C   0  0  0  0  0  0  0  0  0  0  0  0
    3.2766   -6.2962    4.3012 C   0  0  0  0  0  0  0  0  0  0  0  0
    3.4068   -4.9040    4.3978 C   0  0  0  0  0  0  0  0  0  0  0  0
    4.5600   -1.4694    4.2249 C   0  0  0  0  0  0  0  0  0  0  0  0
    6.0325   -1.7616    4.9920 S   0  0  0  0  0  0  0  0  0  0  0  0
    6.8868   -0.6450    4.0172 C   0  0  0  0  0  0  0  0  0  0  0  0
    6.0024   -0.0356    3.1232 C   0  0  0  0  0  0  0  0  0  0  0  0
    6.3194    1.0910    2.2916 N   0  0  0  0  0  0  0  0  0  0  0  0
    6.8680    0.8660    0.9796 C   0  0  0  0  0  0  0  0  0  0  0  0
    7.9016    1.6838    0.5082 C   0  0  0  0  0  0  0  0  0  0  0  0
    8.4160    1.4889   -0.7744 C   0  0  0  0  0  0  0  0  0  0  0  0
    7.9313    0.4518   -1.5909 C   0  0  0  0  0  0  0  0  0  0  0  0
    8.4876    0.2294   -2.9641 C   0  0  0  0  0  0  0  0  0  0  0  0
    6.8896   -0.3653   -1.1179 C   0  0  0  0  0  0  0  0  0  0  0  0
    6.3727   -0.1639    0.1646 C   0  0  0  0  0  0  0  0  0  0  0  0
    5.8278    2.3905    2.6835 C   0  0  0  0  0  0  0  0  0  0  0  0
    5.2976    3.2838    1.7306 C   0  0  0  0  0  0  0  0  0  0  0  0
    4.7436    4.5043    2.1263 C   0  0  0  0  0  0  0  0  0  0  0  0
    4.7198    4.8595    3.4855 C   0  0  0  0  0  0  0  0  0  0  0  0
    4.0470    6.1255    3.9281 C   0  0  0  0  0  0  0  0  0  0  0  0
    5.2444    3.9754    4.4382 C   0  0  0  0  0  0  0  0  0  0  0  0
    5.8002    2.7558    4.0419 C   0  0  0  0  0  0  0  0  0  0  0  0
    4.7210   -0.5276    3.2662 C   0  0  0  0  0  0  0  0  0  0  0  0
    3.2885   -0.2374    2.4667 S   0  0  0  0  0  0  0  0  0  0  0  0
    8.3123   -0.3070    4.1198 C   0  0  0  0  0  0  0  0  0  0  0  0
    9.1755   -0.6397    3.1424 C   0  0  0  0  0  0  0  0  0  0  0  0
    8.8859   -1.5906    2.0609 C   0  0  0  0  0  0  0  0  0  0  0  0
    7.9952   -2.4840    2.0709 O   0  0  0  0  0  0  0  0  0  0  0  0
    9.7884   -1.3263    0.9595 C   0  0  0  0  0  0  0  0  0  0  0  0
    9.8996   -2.0181   -0.2454 C   0  0  0  0  0  0  0  0  0  0  0  0
   10.8870   -1.6293   -1.1666 C   0  0  0  0  0  0  0  0  0  0  0  0
   11.0778   -2.4051   -2.4388 C   0  0  0  0  0  0  0  0  0  0  0  0
   11.7644   -0.5688   -0.8296 C   0  0  0  0  0  0  0  0  0  0  0  0
   12.7717   -0.2213   -1.6720 F   0  0  0  0  0  0  0  0  0  0  0  0
   11.6366    0.1094    0.3928 C   0  0  0  0  0  0  0  0  0  0  0  0
   10.6218   -0.2722    1.2883 C   0  0  0  0  0  0  0  0  0  0  0  0
   10.3311    0.1807    2.6766 C   0  0  0  0  0  0  0  0  0  0  0  0
   10.9196    1.1955    3.3485 C   0  0  0  0  0  0  0  0  0  0  0  0
   10.9618    1.1975    4.7847 C   0  0  0  0  0  0  0  0  0  0  0  0
   11.0552    1.1842    5.9441 N   0  0  0  0  0  0  0  0  0  0  0  0
   11.6819    2.2226    2.6896 C   0  0  0  0  0  0  0  0  0  0  0  0
   12.2885    3.0539    2.1636 N   0  0  0  0  0  0  0  0  0  0  0  0
   -4.9923    1.6290   -7.1495 H   0  0  0  0  0  0  0  0  0  0  0  0
  -10.2367    4.4543   -5.3134 H   0  0  0  0  0  0  0  0  0  0  0  0
   -9.1868    3.6278  -10.1073 H   0  0  0  0  0  0  0  0  0  0  0  0
   -3.1638   -1.1678   -5.5809 H   0  0  0  0  0  0  0  0  0  0  0  0
   -2.2231   -2.9350   -6.9708 H   0  0  0  0  0  0  0  0  0  0  0  0
   -0.3648   -3.5718   -8.5228 H   0  0  0  0  0  0  0  0  0  0  0  0
    0.3794   -2.3285   -9.5855 H   0  0  0  0  0  0  0  0  0  0  0  0
   -1.2779   -2.9386   -9.9522 H   0  0  0  0  0  0  0  0  0  0  0  0
   -0.3687    0.0220   -9.4984 H   0  0  0  0  0  0  0  0  0  0  0  0
   -1.3294    1.8075   -8.1178 H   0  0  0  0  0  0  0  0  0  0  0  0
   -3.9067    3.9593   -5.6558 H   0  0  0  0  0  0  0  0  0  0  0  0
   -2.7869    6.1060   -5.2438 H   0  0  0  0  0  0  0  0  0  0  0  0
   -0.3865    6.9281   -3.9477 H   0  0  0  0  0  0  0  0  0  0  0  0
    0.9787    6.4974   -5.0476 H   0  0  0  0  0  0  0  0  0  0  0  0
   -0.4751    7.3385   -5.7078 H   0  0  0  0  0  0  0  0  0  0  0  0
    1.0371    4.1202   -5.2945 H   0  0  0  0  0  0  0  0  0  0  0  0
   -0.0831    1.9563   -5.6360 H   0  0  0  0  0  0  0  0  0  0  0  0
   -4.0530    2.9599   -1.2580 H   0  0  0  0  0  0  0  0  0  0  0  0
   -3.8864    5.0885   -0.0760 H   0  0  0  0  0  0  0  0  0  0  0  0
   -3.6362    6.1119    2.3394 H   0  0  0  0  0  0  0  0  0  0  0  0
   -4.8620    5.5636    3.5501 H   0  0  0  0  0  0  0  0  0  0  0  0
   -5.4017    6.3366    2.0097 H   0  0  0  0  0  0  0  0  0  0  0  0
   -5.5012    3.2668    3.4707 H   0  0  0  0  0  0  0  0  0  0  0  0
   -5.6588    1.1150    2.3149 H   0  0  0  0  0  0  0  0  0  0  0  0
   -7.6086    0.6596   -0.5466 H   0  0  0  0  0  0  0  0  0  0  0  0
   -9.2299   -0.9953    0.2926 H   0  0  0  0  0  0  0  0  0  0  0  0
   -9.5759   -3.4128    0.9181 H   0  0  0  0  0  0  0  0  0  0  0  0
   -9.1354   -2.9286    2.5980 H   0  0  0  0  0  0  0  0  0  0  0  0
   -8.2677   -4.2968    1.7938 H   0  0  0  0  0  0  0  0  0  0  0  0
   -5.9868   -3.3885    1.8346 H   0  0  0  0  0  0  0  0  0  0  0  0
   -4.3763   -1.7187    1.0070 H   0  0  0  0  0  0  0  0  0  0  0  0
   -2.0555   -2.4862   -3.7975 H   0  0  0  0  0  0  0  0  0  0  0  0
   -4.2166   -3.4803   -4.4187 H   0  0  0  0  0  0  0  0  0  0  0  0
   -7.2137   -3.4423   -1.3425 H   0  0  0  0  0  0  0  0  0  0  0  0
   -8.1424   -3.5432   -2.8793 H   0  0  0  0  0  0  0  0  0  0  0  0
   -6.6244   -2.5601   -2.8029 H   0  0  0  0  0  0  0  0  0  0  0  0
   -4.7003   -4.9599   -0.4068 H   0  0  0  0  0  0  0  0  0  0  0  0
   -2.5437   -3.9352    0.2308 H   0  0  0  0  0  0  0  0  0  0  0  0
    0.3532   -4.7449   -0.8038 H   0  0  0  0  0  0  0  0  0  0  0  0
    2.4090   -5.5671   -1.9028 H   0  0  0  0  0  0  0  0  0  0  0  0
    5.2282   -3.8849   -2.0459 H   0  0  0  0  0  0  0  0  0  0  0  0
    5.0134   -2.4776   -3.1716 H   0  0  0  0  0  0  0  0  0  0  0  0
    6.2606   -3.7334   -3.5222 H   0  0  0  0  0  0  0  0  0  0  0  0
    2.5237   -2.0277   -4.3469 H   0  0  0  0  0  0  0  0  0  0  0  0
    0.5088   -1.1713   -3.2062 H   0  0  0  0  0  0  0  0  0  0  0  0
   -2.5612   -2.1940    3.2883 H   0  0  0  0  0  0  0  0  0  0  0  0
   -3.6507   -4.1098    4.3685 H   0  0  0  0  0  0  0  0  0  0  0  0
   -2.4382   -7.4635    6.8826 H   0  0  0  0  0  0  0  0  0  0  0  0
   -1.1981   -6.1596    6.8086 H   0  0  0  0  0  0  0  0  0  0  0  0
   -2.2119   -6.5287    5.3528 H   0  0  0  0  0  0  0  0  0  0  0  0
   -1.3873   -3.4033    7.9582 H   0  0  0  0  0  0  0  0  0  0  0  0
   -0.2677   -1.5031    6.8768 H   0  0  0  0  0  0  0  0  0  0  0  0
   -2.3598    0.3323    6.2235 H   0  0  0  0  0  0  0  0  0  0  0  0
   -2.4661    2.6072    7.1118 H   0  0  0  0  0  0  0  0  0  0  0  0
   -1.9042    5.4165    4.2828 H   0  0  0  0  0  0  0  0  0  0  0  0
   -3.1818    4.8721    5.4483 H   0  0  0  0  0  0  0  0  0  0  0  0
   -2.5767    6.5682    5.5002 H   0  0  0  0  0  0  0  0  0  0  0  0
    0.7376    3.8049    4.5131 H   0  0  0  0  0  0  0  0  0  0  0  0
    0.9082    1.5173    3.6417 H   0  0  0  0  0  0  0  0  0  0  0  0
    3.4881   -3.6171    7.9585 H   0  0  0  0  0  0  0  0  0  0  0  0
    3.2948   -2.3624   10.0585 H   0  0  0  0  0  0  0  0  0  0  0  0
    1.3291    0.2722   10.6959 H   0  0  0  0  0  0  0  0  0  0  0  0
    2.7984    1.2376   10.2769 H   0  0  0  0  0  0  0  0  0  0  0  0
    2.9629   -0.2714   11.2388 H   0  0  0  0  0  0  0  0  0  0  0  0
    1.7975    1.0504    7.8971 H   0  0  0  0  0  0  0  0  0  0  0  0
    1.9424   -0.2023    5.8103 H   0  0  0  0  0  0  0  0  0  0  0  0
    1.1832   -4.3404    6.9184 H   0  0  0  0  0  0  0  0  0  0  0  0
    1.0367   -6.7892    6.8101 H   0  0  0  0  0  0  0  0  0  0  0  0
    1.1717   -8.7535    5.1387 H   0  0  0  0  0  0  0  0  0  0  0  0
    2.7937   -8.9480    5.9031 H   0  0  0  0  0  0  0  0  0  0  0  0
    2.6433   -8.8677    4.1055 H   0  0  0  0  0  0  0  0  0  0  0  0
    3.8557   -6.8334    3.5623 H   0  0  0  0  0  0  0  0  0  0  0  0
    4.0995   -4.4049    3.7303 H   0  0  0  0  0  0  0  0  0  0  0  0
    8.3044    2.4638    1.1397 H   0  0  0  0  0  0  0  0  0  0  0  0
    9.2133    2.1308   -1.1234 H   0  0  0  0  0  0  0  0  0  0  0  0
    8.5244   -0.8556   -3.1946 H   0  0  0  0  0  0  0  0  0  0  0  0
    7.8477    0.7404   -3.7150 H   0  0  0  0  0  0  0  0  0  0  0  0
    9.5265    0.6211   -3.0400 H   0  0  0  0  0  0  0  0  0  0  0  0
    6.5008   -1.1666   -1.7339 H   0  0  0  0  0  0  0  0  0  0  0  0
    5.5813   -0.8154    0.5166 H   0  0  0  0  0  0  0  0  0  0  0  0
    5.2782    3.0148    0.6822 H   0  0  0  0  0  0  0  0  0  0  0  0
    4.3204    5.1575    1.3796 H   0  0  0  0  0  0  0  0  0  0  0  0
    4.5306    6.5286    4.8465 H   0  0  0  0  0  0  0  0  0  0  0  0
    2.9779    5.9170    4.1469 H   0  0  0  0  0  0  0  0  0  0  0  0
    4.1105    6.9065    3.1385 H   0  0  0  0  0  0  0  0  0  0  0  0
    5.2146    4.2222    5.4907 H   0  0  0  0  0  0  0  0  0  0  0  0
    6.1942    2.0867    4.7938 H   0  0  0  0  0  0  0  0  0  0  0  0
    8.5498    0.4693    4.8299 H   0  0  0  0  0  0  0  0  0  0  0  0
    9.2380   -2.8490   -0.4623 H   0  0  0  0  0  0  0  0  0  0  0  0
   11.4682   -1.7525   -3.2451 H   0  0  0  0  0  0  0  0  0  0  0  0
   10.1154   -2.8339   -2.7848 H   0  0  0  0  0  0  0  0  0  0  0  0
   11.7944   -3.2334   -2.2648 H   0  0  0  0  0  0  0  0  0  0  0  0
   12.3507    0.8788    0.6321 H   0  0  0  0  0  0  0  0  0  0  0  0
  1  2  2  3
  2  3  1  0
  3  4  2  0
  3  5  1  0
  5  6  2  0
  6  7  1  0
  7  8  1  0
  7  9  2  0
  9 10  1  0
  9 11  1  0
 11 12  2  0
 12 13  1  0
 13 14  2  3
 14 15  1  0
 15 16  3  0
 14 17  1  0
 17 18  3  0
  1 19  1  0
 19 20  2  0
 20 21  1  0
 21 22  1  0
 22 23  2  0
 23 24  1  0
 24 25  2  0
 25 26  1  0
 25 27  1  0
 27 28  2  0
 21 29  1  0
 29 30  2  0
 30 31  1  0
 31 32  2  0
 32 33  1  0
 32 34  1  0
 34 35  2  0
 20 36  1  0
 36 37  1  0
 37 38  1  0
 38 39  2  0
 39 40  1  0
 40 41  1  0
 41 42  2  0
 42 43  1  0
 43 44  2  0
 44 45  1  0
 44 46  1  0
 46 47  2  0
 40 48  1  0
 48 49  2  0
 49 50  1  0
 50 51  2  0
 51 52  1  0
 51 53  1  0
 53 54  2  0
 39 55  1  0
 55 56  1  0
 38 57  1  0
 57 58  2  0
 58 59  1  0
 59 60  1  0
 60 61  2  0
 61 62  1  0
 62 63  2  0
 63 64  1  0
 64 65  1  0
 63 66  1  0
 66 67  2  0
 59 68  1  0
 68 69  2  0
 69 70  1  0
 70 71  2  0
 71 72  1  0
 72 73  1  0
 71 74  1  0
 74 75  2  0
 58 76  1  0
 76 77  1  0
 77 78  1  0
 78 79  2  0
 79 80  1  0
 80 81  1  0
 81 82  2  0
 82 83  1  0
 83 84  2  0
 84 85  1  0
 85 86  1  0
 84 87  1  0
 87 88  2  0
 80 89  1  0
 89 90  2  0
 90 91  1  0
 91 92  2  0
 92 93  1  0
 93 94  1  0
 92 95  1  0
 95 96  2  0
 79 97  1  0
 97 98  1  0
 78 99  1  0
 99100  2  0
100101  1  0
101102  1  0
102103  2  0
103104  1  0
104105  2  0
105106  1  0
105107  1  0
107108  2  0
101109  1  0
109110  2  0
110111  1  0
111112  2  0
112113  1  0
112114  1  0
114115  2  0
100116  1  0
116117  1  0
117118  1  0
118119  2  0
119120  1  0
120121  1  0
121122  2  0
122123  1  0
123124  2  0
124125  1  0
124126  1  0
126127  2  0
120128  1  0
128129  2  0
129130  1  0
130131  2  0
131132  1  0
131133  1  0
133134  2  0
119135  1  0
135136  1  0
118137  1  0
137138  2  3
138139  1  0
139140  2  0
139141  1  0
141142  2  0
142143  1  0
143144  1  0
143145  2  0
145146  1  0
145147  1  0
147148  2  0
148149  1  0
149150  2  3
150151  1  0
151152  3  0
150153  1  0
153154  3  0
 13  2  1  0
 56 19  1  0
 98 57  1  0
136 99  1  0
149138  1  0
 12  5  1  0
 28 22  1  0
 35 29  1  0
 55 36  2  0
 67 60  1  0
 75 68  1  0
 97 76  2  0
108102  1  0
115109  1  0
135116  2  0
148141  1  0
 47 41  1  0
 54 48  1  0
 88 81  1  0
 96 89  1  0
127121  1  0
134128  1  0
  1155  1  0
  6156  1  0
 11157  1  0
 23158  1  0
 24159  1  0
 26160  1  0
 26161  1  0
 26162  1  0
 27163  1  0
 28164  1  0
 30165  1  0
 31166  1  0
 33167  1  0
 33168  1  0
 33169  1  0
 34170  1  0
 35171  1  0
 42172  1  0
 43173  1  0
 45174  1  0
 45175  1  0
 45176  1  0
 46177  1  0
 47178  1  0
 49179  1  0
 50180  1  0
 52181  1  0
 52182  1  0
 52183  1  0
 53184  1  0
 54185  1  0
 61186  1  0
 62187  1  0
 65188  1  0
 65189  1  0
 65190  1  0
 66191  1  0
 67192  1  0
 69193  1  0
 70194  1  0
 73195  1  0
 73196  1  0
 73197  1  0
 74198  1  0
 75199  1  0
 82200  1  0
 83201  1  0
 86202  1  0
 86203  1  0
 86204  1  0
 87205  1  0
 88206  1  0
 90207  1  0
 91208  1  0
 94209  1  0
 94210  1  0
 94211  1  0
 95212  1  0
 96213  1  0
103214  1  0
104215  1  0
106216  1  0
106217  1  0
106218  1  0
107219  1  0
108220  1  0
110221  1  0
111222  1  0
113223  1  0
113224  1  0
113225  1  0
114226  1  0
115227  1  0
122228  1  0
123229  1  0
125230  1  0
125231  1  0
125232  1  0
126233  1  0
127234  1  0
129235  1  0
130236  1  0
132237  1  0
132238  1  0
132239  1  0
133240  1  0
134241  1  0
137242  1  0
142243  1  0
144244  1  0
144245  1  0
144246  1  0
147247  1  0
M  END

