
     RDKit          3D

222242  0  0  0  0  0  0  0  0999 V2000
   -3.5267   -6.5085   -3.9277 C   0  0  0  0  0  0  0  0  0  0  0  0
   -2.9083   -7.3616   -4.7637 C   0  0  0  0  0  0  0  0  0  0  0  0
   -2.7190   -8.7761   -4.4233 C   0  0  0  0  0  0  0  0  0  0  0  0
   -3.3205   -9.4146   -3.5189 O   0  0  0  0  0  0  0  0  0  0  0  0
   -1.5696   -9.2588   -5.1705 C   0  0  0  0  0  0  0  0  0  0  0  0
   -0.8425  -10.4327   -4.9685 C   0  0  0  0  0  0  0  0  0  0  0  0
    0.3796  -10.5916   -5.6374 C   0  0  0  0  0  0  0  0  0  0  0  0
    1.3152  -12.0563   -5.4000 Cl  0  0  0  0  0  0  0  0  0  0  0  0
    0.8671   -9.5649   -6.4694 C   0  0  0  0  0  0  0  0  0  0  0  0
    2.0678   -9.6863   -7.0749 F   0  0  0  0  0  0  0  0  0  0  0  0
    0.1289   -8.3866   -6.6484 C   0  0  0  0  0  0  0  0  0  0  0  0
   -1.1087   -8.2531   -6.0006 C   0  0  0  0  0  0  0  0  0  0  0  0
   -2.0021   -7.0722   -5.9162 C   0  0  0  0  0  0  0  0  0  0  0  0
   -2.2323   -6.1842   -6.9104 C   0  0  0  0  0  0  0  0  0  0  0  0
   -1.4198   -6.1499   -8.0998 C   0  0  0  0  0  0  0  0  0  0  0  0
   -0.7689   -6.1195   -9.0603 N   0  0  0  0  0  0  0  0  0  0  0  0
   -3.3878   -5.3215   -6.9178 C   0  0  0  0  0  0  0  0  0  0  0  0
   -4.3141   -4.6264   -6.9438 N   0  0  0  0  0  0  0  0  0  0  0  0
   -3.3120   -5.0507   -3.9083 C   0  0  0  0  0  0  0  0  0  0  0  0
   -2.0901   -4.3459   -4.0543 C   0  0  0  0  0  0  0  0  0  0  0  0
   -0.7668   -4.9306   -3.9157 N   0  0  0  0  0  0  0  0  0  0  0  0
    0.3653   -4.3314   -4.5902 C   0  0  0  0  0  0  0  0  0  0  0  0
    0.2459   -3.8621   -5.9125 C   0  0  0  0  0  0  0  0  0  0  0  0
    1.3268   -3.2663   -6.5593 C   0  0  0  0  0  0  0  0  0  0  0  0
    2.5506   -3.1167   -5.8941 C   0  0  0  0  0  0  0  0  0  0  0  0
    3.7230   -2.4905   -6.6034 C   0  0  0  0  0  0  0  0  0  0  0  0
    2.6872   -3.6027   -4.5838 C   0  0  0  0  0  0  0  0  0  0  0  0
    1.6010   -4.1907   -3.9296 C   0  0  0  0  0  0  0  0  0  0  0  0
   -0.5588   -6.0269   -2.9849 C   0  0  0  0  0  0  0  0  0  0  0  0
    0.3210   -7.0727   -3.3066 C   0  0  0  0  0  0  0  0  0  0  0  0
    0.4123   -8.1978   -2.4805 C   0  0  0  0  0  0  0  0  0  0  0  0
   -0.3583   -8.2844   -1.3125 C   0  0  0  0  0  0  0  0  0  0  0  0
   -0.2819   -9.5083   -0.4470 C   0  0  0  0  0  0  0  0  0  0  0  0
   -1.1519   -7.1984   -0.9338 C   0  0  0  0  0  0  0  0  0  0  0  0
   -1.2490   -6.0728   -1.7589 C   0  0  0  0  0  0  0  0  0  0  0  0
   -2.3318   -2.9695   -4.0300 C   0  0  0  0  0  0  0  0  0  0  0  0
   -1.3789   -1.6007   -4.1180 S   0  0  0  0  0  0  0  0  0  0  0  0
   -2.6418   -0.4948   -3.8191 C   0  0  0  0  0  0  0  0  0  0  0  0
   -3.8207   -1.2287   -3.5687 C   0  0  0  0  0  0  0  0  0  0  0  0
   -5.0297   -0.6994   -2.9995 N   0  0  0  0  0  0  0  0  0  0  0  0
   -5.9648    0.0609   -3.7975 C   0  0  0  0  0  0  0  0  0  0  0  0
   -5.9884   -0.0652   -5.1999 C   0  0  0  0  0  0  0  0  0  0  0  0
   -6.9788    0.5726   -5.9533 C   0  0  0  0  0  0  0  0  0  0  0  0
   -7.9580    1.3497   -5.3235 C   0  0  0  0  0  0  0  0  0  0  0  0
   -9.0809    1.9547   -6.1111 C   0  0  0  0  0  0  0  0  0  0  0  0
   -7.9217    1.5095   -3.9291 C   0  0  0  0  0  0  0  0  0  0  0  0
   -6.9292    0.8744   -3.1749 C   0  0  0  0  0  0  0  0  0  0  0  0
   -5.4440   -1.2237   -1.7205 C   0  0  0  0  0  0  0  0  0  0  0  0
   -4.6790   -0.9708   -0.5688 C   0  0  0  0  0  0  0  0  0  0  0  0
   -5.0727   -1.4943    0.6671 C   0  0  0  0  0  0  0  0  0  0  0  0
   -6.2277   -2.2891    0.7647 C   0  0  0  0  0  0  0  0  0  0  0  0
   -6.6731   -2.8282    2.0890 C   0  0  0  0  0  0  0  0  0  0  0  0
   -6.9761   -2.5710   -0.3911 C   0  0  0  0  0  0  0  0  0  0  0  0
   -6.5989   -2.0204   -1.6205 C   0  0  0  0  0  0  0  0  0  0  0  0
   -3.6036   -2.5983   -3.7489 C   0  0  0  0  0  0  0  0  0  0  0  0
   -4.5719   -3.9533   -3.5883 S   0  0  0  0  0  0  0  0  0  0  0  0
   -2.3876    0.9345   -3.5730 C   0  0  0  0  0  0  0  0  0  0  0  0
   -1.1900    1.5538   -3.9380 C   0  0  0  0  0  0  0  0  0  0  0  0
   -0.8588    2.6502   -3.1276 C   0  0  0  0  0  0  0  0  0  0  0  0
    0.4247    3.2419   -3.0259 C   0  0  0  0  0  0  0  0  0  0  0  0
    1.4967    2.9743   -4.0082 C   0  0  0  0  0  0  0  0  0  0  0  0
    1.9251    4.0081   -4.8552 C   0  0  0  0  0  0  0  0  0  0  0  0
    2.8445    3.7472   -5.8747 C   0  0  0  0  0  0  0  0  0  0  0  0
    3.3641    2.4565   -6.0503 C   0  0  0  0  0  0  0  0  0  0  0  0
    4.2882    2.1626   -7.2049 C   0  0  0  0  0  0  0  0  0  0  0  0
    3.4972    1.8534   -8.4753 C   0  0  0  0  0  0  0  0  0  0  0  0
    2.9499    1.4253   -5.1932 C   0  0  0  0  0  0  0  0  0  0  0  0
    2.0307    1.6874   -4.1705 C   0  0  0  0  0  0  0  0  0  0  0  0
    0.6665    4.0251   -1.8863 C   0  0  0  0  0  0  0  0  0  0  0  0
   -0.3356    4.3230   -0.9589 C   0  0  0  0  0  0  0  0  0  0  0  0
   -1.6492    3.8396   -1.1282 C   0  0  0  0  0  0  0  0  0  0  0  0
   -2.6730    3.9727   -0.0741 C   0  0  0  0  0  0  0  0  0  0  0  0
   -2.5131    3.3062    1.1521 C   0  0  0  0  0  0  0  0  0  0  0  0
   -3.4828    3.4280    2.1460 C   0  0  0  0  0  0  0  0  0  0  0  0
   -4.6411    4.1861    1.9140 C   0  0  0  0  0  0  0  0  0  0  0  0
   -5.6646    4.3509    3.0079 C   0  0  0  0  0  0  0  0  0  0  0  0
   -5.3494    5.5749    3.8575 C   0  0  0  0  0  0  0  0  0  0  0  0
   -4.7998    4.8487    0.6873 C   0  0  0  0  0  0  0  0  0  0  0  0
   -3.8254    4.7319   -0.3105 C   0  0  0  0  0  0  0  0  0  0  0  0
   -1.8612    2.9616   -2.2024 C   0  0  0  0  0  0  0  0  0  0  0  0
   -3.1046    1.8379   -2.3438 S   0  0  0  0  0  0  0  0  0  0  0  0
    0.1621    4.8782    0.2213 C   0  0  0  0  0  0  0  0  0  0  0  0
    1.5558    4.8381    0.3246 C   0  0  0  0  0  0  0  0  0  0  0  0
    2.1578    4.3356   -1.1775 S   0  0  0  0  0  0  0  0  0  0  0  0
    2.2033    4.6223    1.6393 C   0  0  0  0  0  0  0  0  0  0  0  0
    3.3524    3.8446    1.9300 C   0  0  0  0  0  0  0  0  0  0  0  0
    4.4390    3.5492    1.0291 N   0  0  0  0  0  0  0  0  0  0  0  0
    5.7316    4.0500    1.4480 C   0  0  0  0  0  0  0  0  0  0  0  0
    6.8193    3.1759    1.6374 C   0  0  0  0  0  0  0  0  0  0  0  0
    7.9784    3.6136    2.2917 C   0  0  0  0  0  0  0  0  0  0  0  0
    8.0643    4.9255    2.7761 C   0  0  0  0  0  0  0  0  0  0  0  0
    9.2647    5.3574    3.5600 C   0  0  0  0  0  0  0  0  0  0  0  0
    7.0088    5.8189    2.5381 C   0  0  0  0  0  0  0  0  0  0  0  0
    5.8575    5.3854    1.8756 C   0  0  0  0  0  0  0  0  0  0  0  0
    4.3453    2.4507    0.0896 C   0  0  0  0  0  0  0  0  0  0  0  0
    5.1622    2.4314   -1.0544 C   0  0  0  0  0  0  0  0  0  0  0  0
    5.0964    1.3600   -1.9514 C   0  0  0  0  0  0  0  0  0  0  0  0
    4.2091    0.2988   -1.7253 C   0  0  0  0  0  0  0  0  0  0  0  0
    4.1744   -0.8781   -2.6539 C   0  0  0  0  0  0  0  0  0  0  0  0
    3.3883    0.3163   -0.5902 C   0  0  0  0  0  0  0  0  0  0  0  0
    3.4521    1.3829    0.3076 C   0  0  0  0  0  0  0  0  0  0  0  0
    3.3600    3.4040    3.2535 C   0  0  0  0  0  0  0  0  0  0  0  0
    4.2203    2.2109    4.0624 S   0  0  0  0  0  0  0  0  0  0  0  0
    3.1409    2.1616    5.3852 C   0  0  0  0  0  0  0  0  0  0  0  0
    2.1470    3.1256    5.2019 C   0  0  0  0  0  0  0  0  0  0  0  0
    1.0276    3.3226    6.0750 N   0  0  0  0  0  0  0  0  0  0  0  0
    1.0640    4.4775    6.9413 C   0  0  0  0  0  0  0  0  0  0  0  0
    2.2214    4.7705    7.6812 C   0  0  0  0  0  0  0  0  0  0  0  0
    2.2845    5.9179    8.4723 C   0  0  0  0  0  0  0  0  0  0  0  0
    1.1984    6.7988    8.5256 C   0  0  0  0  0  0  0  0  0  0  0  0
    1.2701    8.0206    9.3906 C   0  0  0  0  0  0  0  0  0  0  0  0
    0.0341    6.5036    7.8004 C   0  0  0  0  0  0  0  0  0  0  0  0
   -0.0299    5.3547    7.0081 C   0  0  0  0  0  0  0  0  0  0  0  0
   -0.1507    2.4915    5.9589 C   0  0  0  0  0  0  0  0  0  0  0  0
   -0.9914    2.2868    7.0655 C   0  0  0  0  0  0  0  0  0  0  0  0
   -2.1713    1.5465    6.9390 C   0  0  0  0  0  0  0  0  0  0  0  0
   -2.5271    0.9850    5.7065 C   0  0  0  0  0  0  0  0  0  0  0  0
   -3.8402    0.2770    5.5475 C   0  0  0  0  0  0  0  0  0  0  0  0
   -1.6766    1.1569    4.6033 C   0  0  0  0  0  0  0  0  0  0  0  0
   -0.4988    1.8943    4.7279 C   0  0  0  0  0  0  0  0  0  0  0  0
    2.3036    3.7929    3.9984 C   0  0  0  0  0  0  0  0  0  0  0  0
    1.2881    4.7350    3.0843 S   0  0  0  0  0  0  0  0  0  0  0  0
    3.2155    1.2533    6.5417 C   0  0  0  0  0  0  0  0  0  0  0  0
    3.2991   -0.0883    6.4528 C   0  0  0  0  0  0  0  0  0  0  0  0
    3.1417   -0.9036    5.2338 C   0  0  0  0  0  0  0  0  0  0  0  0
    3.1019   -0.4792    4.0532 O   0  0  0  0  0  0  0  0  0  0  0  0
    2.9619   -2.2908    5.6278 C   0  0  0  0  0  0  0  0  0  0  0  0
    2.6546   -3.3992    4.8252 C   0  0  0  0  0  0  0  0  0  0  0  0
    2.5883   -3.2404    3.0644 Cl  0  0  0  0  0  0  0  0  0  0  0  0
    2.3463   -4.6179    5.4511 C   0  0  0  0  0  0  0  0  0  0  0  0
    1.9566   -6.0363    4.4769 Cl  0  0  0  0  0  0  0  0  0  0  0  0
    2.2832   -4.6956    6.8644 C   0  0  0  0  0  0  0  0  0  0  0  0
    1.7831   -6.1997    7.6383 Cl  0  0  0  0  0  0  0  0  0  0  0  0
    2.5680   -3.5559    7.6547 C   0  0  0  0  0  0  0  0  0  0  0  0
    2.1746   -3.5810    9.3747 Cl  0  0  0  0  0  0  0  0  0  0  0  0
    3.0071   -2.3806    7.0085 C   0  0  0  0  0  0  0  0  0  0  0  0
    3.3635   -1.0509    7.5893 C   0  0  0  0  0  0  0  0  0  0  0  0
    4.0591   -0.8549    8.7382 C   0  0  0  0  0  0  0  0  0  0  0  0
    4.7330   -1.9429    9.3979 C   0  0  0  0  0  0  0  0  0  0  0  0
    5.2973   -2.8090    9.9122 N   0  0  0  0  0  0  0  0  0  0  0  0
    4.4148    0.4573    9.2237 C   0  0  0  0  0  0  0  0  0  0  0  0
    4.6936    1.5051    9.6307 N   0  0  0  0  0  0  0  0  0  0  0  0
   -4.1731   -6.9113   -3.1591 H   0  0  0  0  0  0  0  0  0  0  0  0
   -1.2035  -11.1874   -4.2864 H   0  0  0  0  0  0  0  0  0  0  0  0
    0.5467   -7.5884   -7.2400 H   0  0  0  0  0  0  0  0  0  0  0  0
   -0.6947   -3.9505   -6.4371 H   0  0  0  0  0  0  0  0  0  0  0  0
    1.2074   -2.9099   -7.5742 H   0  0  0  0  0  0  0  0  0  0  0  0
    4.1696   -3.2297   -7.3036 H   0  0  0  0  0  0  0  0  0  0  0  0
    4.5045   -2.1724   -5.8777 H   0  0  0  0  0  0  0  0  0  0  0  0
    3.3947   -1.5980   -7.1777 H   0  0  0  0  0  0  0  0  0  0  0  0
    3.6300   -3.5142   -4.0654 H   0  0  0  0  0  0  0  0  0  0  0  0
    1.7194   -4.5383   -2.9183 H   0  0  0  0  0  0  0  0  0  0  0  0
    0.8962   -7.0421   -4.2218 H   0  0  0  0  0  0  0  0  0  0  0  0
    1.0706   -9.0085   -2.7700 H   0  0  0  0  0  0  0  0  0  0  0  0
   -1.2718   -9.7118    0.0175 H   0  0  0  0  0  0  0  0  0  0  0  0
    0.4665   -9.3527    0.3563 H   0  0  0  0  0  0  0  0  0  0  0  0
    0.0024  -10.3980   -1.0410 H   0  0  0  0  0  0  0  0  0  0  0  0
   -1.7122   -7.2286   -0.0091 H   0  0  0  0  0  0  0  0  0  0  0  0
   -1.8883   -5.2516   -1.4519 H   0  0  0  0  0  0  0  0  0  0  0  0
   -5.2618   -0.6828   -5.7117 H   0  0  0  0  0  0  0  0  0  0  0  0
   -6.9959    0.4344   -7.0282 H   0  0  0  0  0  0  0  0  0  0  0  0
   -8.8270    2.0202   -7.1887 H   0  0  0  0  0  0  0  0  0  0  0  0
   -9.3020    2.9819   -5.7487 H   0  0  0  0  0  0  0  0  0  0  0  0
   -9.9894    1.3303   -5.9945 H   0  0  0  0  0  0  0  0  0  0  0  0
   -8.6676    2.1094   -3.4251 H   0  0  0  0  0  0  0  0  0  0  0  0
   -6.9263    1.0025   -2.0977 H   0  0  0  0  0  0  0  0  0  0  0  0
   -3.7720   -0.3809   -0.6321 H   0  0  0  0  0  0  0  0  0  0  0  0
   -4.4808   -1.2710    1.5473 H   0  0  0  0  0  0  0  0  0  0  0  0
   -6.7427   -3.9355    2.0321 H   0  0  0  0  0  0  0  0  0  0  0  0
   -7.6720   -2.4111    2.3465 H   0  0  0  0  0  0  0  0  0  0  0  0
   -5.9570   -2.5618    2.8988 H   0  0  0  0  0  0  0  0  0  0  0  0
   -7.8554   -3.2042   -0.3320 H   0  0  0  0  0  0  0  0  0  0  0  0
   -7.1784   -2.2575   -2.5106 H   0  0  0  0  0  0  0  0  0  0  0  0
   -0.5129    1.1200   -4.6546 H   0  0  0  0  0  0  0  0  0  0  0  0
    1.5167    5.0025   -4.7506 H   0  0  0  0  0  0  0  0  0  0  0  0
    3.1334    4.5501   -6.5444 H   0  0  0  0  0  0  0  0  0  0  0  0
    4.9429    1.2991   -6.9634 H   0  0  0  0  0  0  0  0  0  0  0  0
    4.9477    3.0371   -7.3911 H   0  0  0  0  0  0  0  0  0  0  0  0
    4.1995    1.6275   -9.3049 H   0  0  0  0  0  0  0  0  0  0  0  0
    2.8358    0.9728   -8.3170 H   0  0  0  0  0  0  0  0  0  0  0  0
    2.8773    2.7292   -8.7683 H   0  0  0  0  0  0  0  0  0  0  0  0
    3.3234    0.4196   -5.3288 H   0  0  0  0  0  0  0  0  0  0  0  0
    1.7101    0.8809   -3.5260 H   0  0  0  0  0  0  0  0  0  0  0  0
   -1.6271    2.7105    1.3410 H   0  0  0  0  0  0  0  0  0  0  0  0
   -3.3383    2.9301    3.0930 H   0  0  0  0  0  0  0  0  0  0  0  0
   -6.6786    4.4552    2.5690 H   0  0  0  0  0  0  0  0  0  0  0  0
   -5.6783    3.4459    3.6577 H   0  0  0  0  0  0  0  0  0  0  0  0
   -5.4212    6.4980    3.2435 H   0  0  0  0  0  0  0  0  0  0  0  0
   -4.3273    5.4931    4.2824 H   0  0  0  0  0  0  0  0  0  0  0  0
   -6.0802    5.6442    4.6904 H   0  0  0  0  0  0  0  0  0  0  0  0
   -5.6732    5.4590    0.5050 H   0  0  0  0  0  0  0  0  0  0  0  0
   -3.9608    5.2508   -1.2496 H   0  0  0  0  0  0  0  0  0  0  0  0
   -0.4805    5.1058    1.0577 H   0  0  0  0  0  0  0  0  0  0  0  0
    6.7486    2.1400    1.3452 H   0  0  0  0  0  0  0  0  0  0  0  0
    8.7904    2.9136    2.4609 H   0  0  0  0  0  0  0  0  0  0  0  0
   10.1354    5.4823    2.8902 H   0  0  0  0  0  0  0  0  0  0  0  0
    9.0812    6.3154    4.0930 H   0  0  0  0  0  0  0  0  0  0  0  0
    9.5060    4.5873    4.3292 H   0  0  0  0  0  0  0  0  0  0  0  0
    7.0640    6.8413    2.8931 H   0  0  0  0  0  0  0  0  0  0  0  0
    5.0347    6.0741    1.7474 H   0  0  0  0  0  0  0  0  0  0  0  0
    5.8491    3.2446   -1.2481 H   0  0  0  0  0  0  0  0  0  0  0  0
    5.7419    1.3628   -2.8218 H   0  0  0  0  0  0  0  0  0  0  0  0
    3.1259   -1.1316   -2.9094 H   0  0  0  0  0  0  0  0  0  0  0  0
    4.7188   -0.6617   -3.5982 H   0  0  0  0  0  0  0  0  0  0  0  0
    4.6520   -1.7551   -2.1687 H   0  0  0  0  0  0  0  0  0  0  0  0
    2.7047   -0.4982   -0.3951 H   0  0  0  0  0  0  0  0  0  0  0  0
    2.8126    1.3663    1.1805 H   0  0  0  0  0  0  0  0  0  0  0  0
    3.0787    4.1129    7.6436 H   0  0  0  0  0  0  0  0  0  0  0  0
    3.1833    6.1219    9.0423 H   0  0  0  0  0  0  0  0  0  0  0  0
    0.5845    8.8142    9.0240 H   0  0  0  0  0  0  0  0  0  0  0  0
    0.9895    7.7518   10.4268 H   0  0  0  0  0  0  0  0  0  0  0  0
    2.3012    8.4389    9.3918 H   0  0  0  0  0  0  0  0  0  0  0  0
   -0.8189    7.1679    7.8355 H   0  0  0  0  0  0  0  0  0  0  0  0
   -0.9212    5.1585    6.4247 H   0  0  0  0  0  0  0  0  0  0  0  0
   -0.7380    2.7065    8.0309 H   0  0  0  0  0  0  0  0  0  0  0  0
   -2.8156    1.4261    7.8025 H   0  0  0  0  0  0  0  0  0  0  0  0
   -3.7825   -0.4873    4.7418 H   0  0  0  0  0  0  0  0  0  0  0  0
   -4.1229   -0.2344    6.4931 H   0  0  0  0  0  0  0  0  0  0  0  0
   -4.6254    1.0190    5.2893 H   0  0  0  0  0  0  0  0  0  0  0  0
   -1.9438    0.7423    3.6397 H   0  0  0  0  0  0  0  0  0  0  0  0
    0.1223    2.0231    3.8507 H   0  0  0  0  0  0  0  0  0  0  0  0
    3.0707    1.7113    7.5040 H   0  0  0  0  0  0  0  0  0  0  0  0
  1  2  2  3
  2  3  1  0
  3  4  2  0
  3  5  1  0
  5  6  2  0
  6  7  1  0
  7  8  1  0
  7  9  2  0
  9 10  1  0
  9 11  1  0
 11 12  2  0
 12 13  1  0
 13 14  2  3
 14 15  1  0
 15 16  3  0
 14 17  1  0
 17 18  3  0
  1 19  1  0
 19 20  2  0
 20 21  1  0
 21 22  1  0
 22 23  2  0
 23 24  1  0
 24 25  2  0
 25 26  1  0
 25 27  1  0
 27 28  2  0
 21 29  1  0
 29 30  2  0
 30 31  1  0
 31 32  2  0
 32 33  1  0
 32 34  1  0
 34 35  2  0
 20 36  1  0
 36 37  1  0
 37 38  1  0
 38 39  2  0
 39 40  1  0
 40 41  1  0
 41 42  2  0
 42 43  1  0
 43 44  2  0
 44 45  1  0
 44 46  1  0
 46 47  2  0
 40 48  1  0
 48 49  2  0
 49 50  1  0
 50 51  2  0
 51 52  1  0
 51 53  1  0
 53 54  2  0
 39 55  1  0
 55 56  1  0
 38 57  1  0
 57 58  2  0
 58 59  1  0
 59 60  2  0
 60 61  1  0
 61 62  2  0
 62 63  1  0
 63 64  2  0
 64 65  1  0
 65 66  1  0
 64 67  1  0
 67 68  2  0
 60 69  1  0
 69 70  2  0
 70 71  1  0
 71 72  1  0
 72 73  2  0
 73 74  1  0
 74 75  2  0
 75 76  1  0
 76 77  1  0
 75 78  1  0
 78 79  2  0
 71 80  2  0
 80 81  1  0
 70 82  1  0
 82 83  2  0
 83 84  1  0
 83 85  1  0
 85 86  2  0
 86 87  1  0
 87 88  1  0
 88 89  2  0
 89 90  1  0
 90 91  2  0
 91 92  1  0
 91 93  1  0
 93 94  2  0
 87 95  1  0
 95 96  2  0
 96 97  1  0
 97 98  2  0
 98 99  1  0
 98100  1  0
100101  2  0
 86102  1  0
102103  1  0
103104  1  0
104105  2  0
105106  1  0
106107  1  0
107108  2  0
108109  1  0
109110  2  0
110111  1  0
110112  1  0
112113  2  0
106114  1  0
114115  2  0
115116  1  0
116117  2  0
117118  1  0
117119  1  0
119120  2  0
105121  1  0
121122  1  0
104123  1  0
123124  2  3
124125  1  0
125126  2  0
125127  1  0
127128  2  0
128129  1  0
128130  1  0
130131  1  0
130132  2  0
132133  1  0
132134  1  0
134135  1  0
134136  2  0
136137  1  0
137138  2  3
138139  1  0
139140  3  0
138141  1  0
141142  3  0
 13  2  1  0
 56 19  1  0
 81 57  1  0
122 85  1  0
137124  1  0
 12  5  1  0
 28 22  1  0
 35 29  1  0
 55 36  2  0
 80 59  1  0
 94 88  1  0
101 95  1  0
121102  2  0
136127  1  0
 47 41  1  0
 54 48  1  0
 68 61  1  0
 84 69  1  0
113107  1  0
120114  1  0
 79 72  1  0
  1143  1  0
  6144  1  0
 11145  1  0
 23146  1  0
 24147  1  0
 26148  1  0
 26149  1  0
 26150  1  0
 27151  1  0
 28152  1  0
 30153  1  0
 31154  1  0
 33155  1  0
 33156  1  0
 33157  1  0
 34158  1  0
 35159  1  0
 42160  1  0
 43161  1  0
 45162  1  0
 45163  1  0
 45164  1  0
 46165  1  0
 47166  1  0
 49167  1  0
 50168  1  0
 52169  1  0
 52170  1  0
 52171  1  0
 53172  1  0
 54173  1  0
 58174  1  0
 62175  1  0
 63176  1  0
 65177  1  0
 65178  1  0
 66179  1  0
 66180  1  0
 66181  1  0
 67182  1  0
 68183  1  0
 73184  1  0
 74185  1  0
 76186  1  0
 76187  1  0
 77188  1  0
 77189  1  0
 77190  1  0
 78191  1  0
 79192  1  0
 82193  1  0
 89194  1  0
 90195  1  0
 92196  1  0
 92197  1  0
 92198  1  0
 93199  1  0
 94200  1  0
 96201  1  0
 97202  1  0
 99203  1  0
 99204  1  0
 99205  1  0
100206  1  0
101207  1  0
108208  1  0
109209  1  0
111210  1  0
111211  1  0
111212  1  0
112213  1  0
113214  1  0
115215  1  0
116216  1  0
118217  1  0
118218  1  0
118219  1  0
119220  1  0
120221  1  0
123222  1  0
M  END

