
     RDKit          3D

188205  0  0  0  0  0  0  0  0999 V2000
   -2.1145   -7.3629    1.6382 C   0  0  0  0  0  0  0  0  0  0  0  0
   -1.5942   -8.4084    0.9758 C   0  0  0  0  0  0  0  0  0  0  0  0
   -2.0763   -9.7786    1.1213 C   0  0  0  0  0  0  0  0  0  0  0  0
   -2.8109  -10.2121    2.0493 O   0  0  0  0  0  0  0  0  0  0  0  0
   -1.6501  -10.5265   -0.0474 C   0  0  0  0  0  0  0  0  0  0  0  0
   -1.9268  -11.8518   -0.3771 C   0  0  0  0  0  0  0  0  0  0  0  0
   -1.4318  -12.3599   -1.5865 C   0  0  0  0  0  0  0  0  0  0  0  0
   -1.7388  -14.0367   -2.0147 Cl  0  0  0  0  0  0  0  0  0  0  0  0
   -0.6940  -11.5278   -2.4513 C   0  0  0  0  0  0  0  0  0  0  0  0
   -0.2364  -12.0079   -3.6336 F   0  0  0  0  0  0  0  0  0  0  0  0
   -0.4228  -10.1946   -2.1033 C   0  0  0  0  0  0  0  0  0  0  0  0
   -0.9058   -9.7034   -0.8794 C   0  0  0  0  0  0  0  0  0  0  0  0
   -0.7125   -8.3797   -0.2257 C   0  0  0  0  0  0  0  0  0  0  0  0
    0.3962   -7.6149   -0.3476 C   0  0  0  0  0  0  0  0  0  0  0  0
    0.9068   -6.8951    0.7848 C   0  0  0  0  0  0  0  0  0  0  0  0
    1.3262   -6.3381    1.7066 N   0  0  0  0  0  0  0  0  0  0  0  0
    1.2575   -7.6632   -1.4990 C   0  0  0  0  0  0  0  0  0  0  0  0
    1.9511   -7.6934   -2.4287 N   0  0  0  0  0  0  0  0  0  0  0  0
   -2.1456   -5.9950    1.0796 C   0  0  0  0  0  0  0  0  0  0  0  0
   -1.8207   -4.7741    1.7292 C   0  0  0  0  0  0  0  0  0  0  0  0
   -1.3236   -4.6367    3.0843 N   0  0  0  0  0  0  0  0  0  0  0  0
   -0.5741   -3.4771    3.4841 C   0  0  0  0  0  0  0  0  0  0  0  0
   -1.0939   -2.5861    4.4350 C   0  0  0  0  0  0  0  0  0  0  0  0
   -0.4282   -1.3887    4.7182 C   0  0  0  0  0  0  0  0  0  0  0  0
    0.7792   -1.0833    4.0719 C   0  0  0  0  0  0  0  0  0  0  0  0
    1.4825    0.2189    4.3231 C   0  0  0  0  0  0  0  0  0  0  0  0
    1.3369   -2.0112    3.1810 C   0  0  0  0  0  0  0  0  0  0  0  0
    0.6560   -3.1880    2.8778 C   0  0  0  0  0  0  0  0  0  0  0  0
   -1.7024   -5.5843    4.0950 C   0  0  0  0  0  0  0  0  0  0  0  0
   -3.0504   -5.7412    4.4563 C   0  0  0  0  0  0  0  0  0  0  0  0
   -3.4205   -6.7261    5.3788 C   0  0  0  0  0  0  0  0  0  0  0  0
   -2.4520   -7.5707    5.9321 C   0  0  0  0  0  0  0  0  0  0  0  0
   -2.8499   -8.6916    6.8446 C   0  0  0  0  0  0  0  0  0  0  0  0
   -1.1034   -7.4033    5.5796 C   0  0  0  0  0  0  0  0  0  0  0  0
   -0.7314   -6.4048    4.6747 C   0  0  0  0  0  0  0  0  0  0  0  0
   -2.0618   -3.6966    0.8639 C   0  0  0  0  0  0  0  0  0  0  0  0
   -1.8839   -2.0336    0.9536 S   0  0  0  0  0  0  0  0  0  0  0  0
   -2.4988   -1.7228   -0.6137 C   0  0  0  0  0  0  0  0  0  0  0  0
   -2.8601   -2.9472   -1.2062 C   0  0  0  0  0  0  0  0  0  0  0  0
   -3.7507   -3.0653   -2.3258 N   0  0  0  0  0  0  0  0  0  0  0  0
   -5.1670   -3.2394   -2.0698 C   0  0  0  0  0  0  0  0  0  0  0  0
   -5.9668   -4.0167   -2.9298 C   0  0  0  0  0  0  0  0  0  0  0  0
   -7.3233   -4.2137   -2.6563 C   0  0  0  0  0  0  0  0  0  0  0  0
   -7.8996   -3.6643   -1.5040 C   0  0  0  0  0  0  0  0  0  0  0  0
   -9.3573   -3.8690   -1.2269 C   0  0  0  0  0  0  0  0  0  0  0  0
   -7.1138   -2.8820   -0.6492 C   0  0  0  0  0  0  0  0  0  0  0  0
   -5.7617   -2.6726   -0.9259 C   0  0  0  0  0  0  0  0  0  0  0  0
   -3.2216   -3.0678   -3.6672 C   0  0  0  0  0  0  0  0  0  0  0  0
   -3.8560   -2.3201   -4.6723 C   0  0  0  0  0  0  0  0  0  0  0  0
   -3.3022   -2.2371   -5.9520 C   0  0  0  0  0  0  0  0  0  0  0  0
   -2.1079   -2.9082   -6.2458 C   0  0  0  0  0  0  0  0  0  0  0  0
   -1.4711   -2.7654   -7.5940 C   0  0  0  0  0  0  0  0  0  0  0  0
   -1.4695   -3.6527   -5.2444 C   0  0  0  0  0  0  0  0  0  0  0  0
   -2.0241   -3.7383   -3.9676 C   0  0  0  0  0  0  0  0  0  0  0  0
   -2.5871   -4.0135   -0.3489 C   0  0  0  0  0  0  0  0  0  0  0  0
   -2.7776   -5.6682   -0.4708 S   0  0  0  0  0  0  0  0  0  0  0  0
   -2.4248   -0.3860   -1.2507 C   0  0  0  0  0  0  0  0  0  0  0  0
   -1.8397   -0.2411   -2.5226 C   0  0  0  0  0  0  0  0  0  0  0  0
   -1.2994    0.9862   -2.9235 C   0  0  0  0  0  0  0  0  0  0  0  0
   -1.2292    2.0557   -2.0215 C   0  0  0  0  0  0  0  0  0  0  0  0
   -2.0300    1.9926   -0.8567 C   0  0  0  0  0  0  0  0  0  0  0  0
   -2.1783    3.0711   -0.0358 N   0  0  0  0  0  0  0  0  0  0  0  0
   -2.9138    3.0130    1.1013 C   0  0  0  0  0  0  0  0  0  0  0  0
   -3.5221    1.8124    1.4616 C   0  0  0  0  0  0  0  0  0  0  0  0
   -3.3593    0.7153    0.6754 N   0  0  0  0  0  0  0  0  0  0  0  0
   -2.6355    0.7709   -0.4783 C   0  0  0  0  0  0  0  0  0  0  0  0
   -0.0983    3.0267   -2.1185 C   0  0  0  0  0  0  0  0  0  0  0  0
    1.2625    2.6656   -2.2960 C   0  0  0  0  0  0  0  0  0  0  0  0
    1.7550    1.4855   -2.9658 N   0  0  0  0  0  0  0  0  0  0  0  0
    2.7035    1.6811   -4.0324 C   0  0  0  0  0  0  0  0  0  0  0  0
    2.4662    2.6567   -5.0117 C   0  0  0  0  0  0  0  0  0  0  0  0
    3.4367    2.9370   -5.9779 C   0  0  0  0  0  0  0  0  0  0  0  0
    4.6589    2.2447   -5.9737 C   0  0  0  0  0  0  0  0  0  0  0  0
    5.7023    2.5465   -7.0049 C   0  0  0  0  0  0  0  0  0  0  0  0
    4.8799    1.2428   -5.0230 C   0  0  0  0  0  0  0  0  0  0  0  0
    3.9148    0.9697   -4.0533 C   0  0  0  0  0  0  0  0  0  0  0  0
    1.5115    0.1500   -2.4690 C   0  0  0  0  0  0  0  0  0  0  0  0
    1.4021   -0.9231   -3.3718 C   0  0  0  0  0  0  0  0  0  0  0  0
    1.2062   -2.2199   -2.9072 C   0  0  0  0  0  0  0  0  0  0  0  0
    1.1012   -2.4706   -1.5343 C   0  0  0  0  0  0  0  0  0  0  0  0
    0.9548   -3.8745   -1.0396 C   0  0  0  0  0  0  0  0  0  0  0  0
    1.2112   -1.4046   -0.6282 C   0  0  0  0  0  0  0  0  0  0  0  0
    1.4020   -0.1034   -1.0910 C   0  0  0  0  0  0  0  0  0  0  0  0
    2.1233    3.6551   -1.8305 C   0  0  0  0  0  0  0  0  0  0  0  0
    3.7497    3.6210   -1.4469 S   0  0  0  0  0  0  0  0  0  0  0  0
    3.7003    5.0747   -0.5662 C   0  0  0  0  0  0  0  0  0  0  0  0
    2.4054    5.6613   -0.6735 C   0  0  0  0  0  0  0  0  0  0  0  0
    2.0264    7.0060   -0.2723 N   0  0  0  0  0  0  0  0  0  0  0  0
    0.8539    7.6014   -0.8478 C   0  0  0  0  0  0  0  0  0  0  0  0
    0.8645    7.9916   -2.1932 C   0  0  0  0  0  0  0  0  0  0  0  0
   -0.2299    8.6650   -2.7386 C   0  0  0  0  0  0  0  0  0  0  0  0
   -1.3421    8.9668   -1.9381 C   0  0  0  0  0  0  0  0  0  0  0  0
   -2.4995    9.7090   -2.5401 C   0  0  0  0  0  0  0  0  0  0  0  0
   -1.3607    8.5548   -0.5992 C   0  0  0  0  0  0  0  0  0  0  0  0
   -0.2608    7.8904   -0.0458 C   0  0  0  0  0  0  0  0  0  0  0  0
    2.9742    7.9432    0.2572 C   0  0  0  0  0  0  0  0  0  0  0  0
    4.0814    8.3468   -0.5078 C   0  0  0  0  0  0  0  0  0  0  0  0
    4.9962    9.2669    0.0099 C   0  0  0  0  0  0  0  0  0  0  0  0
    4.7893    9.8296    1.2748 C   0  0  0  0  0  0  0  0  0  0  0  0
    5.7863   10.8039    1.8221 C   0  0  0  0  0  0  0  0  0  0  0  0
    3.6369    9.4914    2.0055 C   0  0  0  0  0  0  0  0  0  0  0  0
    2.7357    8.5527    1.4986 C   0  0  0  0  0  0  0  0  0  0  0  0
    1.5450    4.7759   -1.3418 C   0  0  0  0  0  0  0  0  0  0  0  0
   -0.1237    4.6068   -1.4466 S   0  0  0  0  0  0  0  0  0  0  0  0
    4.8919    5.5350    0.1631 C   0  0  0  0  0  0  0  0  0  0  0  0
    4.9895    5.7966    1.4804 C   0  0  0  0  0  0  0  0  0  0  0  0
    6.1521    6.5112    2.0173 C   0  0  0  0  0  0  0  0  0  0  0  0
    7.2538    6.6891    1.4274 O   0  0  0  0  0  0  0  0  0  0  0  0
    5.8006    7.0729    3.3000 C   0  0  0  0  0  0  0  0  0  0  0  0
    6.4905    8.0249    4.0406 C   0  0  0  0  0  0  0  0  0  0  0  0
    5.8478    8.6020    5.1494 C   0  0  0  0  0  0  0  0  0  0  0  0
    6.6658    9.8456    6.0708 Cl  0  0  0  0  0  0  0  0  0  0  0  0
    4.5292    8.2317    5.4809 C   0  0  0  0  0  0  0  0  0  0  0  0
    3.8878    8.8221    6.5209 F   0  0  0  0  0  0  0  0  0  0  0  0
    3.8535    7.2725    4.7112 C   0  0  0  0  0  0  0  0  0  0  0  0
    4.5163    6.6806    3.6248 C   0  0  0  0  0  0  0  0  0  0  0  0
    3.9938    5.7335    2.6009 C   0  0  0  0  0  0  0  0  0  0  0  0
    3.0741    4.7644    2.8585 C   0  0  0  0  0  0  0  0  0  0  0  0
    2.5313    4.5830    4.1818 C   0  0  0  0  0  0  0  0  0  0  0  0
    2.1186    4.4177    5.2478 N   0  0  0  0  0  0  0  0  0  0  0  0
    2.7499    3.7031    1.9493 C   0  0  0  0  0  0  0  0  0  0  0  0
    2.4432    2.8214    1.2574 N   0  0  0  0  0  0  0  0  0  0  0  0
   -2.7700   -7.5606    2.4707 H   0  0  0  0  0  0  0  0  0  0  0  0
   -2.5132  -12.4671    0.2858 H   0  0  0  0  0  0  0  0  0  0  0  0
    0.1204   -9.5719   -2.7909 H   0  0  0  0  0  0  0  0  0  0  0  0
   -2.0394   -2.7987    4.9188 H   0  0  0  0  0  0  0  0  0  0  0  0
   -0.8643   -0.6960    5.4274 H   0  0  0  0  0  0  0  0  0  0  0  0
    0.8151    0.9443    4.8396 H   0  0  0  0  0  0  0  0  0  0  0  0
    1.7986    0.6685    3.3564 H   0  0  0  0  0  0  0  0  0  0  0  0
    2.3850    0.0414    4.9507 H   0  0  0  0  0  0  0  0  0  0  0  0
    2.2885   -1.8080    2.7044 H   0  0  0  0  0  0  0  0  0  0  0  0
    1.0807   -3.8674    2.1603 H   0  0  0  0  0  0  0  0  0  0  0  0
   -3.8123   -5.1208    4.0019 H   0  0  0  0  0  0  0  0  0  0  0  0
   -4.4713   -6.8567    5.6226 H   0  0  0  0  0  0  0  0  0  0  0  0
   -3.8291   -8.4863    7.3263 H   0  0  0  0  0  0  0  0  0  0  0  0
   -2.0958   -8.8327    7.6496 H   0  0  0  0  0  0  0  0  0  0  0  0
   -2.9294   -9.6309    6.2584 H   0  0  0  0  0  0  0  0  0  0  0  0
   -0.3444   -8.0533    5.9928 H   0  0  0  0  0  0  0  0  0  0  0  0
    0.3115   -6.2872    4.3992 H   0  0  0  0  0  0  0  0  0  0  0  0
   -5.5394   -4.4842   -3.8068 H   0  0  0  0  0  0  0  0  0  0  0  0
   -7.9245   -4.8041   -3.3397 H   0  0  0  0  0  0  0  0  0  0  0  0
   -9.9549   -3.1537   -1.8297 H   0  0  0  0  0  0  0  0  0  0  0  0
   -9.6503   -4.9068   -1.4901 H   0  0  0  0  0  0  0  0  0  0  0  0
   -9.5842   -3.7144   -0.1494 H   0  0  0  0  0  0  0  0  0  0  0  0
   -7.5452   -2.4247    0.2327 H   0  0  0  0  0  0  0  0  0  0  0  0
   -5.1835   -2.0645   -0.2440 H   0  0  0  0  0  0  0  0  0  0  0  0
   -4.7608   -1.7776   -4.4511 H   0  0  0  0  0  0  0  0  0  0  0  0
   -3.7994   -1.6350   -6.7028 H   0  0  0  0  0  0  0  0  0  0  0  0
   -2.2240   -2.5056   -8.3650 H   0  0  0  0  0  0  0  0  0  0  0  0
   -0.7029   -1.9667   -7.5560 H   0  0  0  0  0  0  0  0  0  0  0  0
   -0.9861   -3.7194   -7.8972 H   0  0  0  0  0  0  0  0  0  0  0  0
   -0.5343   -4.1604   -5.4483 H   0  0  0  0  0  0  0  0  0  0  0  0
   -1.5158   -4.3179   -3.2043 H   0  0  0  0  0  0  0  0  0  0  0  0
   -1.6332   -1.0994   -3.1339 H   0  0  0  0  0  0  0  0  0  0  0  0
   -0.7613    1.0330   -3.8587 H   0  0  0  0  0  0  0  0  0  0  0  0
   -3.0284    3.8948    1.7142 H   0  0  0  0  0  0  0  0  0  0  0  0
   -4.1217    1.7504    2.3583 H   0  0  0  0  0  0  0  0  0  0  0  0
    1.5376    3.2174   -5.0096 H   0  0  0  0  0  0  0  0  0  0  0  0
    3.2392    3.7006   -6.7202 H   0  0  0  0  0  0  0  0  0  0  0  0
    6.7101    2.2764   -6.6236 H   0  0  0  0  0  0  0  0  0  0  0  0
    5.4997    1.9638   -7.9290 H   0  0  0  0  0  0  0  0  0  0  0  0
    5.7095    3.6316   -7.2419 H   0  0  0  0  0  0  0  0  0  0  0  0
    5.8092    0.6865   -5.0169 H   0  0  0  0  0  0  0  0  0  0  0  0
    4.1298    0.2274   -3.2929 H   0  0  0  0  0  0  0  0  0  0  0  0
    1.4569   -0.7489   -4.4409 H   0  0  0  0  0  0  0  0  0  0  0  0
    1.1351   -3.0341   -3.6153 H   0  0  0  0  0  0  0  0  0  0  0  0
    1.9556   -4.3458   -0.9725 H   0  0  0  0  0  0  0  0  0  0  0  0
    0.3220   -4.4685   -1.7296 H   0  0  0  0  0  0  0  0  0  0  0  0
    0.4862   -3.8908   -0.0387 H   0  0  0  0  0  0  0  0  0  0  0  0
    1.1498   -1.5810    0.4361 H   0  0  0  0  0  0  0  0  0  0  0  0
    1.4870    0.7061   -0.3766 H   0  0  0  0  0  0  0  0  0  0  0  0
    1.7305    7.7808   -2.8070 H   0  0  0  0  0  0  0  0  0  0  0  0
   -0.1924    8.9825   -3.7720 H   0  0  0  0  0  0  0  0  0  0  0  0
   -3.2937    9.9023   -1.7871 H   0  0  0  0  0  0  0  0  0  0  0  0
   -2.1538   10.6849   -2.9423 H   0  0  0  0  0  0  0  0  0  0  0  0
   -2.9352    9.1126   -3.3690 H   0  0  0  0  0  0  0  0  0  0  0  0
   -2.2140    8.7705    0.0304 H   0  0  0  0  0  0  0  0  0  0  0  0
   -0.2755    7.5971    0.9951 H   0  0  0  0  0  0  0  0  0  0  0  0
    4.2459    7.9221   -1.4898 H   0  0  0  0  0  0  0  0  0  0  0  0
    5.8645    9.5394   -0.5753 H   0  0  0  0  0  0  0  0  0  0  0  0
    5.7804   11.7264    1.2029 H   0  0  0  0  0  0  0  0  0  0  0  0
    6.8047   10.3569    1.7911 H   0  0  0  0  0  0  0  0  0  0  0  0
    5.5596   11.0788    2.8775 H   0  0  0  0  0  0  0  0  0  0  0  0
    3.4427    9.9421    2.9691 H   0  0  0  0  0  0  0  0  0  0  0  0
    1.8639    8.2830    2.0768 H   0  0  0  0  0  0  0  0  0  0  0  0
    5.7749    5.6692   -0.4504 H   0  0  0  0  0  0  0  0  0  0  0  0
    7.4783    8.3446    3.7331 H   0  0  0  0  0  0  0  0  0  0  0  0
    2.8202    7.0506    4.9271 H   0  0  0  0  0  0  0  0  0  0  0  0
  1  2  2  3
  2  3  1  0
  3  4  2  0
  3  5  1  0
  5  6  2  0
  6  7  1  0
  7  8  1  0
  7  9  2  0
  9 10  1  0
  9 11  1  0
 11 12  2  0
 12 13  1  0
 13 14  2  3
 14 15  1  0
 15 16  3  0
 14 17  1  0
 17 18  3  0
  1 19  1  0
 19 20  2  0
 20 21  1  0
 21 22  1  0
 22 23  2  0
 23 24  1  0
 24 25  2  0
 25 26  1  0
 25 27  1  0
 27 28  2  0
 21 29  1  0
 29 30  2  0
 30 31  1  0
 31 32  2  0
 32 33  1  0
 32 34  1  0
 34 35  2  0
 20 36  1  0
 36 37  1  0
 37 38  1  0
 38 39  2  0
 39 40  1  0
 40 41  1  0
 41 42  2  0
 42 43  1  0
 43 44  2  0
 44 45  1  0
 44 46  1  0
 46 47  2  0
 40 48  1  0
 48 49  2  0
 49 50  1  0
 50 51  2  0
 51 52  1  0
 51 53  1  0
 53 54  2  0
 39 55  1  0
 55 56  1  0
 38 57  1  0
 57 58  2  0
 58 59  1  0
 59 60  2  0
 60 61  1  0
 61 62  2  0
 62 63  1  0
 63 64  2  0
 64 65  1  0
 65 66  2  0
 60 67  1  0
 67 68  2  0
 68 69  1  0
 69 70  1  0
 70 71  2  0
 71 72  1  0
 72 73  2  0
 73 74  1  0
 73 75  1  0
 75 76  2  0
 69 77  1  0
 77 78  2  0
 78 79  1  0
 79 80  2  0
 80 81  1  0
 80 82  1  0
 82 83  2  0
 68 84  1  0
 84 85  1  0
 85 86  1  0
 86 87  2  0
 87 88  1  0
 88 89  1  0
 89 90  2  0
 90 91  1  0
 91 92  2  0
 92 93  1  0
 92 94  1  0
 94 95  2  0
 88 96  1  0
 96 97  2  0
 97 98  1  0
 98 99  2  0
 99100  1  0
 99101  1  0
101102  2  0
 87103  1  0
103104  1  0
 86105  1  0
105106  2  3
106107  1  0
107108  2  0
107109  1  0
109110  2  0
110111  1  0
111112  1  0
111113  2  0
113114  1  0
113115  1  0
115116  2  0
116117  1  0
117118  2  3
118119  1  0
119120  3  0
118121  1  0
121122  3  0
 13  2  1  0
 56 19  1  0
 66 57  1  0
104 67  1  0
117106  1  0
 12  5  1  0
 28 22  1  0
 35 29  1  0
 55 36  2  0
 66 61  1  0
 76 70  1  0
 83 77  1  0
103 84  2  0
116109  1  0
 47 41  1  0
 54 48  1  0
 95 89  1  0
102 96  1  0
  1123  1  0
  6124  1  0
 11125  1  0
 23126  1  0
 24127  1  0
 26128  1  0
 26129  1  0
 26130  1  0
 27131  1  0
 28132  1  0
 30133  1  0
 31134  1  0
 33135  1  0
 33136  1  0
 33137  1  0
 34138  1  0
 35139  1  0
 42140  1  0
 43141  1  0
 45142  1  0
 45143  1  0
 45144  1  0
 46145  1  0
 47146  1  0
 49147  1  0
 50148  1  0
 52149  1  0
 52150  1  0
 52151  1  0
 53152  1  0
 54153  1  0
 58154  1  0
 59155  1  0
 63156  1  0
 64157  1  0
 71158  1  0
 72159  1  0
 74160  1  0
 74161  1  0
 74162  1  0
 75163  1  0
 76164  1  0
 78165  1  0
 79166  1  0
 81167  1  0
 81168  1  0
 81169  1  0
 82170  1  0
 83171  1  0
 90172  1  0
 91173  1  0
 93174  1  0
 93175  1  0
 93176  1  0
 94177  1  0
 95178  1  0
 97179  1  0
 98180  1  0
100181  1  0
100182  1  0
100183  1  0
101184  1  0
102185  1  0
105186  1  0
110187  1  0
115188  1  0
M  END

