
     RDKit          3D

204222  0  0  0  0  0  0  0  0999 V2000
    1.6528   -0.3219   -7.3109 C   0  0  0  0  0  0  0  0  0  0  0  0
    2.5304    0.7063   -7.3155 C   0  0  0  0  0  0  0  0  0  0  0  0
    3.1773    1.2784   -6.1299 C   0  0  0  0  0  0  0  0  0  0  0  0
    3.0416    0.8986   -4.9325 O   0  0  0  0  0  0  0  0  0  0  0  0
    4.1257    2.2704   -6.5465 C   0  0  0  0  0  0  0  0  0  0  0  0
    4.9292    3.0820   -5.7460 C   0  0  0  0  0  0  0  0  0  0  0  0
    5.7966    3.9804   -6.3587 C   0  0  0  0  0  0  0  0  0  0  0  0
    6.8001    5.0325   -5.3775 Cl  0  0  0  0  0  0  0  0  0  0  0  0
    5.8847    4.0248   -7.7648 C   0  0  0  0  0  0  0  0  0  0  0  0
    6.7540    4.8766   -8.3664 F   0  0  0  0  0  0  0  0  0  0  0  0
    5.0820    3.1849   -8.5562 C   0  0  0  0  0  0  0  0  0  0  0  0
    4.1753    2.3123   -7.9259 C   0  0  0  0  0  0  0  0  0  0  0  0
    3.1628    1.3677   -8.5049 C   0  0  0  0  0  0  0  0  0  0  0  0
    2.7598    1.2963   -9.8021 C   0  0  0  0  0  0  0  0  0  0  0  0
    3.4338    1.9734  -10.8721 C   0  0  0  0  0  0  0  0  0  0  0  0
    3.9604    2.5147  -11.7504 N   0  0  0  0  0  0  0  0  0  0  0  0
    1.5629    0.6066  -10.1936 C   0  0  0  0  0  0  0  0  0  0  0  0
    0.6044    0.0548  -10.5251 N   0  0  0  0  0  0  0  0  0  0  0  0
    0.9323   -0.7750   -6.1144 C   0  0  0  0  0  0  0  0  0  0  0  0
    0.4025    0.0315   -5.0854 C   0  0  0  0  0  0  0  0  0  0  0  0
    0.0260    1.4284   -5.2529 N   0  0  0  0  0  0  0  0  0  0  0  0
   -0.2776    1.9323   -6.5631 C   0  0  0  0  0  0  0  0  0  0  0  0
   -1.1811    1.2479   -7.3975 C   0  0  0  0  0  0  0  0  0  0  0  0
   -1.5603    1.8052   -8.6237 C   0  0  0  0  0  0  0  0  0  0  0  0
   -1.0719    3.0575   -9.0155 C   0  0  0  0  0  0  0  0  0  0  0  0
   -1.5171    3.6576  -10.3159 C   0  0  0  0  0  0  0  0  0  0  0  0
   -0.1706    3.7365   -8.1859 C   0  0  0  0  0  0  0  0  0  0  0  0
    0.2170    3.1771   -6.9613 C   0  0  0  0  0  0  0  0  0  0  0  0
   -0.5365    2.1733   -4.1550 C   0  0  0  0  0  0  0  0  0  0  0  0
   -1.9259    2.3513   -4.0760 C   0  0  0  0  0  0  0  0  0  0  0  0
   -2.4972    2.9943   -2.9784 C   0  0  0  0  0  0  0  0  0  0  0  0
   -1.6778    3.4862   -1.9496 C   0  0  0  0  0  0  0  0  0  0  0  0
   -2.2831    4.1518   -0.7475 C   0  0  0  0  0  0  0  0  0  0  0  0
   -0.2889    3.3181   -2.0367 C   0  0  0  0  0  0  0  0  0  0  0  0
    0.2868    2.6615   -3.1332 C   0  0  0  0  0  0  0  0  0  0  0  0
   -0.0076   -0.7752   -4.0235 C   0  0  0  0  0  0  0  0  0  0  0  0
   -0.5164   -0.4838   -2.4623 S   0  0  0  0  0  0  0  0  0  0  0  0
   -0.9086   -2.0874   -2.1171 C   0  0  0  0  0  0  0  0  0  0  0  0
   -0.7735   -2.8770   -3.3077 C   0  0  0  0  0  0  0  0  0  0  0  0
   -1.5765   -4.0587   -3.6509 N   0  0  0  0  0  0  0  0  0  0  0  0
   -2.7102   -4.5095   -2.8715 C   0  0  0  0  0  0  0  0  0  0  0  0
   -3.6724   -3.5940   -2.4303 C   0  0  0  0  0  0  0  0  0  0  0  0
   -4.7678   -4.0244   -1.6785 C   0  0  0  0  0  0  0  0  0  0  0  0
   -5.0038   -5.3883   -1.4689 C   0  0  0  0  0  0  0  0  0  0  0  0
   -6.0667   -5.8248   -0.5259 C   0  0  0  0  0  0  0  0  0  0  0  0
   -4.1159   -6.3222   -2.0379 C   0  0  0  0  0  0  0  0  0  0  0  0
   -3.0221   -5.8688   -2.7940 C   0  0  0  0  0  0  0  0  0  0  0  0
   -1.6700   -4.4409   -5.0312 C   0  0  0  0  0  0  0  0  0  0  0  0
   -2.6410   -3.8474   -5.8482 C   0  0  0  0  0  0  0  0  0  0  0  0
   -2.6896   -4.1276   -7.2135 C   0  0  0  0  0  0  0  0  0  0  0  0
   -1.7763   -5.0319   -7.7817 C   0  0  0  0  0  0  0  0  0  0  0  0
   -1.8603   -5.3532   -9.2343 C   0  0  0  0  0  0  0  0  0  0  0  0
   -0.8319   -5.6647   -6.9519 C   0  0  0  0  0  0  0  0  0  0  0  0
   -0.7840   -5.3760   -5.5863 C   0  0  0  0  0  0  0  0  0  0  0  0
   -0.0918   -2.1097   -4.2801 C   0  0  0  0  0  0  0  0  0  0  0  0
    0.5632   -2.4044   -5.7993 S   0  0  0  0  0  0  0  0  0  0  0  0
   -1.5030   -2.4134   -0.8143 C   0  0  0  0  0  0  0  0  0  0  0  0
   -0.9073   -3.1190    0.2477 C   0  0  0  0  0  0  0  0  0  0  0  0
    0.4251   -3.6787    0.1833 N   0  0  0  0  0  0  0  0  0  0  0  0
    1.3850   -3.4015    1.2234 C   0  0  0  0  0  0  0  0  0  0  0  0
    1.6469   -2.0768    1.6266 C   0  0  0  0  0  0  0  0  0  0  0  0
    2.5052   -1.8246    2.6997 C   0  0  0  0  0  0  0  0  0  0  0  0
    3.1289   -2.8871    3.3673 C   0  0  0  0  0  0  0  0  0  0  0  0
    4.1944   -2.5626    4.7752 S   0  0  0  0  0  0  0  0  0  0  0  0
    2.8332   -2.7024    5.9838 C   0  0  0  0  0  0  0  0  0  0  0  0
    2.8834   -4.2011    2.9622 C   0  0  0  0  0  0  0  0  0  0  0  0
    2.0211   -4.4702    1.8905 C   0  0  0  0  0  0  0  0  0  0  0  0
    0.8774   -4.5229   -0.8987 C   0  0  0  0  0  0  0  0  0  0  0  0
    2.1303   -4.2740   -1.4907 C   0  0  0  0  0  0  0  0  0  0  0  0
    2.6884   -5.2043   -2.3675 C   0  0  0  0  0  0  0  0  0  0  0  0
    2.0024   -6.3920   -2.6483 C   0  0  0  0  0  0  0  0  0  0  0  0
    2.7540   -7.6094   -3.7560 S   0  0  0  0  0  0  0  0  0  0  0  0
    3.9726   -8.1899   -2.5239 C   0  0  0  0  0  0  0  0  0  0  0  0
    0.7271   -6.6115   -2.1107 C   0  0  0  0  0  0  0  0  0  0  0  0
    0.1646   -5.6738   -1.2330 C   0  0  0  0  0  0  0  0  0  0  0  0
   -1.5989   -2.8821    1.4532 C   0  0  0  0  0  0  0  0  0  0  0  0
   -1.0926   -2.9676    3.0475 S   0  0  0  0  0  0  0  0  0  0  0  0
   -2.1879   -1.8295    3.6588 C   0  0  0  0  0  0  0  0  0  0  0  0
   -3.1051   -1.4982    2.6258 C   0  0  0  0  0  0  0  0  0  0  0  0
   -4.2993   -0.6801    2.8588 N   0  0  0  0  0  0  0  0  0  0  0  0
   -5.5325   -0.6585    2.0302 C   0  0  0  0  0  0  0  0  0  0  0  0
   -5.5891   -1.2366    0.7711 C   0  0  0  0  0  0  0  0  0  0  0  0
   -6.5308   -0.8348   -0.1819 C   0  0  0  0  0  0  0  0  0  0  0  0
   -7.5814   -0.0072    0.2032 C   0  0  0  0  0  0  0  0  0  0  0  0
   -8.8426    0.4918   -1.0218 S   0  0  0  0  0  0  0  0  0  0  0  0
   -8.4347    2.2805   -0.9788 C   0  0  0  0  0  0  0  0  0  0  0  0
   -7.6699    0.4323    1.5271 C   0  0  0  0  0  0  0  0  0  0  0  0
   -6.6479    0.1271    2.4211 C   0  0  0  0  0  0  0  0  0  0  0  0
   -4.3351    0.0770    4.0719 C   0  0  0  0  0  0  0  0  0  0  0  0
   -4.8758   -0.4792    5.2382 C   0  0  0  0  0  0  0  0  0  0  0  0
   -5.0022    0.2772    6.3995 C   0  0  0  0  0  0  0  0  0  0  0  0
   -4.5859    1.6182    6.3910 C   0  0  0  0  0  0  0  0  0  0  0  0
   -4.7919    2.6161    7.8766 S   0  0  0  0  0  0  0  0  0  0  0  0
   -3.1316    2.2276    8.4829 C   0  0  0  0  0  0  0  0  0  0  0  0
   -4.0552    2.1941    5.2213 C   0  0  0  0  0  0  0  0  0  0  0  0
   -3.9204    1.4150    4.0635 C   0  0  0  0  0  0  0  0  0  0  0  0
   -2.6594   -2.0233    1.3932 C   0  0  0  0  0  0  0  0  0  0  0  0
   -2.7141   -1.4118   -0.1597 S   0  0  0  0  0  0  0  0  0  0  0  0
   -1.5396   -0.7533    4.4557 C   0  0  0  0  0  0  0  0  0  0  0  0
   -0.7363    0.1959    3.7790 C   0  0  0  0  0  0  0  0  0  0  0  0
    0.0379    1.0846    4.5241 C   0  0  0  0  0  0  0  0  0  0  0  0
    1.0469    1.8736    4.0695 N   0  0  0  0  0  0  0  0  0  0  0  0
    1.4696    2.1038    2.6838 C   0  0  0  0  0  0  0  0  0  0  0  0
    0.7847    3.3355    2.1301 C   0  0  0  0  0  0  0  0  0  0  0  0
    1.6224    2.3671    5.1929 C   0  0  0  0  0  0  0  0  0  0  0  0
    0.9772    1.9221    6.3273 C   0  0  0  0  0  0  0  0  0  0  0  0
   -0.0305    1.0947    5.9032 C   0  0  0  0  0  0  0  0  0  0  0  0
   -0.8481    0.1969    6.6070 C   0  0  0  0  0  0  0  0  0  0  0  0
   -1.5839   -0.7542    5.8713 C   0  0  0  0  0  0  0  0  0  0  0  0
    1.4616    2.1694    7.5999 C   0  0  0  0  0  0  0  0  0  0  0  0
    2.6907    2.8438    7.7180 C   0  0  0  0  0  0  0  0  0  0  0  0
    3.4111    3.2570    6.5730 C   0  0  0  0  0  0  0  0  0  0  0  0
    2.8477    3.0540    5.2976 C   0  0  0  0  0  0  0  0  0  0  0  0
    4.8626    3.5617    6.6746 C   0  0  0  0  0  0  0  0  0  0  0  0
    5.4245    4.2847    7.6456 C   0  0  0  0  0  0  0  0  0  0  0  0
    4.7908    5.3458    8.4272 C   0  0  0  0  0  0  0  0  0  0  0  0
    3.5640    5.6592    8.4068 O   0  0  0  0  0  0  0  0  0  0  0  0
    5.8570    6.0961    9.0864 C   0  0  0  0  0  0  0  0  0  0  0  0
    5.7821    7.2795    9.8313 C   0  0  0  0  0  0  0  0  0  0  0  0
    4.2166    7.9883   10.2431 Cl  0  0  0  0  0  0  0  0  0  0  0  0
    6.9865    7.9142   10.2171 C   0  0  0  0  0  0  0  0  0  0  0  0
    6.9240    9.3934   11.1726 Cl  0  0  0  0  0  0  0  0  0  0  0  0
    8.2271    7.4153    9.7725 C   0  0  0  0  0  0  0  0  0  0  0  0
    9.6995    8.2941   10.1368 Cl  0  0  0  0  0  0  0  0  0  0  0  0
    8.2748    6.2538    8.9629 C   0  0  0  0  0  0  0  0  0  0  0  0
    9.7402    5.8681    8.0485 Cl  0  0  0  0  0  0  0  0  0  0  0  0
    7.0791    5.5478    8.7327 C   0  0  0  0  0  0  0  0  0  0  0  0
    6.8703    4.3039    7.9693 C   0  0  0  0  0  0  0  0  0  0  0  0
    7.6423    3.1899    8.0806 C   0  0  0  0  0  0  0  0  0  0  0  0
    8.7578    3.1330    9.0034 C   0  0  0  0  0  0  0  0  0  0  0  0
    9.6455    3.0598    9.7469 N   0  0  0  0  0  0  0  0  0  0  0  0
    7.2838    1.9527    7.4509 C   0  0  0  0  0  0  0  0  0  0  0  0
    6.9938    0.9476    6.9412 N   0  0  0  0  0  0  0  0  0  0  0  0
    1.4693   -0.8950   -8.2041 H   0  0  0  0  0  0  0  0  0  0  0  0
    4.8769    3.0087   -4.6716 H   0  0  0  0  0  0  0  0  0  0  0  0
    5.1984    3.2210   -9.6241 H   0  0  0  0  0  0  0  0  0  0  0  0
   -1.6148    0.3075   -7.0795 H   0  0  0  0  0  0  0  0  0  0  0  0
   -2.2452    1.2617   -9.2650 H   0  0  0  0  0  0  0  0  0  0  0  0
   -1.1294    4.6971  -10.4371 H   0  0  0  0  0  0  0  0  0  0  0  0
   -2.6265    3.6979  -10.3349 H   0  0  0  0  0  0  0  0  0  0  0  0
   -1.1611    3.0336  -11.1640 H   0  0  0  0  0  0  0  0  0  0  0  0
    0.1992    4.7234   -8.4615 H   0  0  0  0  0  0  0  0  0  0  0  0
    0.8799    3.7302   -6.3026 H   0  0  0  0  0  0  0  0  0  0  0  0
   -2.5752    1.9708   -4.8564 H   0  0  0  0  0  0  0  0  0  0  0  0
   -3.5750    3.1214   -2.9382 H   0  0  0  0  0  0  0  0  0  0  0  0
   -2.0822    3.5231    0.1412 H   0  0  0  0  0  0  0  0  0  0  0  0
   -3.3808    4.2661   -0.8601 H   0  0  0  0  0  0  0  0  0  0  0  0
   -1.8270    5.1528   -0.6020 H   0  0  0  0  0  0  0  0  0  0  0  0
    0.3548    3.6903   -1.2505 H   0  0  0  0  0  0  0  0  0  0  0  0
    1.3574    2.5303   -3.1852 H   0  0  0  0  0  0  0  0  0  0  0  0
   -3.5488   -2.5550   -2.6185 H   0  0  0  0  0  0  0  0  0  0  0  0
   -5.4657   -3.2831   -1.3180 H   0  0  0  0  0  0  0  0  0  0  0  0
   -6.3998   -6.8584   -0.7658 H   0  0  0  0  0  0  0  0  0  0  0  0
   -6.9579   -5.1655   -0.6074 H   0  0  0  0  0  0  0  0  0  0  0  0
   -5.6946   -5.7793    0.5199 H   0  0  0  0  0  0  0  0  0  0  0  0
   -4.3032   -7.3658   -1.9361 H   0  0  0  0  0  0  0  0  0  0  0  0
   -2.4084   -6.5937   -3.2987 H   0  0  0  0  0  0  0  0  0  0  0  0
   -3.3178   -3.1186   -5.4330 H   0  0  0  0  0  0  0  0  0  0  0  0
   -3.4437   -3.6378   -7.8287 H   0  0  0  0  0  0  0  0  0  0  0  0
   -1.9935   -4.4103   -9.8165 H   0  0  0  0  0  0  0  0  0  0  0  0
   -0.9235   -5.8405   -9.5699 H   0  0  0  0  0  0  0  0  0  0  0  0
   -2.7243   -6.0315   -9.4066 H   0  0  0  0  0  0  0  0  0  0  0  0
   -0.1482   -6.4039   -7.3501 H   0  0  0  0  0  0  0  0  0  0  0  0
   -0.0414   -5.8510   -4.9622 H   0  0  0  0  0  0  0  0  0  0  0  0
    1.1632   -1.2394    1.1184 H   0  0  0  0  0  0  0  0  0  0  0  0
    2.6825   -0.8092    3.0192 H   0  0  0  0  0  0  0  0  0  0  0  0
    2.3518   -3.7121    5.9091 H   0  0  0  0  0  0  0  0  0  0  0  0
    2.0690   -1.9197    5.8008 H   0  0  0  0  0  0  0  0  0  0  0  0
    3.2422   -2.5782    7.0058 H   0  0  0  0  0  0  0  0  0  0  0  0
    3.3731   -5.0218    3.4601 H   0  0  0  0  0  0  0  0  0  0  0  0
    1.8222   -5.4967    1.5972 H   0  0  0  0  0  0  0  0  0  0  0  0
    2.7100   -3.4000   -1.2242 H   0  0  0  0  0  0  0  0  0  0  0  0
    3.6679   -5.0238   -2.7945 H   0  0  0  0  0  0  0  0  0  0  0  0
    3.4560   -8.6688   -1.6695 H   0  0  0  0  0  0  0  0  0  0  0  0
    4.6526   -8.9261   -3.0012 H   0  0  0  0  0  0  0  0  0  0  0  0
    4.5909   -7.3420   -2.1527 H   0  0  0  0  0  0  0  0  0  0  0  0
    0.1754   -7.5116   -2.3678 H   0  0  0  0  0  0  0  0  0  0  0  0
   -0.8107   -5.8587   -0.8020 H   0  0  0  0  0  0  0  0  0  0  0  0
   -5.0428   -2.1479    0.6036 H   0  0  0  0  0  0  0  0  0  0  0  0
   -6.1925   -0.8623   -1.2417 H   0  0  0  0  0  0  0  0  0  0  0  0
   -7.8063    2.5098   -0.0932 H   0  0  0  0  0  0  0  0  0  0  0  0
   -9.3580    2.8818   -0.8704 H   0  0  0  0  0  0  0  0  0  0  0  0
   -7.8857    2.5729   -1.8887 H   0  0  0  0  0  0  0  0  0  0  0  0
   -8.5003    1.0204    1.8617 H   0  0  0  0  0  0  0  0  0  0  0  0
   -6.7265    0.5098    3.4141 H   0  0  0  0  0  0  0  0  0  0  0  0
   -5.2411   -1.4974    5.2360 H   0  0  0  0  0  0  0  0  0  0  0  0
   -5.4221   -0.1643    7.2994 H   0  0  0  0  0  0  0  0  0  0  0  0
   -2.9849    1.1270    8.5562 H   0  0  0  0  0  0  0  0  0  0  0  0
   -3.0084    2.6770    9.4818 H   0  0  0  0  0  0  0  0  0  0  0  0
   -2.3756    2.6739    7.7969 H   0  0  0  0  0  0  0  0  0  0  0  0
   -3.7687    3.2418    5.2036 H   0  0  0  0  0  0  0  0  0  0  0  0
   -3.5396    1.8556    3.1408 H   0  0  0  0  0  0  0  0  0  0  0  0
   -0.6718    0.1564    2.6994 H   0  0  0  0  0  0  0  0  0  0  0  0
    1.2215    1.2125    2.0467 H   0  0  0  0  0  0  0  0  0  0  0  0
    2.5669    2.2267    2.6266 H   0  0  0  0  0  0  0  0  0  0  0  0
   -0.3177    3.1701    2.0744 H   0  0  0  0  0  0  0  0  0  0  0  0
    0.9921    4.2249    2.7577 H   0  0  0  0  0  0  0  0  0  0  0  0
    1.1467    3.5320    1.0989 H   0  0  0  0  0  0  0  0  0  0  0  0
   -0.8294    0.1677    7.6819 H   0  0  0  0  0  0  0  0  0  0  0  0
   -2.1808   -1.4887    6.4073 H   0  0  0  0  0  0  0  0  0  0  0  0
    0.9565    1.7961    8.4869 H   0  0  0  0  0  0  0  0  0  0  0  0
    3.1316    2.9553    8.7033 H   0  0  0  0  0  0  0  0  0  0  0  0
    3.4178    3.3047    4.4155 H   0  0  0  0  0  0  0  0  0  0  0  0
    5.4999    3.0651    5.9432 H   0  0  0  0  0  0  0  0  0  0  0  0
  1  2  2  3
  2  3  1  0
  3  4  2  0
  3  5  1  0
  5  6  2  0
  6  7  1  0
  7  8  1  0
  7  9  2  0
  9 10  1  0
  9 11  1  0
 11 12  2  0
 12 13  1  0
 13 14  2  3
 14 15  1  0
 15 16  3  0
 14 17  1  0
 17 18  3  0
  1 19  1  0
 19 20  2  0
 20 21  1  0
 21 22  1  0
 22 23  2  0
 23 24  1  0
 24 25  2  0
 25 26  1  0
 25 27  1  0
 27 28  2  0
 21 29  1  0
 29 30  2  0
 30 31  1  0
 31 32  2  0
 32 33  1  0
 32 34  1  0
 34 35  2  0
 20 36  1  0
 36 37  1  0
 37 38  1  0
 38 39  2  0
 39 40  1  0
 40 41  1  0
 41 42  2  0
 42 43  1  0
 43 44  2  0
 44 45  1  0
 44 46  1  0
 46 47  2  0
 40 48  1  0
 48 49  2  0
 49 50  1  0
 50 51  2  0
 51 52  1  0
 51 53  1  0
 53 54  2  0
 39 55  1  0
 55 56  1  0
 38 57  1  0
 57 58  2  0
 58 59  1  0
 59 60  1  0
 60 61  2  0
 61 62  1  0
 62 63  2  0
 63 64  1  0
 64 65  1  0
 63 66  1  0
 66 67  2  0
 59 68  1  0
 68 69  2  0
 69 70  1  0
 70 71  2  0
 71 72  1  0
 72 73  1  0
 71 74  1  0
 74 75  2  0
 58 76  1  0
 76 77  1  0
 77 78  1  0
 78 79  2  0
 79 80  1  0
 80 81  1  0
 81 82  2  0
 82 83  1  0
 83 84  2  0
 84 85  1  0
 85 86  1  0
 84 87  1  0
 87 88  2  0
 80 89  1  0
 89 90  2  0
 90 91  1  0
 91 92  2  0
 92 93  1  0
 93 94  1  0
 92 95  1  0
 95 96  2  0
 79 97  1  0
 97 98  1  0
 78 99  1  0
 99100  2  0
100101  1  0
101102  1  0
102103  1  0
103104  1  0
102105  1  0
105106  2  0
106107  1  0
107108  1  0
108109  2  0
106110  1  0
110111  2  0
111112  1  0
112113  2  0
112114  1  0
114115  2  3
115116  1  0
116117  2  0
116118  1  0
118119  2  0
119120  1  0
119121  1  0
121122  1  0
121123  2  0
123124  1  0
123125  1  0
125126  1  0
125127  2  0
127128  1  0
128129  2  3
129130  1  0
130131  3  0
129132  1  0
132133  3  0
 13  2  1  0
 56 19  1  0
 98 57  1  0
109 99  1  0
128115  1  0
 12  5  1  0
 28 22  1  0
 35 29  1  0
 55 36  2  0
 67 60  1  0
 75 68  1  0
 97 76  2  0
107101  2  0
127118  1  0
 47 41  1  0
 54 48  1  0
 88 81  1  0
 96 89  1  0
113105  1  0
  1134  1  0
  6135  1  0
 11136  1  0
 23137  1  0
 24138  1  0
 26139  1  0
 26140  1  0
 26141  1  0
 27142  1  0
 28143  1  0
 30144  1  0
 31145  1  0
 33146  1  0
 33147  1  0
 33148  1  0
 34149  1  0
 35150  1  0
 42151  1  0
 43152  1  0
 45153  1  0
 45154  1  0
 45155  1  0
 46156  1  0
 47157  1  0
 49158  1  0
 50159  1  0
 52160  1  0
 52161  1  0
 52162  1  0
 53163  1  0
 54164  1  0
 61165  1  0
 62166  1  0
 65167  1  0
 65168  1  0
 65169  1  0
 66170  1  0
 67171  1  0
 69172  1  0
 70173  1  0
 73174  1  0
 73175  1  0
 73176  1  0
 74177  1  0
 75178  1  0
 82179  1  0
 83180  1  0
 86181  1  0
 86182  1  0
 86183  1  0
 87184  1  0
 88185  1  0
 90186  1  0
 91187  1  0
 94188  1  0
 94189  1  0
 94190  1  0
 95191  1  0
 96192  1  0
100193  1  0
103194  1  0
103195  1  0
104196  1  0
104197  1  0
104198  1  0
108199  1  0
109200  1  0
110201  1  0
111202  1  0
113203  1  0
114204  1  0
M  END

