
     RDKit          3D

239261  0  0  0  0  0  0  0  0999 V2000
   -0.8540    6.2627   -4.1518 C   0  0  0  0  0  0  0  0  0  0  0  0
   -0.7010    7.6011   -4.0443 C   0  0  0  0  0  0  0  0  0  0  0  0
    0.2950    8.3212   -3.2324 C   0  0  0  0  0  0  0  0  0  0  0  0
    1.4223    7.8983   -2.8569 O   0  0  0  0  0  0  0  0  0  0  0  0
   -0.1770    9.6672   -3.0067 C   0  0  0  0  0  0  0  0  0  0  0  0
    0.4000   10.6594   -2.2100 C   0  0  0  0  0  0  0  0  0  0  0  0
   -0.2975   11.8643   -2.0304 C   0  0  0  0  0  0  0  0  0  0  0  0
    0.3976   13.1200   -1.0186 Cl  0  0  0  0  0  0  0  0  0  0  0  0
   -1.5572   12.0451   -2.6347 C   0  0  0  0  0  0  0  0  0  0  0  0
   -2.2488   13.1965   -2.4331 F   0  0  0  0  0  0  0  0  0  0  0  0
   -2.1122   11.0352   -3.4426 C   0  0  0  0  0  0  0  0  0  0  0  0
   -1.3874    9.8500   -3.6485 C   0  0  0  0  0  0  0  0  0  0  0  0
   -1.7200    8.6351   -4.4398 C   0  0  0  0  0  0  0  0  0  0  0  0
   -2.6042    8.5567   -5.4698 C   0  0  0  0  0  0  0  0  0  0  0  0
   -2.7022    7.3920   -6.3102 C   0  0  0  0  0  0  0  0  0  0  0  0
   -2.7879    6.4560   -6.9826 N   0  0  0  0  0  0  0  0  0  0  0  0
   -3.3992    9.6791   -5.8928 C   0  0  0  0  0  0  0  0  0  0  0  0
   -4.0414   10.5807   -6.2378 N   0  0  0  0  0  0  0  0  0  0  0  0
   -0.0430    5.2486   -3.4488 C   0  0  0  0  0  0  0  0  0  0  0  0
   -0.5924    4.1492   -2.7688 C   0  0  0  0  0  0  0  0  0  0  0  0
   -1.9179    3.6422   -3.0011 N   0  0  0  0  0  0  0  0  0  0  0  0
   -3.0507    4.3393   -2.4594 C   0  0  0  0  0  0  0  0  0  0  0  0
   -4.1624    4.6151   -3.2712 C   0  0  0  0  0  0  0  0  0  0  0  0
   -5.2797    5.2624   -2.7409 C   0  0  0  0  0  0  0  0  0  0  0  0
   -5.2992    5.6533   -1.3942 C   0  0  0  0  0  0  0  0  0  0  0  0
   -6.5226    6.3098   -0.8246 C   0  0  0  0  0  0  0  0  0  0  0  0
   -4.1863    5.3760   -0.5794 C   0  0  0  0  0  0  0  0  0  0  0  0
   -3.0659    4.7325   -1.1112 C   0  0  0  0  0  0  0  0  0  0  0  0
   -2.0924    2.5043   -3.8827 C   0  0  0  0  0  0  0  0  0  0  0  0
   -1.2314    2.3064   -4.9809 C   0  0  0  0  0  0  0  0  0  0  0  0
   -1.4332    1.2362   -5.8590 C   0  0  0  0  0  0  0  0  0  0  0  0
   -2.5092    0.3558   -5.6644 C   0  0  0  0  0  0  0  0  0  0  0  0
   -2.7350   -0.7836   -6.6197 C   0  0  0  0  0  0  0  0  0  0  0  0
   -3.3441    0.5198   -4.5458 C   0  0  0  0  0  0  0  0  0  0  0  0
   -3.1354    1.5850   -3.6612 C   0  0  0  0  0  0  0  0  0  0  0  0
    0.3917    3.4050   -2.1425 C   0  0  0  0  0  0  0  0  0  0  0  0
    0.3745    2.0574   -1.1572 S   0  0  0  0  0  0  0  0  0  0  0  0
    2.0631    2.0245   -0.9778 C   0  0  0  0  0  0  0  0  0  0  0  0
    2.6441    3.0041   -1.8000 C   0  0  0  0  0  0  0  0  0  0  0  0
    4.0053    2.9641   -2.2657 N   0  0  0  0  0  0  0  0  0  0  0  0
    4.2807    2.5033   -3.6075 C   0  0  0  0  0  0  0  0  0  0  0  0
    5.3949    2.9898   -4.3130 C   0  0  0  0  0  0  0  0  0  0  0  0
    5.6805    2.5253   -5.6016 C   0  0  0  0  0  0  0  0  0  0  0  0
    4.8471    1.5732   -6.2098 C   0  0  0  0  0  0  0  0  0  0  0  0
    5.1730    1.0298   -7.5716 C   0  0  0  0  0  0  0  0  0  0  0  0
    3.7384    1.0776   -5.5063 C   0  0  0  0  0  0  0  0  0  0  0  0
    3.4514    1.5455   -4.2238 C   0  0  0  0  0  0  0  0  0  0  0  0
    5.0678    3.0954   -1.3028 C   0  0  0  0  0  0  0  0  0  0  0  0
    5.1070    4.2027   -0.4464 C   0  0  0  0  0  0  0  0  0  0  0  0
    6.0563    4.2722    0.5766 C   0  0  0  0  0  0  0  0  0  0  0  0
    6.9847    3.2337    0.7515 C   0  0  0  0  0  0  0  0  0  0  0  0
    7.9278    3.2513    1.9174 C   0  0  0  0  0  0  0  0  0  0  0  0
    6.9687    2.1398   -0.1262 C   0  0  0  0  0  0  0  0  0  0  0  0
    6.0252    2.0767   -1.1532 C   0  0  0  0  0  0  0  0  0  0  0  0
    1.6631    3.7931   -2.3877 C   0  0  0  0  0  0  0  0  0  0  0  0
    1.6640    5.1308   -3.4032 S   0  0  0  0  0  0  0  0  0  0  0  0
    2.7726    0.9423   -0.3049 C   0  0  0  0  0  0  0  0  0  0  0  0
    2.7042    0.5892    1.0619 C   0  0  0  0  0  0  0  0  0  0  0  0
    1.7861    1.2053    1.9984 N   0  0  0  0  0  0  0  0  0  0  0  0
    2.2521    2.2917    2.8201 C   0  0  0  0  0  0  0  0  0  0  0  0
    1.9100    2.3457    4.1810 C   0  0  0  0  0  0  0  0  0  0  0  0
    2.3126    3.4299    4.9682 C   0  0  0  0  0  0  0  0  0  0  0  0
    3.0391    4.4817    4.3962 C   0  0  0  0  0  0  0  0  0  0  0  0
    3.5222    5.8900    5.3924 S   0  0  0  0  0  0  0  0  0  0  0  0
    2.0319    6.8447    4.9677 C   0  0  0  0  0  0  0  0  0  0  0  0
    3.3822    4.4319    3.0409 C   0  0  0  0  0  0  0  0  0  0  0  0
    2.9828    3.3481    2.2556 C   0  0  0  0  0  0  0  0  0  0  0  0
    0.3680    0.9001    1.9636 C   0  0  0  0  0  0  0  0  0  0  0  0
   -0.5808    1.9391    1.8760 C   0  0  0  0  0  0  0  0  0  0  0  0
   -1.9423    1.6516    1.7254 C   0  0  0  0  0  0  0  0  0  0  0  0
   -2.3844    0.3237    1.7344 C   0  0  0  0  0  0  0  0  0  0  0  0
   -4.1202   -0.0608    1.5233 S   0  0  0  0  0  0  0  0  0  0  0  0
   -4.5338    0.2933    3.2566 C   0  0  0  0  0  0  0  0  0  0  0  0
   -1.4631   -0.7119    1.8938 C   0  0  0  0  0  0  0  0  0  0  0  0
   -0.1020   -0.4277    1.9978 C   0  0  0  0  0  0  0  0  0  0  0  0
    3.3137   -0.6635    1.2906 C   0  0  0  0  0  0  0  0  0  0  0  0
    3.0340   -1.7651    2.5041 S   0  0  0  0  0  0  0  0  0  0  0  0
    2.9874   -3.1577    1.5165 C   0  0  0  0  0  0  0  0  0  0  0  0
    3.3575   -2.7308    0.2093 C   0  0  0  0  0  0  0  0  0  0  0  0
    3.0158   -3.4234   -1.0068 N   0  0  0  0  0  0  0  0  0  0  0  0
    1.6524   -3.3342   -1.5273 C   0  0  0  0  0  0  0  0  0  0  0  0
    0.7063   -2.4634   -0.9403 C   0  0  0  0  0  0  0  0  0  0  0  0
   -0.5533   -2.2760   -1.5083 C   0  0  0  0  0  0  0  0  0  0  0  0
   -0.9201   -2.9834   -2.6509 C   0  0  0  0  0  0  0  0  0  0  0  0
   -2.5222   -2.6869   -3.4046 S   0  0  0  0  0  0  0  0  0  0  0  0
   -3.4433   -3.6868   -2.1976 C   0  0  0  0  0  0  0  0  0  0  0  0
   -0.0145   -3.8772   -3.2305 C   0  0  0  0  0  0  0  0  0  0  0  0
    1.2553   -4.0620   -2.6643 C   0  0  0  0  0  0  0  0  0  0  0  0
    4.1396   -3.6719   -1.8861 C   0  0  0  0  0  0  0  0  0  0  0  0
    5.2940   -4.3043   -1.3882 C   0  0  0  0  0  0  0  0  0  0  0  0
    6.4398   -4.4189   -2.1759 C   0  0  0  0  0  0  0  0  0  0  0  0
    6.4670   -3.8717   -3.4613 C   0  0  0  0  0  0  0  0  0  0  0  0
    7.9527   -3.9921   -4.4590 S   0  0  0  0  0  0  0  0  0  0  0  0
    8.7033   -2.5005   -3.7285 C   0  0  0  0  0  0  0  0  0  0  0  0
    5.3318   -3.2295   -3.9652 C   0  0  0  0  0  0  0  0  0  0  0  0
    4.1820   -3.1180   -3.1825 C   0  0  0  0  0  0  0  0  0  0  0  0
    3.6154   -1.3541    0.1544 C   0  0  0  0  0  0  0  0  0  0  0  0
    3.3957   -0.3595   -1.1758 S   0  0  0  0  0  0  0  0  0  0  0  0
    2.0872   -4.3297    1.8225 C   0  0  0  0  0  0  0  0  0  0  0  0
    2.1078   -5.4952    1.0322 C   0  0  0  0  0  0  0  0  0  0  0  0
    3.2099   -5.8206    0.3154 F   0  0  0  0  0  0  0  0  0  0  0  0
    0.9912   -6.3384    0.9758 C   0  0  0  0  0  0  0  0  0  0  0  0
    1.0847   -7.5081    0.3006 F   0  0  0  0  0  0  0  0  0  0  0  0
   -0.2123   -5.9579    1.5979 C   0  0  0  0  0  0  0  0  0  0  0  0
   -0.1428   -4.9675    2.6001 C   0  0  0  0  0  0  0  0  0  0  0  0
   -1.1802   -4.7427    3.4500 N   0  0  0  0  0  0  0  0  0  0  0  0
   -1.0908   -3.8909    4.5099 C   0  0  0  0  0  0  0  0  0  0  0  0
   -2.3125   -3.6571    5.3340 C   0  0  0  0  0  0  0  0  0  0  0  0
   -3.2477   -4.6954    5.5075 C   0  0  0  0  0  0  0  0  0  0  0  0
   -4.4099   -4.4895    6.2573 C   0  0  0  0  0  0  0  0  0  0  0  0
   -4.6517   -3.2457    6.8536 C   0  0  0  0  0  0  0  0  0  0  0  0
   -5.7976   -3.0372    7.6263 O   0  0  0  0  0  0  0  0  0  0  0  0
   -7.0941   -2.9444    7.0421 C   0  0  0  0  0  0  0  0  0  0  0  0
   -7.4135   -1.4897    6.7276 C   0  0  0  0  0  0  0  0  0  0  0  0
   -3.7334   -2.2045    6.6788 C   0  0  0  0  0  0  0  0  0  0  0  0
   -2.5920   -2.3979    5.8990 C   0  0  0  0  0  0  0  0  0  0  0  0
   -3.9659   -0.9910    7.2417 F   0  0  0  0  0  0  0  0  0  0  0  0
   -5.2925   -5.5034    6.4134 F   0  0  0  0  0  0  0  0  0  0  0  0
    0.1539   -3.2655    4.7656 C   0  0  0  0  0  0  0  0  0  0  0  0
    1.1466   -3.4131    3.8513 N   0  0  0  0  0  0  0  0  0  0  0  0
    1.0322   -4.2089    2.7577 C   0  0  0  0  0  0  0  0  0  0  0  0
    0.4813   -2.5582    6.0304 C   0  0  0  0  0  0  0  0  0  0  0  0
    0.1677   -3.1311    7.2759 C   0  0  0  0  0  0  0  0  0  0  0  0
    0.5218   -2.4823    8.4626 C   0  0  0  0  0  0  0  0  0  0  0  0
    0.1998   -3.0405    9.6567 F   0  0  0  0  0  0  0  0  0  0  0  0
    1.2342   -1.2774    8.4248 C   0  0  0  0  0  0  0  0  0  0  0  0
    1.5645   -0.6432    9.6282 O   0  0  0  0  0  0  0  0  0  0  0  0
    2.9099   -0.3663   10.0272 C   0  0  0  0  0  0  0  0  0  0  0  0
    3.6057   -1.6439   10.4794 C   0  0  0  0  0  0  0  0  0  0  0  0
    1.5672   -0.7100    7.1807 C   0  0  0  0  0  0  0  0  0  0  0  0
    2.2085    0.4847    7.1197 F   0  0  0  0  0  0  0  0  0  0  0  0
    1.1991   -1.3513    5.9940 C   0  0  0  0  0  0  0  0  0  0  0  0
   -1.5076   -6.6513    1.3335 C   0  0  0  0  0  0  0  0  0  0  0  0
   -1.9804   -7.0466    0.1244 C   0  0  0  0  0  0  0  0  0  0  0  0
   -1.3677   -6.8057   -1.1954 C   0  0  0  0  0  0  0  0  0  0  0  0
   -0.2982   -6.1971   -1.4222 O   0  0  0  0  0  0  0  0  0  0  0  0
   -2.2942   -7.1828   -2.2359 C   0  0  0  0  0  0  0  0  0  0  0  0
   -2.1071   -7.0339   -3.6317 C   0  0  0  0  0  0  0  0  0  0  0  0
   -3.2423   -7.2808   -4.3791 C   0  0  0  0  0  0  0  0  0  0  0  0
   -4.5071   -7.6068   -3.7931 C   0  0  0  0  0  0  0  0  0  0  0  0
   -4.6953   -7.7456   -2.4246 C   0  0  0  0  0  0  0  0  0  0  0  0
   -3.5154   -7.5718   -1.6428 C   0  0  0  0  0  0  0  0  0  0  0  0
   -3.3303   -7.6449   -0.1661 C   0  0  0  0  0  0  0  0  0  0  0  0
   -4.1136   -8.3591    0.6898 C   0  0  0  0  0  0  0  0  0  0  0  0
   -3.7756   -8.5752    2.0736 C   0  0  0  0  0  0  0  0  0  0  0  0
   -3.5114   -8.7604    3.1857 N   0  0  0  0  0  0  0  0  0  0  0  0
   -5.2670   -9.0958    0.2406 C   0  0  0  0  0  0  0  0  0  0  0  0
   -6.1848   -9.7038   -0.1141 N   0  0  0  0  0  0  0  0  0  0  0  0
   -5.1433   -7.6639   -5.1527 C   0  0  0  0  0  0  0  0  0  0  0  0
   -6.0326   -6.4615   -5.5902 C   0  0  0  0  0  0  0  0  0  0  0  0
   -6.2157   -6.6073   -7.0793 C   0  0  0  0  0  0  0  0  0  0  0  0
   -5.0267   -6.3433   -7.6340 C   0  0  0  0  0  0  0  0  0  0  0  0
   -4.0869   -6.0199   -6.4983 C   0  0  0  0  0  0  0  0  0  0  0  0
   -5.0605   -5.2962   -5.5894 C   0  0  0  0  0  0  0  0  0  0  0  0
   -3.8394   -7.3606   -5.7518 C   0  0  0  0  0  0  0  0  0  0  0  0
   -1.7706    5.8795   -4.5737 H   0  0  0  0  0  0  0  0  0  0  0  0
    1.3596   10.4961   -1.7239 H   0  0  0  0  0  0  0  0  0  0  0  0
   -3.1009   11.1782   -3.8431 H   0  0  0  0  0  0  0  0  0  0  0  0
   -4.1670    4.3287   -4.3172 H   0  0  0  0  0  0  0  0  0  0  0  0
   -6.1363    5.4545   -3.3770 H   0  0  0  0  0  0  0  0  0  0  0  0
   -7.3143    5.5450   -0.6823 H   0  0  0  0  0  0  0  0  0  0  0  0
   -6.8940    7.0912   -1.5208 H   0  0  0  0  0  0  0  0  0  0  0  0
   -6.3040    6.7882    0.1534 H   0  0  0  0  0  0  0  0  0  0  0  0
   -4.1875    5.6546    0.4658 H   0  0  0  0  0  0  0  0  0  0  0  0
   -2.2202    4.5165   -0.4731 H   0  0  0  0  0  0  0  0  0  0  0  0
   -0.4120    2.9842   -5.1774 H   0  0  0  0  0  0  0  0  0  0  0  0
   -0.7673    1.1041   -6.7046 H   0  0  0  0  0  0  0  0  0  0  0  0
   -3.7901   -1.1316   -6.5806 H   0  0  0  0  0  0  0  0  0  0  0  0
   -2.0691   -1.6272   -6.3500 H   0  0  0  0  0  0  0  0  0  0  0  0
   -2.5165   -0.4653   -7.6605 H   0  0  0  0  0  0  0  0  0  0  0  0
   -4.1624   -0.1684   -4.3648 H   0  0  0  0  0  0  0  0  0  0  0  0
   -3.7878    1.6915   -2.8049 H   0  0  0  0  0  0  0  0  0  0  0  0
    6.0411    3.7333   -3.8655 H   0  0  0  0  0  0  0  0  0  0  0  0
    6.5502    2.9074   -6.1261 H   0  0  0  0  0  0  0  0  0  0  0  0
    4.2409    0.7953   -8.1306 H   0  0  0  0  0  0  0  0  0  0  0  0
    5.7526    1.7702   -8.1652 H   0  0  0  0  0  0  0  0  0  0  0  0
    5.7714    0.0999   -7.4637 H   0  0  0  0  0  0  0  0  0  0  0  0
    3.1015    0.3239   -5.9532 H   0  0  0  0  0  0  0  0  0  0  0  0
    2.5948    1.1374   -3.7093 H   0  0  0  0  0  0  0  0  0  0  0  0
    4.3785    4.9972   -0.5530 H   0  0  0  0  0  0  0  0  0  0  0  0
    6.0494    5.1200    1.2531 H   0  0  0  0  0  0  0  0  0  0  0  0
    8.2084    4.2929    2.1827 H   0  0  0  0  0  0  0  0  0  0  0  0
    8.8565    2.6892    1.6779 H   0  0  0  0  0  0  0  0  0  0  0  0
    7.4343    2.7746    2.7910 H   0  0  0  0  0  0  0  0  0  0  0  0
    7.6755    1.3252   -0.0019 H   0  0  0  0  0  0  0  0  0  0  0  0
    6.0109    1.2122   -1.8051 H   0  0  0  0  0  0  0  0  0  0  0  0
    1.3327    1.5460    4.6272 H   0  0  0  0  0  0  0  0  0  0  0  0
    2.0478    3.4576    6.0175 H   0  0  0  0  0  0  0  0  0  0  0  0
    1.1212    6.2916    5.2860 H   0  0  0  0  0  0  0  0  0  0  0  0
    1.9916    7.0256    3.8728 H   0  0  0  0  0  0  0  0  0  0  0  0
    2.0613    7.8217    5.4936 H   0  0  0  0  0  0  0  0  0  0  0  0
    3.9328    5.2487    2.5918 H   0  0  0  0  0  0  0  0  0  0  0  0
    3.2100    3.3505    1.2034 H   0  0  0  0  0  0  0  0  0  0  0  0
   -0.2567    2.9733    1.8545 H   0  0  0  0  0  0  0  0  0  0  0  0
   -2.6533    2.4578    1.5970 H   0  0  0  0  0  0  0  0  0  0  0  0
   -4.3805    1.3717    3.4632 H   0  0  0  0  0  0  0  0  0  0  0  0
   -3.9041   -0.3148    3.9383 H   0  0  0  0  0  0  0  0  0  0  0  0
   -5.6003    0.0424    3.4319 H   0  0  0  0  0  0  0  0  0  0  0  0
   -1.7976   -1.7424    1.9144 H   0  0  0  0  0  0  0  0  0  0  0  0
    0.5596   -1.2553    2.1127 H   0  0  0  0  0  0  0  0  0  0  0  0
    0.9445   -1.8942   -0.0610 H   0  0  0  0  0  0  0  0  0  0  0  0
   -1.2446   -1.5787   -1.0518 H   0  0  0  0  0  0  0  0  0  0  0  0
   -3.0968   -4.7293   -2.2450 H   0  0  0  0  0  0  0  0  0  0  0  0
   -4.5233   -3.6587   -2.4454 H   0  0  0  0  0  0  0  0  0  0  0  0
   -3.2946   -3.2932   -1.1698 H   0  0  0  0  0  0  0  0  0  0  0  0
   -0.2900   -4.4294   -4.1183 H   0  0  0  0  0  0  0  0  0  0  0  0
    1.9273   -4.7736   -3.1256 H   0  0  0  0  0  0  0  0  0  0  0  0
    5.3187   -4.6835   -0.3724 H   0  0  0  0  0  0  0  0  0  0  0  0
    7.3186   -4.8951   -1.7705 H   0  0  0  0  0  0  0  0  0  0  0  0
    8.8645   -2.6501   -2.6352 H   0  0  0  0  0  0  0  0  0  0  0  0
    9.6833   -2.3132   -4.2133 H   0  0  0  0  0  0  0  0  0  0  0  0
    8.0430   -1.6210   -3.8872 H   0  0  0  0  0  0  0  0  0  0  0  0
    5.3485   -2.7922   -4.9535 H   0  0  0  0  0  0  0  0  0  0  0  0
    3.3412   -2.5639   -3.5720 H   0  0  0  0  0  0  0  0  0  0  0  0
   -3.0674   -5.6746    5.0820 H   0  0  0  0  0  0  0  0  0  0  0  0
   -7.8421   -3.3361    7.7617 H   0  0  0  0  0  0  0  0  0  0  0  0
   -7.1544   -3.5522    6.1141 H   0  0  0  0  0  0  0  0  0  0  0  0
   -6.6284   -1.0572    6.0723 H   0  0  0  0  0  0  0  0  0  0  0  0
   -8.3917   -1.4244    6.2083 H   0  0  0  0  0  0  0  0  0  0  0  0
   -7.4676   -0.9049    7.6682 H   0  0  0  0  0  0  0  0  0  0  0  0
   -1.9372   -1.5593    5.7307 H   0  0  0  0  0  0  0  0  0  0  0  0
   -0.3545   -4.0812    7.3315 H   0  0  0  0  0  0  0  0  0  0  0  0
    3.4794    0.1085    9.2055 H   0  0  0  0  0  0  0  0  0  0  0  0
    2.8812    0.3482   10.8794 H   0  0  0  0  0  0  0  0  0  0  0  0
    3.7541   -2.3211    9.6152 H   0  0  0  0  0  0  0  0  0  0  0  0
    2.9892   -2.1621   11.2441 H   0  0  0  0  0  0  0  0  0  0  0  0
    4.5939   -1.3972   10.9228 H   0  0  0  0  0  0  0  0  0  0  0  0
    1.4585   -0.9037    5.0438 H   0  0  0  0  0  0  0  0  0  0  0  0
   -2.1744   -6.6943    2.1737 H   0  0  0  0  0  0  0  0  0  0  0  0
   -1.1720   -6.7270   -4.0792 H   0  0  0  0  0  0  0  0  0  0  0  0
   -5.6741   -7.9420   -2.0139 H   0  0  0  0  0  0  0  0  0  0  0  0
   -5.5482   -8.6693   -5.3935 H   0  0  0  0  0  0  0  0  0  0  0  0
   -6.9650   -6.3150   -5.0082 H   0  0  0  0  0  0  0  0  0  0  0  0
   -7.1387   -6.8051   -7.6126 H   0  0  0  0  0  0  0  0  0  0  0  0
   -4.8218   -6.2857   -8.6996 H   0  0  0  0  0  0  0  0  0  0  0  0
   -3.1745   -5.4528   -6.7826 H   0  0  0  0  0  0  0  0  0  0  0  0
   -4.6472   -5.0472   -4.5905 H   0  0  0  0  0  0  0  0  0  0  0  0
   -5.4827   -4.3662   -6.0442 H   0  0  0  0  0  0  0  0  0  0  0  0
   -3.4223   -8.1874   -6.3645 H   0  0  0  0  0  0  0  0  0  0  0  0
  1  2  2  3
  2  3  1  0
  3  4  2  0
  3  5  1  0
  5  6  2  0
  6  7  1  0
  7  8  1  0
  7  9  2  0
  9 10  1  0
  9 11  1  0
 11 12  2  0
 12 13  1  0
 13 14  2  3
 14 15  1  0
 15 16  3  0
 14 17  1  0
 17 18  3  0
  1 19  1  0
 19 20  2  0
 20 21  1  0
 21 22  1  0
 22 23  2  0
 23 24  1  0
 24 25  2  0
 25 26  1  0
 25 27  1  0
 27 28  2  0
 21 29  1  0
 29 30  2  0
 30 31  1  0
 31 32  2  0
 32 33  1  0
 32 34  1  0
 34 35  2  0
 20 36  1  0
 36 37  1  0
 37 38  1  0
 38 39  2  0
 39 40  1  0
 40 41  1  0
 41 42  2  0
 42 43  1  0
 43 44  2  0
 44 45  1  0
 44 46  1  0
 46 47  2  0
 40 48  1  0
 48 49  2  0
 49 50  1  0
 50 51  2  0
 51 52  1  0
 51 53  1  0
 53 54  2  0
 39 55  1  0
 55 56  1  0
 38 57  1  0
 57 58  2  0
 58 59  1  0
 59 60  1  0
 60 61  2  0
 61 62  1  0
 62 63  2  0
 63 64  1  0
 64 65  1  0
 63 66  1  0
 66 67  2  0
 59 68  1  0
 68 69  2  0
 69 70  1  0
 70 71  2  0
 71 72  1  0
 72 73  1  0
 71 74  1  0
 74 75  2  0
 58 76  1  0
 76 77  1  0
 77 78  1  0
 78 79  2  0
 79 80  1  0
 80 81  1  0
 81 82  2  0
 82 83  1  0
 83 84  2  0
 84 85  1  0
 85 86  1  0
 84 87  1  0
 87 88  2  0
 80 89  1  0
 89 90  2  0
 90 91  1  0
 91 92  2  0
 92 93  1  0
 93 94  1  0
 92 95  1  0
 95 96  2  0
 79 97  1  0
 97 98  1  0
 78 99  1  0
 99100  2  0
100101  1  0
100102  1  0
102103  1  0
102104  2  0
104105  1  0
105106  2  0
106107  1  0
107108  1  0
108109  2  0
109110  1  0
110111  2  0
111112  1  0
112113  1  0
113114  1  0
111115  1  0
115116  2  0
115117  1  0
110118  1  0
107119  2  0
119120  1  0
120121  2  0
119122  1  0
122123  2  0
123124  1  0
124125  1  0
124126  2  0
126127  1  0
127128  1  0
128129  1  0
126130  1  0
130131  1  0
130132  2  0
104133  1  0
133134  2  3
134135  1  0
135136  2  0
135137  1  0
137138  2  0
138139  1  0
139140  2  0
140141  1  0
141142  2  0
142143  1  0
143144  2  3
144145  1  0
145146  3  0
144147  1  0
147148  3  0
140149  1  0
149150  1  0
150151  1  0
151152  2  0
152153  1  0
153154  1  0
153155  1  0
 13  2  1  0
 56 19  1  0
 98 57  1  0
121 99  1  0
132122  1  0
143134  1  0
155149  1  0
 12  5  1  0
 28 22  1  0
 35 29  1  0
 55 36  2  0
 67 60  1  0
 75 68  1  0
 97 76  2  0
121105  1  0
142137  1  0
154150  1  0
 47 41  1  0
 54 48  1  0
 88 81  1  0
 96 89  1  0
116108  1  0
155139  1  0
  1156  1  0
  6157  1  0
 11158  1  0
 23159  1  0
 24160  1  0
 26161  1  0
 26162  1  0
 26163  1  0
 27164  1  0
 28165  1  0
 30166  1  0
 31167  1  0
 33168  1  0
 33169  1  0
 33170  1  0
 34171  1  0
 35172  1  0
 42173  1  0
 43174  1  0
 45175  1  0
 45176  1  0
 45177  1  0
 46178  1  0
 47179  1  0
 49180  1  0
 50181  1  0
 52182  1  0
 52183  1  0
 52184  1  0
 53185  1  0
 54186  1  0
 61187  1  0
 62188  1  0
 65189  1  0
 65190  1  0
 65191  1  0
 66192  1  0
 67193  1  0
 69194  1  0
 70195  1  0
 73196  1  0
 73197  1  0
 73198  1  0
 74199  1  0
 75200  1  0
 82201  1  0
 83202  1  0
 86203  1  0
 86204  1  0
 86205  1  0
 87206  1  0
 88207  1  0
 90208  1  0
 91209  1  0
 94210  1  0
 94211  1  0
 94212  1  0
 95213  1  0
 96214  1  0
109215  1  0
113216  1  0
113217  1  0
114218  1  0
114219  1  0
114220  1  0
116221  1  0
123222  1  0
128223  1  0
128224  1  0
129225  1  0
129226  1  0
129227  1  0
132228  1  0
133229  1  0
138230  1  0
141231  1  0
149232  1  0
150233  1  0
151234  1  0
152235  1  0
153236  1  0
154237  1  0
154238  1  0
155239  1  0
M  END

