
     RDKit          3D

126137  0  0  0  0  0  0  0  0999 V2000
   -1.5562   -0.6079    7.0847 C   0  0  0  0  0  0  0  0  0  0  0  0
   -2.0397   -1.8384    7.3597 C   0  0  0  0  0  0  0  0  0  0  0  0
   -1.4943   -3.1186    6.8904 C   0  0  0  0  0  0  0  0  0  0  0  0
   -0.6247   -3.2892    5.9926 O   0  0  0  0  0  0  0  0  0  0  0  0
   -2.1197   -4.1849    7.6396 C   0  0  0  0  0  0  0  0  0  0  0  0
   -1.8347   -5.5517    7.6007 C   0  0  0  0  0  0  0  0  0  0  0  0
   -2.5414   -6.4081    8.4546 C   0  0  0  0  0  0  0  0  0  0  0  0
   -2.2161   -8.1322    8.4202 Cl  0  0  0  0  0  0  0  0  0  0  0  0
   -3.4974   -5.8838    9.3456 C   0  0  0  0  0  0  0  0  0  0  0  0
   -4.1674   -6.7088   10.1905 F   0  0  0  0  0  0  0  0  0  0  0  0
   -3.7598   -4.5046    9.3807 C   0  0  0  0  0  0  0  0  0  0  0  0
   -3.0713   -3.6551    8.4958 C   0  0  0  0  0  0  0  0  0  0  0  0
   -3.1637   -2.1817    8.2937 C   0  0  0  0  0  0  0  0  0  0  0  0
   -4.2115   -1.3846    8.6353 C   0  0  0  0  0  0  0  0  0  0  0  0
   -4.3842   -0.0596    8.0943 C   0  0  0  0  0  0  0  0  0  0  0  0
   -4.5454    1.0037    7.6646 N   0  0  0  0  0  0  0  0  0  0  0  0
   -5.3294   -1.8582    9.4057 C   0  0  0  0  0  0  0  0  0  0  0  0
   -6.2376   -2.2229   10.0224 N   0  0  0  0  0  0  0  0  0  0  0  0
   -0.5196   -0.3326    6.0757 C   0  0  0  0  0  0  0  0  0  0  0  0
    0.7796   -0.8248    6.0444 C   0  0  0  0  0  0  0  0  0  0  0  0
    1.4854   -0.4379    4.8986 C   0  0  0  0  0  0  0  0  0  0  0  0
    3.1204   -0.9741    4.5813 Cl  0  0  0  0  0  0  0  0  0  0  0  0
    0.7540    0.3835    4.0442 C   0  0  0  0  0  0  0  0  0  0  0  0
   -0.7721    0.6195    4.7165 S   0  0  0  0  0  0  0  0  0  0  0  0
    1.1053    0.7557    2.6641 C   0  0  0  0  0  0  0  0  0  0  0  0
    0.7805    1.9715    2.0214 C   0  0  0  0  0  0  0  0  0  0  0  0
    0.4531    3.2054    2.7061 N   0  0  0  0  0  0  0  0  0  0  0  0
   -0.3150    4.2205    2.0392 C   0  0  0  0  0  0  0  0  0  0  0  0
    0.2761    5.4488    1.7056 C   0  0  0  0  0  0  0  0  0  0  0  0
   -0.4415    6.3976    0.9699 C   0  0  0  0  0  0  0  0  0  0  0  0
   -1.7579    6.1361    0.5803 C   0  0  0  0  0  0  0  0  0  0  0  0
   -2.6734    7.3500   -0.3714 S   0  0  0  0  0  0  0  0  0  0  0  0
   -2.2744    6.5833   -1.9738 C   0  0  0  0  0  0  0  0  0  0  0  0
   -2.3609    4.9252    0.9408 C   0  0  0  0  0  0  0  0  0  0  0  0
   -1.6382    3.9617    1.6546 C   0  0  0  0  0  0  0  0  0  0  0  0
    1.0693    3.5147    3.9710 C   0  0  0  0  0  0  0  0  0  0  0  0
    0.3133    4.0610    5.0193 C   0  0  0  0  0  0  0  0  0  0  0  0
    0.8926    4.2661    6.2775 C   0  0  0  0  0  0  0  0  0  0  0  0
    2.2376    3.9414    6.4916 C   0  0  0  0  0  0  0  0  0  0  0  0
    2.9616    4.1140    8.1205 S   0  0  0  0  0  0  0  0  0  0  0  0
    3.4538    5.8479    7.8732 C   0  0  0  0  0  0  0  0  0  0  0  0
    3.0114    3.4463    5.4374 C   0  0  0  0  0  0  0  0  0  0  0  0
    2.4340    3.2389    4.1832 C   0  0  0  0  0  0  0  0  0  0  0  0
    0.9684    1.8592    0.6378 C   0  0  0  0  0  0  0  0  0  0  0  0
    0.6028    2.8109   -0.7015 S   0  0  0  0  0  0  0  0  0  0  0  0
    1.0375    1.6253   -1.8428 C   0  0  0  0  0  0  0  0  0  0  0  0
    1.5096    0.4892   -1.1618 C   0  0  0  0  0  0  0  0  0  0  0  0
    2.0039   -0.7069   -1.7928 N   0  0  0  0  0  0  0  0  0  0  0  0
    3.2809   -0.6266   -2.4537 C   0  0  0  0  0  0  0  0  0  0  0  0
    3.3894   -0.9044   -3.8290 C   0  0  0  0  0  0  0  0  0  0  0  0
    4.6207   -0.7832   -4.4816 C   0  0  0  0  0  0  0  0  0  0  0  0
    5.7622   -0.4165   -3.7611 C   0  0  0  0  0  0  0  0  0  0  0  0
    7.3395   -0.2419   -4.6066 S   0  0  0  0  0  0  0  0  0  0  0  0
    7.1291    1.5556   -4.8699 C   0  0  0  0  0  0  0  0  0  0  0  0
    5.6693   -0.1840   -2.3820 C   0  0  0  0  0  0  0  0  0  0  0  0
    4.4312   -0.2717   -1.7337 C   0  0  0  0  0  0  0  0  0  0  0  0
    1.2372   -1.9366   -1.7645 C   0  0  0  0  0  0  0  0  0  0  0  0
    1.8307   -3.1668   -2.1125 C   0  0  0  0  0  0  0  0  0  0  0  0
    1.0645   -4.3309   -2.1905 C   0  0  0  0  0  0  0  0  0  0  0  0
   -0.3026   -4.2927   -1.9105 C   0  0  0  0  0  0  0  0  0  0  0  0
   -1.2999   -5.7681   -2.1084 S   0  0  0  0  0  0  0  0  0  0  0  0
   -1.7192   -5.3943   -3.8430 C   0  0  0  0  0  0  0  0  0  0  0  0
   -0.8952   -3.0915   -1.5066 C   0  0  0  0  0  0  0  0  0  0  0  0
   -0.1338   -1.9242   -1.4336 C   0  0  0  0  0  0  0  0  0  0  0  0
    1.4315    0.6564    0.2142 C   0  0  0  0  0  0  0  0  0  0  0  0
    1.6266   -0.3821    1.5092 S   0  0  0  0  0  0  0  0  0  0  0  0
    0.6376    1.6651   -3.2589 C   0  0  0  0  0  0  0  0  0  0  0  0
    0.3627    2.8064   -4.0152 C   0  0  0  0  0  0  0  0  0  0  0  0
   -0.1658    2.5145   -5.2802 C   0  0  0  0  0  0  0  0  0  0  0  0
   -0.5492    3.7546   -6.4642 Cl  0  0  0  0  0  0  0  0  0  0  0  0
   -0.3321    1.1505   -5.5012 C   0  0  0  0  0  0  0  0  0  0  0  0
    0.1750    0.3170   -4.1488 S   0  0  0  0  0  0  0  0  0  0  0  0
   -0.7793    0.4926   -6.7334 C   0  0  0  0  0  0  0  0  0  0  0  0
    0.0784   -0.1901   -7.5172 C   0  0  0  0  0  0  0  0  0  0  0  0
    1.5401   -0.0187   -7.4945 C   0  0  0  0  0  0  0  0  0  0  0  0
    2.2059    0.6845   -6.6848 O   0  0  0  0  0  0  0  0  0  0  0  0
    2.0917   -0.6701   -8.6628 C   0  0  0  0  0  0  0  0  0  0  0  0
    3.4159   -0.6450   -9.1078 C   0  0  0  0  0  0  0  0  0  0  0  0
    3.7170   -1.2405  -10.3385 C   0  0  0  0  0  0  0  0  0  0  0  0
    5.5144   -1.2416  -10.9758 Br  0  0  0  0  0  0  0  0  0  0  0  0
    2.6968   -1.8409  -11.1007 C   0  0  0  0  0  0  0  0  0  0  0  0
    1.3679   -1.8443  -10.6385 C   0  0  0  0  0  0  0  0  0  0  0  0
    1.0723   -1.2564   -9.3971 C   0  0  0  0  0  0  0  0  0  0  0  0
   -0.2338   -1.0654   -8.6929 C   0  0  0  0  0  0  0  0  0  0  0  0
   -1.4008   -1.7163   -8.9462 C   0  0  0  0  0  0  0  0  0  0  0  0
   -2.5645   -1.5893   -8.1057 C   0  0  0  0  0  0  0  0  0  0  0  0
   -3.5103   -1.4995   -7.4482 N   0  0  0  0  0  0  0  0  0  0  0  0
   -1.5384   -2.6764  -10.0118 C   0  0  0  0  0  0  0  0  0  0  0  0
   -1.6613   -3.4565  -10.8602 N   0  0  0  0  0  0  0  0  0  0  0  0
   -1.9763    0.2628    7.5601 H   0  0  0  0  0  0  0  0  0  0  0  0
   -1.0805   -5.9429    6.9269 H   0  0  0  0  0  0  0  0  0  0  0  0
   -4.4653   -4.1352   10.1093 H   0  0  0  0  0  0  0  0  0  0  0  0
    1.1931   -1.4739    6.8048 H   0  0  0  0  0  0  0  0  0  0  0  0
    1.3028    5.6497    1.9814 H   0  0  0  0  0  0  0  0  0  0  0  0
    0.0361    7.3277    0.6936 H   0  0  0  0  0  0  0  0  0  0  0  0
   -2.6611    5.5427   -2.0119 H   0  0  0  0  0  0  0  0  0  0  0  0
   -2.7591    7.1674   -2.7807 H   0  0  0  0  0  0  0  0  0  0  0  0
   -1.1790    6.5825   -2.1429 H   0  0  0  0  0  0  0  0  0  0  0  0
   -3.3833    4.7162    0.6332 H   0  0  0  0  0  0  0  0  0  0  0  0
   -2.1046    3.0149    1.8994 H   0  0  0  0  0  0  0  0  0  0  0  0
   -0.7315    4.2847    4.8699 H   0  0  0  0  0  0  0  0  0  0  0  0
    0.2898    4.6585    7.0873 H   0  0  0  0  0  0  0  0  0  0  0  0
    4.0490    6.1757    8.7500 H   0  0  0  0  0  0  0  0  0  0  0  0
    2.5484    6.4830    7.7899 H   0  0  0  0  0  0  0  0  0  0  0  0
    4.0772    5.9583    6.9602 H   0  0  0  0  0  0  0  0  0  0  0  0
    4.0565    3.1998    5.5906 H   0  0  0  0  0  0  0  0  0  0  0  0
    3.0455    2.8422    3.3802 H   0  0  0  0  0  0  0  0  0  0  0  0
    2.5251   -1.2074   -4.3972 H   0  0  0  0  0  0  0  0  0  0  0  0
    4.6859   -0.9826   -5.5441 H   0  0  0  0  0  0  0  0  0  0  0  0
    7.9111    1.9210   -5.5709 H   0  0  0  0  0  0  0  0  0  0  0  0
    6.1372    1.7759   -5.3067 H   0  0  0  0  0  0  0  0  0  0  0  0
    7.2404    2.0885   -3.9034 H   0  0  0  0  0  0  0  0  0  0  0  0
    6.5550    0.0604   -1.8108 H   0  0  0  0  0  0  0  0  0  0  0  0
    4.3706   -0.0850   -0.6704 H   0  0  0  0  0  0  0  0  0  0  0  0
    2.8867   -3.2311   -2.3430 H   0  0  0  0  0  0  0  0  0  0  0  0
    1.5321   -5.2605   -2.4929 H   0  0  0  0  0  0  0  0  0  0  0  0
   -2.1781   -4.3850   -3.9178 H   0  0  0  0  0  0  0  0  0  0  0  0
   -0.8053   -5.4252   -4.4731 H   0  0  0  0  0  0  0  0  0  0  0  0
   -2.4409   -6.1449   -4.2147 H   0  0  0  0  0  0  0  0  0  0  0  0
   -1.9528   -3.0503   -1.2898 H   0  0  0  0  0  0  0  0  0  0  0  0
   -0.6355   -1.0067   -1.1514 H   0  0  0  0  0  0  0  0  0  0  0  0
    0.5270    3.8175   -3.6574 H   0  0  0  0  0  0  0  0  0  0  0  0
   -1.8390    0.5082   -6.9413 H   0  0  0  0  0  0  0  0  0  0  0  0
    4.1860   -0.1519   -8.5254 H   0  0  0  0  0  0  0  0  0  0  0  0
    2.9305   -2.2825  -12.0604 H   0  0  0  0  0  0  0  0  0  0  0  0
    0.6022   -2.2512  -11.2761 H   0  0  0  0  0  0  0  0  0  0  0  0
  1  2  2  3
  2  3  1  0
  3  4  2  0
  3  5  1  0
  5  6  2  0
  6  7  1  0
  7  8  1  0
  7  9  2  0
  9 10  1  0
  9 11  1  0
 11 12  2  0
 12 13  1  0
 13 14  2  3
 14 15  1  0
 15 16  3  0
 14 17  1  0
 17 18  3  0
  1 19  1  0
 19 20  2  0
 20 21  1  0
 21 22  1  0
 21 23  2  0
 23 24  1  0
 23 25  1  0
 25 26  2  0
 26 27  1  0
 27 28  1  0
 28 29  2  0
 29 30  1  0
 30 31  2  0
 31 32  1  0
 32 33  1  0
 31 34  1  0
 34 35  2  0
 27 36  1  0
 36 37  2  0
 37 38  1  0
 38 39  2  0
 39 40  1  0
 40 41  1  0
 39 42  1  0
 42 43  2  0
 26 44  1  0
 44 45  1  0
 45 46  1  0
 46 47  2  0
 47 48  1  0
 48 49  1  0
 49 50  2  0
 50 51  1  0
 51 52  2  0
 52 53  1  0
 53 54  1  0
 52 55  1  0
 55 56  2  0
 48 57  1  0
 57 58  2  0
 58 59  1  0
 59 60  2  0
 60 61  1  0
 61 62  1  0
 60 63  1  0
 63 64  2  0
 47 65  1  0
 65 66  1  0
 46 67  1  0
 67 68  2  0
 68 69  1  0
 69 70  1  0
 69 71  2  0
 71 72  1  0
 71 73  1  0
 73 74  2  3
 74 75  1  0
 75 76  2  0
 75 77  1  0
 77 78  2  0
 78 79  1  0
 79 80  1  0
 79 81  2  0
 81 82  1  0
 82 83  2  0
 83 84  1  0
 84 85  2  3
 85 86  1  0
 86 87  3  0
 85 88  1  0
 88 89  3  0
 13  2  1  0
 24 19  1  0
 66 25  1  0
 72 67  1  0
 84 74  1  0
 12  5  1  0
 35 28  1  0
 43 36  1  0
 65 44  2  0
 83 77  1  0
 56 49  1  0
 64 57  1  0
  1 90  1  0
  6 91  1  0
 11 92  1  0
 20 93  1  0
 29 94  1  0
 30 95  1  0
 33 96  1  0
 33 97  1  0
 33 98  1  0
 34 99  1  0
 35100  1  0
 37101  1  0
 38102  1  0
 41103  1  0
 41104  1  0
 41105  1  0
 42106  1  0
 43107  1  0
 50108  1  0
 51109  1  0
 54110  1  0
 54111  1  0
 54112  1  0
 55113  1  0
 56114  1  0
 58115  1  0
 59116  1  0
 62117  1  0
 62118  1  0
 62119  1  0
 63120  1  0
 64121  1  0
 68122  1  0
 73123  1  0
 78124  1  0
 81125  1  0
 82126  1  0
M  END

