
     RDKit          3D

196215  0  0  0  0  0  0  0  0999 V2000
    1.7087   -2.4054   -8.6516 C   0  0  0  0  0  0  0  0  0  0  0  0
    1.0411   -3.4998   -8.2357 C   0  0  0  0  0  0  0  0  0  0  0  0
    0.6212   -3.7700   -6.8494 C   0  0  0  0  0  0  0  0  0  0  0  0
    0.6701   -2.9698   -5.8783 O   0  0  0  0  0  0  0  0  0  0  0  0
    0.2539   -5.1626   -6.7433 C   0  0  0  0  0  0  0  0  0  0  0  0
   -0.1182   -5.8702   -5.6001 C   0  0  0  0  0  0  0  0  0  0  0  0
   -0.3486   -7.2483   -5.7114 C   0  0  0  0  0  0  0  0  0  0  0  0
   -0.8358   -8.1653   -4.2961 Cl  0  0  0  0  0  0  0  0  0  0  0  0
   -0.1644   -7.8949   -6.9477 C   0  0  0  0  0  0  0  0  0  0  0  0
   -0.3535   -9.2326   -7.0533 F   0  0  0  0  0  0  0  0  0  0  0  0
    0.2252   -7.1657   -8.0842 C   0  0  0  0  0  0  0  0  0  0  0  0
    0.4048   -5.7770   -7.9761 C   0  0  0  0  0  0  0  0  0  0  0  0
    0.8083   -4.7683   -9.0013 C   0  0  0  0  0  0  0  0  0  0  0  0
    0.7152   -4.8990  -10.3532 C   0  0  0  0  0  0  0  0  0  0  0  0
    0.2545   -6.1097  -10.9850 C   0  0  0  0  0  0  0  0  0  0  0  0
   -0.1288   -7.0730  -11.5092 N   0  0  0  0  0  0  0  0  0  0  0  0
    0.9088   -3.7843  -11.2491 C   0  0  0  0  0  0  0  0  0  0  0  0
    1.0598   -2.8975  -11.9747 N   0  0  0  0  0  0  0  0  0  0  0  0
    1.8583   -1.2014   -7.8168 C   0  0  0  0  0  0  0  0  0  0  0  0
    3.0565   -0.7522   -7.2742 C   0  0  0  0  0  0  0  0  0  0  0  0
    2.8724    0.2821   -6.3365 C   0  0  0  0  0  0  0  0  0  0  0  0
    3.8725    0.8744   -5.5375 C   0  0  0  0  0  0  0  0  0  0  0  0
    5.2941    0.5103   -5.6674 C   0  0  0  0  0  0  0  0  0  0  0  0
    5.9258   -1.0307   -5.4185 S   0  0  0  0  0  0  0  0  0  0  0  0
    7.5132   -0.6394   -5.8214 C   0  0  0  0  0  0  0  0  0  0  0  0
    8.6365   -1.6274   -5.9065 C   0  0  0  0  0  0  0  0  0  0  0  0
    8.6111   -2.3529   -7.2484 C   0  0  0  0  0  0  0  0  0  0  0  0
    7.5636    0.7044   -6.1862 C   0  0  0  0  0  0  0  0  0  0  0  0
    9.0304    1.5187   -6.7175 Cl  0  0  0  0  0  0  0  0  0  0  0  0
    6.3212    1.3505   -6.0880 C   0  0  0  0  0  0  0  0  0  0  0  0
    6.0852    3.0450   -6.5053 Cl  0  0  0  0  0  0  0  0  0  0  0  0
    3.4484    1.7966   -4.5643 C   0  0  0  0  0  0  0  0  0  0  0  0
    2.1079    2.1616   -4.4130 C   0  0  0  0  0  0  0  0  0  0  0  0
    1.1159    1.6246   -5.2569 C   0  0  0  0  0  0  0  0  0  0  0  0
   -0.3033    2.0135   -5.1541 C   0  0  0  0  0  0  0  0  0  0  0  0
   -1.3823    1.1492   -4.9925 C   0  0  0  0  0  0  0  0  0  0  0  0
   -2.6251    1.7815   -5.1285 C   0  0  0  0  0  0  0  0  0  0  0  0
   -2.5212    3.1393   -5.4004 C   0  0  0  0  0  0  0  0  0  0  0  0
   -3.6608    4.0575   -5.7274 C   0  0  0  0  0  0  0  0  0  0  0  0
   -3.9910    4.0084   -7.2150 C   0  0  0  0  0  0  0  0  0  0  0  0
   -0.8925    3.5572   -5.4788 S   0  0  0  0  0  0  0  0  0  0  0  0
    1.5346    0.6602   -6.1911 C   0  0  0  0  0  0  0  0  0  0  0  0
    0.5792   -0.2766   -7.2123 S   0  0  0  0  0  0  0  0  0  0  0  0
    1.8710    2.9168   -3.2520 C   0  0  0  0  0  0  0  0  0  0  0  0
    3.0143    3.1112   -2.4686 C   0  0  0  0  0  0  0  0  0  0  0  0
    4.3244    2.3819   -3.2476 S   0  0  0  0  0  0  0  0  0  0  0  0
    2.9385    3.3272   -1.0152 C   0  0  0  0  0  0  0  0  0  0  0  0
    1.8498    3.9644   -0.4026 C   0  0  0  0  0  0  0  0  0  0  0  0
    1.4330    5.2986   -0.7515 N   0  0  0  0  0  0  0  0  0  0  0  0
    0.0840    5.5400   -1.1842 C   0  0  0  0  0  0  0  0  0  0  0  0
   -0.1828    5.7460   -2.5452 C   0  0  0  0  0  0  0  0  0  0  0  0
   -1.4728    6.0605   -2.9710 C   0  0  0  0  0  0  0  0  0  0  0  0
   -2.5110    6.1912   -2.0367 C   0  0  0  0  0  0  0  0  0  0  0  0
   -4.1628    6.6246   -2.5848 S   0  0  0  0  0  0  0  0  0  0  0  0
   -4.7899    4.9148   -2.4863 C   0  0  0  0  0  0  0  0  0  0  0  0
   -2.2450    6.0229   -0.6763 C   0  0  0  0  0  0  0  0  0  0  0  0
   -0.9534    5.6980   -0.2509 C   0  0  0  0  0  0  0  0  0  0  0  0
    2.2864    6.4135   -0.3998 C   0  0  0  0  0  0  0  0  0  0  0  0
    1.7791    7.5183    0.3149 C   0  0  0  0  0  0  0  0  0  0  0  0
    2.6291    8.5399    0.7477 C   0  0  0  0  0  0  0  0  0  0  0  0
    3.9945    8.4878    0.4609 C   0  0  0  0  0  0  0  0  0  0  0  0
    5.0986    9.7623    1.0685 S   0  0  0  0  0  0  0  0  0  0  0  0
    5.5354    8.8457    2.5799 C   0  0  0  0  0  0  0  0  0  0  0  0
    4.5036    7.4303   -0.2953 C   0  0  0  0  0  0  0  0  0  0  0  0
    3.6571    6.4047   -0.7282 C   0  0  0  0  0  0  0  0  0  0  0  0
    1.5649    3.3983    0.8415 C   0  0  0  0  0  0  0  0  0  0  0  0
    0.0561    3.0383    1.4834 S   0  0  0  0  0  0  0  0  0  0  0  0
    0.5708    1.7214    2.4084 C   0  0  0  0  0  0  0  0  0  0  0  0
    1.9294    1.5228    2.1872 C   0  0  0  0  0  0  0  0  0  0  0  0
    2.7407    0.6192    2.9539 N   0  0  0  0  0  0  0  0  0  0  0  0
    3.5717    1.1643    3.9973 C   0  0  0  0  0  0  0  0  0  0  0  0
    4.9057    0.7479    4.1261 C   0  0  0  0  0  0  0  0  0  0  0  0
    5.7175    1.2828    5.1335 C   0  0  0  0  0  0  0  0  0  0  0  0
    5.1969    2.2171    6.0326 C   0  0  0  0  0  0  0  0  0  0  0  0
    6.2425    2.9257    7.3050 S   0  0  0  0  0  0  0  0  0  0  0  0
    5.9547    1.5651    8.4786 C   0  0  0  0  0  0  0  0  0  0  0  0
    3.8630    2.6246    5.9226 C   0  0  0  0  0  0  0  0  0  0  0  0
    3.0567    2.1128    4.8991 C   0  0  0  0  0  0  0  0  0  0  0  0
    2.6421   -0.8026    2.7766 C   0  0  0  0  0  0  0  0  0  0  0  0
    2.4837   -1.6392    3.8968 C   0  0  0  0  0  0  0  0  0  0  0  0
    2.5552   -3.0276    3.7554 C   0  0  0  0  0  0  0  0  0  0  0  0
    2.7922   -3.5920    2.5011 C   0  0  0  0  0  0  0  0  0  0  0  0
    3.0414   -5.3620    2.3582 S   0  0  0  0  0  0  0  0  0  0  0  0
    4.8309   -5.2517    2.6934 C   0  0  0  0  0  0  0  0  0  0  0  0
    2.8833   -2.7668    1.3694 C   0  0  0  0  0  0  0  0  0  0  0  0
    2.7963   -1.3763    1.5054 C   0  0  0  0  0  0  0  0  0  0  0  0
    2.4462    2.4464    1.2777 C   0  0  0  0  0  0  0  0  0  0  0  0
    3.5741    2.1724    0.0660 S   0  0  0  0  0  0  0  0  0  0  0  0
   -0.3428    0.7457    2.9946 C   0  0  0  0  0  0  0  0  0  0  0  0
   -0.4007    0.3802    4.3317 C   0  0  0  0  0  0  0  0  0  0  0  0
   -1.4896   -0.4650    4.6052 C   0  0  0  0  0  0  0  0  0  0  0  0
   -1.8839   -0.9314    5.8720 C   0  0  0  0  0  0  0  0  0  0  0  0
   -1.1297   -0.6025    7.0931 C   0  0  0  0  0  0  0  0  0  0  0  0
   -0.9004    0.9468    7.7045 S   0  0  0  0  0  0  0  0  0  0  0  0
    0.0253    0.4759    9.0302 C   0  0  0  0  0  0  0  0  0  0  0  0
    0.5224    1.4061   10.0901 C   0  0  0  0  0  0  0  0  0  0  0  0
   -0.4945    1.5239   11.2209 C   0  0  0  0  0  0  0  0  0  0  0  0
    0.1337   -0.9149    9.0308 C   0  0  0  0  0  0  0  0  0  0  0  0
    0.9792   -1.8241   10.2735 Cl  0  0  0  0  0  0  0  0  0  0  0  0
   -0.5066   -1.5179    7.9385 C   0  0  0  0  0  0  0  0  0  0  0  0
   -0.5028   -3.2554    7.6551 Cl  0  0  0  0  0  0  0  0  0  0  0  0
   -3.0753   -1.6659    5.9337 C   0  0  0  0  0  0  0  0  0  0  0  0
   -3.8064   -2.0087    4.7944 C   0  0  0  0  0  0  0  0  0  0  0  0
   -3.3650   -1.6290    3.5136 C   0  0  0  0  0  0  0  0  0  0  0  0
   -4.0707   -2.0680    2.2871 C   0  0  0  0  0  0  0  0  0  0  0  0
   -4.4538   -3.3775    2.0137 C   0  0  0  0  0  0  0  0  0  0  0  0
   -5.1541   -3.5187    0.8112 C   0  0  0  0  0  0  0  0  0  0  0  0
   -5.3398   -2.3150    0.1453 C   0  0  0  0  0  0  0  0  0  0  0  0
   -6.0387   -2.1531   -1.1738 C   0  0  0  0  0  0  0  0  0  0  0  0
   -5.0375   -2.1449   -2.3247 C   0  0  0  0  0  0  0  0  0  0  0  0
   -4.6142   -1.0787    1.0268 S   0  0  0  0  0  0  0  0  0  0  0  0
   -2.2284   -0.8042    3.4636 C   0  0  0  0  0  0  0  0  0  0  0  0
   -1.5675   -0.0268    2.1331 S   0  0  0  0  0  0  0  0  0  0  0  0
   -5.0350   -2.6156    5.0843 C   0  0  0  0  0  0  0  0  0  0  0  0
   -5.2979   -2.6791    6.4508 C   0  0  0  0  0  0  0  0  0  0  0  0
   -3.9669   -2.0863    7.3068 S   0  0  0  0  0  0  0  0  0  0  0  0
   -6.5715   -3.1015    7.0690 C   0  0  0  0  0  0  0  0  0  0  0  0
   -7.7775   -2.9627    6.4869 C   0  0  0  0  0  0  0  0  0  0  0  0
   -8.9479   -3.7557    6.8517 C   0  0  0  0  0  0  0  0  0  0  0  0
   -9.1218   -4.3418    7.9574 O   0  0  0  0  0  0  0  0  0  0  0  0
   -9.8388   -3.8035    5.6969 C   0  0  0  0  0  0  0  0  0  0  0  0
  -10.9715   -4.5975    5.4900 C   0  0  0  0  0  0  0  0  0  0  0  0
  -11.6478   -5.5558    6.8034 Cl  0  0  0  0  0  0  0  0  0  0  0  0
  -11.5377   -4.6341    4.1959 C   0  0  0  0  0  0  0  0  0  0  0  0
  -12.9769   -5.6084    3.8943 Cl  0  0  0  0  0  0  0  0  0  0  0  0
  -10.9079   -3.9442    3.1279 C   0  0  0  0  0  0  0  0  0  0  0  0
  -11.5570   -4.0850    1.4893 Cl  0  0  0  0  0  0  0  0  0  0  0  0
   -9.7524   -3.1705    3.3580 C   0  0  0  0  0  0  0  0  0  0  0  0
   -8.7872   -2.5942    1.9956 Cl  0  0  0  0  0  0  0  0  0  0  0  0
   -9.2890   -3.0349    4.6834 C   0  0  0  0  0  0  0  0  0  0  0  0
   -8.1239   -2.2895    5.2080 C   0  0  0  0  0  0  0  0  0  0  0  0
   -7.8595   -0.9838    4.9378 C   0  0  0  0  0  0  0  0  0  0  0  0
   -6.9807   -0.1959    5.7655 C   0  0  0  0  0  0  0  0  0  0  0  0
   -6.2850    0.4545    6.4230 N   0  0  0  0  0  0  0  0  0  0  0  0
   -8.6157   -0.2278    3.9711 C   0  0  0  0  0  0  0  0  0  0  0  0
   -9.2138    0.3970    3.2025 N   0  0  0  0  0  0  0  0  0  0  0  0
    2.2481   -2.4182   -9.5824 H   0  0  0  0  0  0  0  0  0  0  0  0
   -0.2178   -5.3714   -4.6457 H   0  0  0  0  0  0  0  0  0  0  0  0
    0.4074   -7.6982   -9.0056 H   0  0  0  0  0  0  0  0  0  0  0  0
    4.0111   -1.2026   -7.5095 H   0  0  0  0  0  0  0  0  0  0  0  0
    8.5409   -2.3613   -5.0786 H   0  0  0  0  0  0  0  0  0  0  0  0
    9.6125   -1.1096   -5.7813 H   0  0  0  0  0  0  0  0  0  0  0  0
    8.6492   -1.6213   -8.0860 H   0  0  0  0  0  0  0  0  0  0  0  0
    7.6893   -2.9677   -7.3392 H   0  0  0  0  0  0  0  0  0  0  0  0
    9.4902   -3.0258   -7.3266 H   0  0  0  0  0  0  0  0  0  0  0  0
   -1.2753    0.0845   -4.8242 H   0  0  0  0  0  0  0  0  0  0  0  0
   -3.5656    1.2450   -5.0835 H   0  0  0  0  0  0  0  0  0  0  0  0
   -3.3939    5.0974   -5.4480 H   0  0  0  0  0  0  0  0  0  0  0  0
   -4.5622    3.7694   -5.1497 H   0  0  0  0  0  0  0  0  0  0  0  0
   -4.8003    4.7403   -7.4347 H   0  0  0  0  0  0  0  0  0  0  0  0
   -4.3474    2.9962   -7.5050 H   0  0  0  0  0  0  0  0  0  0  0  0
   -3.0947    4.2738   -7.8183 H   0  0  0  0  0  0  0  0  0  0  0  0
    0.8733    3.1583   -2.9047 H   0  0  0  0  0  0  0  0  0  0  0  0
    0.6154    5.6750   -3.2747 H   0  0  0  0  0  0  0  0  0  0  0  0
   -1.6664    6.2203   -4.0220 H   0  0  0  0  0  0  0  0  0  0  0  0
   -4.0313    4.1925   -2.8533 H   0  0  0  0  0  0  0  0  0  0  0  0
   -5.0508    4.6803   -1.4332 H   0  0  0  0  0  0  0  0  0  0  0  0
   -5.7043    4.8325   -3.1135 H   0  0  0  0  0  0  0  0  0  0  0  0
   -3.0314    6.1482    0.0569 H   0  0  0  0  0  0  0  0  0  0  0  0
   -0.7481    5.6225    0.8064 H   0  0  0  0  0  0  0  0  0  0  0  0
    0.7349    7.5807    0.5753 H   0  0  0  0  0  0  0  0  0  0  0  0
    2.2274    9.3742    1.3068 H   0  0  0  0  0  0  0  0  0  0  0  0
    5.9762    7.8621    2.3167 H   0  0  0  0  0  0  0  0  0  0  0  0
    4.6348    8.7020    3.2114 H   0  0  0  0  0  0  0  0  0  0  0  0
    6.2868    9.4275    3.1517 H   0  0  0  0  0  0  0  0  0  0  0  0
    5.5567    7.3957   -0.5464 H   0  0  0  0  0  0  0  0  0  0  0  0
    4.0868    5.6036   -1.3165 H   0  0  0  0  0  0  0  0  0  0  0  0
    5.3166    0.0244    3.4359 H   0  0  0  0  0  0  0  0  0  0  0  0
    6.7490    0.9683    5.2070 H   0  0  0  0  0  0  0  0  0  0  0  0
    4.8687    1.4520    8.6839 H   0  0  0  0  0  0  0  0  0  0  0  0
    6.3625    0.6200    8.0621 H   0  0  0  0  0  0  0  0  0  0  0  0
    6.4773    1.7905    9.4329 H   0  0  0  0  0  0  0  0  0  0  0  0
    3.4478    3.3451    6.6175 H   0  0  0  0  0  0  0  0  0  0  0  0
    2.0261    2.4394    4.8259 H   0  0  0  0  0  0  0  0  0  0  0  0
    2.3358   -1.2121    4.8809 H   0  0  0  0  0  0  0  0  0  0  0  0
    2.4687   -3.6581    4.6312 H   0  0  0  0  0  0  0  0  0  0  0  0
    4.9977   -4.8741    3.7254 H   0  0  0  0  0  0  0  0  0  0  0  0
    5.3153   -4.5684    1.9618 H   0  0  0  0  0  0  0  0  0  0  0  0
    5.2885   -6.2611    2.6026 H   0  0  0  0  0  0  0  0  0  0  0  0
    3.0658   -3.1972    0.3935 H   0  0  0  0  0  0  0  0  0  0  0  0
    2.9221   -0.7470    0.6356 H   0  0  0  0  0  0  0  0  0  0  0  0
    0.2876    0.7501    5.0776 H   0  0  0  0  0  0  0  0  0  0  0  0
    1.4902    1.0410   10.4935 H   0  0  0  0  0  0  0  0  0  0  0  0
    0.6948    2.4091    9.6476 H   0  0  0  0  0  0  0  0  0  0  0  0
   -0.6906    0.5249   11.6677 H   0  0  0  0  0  0  0  0  0  0  0  0
   -0.1046    2.2005   12.0053 H   0  0  0  0  0  0  0  0  0  0  0  0
   -1.4498    1.9412   10.8331 H   0  0  0  0  0  0  0  0  0  0  0  0
   -4.2407   -4.2115    2.6745 H   0  0  0  0  0  0  0  0  0  0  0  0
   -5.5236   -4.4712    0.4451 H   0  0  0  0  0  0  0  0  0  0  0  0
   -6.6079   -1.2039   -1.1681 H   0  0  0  0  0  0  0  0  0  0  0  0
   -6.7552   -2.9831   -1.3113 H   0  0  0  0  0  0  0  0  0  0  0  0
   -5.5826   -2.0150   -3.2856 H   0  0  0  0  0  0  0  0  0  0  0  0
   -4.3279   -1.3007   -2.2024 H   0  0  0  0  0  0  0  0  0  0  0  0
   -4.4787   -3.1045   -2.3546 H   0  0  0  0  0  0  0  0  0  0  0  0
   -5.7409   -2.9260    4.3316 H   0  0  0  0  0  0  0  0  0  0  0  0
   -6.5074   -3.6198    8.0190 H   0  0  0  0  0  0  0  0  0  0  0  0
  1  2  2  3
  2  3  1  0
  3  4  2  0
  3  5  1  0
  5  6  2  0
  6  7  1  0
  7  8  1  0
  7  9  2  0
  9 10  1  0
  9 11  1  0
 11 12  2  0
 12 13  1  0
 13 14  2  3
 14 15  1  0
 15 16  3  0
 14 17  1  0
 17 18  3  0
  1 19  1  0
 19 20  2  0
 20 21  1  0
 21 22  2  0
 22 23  1  0
 23 24  1  0
 24 25  1  0
 25 26  1  0
 26 27  1  0
 25 28  2  0
 28 29  1  0
 28 30  1  0
 30 31  1  0
 22 32  1  0
 32 33  2  0
 33 34  1  0
 34 35  1  0
 35 36  2  0
 36 37  1  0
 37 38  2  0
 38 39  1  0
 39 40  1  0
 38 41  1  0
 34 42  2  0
 42 43  1  0
 33 44  1  0
 44 45  2  0
 45 46  1  0
 45 47  1  0
 47 48  2  0
 48 49  1  0
 49 50  1  0
 50 51  2  0
 51 52  1  0
 52 53  2  0
 53 54  1  0
 54 55  1  0
 53 56  1  0
 56 57  2  0
 49 58  1  0
 58 59  2  0
 59 60  1  0
 60 61  2  0
 61 62  1  0
 62 63  1  0
 61 64  1  0
 64 65  2  0
 48 66  1  0
 66 67  1  0
 67 68  1  0
 68 69  2  0
 69 70  1  0
 70 71  1  0
 71 72  2  0
 72 73  1  0
 73 74  2  0
 74 75  1  0
 75 76  1  0
 74 77  1  0
 77 78  2  0
 70 79  1  0
 79 80  2  0
 80 81  1  0
 81 82  2  0
 82 83  1  0
 83 84  1  0
 82 85  1  0
 85 86  2  0
 69 87  1  0
 87 88  1  0
 68 89  1  0
 89 90  2  0
 90 91  1  0
 91 92  2  0
 92 93  1  0
 93 94  1  0
 94 95  1  0
 95 96  1  0
 96 97  1  0
 95 98  2  0
 98 99  1  0
 98100  1  0
100101  1  0
 92102  1  0
102103  2  0
103104  1  0
104105  1  0
105106  2  0
106107  1  0
107108  2  0
108109  1  0
109110  1  0
108111  1  0
104112  2  0
112113  1  0
103114  1  0
114115  2  0
115116  1  0
115117  1  0
117118  2  3
118119  1  0
119120  2  0
119121  1  0
121122  2  0
122123  1  0
122124  1  0
124125  1  0
124126  2  0
126127  1  0
126128  1  0
128129  1  0
128130  2  0
130131  1  0
131132  2  3
132133  1  0
133134  3  0
132135  1  0
135136  3  0
 13  2  1  0
 43 19  1  0
 88 47  1  0
113 89  1  0
131118  1  0
 12  5  1  0
 42 21  1  0
 57 50  1  0
 65 58  1  0
 87 66  2  0
112 91  1  0
130121  1  0
 30 23  2  0
 46 32  1  0
 78 71  1  0
 86 79  1  0
100 93  2  0
116102  1  0
 41 35  1  0
111105  1  0
  1137  1  0
  6138  1  0
 11139  1  0
 20140  1  0
 26141  1  0
 26142  1  0
 27143  1  0
 27144  1  0
 27145  1  0
 36146  1  0
 37147  1  0
 39148  1  0
 39149  1  0
 40150  1  0
 40151  1  0
 40152  1  0
 44153  1  0
 51154  1  0
 52155  1  0
 55156  1  0
 55157  1  0
 55158  1  0
 56159  1  0
 57160  1  0
 59161  1  0
 60162  1  0
 63163  1  0
 63164  1  0
 63165  1  0
 64166  1  0
 65167  1  0
 72168  1  0
 73169  1  0
 76170  1  0
 76171  1  0
 76172  1  0
 77173  1  0
 78174  1  0
 80175  1  0
 81176  1  0
 84177  1  0
 84178  1  0
 84179  1  0
 85180  1  0
 86181  1  0
 90182  1  0
 96183  1  0
 96184  1  0
 97185  1  0
 97186  1  0
 97187  1  0
106188  1  0
107189  1  0
109190  1  0
109191  1  0
110192  1  0
110193  1  0
110194  1  0
114195  1  0
117196  1  0
M  END

