
     RDKit          3D

146159  0  0  0  0  0  0  0  0999 V2000
    0.2718    3.4085   -7.4834 C   0  0  0  0  0  0  0  0  0  0  0  0
    0.0805    4.6963   -7.7962 C   0  0  0  0  0  0  0  0  0  0  0  0
    0.2580    5.2234   -9.1494 C   0  0  0  0  0  0  0  0  0  0  0  0
    0.3095    4.5453  -10.2150 O   0  0  0  0  0  0  0  0  0  0  0  0
    0.5364    6.6419   -9.0525 C   0  0  0  0  0  0  0  0  0  0  0  0
    0.9412    7.5191  -10.0603 C   0  0  0  0  0  0  0  0  0  0  0  0
    1.2946    8.8265   -9.6995 C   0  0  0  0  0  0  0  0  0  0  0  0
    1.8405    9.9479  -10.9369 Cl  0  0  0  0  0  0  0  0  0  0  0  0
    1.2319    9.2295   -8.3495 C   0  0  0  0  0  0  0  0  0  0  0  0
    1.6358   10.4759   -7.9972 F   0  0  0  0  0  0  0  0  0  0  0  0
    0.8223    8.3289   -7.3544 C   0  0  0  0  0  0  0  0  0  0  0  0
    0.4512    7.0300   -7.7219 C   0  0  0  0  0  0  0  0  0  0  0  0
    0.0313    5.8764   -6.8865 C   0  0  0  0  0  0  0  0  0  0  0  0
   -0.6545    5.9437   -5.7108 C   0  0  0  0  0  0  0  0  0  0  0  0
   -1.3783    4.8130   -5.1831 C   0  0  0  0  0  0  0  0  0  0  0  0
   -1.9742    3.9092   -4.7693 N   0  0  0  0  0  0  0  0  0  0  0  0
   -0.8427    7.1802   -5.0040 C   0  0  0  0  0  0  0  0  0  0  0  0
   -1.0148    8.1604   -4.4098 N   0  0  0  0  0  0  0  0  0  0  0  0
    0.8068    2.9658   -6.1915 C   0  0  0  0  0  0  0  0  0  0  0  0
    1.9465    3.4500   -5.5771 C   0  0  0  0  0  0  0  0  0  0  0  0
    2.3555    2.6905   -4.4723 C   0  0  0  0  0  0  0  0  0  0  0  0
    3.9052    3.0793   -3.6452 S   0  0  0  0  0  0  0  0  0  0  0  0
    4.9628    2.1515   -4.8143 C   0  0  0  0  0  0  0  0  0  0  0  0
    5.3044    0.7820   -4.2563 C   0  0  0  0  0  0  0  0  0  0  0  0
    1.4968    1.6186   -4.1760 C   0  0  0  0  0  0  0  0  0  0  0  0
    0.3178    1.5934   -5.3774 S   0  0  0  0  0  0  0  0  0  0  0  0
    1.4550    0.6749   -3.0291 C   0  0  0  0  0  0  0  0  0  0  0  0
    2.0032    0.7597   -1.7173 C   0  0  0  0  0  0  0  0  0  0  0  0
    2.6896    1.8821   -1.1381 N   0  0  0  0  0  0  0  0  0  0  0  0
    1.8589    2.9149   -0.5557 C   0  0  0  0  0  0  0  0  0  0  0  0
    1.9288    3.1891    0.8224 C   0  0  0  0  0  0  0  0  0  0  0  0
    1.1070    4.1644    1.3947 C   0  0  0  0  0  0  0  0  0  0  0  0
    0.1904    4.8643    0.6027 C   0  0  0  0  0  0  0  0  0  0  0  0
   -0.8986    6.0789    1.3445 S   0  0  0  0  0  0  0  0  0  0  0  0
   -2.2236    4.8707    1.6423 C   0  0  0  0  0  0  0  0  0  0  0  0
    0.1033    4.5884   -0.7641 C   0  0  0  0  0  0  0  0  0  0  0  0
    0.9258    3.6164   -1.3377 C   0  0  0  0  0  0  0  0  0  0  0  0
    4.0894    1.7631   -0.7555 C   0  0  0  0  0  0  0  0  0  0  0  0
    4.7678    0.5248   -0.8061 C   0  0  0  0  0  0  0  0  0  0  0  0
    6.1058    0.4292   -0.4226 C   0  0  0  0  0  0  0  0  0  0  0  0
    6.8009    1.5599    0.0040 C   0  0  0  0  0  0  0  0  0  0  0  0
    8.5084    1.4320    0.5369 S   0  0  0  0  0  0  0  0  0  0  0  0
    8.0723    1.0598    2.2627 C   0  0  0  0  0  0  0  0  0  0  0  0
    6.1611    2.8025    0.0183 C   0  0  0  0  0  0  0  0  0  0  0  0
    4.8231    2.9075   -0.3689 C   0  0  0  0  0  0  0  0  0  0  0  0
    1.5601   -0.3064   -0.9135 C   0  0  0  0  0  0  0  0  0  0  0  0
    1.7213   -0.6878    0.7101 S   0  0  0  0  0  0  0  0  0  0  0  0
    0.6115   -1.9902    0.6741 C   0  0  0  0  0  0  0  0  0  0  0  0
    0.0796   -2.0841   -0.6320 C   0  0  0  0  0  0  0  0  0  0  0  0
   -1.1172   -2.8065   -1.0014 N   0  0  0  0  0  0  0  0  0  0  0  0
   -2.3390   -2.6333   -0.2492 C   0  0  0  0  0  0  0  0  0  0  0  0
   -2.6193   -1.4063    0.4028 C   0  0  0  0  0  0  0  0  0  0  0  0
   -3.7805   -1.2683    1.1744 C   0  0  0  0  0  0  0  0  0  0  0  0
   -4.6797   -2.3256    1.2897 C   0  0  0  0  0  0  0  0  0  0  0  0
   -6.1648   -2.1375    2.2795 S   0  0  0  0  0  0  0  0  0  0  0  0
   -5.4431   -2.9226    3.7525 C   0  0  0  0  0  0  0  0  0  0  0  0
   -4.4135   -3.5450    0.6484 C   0  0  0  0  0  0  0  0  0  0  0  0
   -3.2535   -3.6872   -0.1164 C   0  0  0  0  0  0  0  0  0  0  0  0
   -1.1369   -3.4900   -2.2692 C   0  0  0  0  0  0  0  0  0  0  0  0
   -2.1411   -3.2057   -3.2108 C   0  0  0  0  0  0  0  0  0  0  0  0
   -2.0720   -3.7474   -4.4978 C   0  0  0  0  0  0  0  0  0  0  0  0
   -1.0117   -4.5868   -4.8557 C   0  0  0  0  0  0  0  0  0  0  0  0
   -0.9068   -5.2482   -6.5196 S   0  0  0  0  0  0  0  0  0  0  0  0
    0.1588   -3.8967   -7.1145 C   0  0  0  0  0  0  0  0  0  0  0  0
   -0.0252   -4.8957   -3.9121 C   0  0  0  0  0  0  0  0  0  0  0  0
   -0.0876   -4.3483   -2.6270 C   0  0  0  0  0  0  0  0  0  0  0  0
    0.6788   -1.1565   -1.4856 C   0  0  0  0  0  0  0  0  0  0  0  0
    0.4028   -0.6768   -3.0606 S   0  0  0  0  0  0  0  0  0  0  0  0
    0.2478   -2.7987    1.8685 C   0  0  0  0  0  0  0  0  0  0  0  0
    0.5317   -2.2939    3.1566 C   0  0  0  0  0  0  0  0  0  0  0  0
    0.1190   -3.0190    4.2672 C   0  0  0  0  0  0  0  0  0  0  0  0
    0.1779   -2.6473    5.6702 C   0  0  0  0  0  0  0  0  0  0  0  0
    0.7386   -1.6301    6.1559 O   0  0  0  0  0  0  0  0  0  0  0  0
   -0.6168   -3.6333    6.3872 C   0  0  0  0  0  0  0  0  0  0  0  0
   -1.1018   -4.5607    5.4772 C   0  0  0  0  0  0  0  0  0  0  0  0
   -0.6065   -4.1877    4.1486 C   0  0  0  0  0  0  0  0  0  0  0  0
   -0.8744   -4.7359    2.8923 C   0  0  0  0  0  0  0  0  0  0  0  0
   -0.4055   -4.0591    1.7525 C   0  0  0  0  0  0  0  0  0  0  0  0
   -2.1090   -5.4597    5.8368 C   0  0  0  0  0  0  0  0  0  0  0  0
   -2.6572   -5.3668    7.1341 C   0  0  0  0  0  0  0  0  0  0  0  0
   -2.2021   -4.3754    8.0344 C   0  0  0  0  0  0  0  0  0  0  0  0
   -1.1240   -3.5392    7.6765 C   0  0  0  0  0  0  0  0  0  0  0  0
   -3.0106   -3.9902    9.2002 C   0  0  0  0  0  0  0  0  0  0  0  0
   -3.7866   -2.8864    9.1269 C   0  0  0  0  0  0  0  0  0  0  0  0
   -4.0409   -2.1189    7.8965 C   0  0  0  0  0  0  0  0  0  0  0  0
   -4.0008   -2.5735    6.7157 O   0  0  0  0  0  0  0  0  0  0  0  0
   -4.3148   -0.7470    8.2515 C   0  0  0  0  0  0  0  0  0  0  0  0
   -4.3877    0.3649    7.4091 C   0  0  0  0  0  0  0  0  0  0  0  0
   -4.4123    1.6384    7.9919 C   0  0  0  0  0  0  0  0  0  0  0  0
   -4.4683    2.7421    7.2056 F   0  0  0  0  0  0  0  0  0  0  0  0
   -4.3404    1.7802    9.3924 C   0  0  0  0  0  0  0  0  0  0  0  0
   -4.2560    3.0141    9.9411 F   0  0  0  0  0  0  0  0  0  0  0  0
   -4.2897    0.6425   10.2217 C   0  0  0  0  0  0  0  0  0  0  0  0
   -4.3202   -0.6274    9.6316 C   0  0  0  0  0  0  0  0  0  0  0  0
   -4.1493   -1.9758   10.2518 C   0  0  0  0  0  0  0  0  0  0  0  0
   -4.5463   -2.3262   11.4922 C   0  0  0  0  0  0  0  0  0  0  0  0
   -5.2829   -1.4088   12.3289 C   0  0  0  0  0  0  0  0  0  0  0  0
   -5.9048   -0.6900   12.9837 N   0  0  0  0  0  0  0  0  0  0  0  0
   -4.5600   -3.7069   11.9186 C   0  0  0  0  0  0  0  0  0  0  0  0
   -4.5167   -4.8133   12.2578 N   0  0  0  0  0  0  0  0  0  0  0  0
    0.2377    2.6660   -8.2712 H   0  0  0  0  0  0  0  0  0  0  0  0
    1.0224    7.1839  -11.0880 H   0  0  0  0  0  0  0  0  0  0  0  0
    0.8430    8.6408   -6.3238 H   0  0  0  0  0  0  0  0  0  0  0  0
    2.5174    4.2875   -5.9632 H   0  0  0  0  0  0  0  0  0  0  0  0
    4.4621    2.0320   -5.7988 H   0  0  0  0  0  0  0  0  0  0  0  0
    5.9005    2.7258   -4.9636 H   0  0  0  0  0  0  0  0  0  0  0  0
    5.8801    0.2017   -5.0131 H   0  0  0  0  0  0  0  0  0  0  0  0
    5.9419    0.8977   -3.3574 H   0  0  0  0  0  0  0  0  0  0  0  0
    4.3755    0.2340   -4.0012 H   0  0  0  0  0  0  0  0  0  0  0  0
    2.6198    2.6478    1.4538 H   0  0  0  0  0  0  0  0  0  0  0  0
    1.1880    4.3798    2.4516 H   0  0  0  0  0  0  0  0  0  0  0  0
   -1.8412    4.0396    2.2770 H   0  0  0  0  0  0  0  0  0  0  0  0
   -3.0623    5.3704    2.1644 H   0  0  0  0  0  0  0  0  0  0  0  0
   -2.5826    4.4686    0.6666 H   0  0  0  0  0  0  0  0  0  0  0  0
   -0.6069    5.1160   -1.3843 H   0  0  0  0  0  0  0  0  0  0  0  0
    0.8210    3.4208   -2.3890 H   0  0  0  0  0  0  0  0  0  0  0  0
    4.2713   -0.3817   -1.1269 H   0  0  0  0  0  0  0  0  0  0  0  0
    6.6055   -0.5297   -0.4459 H   0  0  0  0  0  0  0  0  0  0  0  0
    7.5680    0.0714    2.3273 H   0  0  0  0  0  0  0  0  0  0  0  0
    7.4025    1.8536    2.6717 H   0  0  0  0  0  0  0  0  0  0  0  0
    8.9983    1.0421    2.8725 H   0  0  0  0  0  0  0  0  0  0  0  0
    6.7021    3.6879    0.3222 H   0  0  0  0  0  0  0  0  0  0  0  0
    4.3655    3.8908   -0.3720 H   0  0  0  0  0  0  0  0  0  0  0  0
   -1.9315   -0.5815    0.3293 H   0  0  0  0  0  0  0  0  0  0  0  0
   -3.9650   -0.3323    1.6892 H   0  0  0  0  0  0  0  0  0  0  0  0
   -4.5165   -2.3868    4.0646 H   0  0  0  0  0  0  0  0  0  0  0  0
   -6.1776   -2.8824    4.5793 H   0  0  0  0  0  0  0  0  0  0  0  0
   -5.2046   -3.9869    3.5435 H   0  0  0  0  0  0  0  0  0  0  0  0
   -5.0938   -4.3744    0.7600 H   0  0  0  0  0  0  0  0  0  0  0  0
   -3.0456   -4.6483   -0.5741 H   0  0  0  0  0  0  0  0  0  0  0  0
   -2.9462   -2.5205   -2.9635 H   0  0  0  0  0  0  0  0  0  0  0  0
   -2.8353   -3.4897   -5.2290 H   0  0  0  0  0  0  0  0  0  0  0  0
   -0.3663   -2.9226   -6.9883 H   0  0  0  0  0  0  0  0  0  0  0  0
    0.3651   -4.0438   -8.1949 H   0  0  0  0  0  0  0  0  0  0  0  0
    1.1246   -3.8859   -6.5678 H   0  0  0  0  0  0  0  0  0  0  0  0
    0.8009   -5.5434   -4.1770 H   0  0  0  0  0  0  0  0  0  0  0  0
    0.7022   -4.5755   -1.9158 H   0  0  0  0  0  0  0  0  0  0  0  0
    1.0166   -1.3307    3.3039 H   0  0  0  0  0  0  0  0  0  0  0  0
   -1.4492   -5.6510    2.7873 H   0  0  0  0  0  0  0  0  0  0  0  0
   -0.5673   -4.5107    0.7831 H   0  0  0  0  0  0  0  0  0  0  0  0
   -2.5306   -6.1459    5.1193 H   0  0  0  0  0  0  0  0  0  0  0  0
   -3.5092   -5.9821    7.3966 H   0  0  0  0  0  0  0  0  0  0  0  0
   -0.8049   -2.7435    8.3415 H   0  0  0  0  0  0  0  0  0  0  0  0
   -2.7213   -4.3992   10.1583 H   0  0  0  0  0  0  0  0  0  0  0  0
   -4.3578    0.2501    6.3288 H   0  0  0  0  0  0  0  0  0  0  0  0
   -4.1650    0.7654   11.2877 H   0  0  0  0  0  0  0  0  0  0  0  0
  1  2  2  3
  2  3  1  0
  3  4  2  0
  3  5  1  0
  5  6  2  0
  6  7  1  0
  7  8  1  0
  7  9  2  0
  9 10  1  0
  9 11  1  0
 11 12  2  0
 12 13  1  0
 13 14  2  3
 14 15  1  0
 15 16  3  0
 14 17  1  0
 17 18  3  0
  1 19  1  0
 19 20  2  0
 20 21  1  0
 21 22  1  0
 22 23  1  0
 23 24  1  0
 21 25  2  0
 25 26  1  0
 25 27  1  0
 27 28  2  0
 28 29  1  0
 29 30  1  0
 30 31  2  0
 31 32  1  0
 32 33  2  0
 33 34  1  0
 34 35  1  0
 33 36  1  0
 36 37  2  0
 29 38  1  0
 38 39  2  0
 39 40  1  0
 40 41  2  0
 41 42  1  0
 42 43  1  0
 41 44  1  0
 44 45  2  0
 28 46  1  0
 46 47  1  0
 47 48  1  0
 48 49  2  0
 49 50  1  0
 50 51  1  0
 51 52  2  0
 52 53  1  0
 53 54  2  0
 54 55  1  0
 55 56  1  0
 54 57  1  0
 57 58  2  0
 50 59  1  0
 59 60  2  0
 60 61  1  0
 61 62  2  0
 62 63  1  0
 63 64  1  0
 62 65  1  0
 65 66  2  0
 49 67  1  0
 67 68  1  0
 48 69  1  0
 69 70  2  0
 70 71  1  0
 71 72  1  0
 72 73  2  0
 72 74  1  0
 74 75  2  0
 75 76  1  0
 76 77  1  0
 77 78  2  0
 75 79  1  0
 79 80  2  0
 80 81  1  0
 81 82  2  0
 81 83  1  0
 83 84  2  3
 84 85  1  0
 85 86  2  0
 85 87  1  0
 87 88  2  0
 88 89  1  0
 89 90  1  0
 89 91  2  0
 91 92  1  0
 91 93  1  0
 93 94  2  0
 94 95  1  0
 95 96  2  3
 96 97  1  0
 97 98  3  0
 96 99  1  0
 99100  3  0
 13  2  1  0
 26 19  1  0
 68 27  1  0
 78 69  1  0
 95 84  1  0
 12  5  1  0
 37 30  1  0
 45 38  1  0
 67 46  2  0
 76 71  2  0
 94 87  1  0
 58 51  1  0
 66 59  1  0
 82 74  1  0
  1101  1  0
  6102  1  0
 11103  1  0
 20104  1  0
 23105  1  0
 23106  1  0
 24107  1  0
 24108  1  0
 24109  1  0
 31110  1  0
 32111  1  0
 35112  1  0
 35113  1  0
 35114  1  0
 36115  1  0
 37116  1  0
 39117  1  0
 40118  1  0
 43119  1  0
 43120  1  0
 43121  1  0
 44122  1  0
 45123  1  0
 52124  1  0
 53125  1  0
 56126  1  0
 56127  1  0
 56128  1  0
 57129  1  0
 58130  1  0
 60131  1  0
 61132  1  0
 64133  1  0
 64134  1  0
 64135  1  0
 65136  1  0
 66137  1  0
 70138  1  0
 77139  1  0
 78140  1  0
 79141  1  0
 80142  1  0
 82143  1  0
 83144  1  0
 88145  1  0
 93146  1  0
M  END

