
     RDKit          3D

172190  0  0  0  0  0  0  0  0999 V2000
    3.8750   -1.4817   -8.2149 C   0  0  0  0  0  0  0  0  0  0  0  0
    2.7592   -2.0133   -8.7469 C   0  0  0  0  0  0  0  0  0  0  0  0
    1.4193   -1.9967   -8.1383 C   0  0  0  0  0  0  0  0  0  0  0  0
    1.1430   -1.7109   -6.9427 O   0  0  0  0  0  0  0  0  0  0  0  0
    0.4460   -2.2607   -9.1715 C   0  0  0  0  0  0  0  0  0  0  0  0
   -0.9475   -2.2463   -9.0605 C   0  0  0  0  0  0  0  0  0  0  0  0
   -1.7142   -2.4665  -10.2138 C   0  0  0  0  0  0  0  0  0  0  0  0
   -3.4667   -2.4651  -10.1054 Cl  0  0  0  0  0  0  0  0  0  0  0  0
   -1.0801   -2.6592  -11.4551 C   0  0  0  0  0  0  0  0  0  0  0  0
   -1.8224   -2.8357  -12.5778 F   0  0  0  0  0  0  0  0  0  0  0  0
    0.3221   -2.6565  -11.5467 C   0  0  0  0  0  0  0  0  0  0  0  0
    1.0869   -2.4735  -10.3824 C   0  0  0  0  0  0  0  0  0  0  0  0
    2.5632   -2.4254  -10.1730 C   0  0  0  0  0  0  0  0  0  0  0  0
    3.5177   -2.8951  -11.0137 C   0  0  0  0  0  0  0  0  0  0  0  0
    3.2259   -3.3684  -12.3389 C   0  0  0  0  0  0  0  0  0  0  0  0
    2.9992   -3.7508  -13.4093 N   0  0  0  0  0  0  0  0  0  0  0  0
    4.8933   -3.0384  -10.6100 C   0  0  0  0  0  0  0  0  0  0  0  0
    6.0008   -3.1581  -10.2904 N   0  0  0  0  0  0  0  0  0  0  0  0
    3.9994   -1.0719   -6.8069 C   0  0  0  0  0  0  0  0  0  0  0  0
    3.7265   -1.8651   -5.6919 C   0  0  0  0  0  0  0  0  0  0  0  0
    3.9077   -1.1735   -4.4846 C   0  0  0  0  0  0  0  0  0  0  0  0
    3.6654   -1.6853   -3.1980 C   0  0  0  0  0  0  0  0  0  0  0  0
    3.1967   -3.0641   -2.9794 C   0  0  0  0  0  0  0  0  0  0  0  0
    4.1541   -4.4335   -3.1387 S   0  0  0  0  0  0  0  0  0  0  0  0
    2.9920   -5.5277   -2.6109 C   0  0  0  0  0  0  0  0  0  0  0  0
    3.1711   -7.0170   -2.6020 C   0  0  0  0  0  0  0  0  0  0  0  0
    2.8424   -7.6028   -3.9711 C   0  0  0  0  0  0  0  0  0  0  0  0
    1.8210   -4.8332   -2.3219 C   0  0  0  0  0  0  0  0  0  0  0  0
    0.3365   -5.6095   -1.7818 Cl  0  0  0  0  0  0  0  0  0  0  0  0
    1.9396   -3.4508   -2.5183 C   0  0  0  0  0  0  0  0  0  0  0  0
    0.6150   -2.3232   -2.2352 Cl  0  0  0  0  0  0  0  0  0  0  0  0
    3.8314   -0.7998   -2.1245 C   0  0  0  0  0  0  0  0  0  0  0  0
    4.2029    0.5394   -2.2875 C   0  0  0  0  0  0  0  0  0  0  0  0
    4.4969    1.0459   -3.5745 C   0  0  0  0  0  0  0  0  0  0  0  0
    4.9725    2.4308   -3.7747 C   0  0  0  0  0  0  0  0  0  0  0  0
    6.0369    3.0185   -3.0958 C   0  0  0  0  0  0  0  0  0  0  0  0
    6.3713    4.2922   -3.5775 C   0  0  0  0  0  0  0  0  0  0  0  0
    5.5512    4.7260   -4.6226 C   0  0  0  0  0  0  0  0  0  0  0  0
    5.7412    5.9497   -5.4740 C   0  0  0  0  0  0  0  0  0  0  0  0
    6.4159    7.1008   -4.7263 C   0  0  0  0  0  0  0  0  0  0  0  0
    4.4510    3.5015   -4.9681 S   0  0  0  0  0  0  0  0  0  0  0  0
    4.3297    0.1527   -4.6567 C   0  0  0  0  0  0  0  0  0  0  0  0
    4.5175    0.4487   -6.3027 S   0  0  0  0  0  0  0  0  0  0  0  0
    4.1037    1.2824   -1.0978 C   0  0  0  0  0  0  0  0  0  0  0  0
    3.6931    0.5193   -0.0032 C   0  0  0  0  0  0  0  0  0  0  0  0
    3.4384   -1.0656   -0.5171 S   0  0  0  0  0  0  0  0  0  0  0  0
    2.9426    1.0522    1.1393 C   0  0  0  0  0  0  0  0  0  0  0  0
    2.8325    0.3732    2.3717 C   0  0  0  0  0  0  0  0  0  0  0  0
    3.9788    0.1327    3.2084 N   0  0  0  0  0  0  0  0  0  0  0  0
    4.5110    1.2152    3.9957 C   0  0  0  0  0  0  0  0  0  0  0  0
    3.6925    1.9108    4.9064 C   0  0  0  0  0  0  0  0  0  0  0  0
    4.2024    2.9845    5.6423 C   0  0  0  0  0  0  0  0  0  0  0  0
    5.5306    3.3826    5.4722 C   0  0  0  0  0  0  0  0  0  0  0  0
    6.1538    4.7841    6.4042 S   0  0  0  0  0  0  0  0  0  0  0  0
    5.6224    5.9977    5.1546 C   0  0  0  0  0  0  0  0  0  0  0  0
    6.3609    2.6844    4.5876 C   0  0  0  0  0  0  0  0  0  0  0  0
    5.8552    1.6046    3.8549 C   0  0  0  0  0  0  0  0  0  0  0  0
    4.6648   -1.1275    3.2063 C   0  0  0  0  0  0  0  0  0  0  0  0
    4.6140   -1.9371    4.3541 C   0  0  0  0  0  0  0  0  0  0  0  0
    5.4281   -3.0706    4.4570 C   0  0  0  0  0  0  0  0  0  0  0  0
    6.3140   -3.3942    3.4232 C   0  0  0  0  0  0  0  0  0  0  0  0
    7.3953   -4.8164    3.5734 S   0  0  0  0  0  0  0  0  0  0  0  0
    8.7618   -3.8547    4.3029 C   0  0  0  0  0  0  0  0  0  0  0  0
    6.3663   -2.5934    2.2747 C   0  0  0  0  0  0  0  0  0  0  0  0
    5.5564   -1.4560    2.1748 C   0  0  0  0  0  0  0  0  0  0  0  0
    1.5468    0.5293    2.9063 C   0  0  0  0  0  0  0  0  0  0  0  0
    0.7152   -0.2233    4.1536 S   0  0  0  0  0  0  0  0  0  0  0  0
   -0.7645    0.5586    3.8176 C   0  0  0  0  0  0  0  0  0  0  0  0
   -0.6009    1.4397    2.7226 C   0  0  0  0  0  0  0  0  0  0  0  0
   -1.6255    2.3288    2.2048 N   0  0  0  0  0  0  0  0  0  0  0  0
   -1.3376    3.2377    1.1335 C   0  0  0  0  0  0  0  0  0  0  0  0
   -0.5108    4.3487    1.3573 C   0  0  0  0  0  0  0  0  0  0  0  0
   -0.2702    5.2642    0.3311 C   0  0  0  0  0  0  0  0  0  0  0  0
   -0.8826    5.0972   -0.9150 C   0  0  0  0  0  0  0  0  0  0  0  0
   -0.5877    6.2866   -2.2249 S   0  0  0  0  0  0  0  0  0  0  0  0
   -1.9051    7.4186   -1.6661 C   0  0  0  0  0  0  0  0  0  0  0  0
   -1.7194    3.9964   -1.1395 C   0  0  0  0  0  0  0  0  0  0  0  0
   -1.9451    3.0653   -0.1192 C   0  0  0  0  0  0  0  0  0  0  0  0
   -2.7445    2.7061    3.0247 C   0  0  0  0  0  0  0  0  0  0  0  0
   -2.5453    3.4656    4.1913 C   0  0  0  0  0  0  0  0  0  0  0  0
   -3.6404    3.8636    4.9699 C   0  0  0  0  0  0  0  0  0  0  0  0
   -4.9347    3.4990    4.5864 C   0  0  0  0  0  0  0  0  0  0  0  0
   -6.3415    3.9541    5.5962 S   0  0  0  0  0  0  0  0  0  0  0  0
   -6.6877    5.4632    4.6396 C   0  0  0  0  0  0  0  0  0  0  0  0
   -5.1395    2.7888    3.4023 C   0  0  0  0  0  0  0  0  0  0  0  0
   -4.0521    2.3917    2.6219 C   0  0  0  0  0  0  0  0  0  0  0  0
    0.7052    1.3406    2.2211 C   0  0  0  0  0  0  0  0  0  0  0  0
    1.4717    1.8524    0.8286 S   0  0  0  0  0  0  0  0  0  0  0  0
   -2.0621    0.0343    4.2801 C   0  0  0  0  0  0  0  0  0  0  0  0
   -2.7762   -0.8644    3.4773 C   0  0  0  0  0  0  0  0  0  0  0  0
   -4.0907   -1.2708    3.8171 C   0  0  0  0  0  0  0  0  0  0  0  0
   -4.6589   -2.2392    2.9267 N   0  0  0  0  0  0  0  0  0  0  0  0
   -3.4754   -2.3955    1.8631 S   0  0  0  0  0  4  0  0  0  0  0  0
   -2.2572   -1.4561    2.2815 N   0  0  0  0  0  0  0  0  0  0  0  0
   -4.7470   -0.7436    4.9387 C   0  0  0  0  0  0  0  0  0  0  0  0
   -3.9941    0.0691    5.8081 C   0  0  0  0  0  0  0  0  0  0  0  0
   -4.4860    0.5463    6.9799 N   0  0  0  0  0  0  0  0  0  0  0  0
   -3.1898    1.3979    7.5332 S   0  0  0  0  0  0  0  0  0  0  0  0
   -2.0096    1.2327    6.3872 N   0  0  0  0  0  0  0  0  0  0  0  0
   -2.6513    0.4482    5.4842 C   0  0  0  0  0  0  0  0  0  0  0  0
   -6.1527   -1.0867    5.2594 C   0  0  0  0  0  0  0  0  0  0  0  0
   -7.1956   -0.9494    4.4039 C   0  0  0  0  0  0  0  0  0  0  0  0
   -7.1212   -0.5334    2.9952 C   0  0  0  0  0  0  0  0  0  0  0  0
   -6.1862    0.1007    2.4514 O   0  0  0  0  0  0  0  0  0  0  0  0
   -8.3533   -0.9034    2.3415 C   0  0  0  0  0  0  0  0  0  0  0  0
   -8.6441   -0.8542    0.9808 C   0  0  0  0  0  0  0  0  0  0  0  0
   -9.8694   -1.3759    0.5365 C   0  0  0  0  0  0  0  0  0  0  0  0
  -10.1838   -1.3797   -0.8299 C   0  0  0  0  0  0  0  0  0  0  0  0
  -11.3889   -1.9326   -1.2696 C   0  0  0  0  0  0  0  0  0  0  0  0
  -11.6820   -1.9396   -2.5940 F   0  0  0  0  0  0  0  0  0  0  0  0
  -12.2882   -2.4852   -0.3519 C   0  0  0  0  0  0  0  0  0  0  0  0
  -13.4641   -3.0070   -0.7811 F   0  0  0  0  0  0  0  0  0  0  0  0
  -11.9807   -2.5011    1.0131 C   0  0  0  0  0  0  0  0  0  0  0  0
  -10.7750   -1.9511    1.4731 C   0  0  0  0  0  0  0  0  0  0  0  0
  -10.4442   -1.9911    2.8456 C   0  0  0  0  0  0  0  0  0  0  0  0
   -9.2271   -1.4365    3.2702 C   0  0  0  0  0  0  0  0  0  0  0  0
   -8.6113   -1.3740    4.6304 C   0  0  0  0  0  0  0  0  0  0  0  0
   -9.2731   -1.4089    5.8152 C   0  0  0  0  0  0  0  0  0  0  0  0
  -10.6840   -1.6786    5.9066 C   0  0  0  0  0  0  0  0  0  0  0  0
  -11.8157   -1.8963    6.0021 N   0  0  0  0  0  0  0  0  0  0  0  0
   -8.6505   -1.0295    7.0551 C   0  0  0  0  0  0  0  0  0  0  0  0
   -8.1522   -0.7271    8.0556 N   0  0  0  0  0  0  0  0  0  0  0  0
    4.7091   -1.2300   -8.8529 H   0  0  0  0  0  0  0  0  0  0  0  0
   -1.4257   -2.0598   -8.1092 H   0  0  0  0  0  0  0  0  0  0  0  0
    0.7746   -2.7634  -12.5158 H   0  0  0  0  0  0  0  0  0  0  0  0
    3.4011   -2.8956   -5.7671 H   0  0  0  0  0  0  0  0  0  0  0  0
    2.5200   -7.4780   -1.8271 H   0  0  0  0  0  0  0  0  0  0  0  0
    4.2240   -7.2661   -2.3408 H   0  0  0  0  0  0  0  0  0  0  0  0
    1.8251   -7.2986   -4.2910 H   0  0  0  0  0  0  0  0  0  0  0  0
    3.5839   -7.2502   -4.7114 H   0  0  0  0  0  0  0  0  0  0  0  0
    2.8923   -8.7109   -3.9307 H   0  0  0  0  0  0  0  0  0  0  0  0
    6.5925    2.5224   -2.3146 H   0  0  0  0  0  0  0  0  0  0  0  0
    7.2018    4.8543   -3.1817 H   0  0  0  0  0  0  0  0  0  0  0  0
    6.3614    5.6827   -6.3584 H   0  0  0  0  0  0  0  0  0  0  0  0
    4.7483    6.2934   -5.8369 H   0  0  0  0  0  0  0  0  0  0  0  0
    5.8693    7.3531   -3.7931 H   0  0  0  0  0  0  0  0  0  0  0  0
    7.4639    6.8379   -4.4810 H   0  0  0  0  0  0  0  0  0  0  0  0
    6.4379    7.9996   -5.3788 H   0  0  0  0  0  0  0  0  0  0  0  0
    4.2043    2.3624   -1.0544 H   0  0  0  0  0  0  0  0  0  0  0  0
    2.6652    1.6263    5.0601 H   0  0  0  0  0  0  0  0  0  0  0  0
    3.5560    3.5143    6.3314 H   0  0  0  0  0  0  0  0  0  0  0  0
    4.5701    5.8189    4.8520 H   0  0  0  0  0  0  0  0  0  0  0  0
    6.2812    5.9349    4.2642 H   0  0  0  0  0  0  0  0  0  0  0  0
    5.6955    7.0159    5.5862 H   0  0  0  0  0  0  0  0  0  0  0  0
    7.3914    2.9866    4.4586 H   0  0  0  0  0  0  0  0  0  0  0  0
    6.5022    1.0894    3.1603 H   0  0  0  0  0  0  0  0  0  0  0  0
    3.9663   -1.6715    5.1792 H   0  0  0  0  0  0  0  0  0  0  0  0
    5.3982   -3.6767    5.3528 H   0  0  0  0  0  0  0  0  0  0  0  0
    9.5997   -4.5381    4.5523 H   0  0  0  0  0  0  0  0  0  0  0  0
    9.1252   -3.0961    3.5781 H   0  0  0  0  0  0  0  0  0  0  0  0
    8.4259   -3.3523    5.2342 H   0  0  0  0  0  0  0  0  0  0  0  0
    7.0623   -2.8211    1.4785 H   0  0  0  0  0  0  0  0  0  0  0  0
    5.6709   -0.8000    1.3223 H   0  0  0  0  0  0  0  0  0  0  0  0
   -0.0426    4.4963    2.3250 H   0  0  0  0  0  0  0  0  0  0  0  0
    0.3796    6.1114    0.5082 H   0  0  0  0  0  0  0  0  0  0  0  0
   -1.7633    7.6851   -0.5945 H   0  0  0  0  0  0  0  0  0  0  0  0
   -1.8662    8.3488   -2.2701 H   0  0  0  0  0  0  0  0  0  0  0  0
   -2.9006    6.9430   -1.8057 H   0  0  0  0  0  0  0  0  0  0  0  0
   -2.1945    3.8618   -2.1033 H   0  0  0  0  0  0  0  0  0  0  0  0
   -2.6017    2.2216   -0.2950 H   0  0  0  0  0  0  0  0  0  0  0  0
   -1.5483    3.7422    4.4988 H   0  0  0  0  0  0  0  0  0  0  0  0
   -3.4761    4.4297    5.8747 H   0  0  0  0  0  0  0  0  0  0  0  0
   -5.7977    6.1313    4.6322 H   0  0  0  0  0  0  0  0  0  0  0  0
   -6.9461    5.1985    3.5930 H   0  0  0  0  0  0  0  0  0  0  0  0
   -7.5412    5.9991    5.1063 H   0  0  0  0  0  0  0  0  0  0  0  0
   -6.1495    2.5496    3.0956 H   0  0  0  0  0  0  0  0  0  0  0  0
   -4.2229    1.8383    1.7055 H   0  0  0  0  0  0  0  0  0  0  0  0
   -6.3217   -1.4771    6.2468 H   0  0  0  0  0  0  0  0  0  0  0  0
   -7.9200   -0.4482    0.2821 H   0  0  0  0  0  0  0  0  0  0  0  0
   -9.4893   -0.9746   -1.5588 H   0  0  0  0  0  0  0  0  0  0  0  0
  -12.6865   -2.9425    1.7078 H   0  0  0  0  0  0  0  0  0  0  0  0
  -11.0981   -2.4914    3.5393 H   0  0  0  0  0  0  0  0  0  0  0  0
  1  2  2  3
  2  3  1  0
  3  4  2  0
  3  5  1  0
  5  6  2  0
  6  7  1  0
  7  8  1  0
  7  9  2  0
  9 10  1  0
  9 11  1  0
 11 12  2  0
 12 13  1  0
 13 14  2  3
 14 15  1  0
 15 16  3  0
 14 17  1  0
 17 18  3  0
  1 19  1  0
 19 20  2  0
 20 21  1  0
 21 22  2  0
 22 23  1  0
 23 24  1  0
 24 25  1  0
 25 26  1  0
 26 27  1  0
 25 28  2  0
 28 29  1  0
 28 30  1  0
 30 31  1  0
 22 32  1  0
 32 33  2  0
 33 34  1  0
 34 35  1  0
 35 36  2  0
 36 37  1  0
 37 38  2  0
 38 39  1  0
 39 40  1  0
 38 41  1  0
 34 42  2  0
 42 43  1  0
 33 44  1  0
 44 45  2  0
 45 46  1  0
 45 47  1  0
 47 48  2  0
 48 49  1  0
 49 50  1  0
 50 51  2  0
 51 52  1  0
 52 53  2  0
 53 54  1  0
 54 55  1  0
 53 56  1  0
 56 57  2  0
 49 58  1  0
 58 59  2  0
 59 60  1  0
 60 61  2  0
 61 62  1  0
 62 63  1  0
 61 64  1  0
 64 65  2  0
 48 66  1  0
 66 67  1  0
 67 68  1  0
 68 69  2  0
 69 70  1  0
 70 71  1  0
 71 72  2  0
 72 73  1  0
 73 74  2  0
 74 75  1  0
 75 76  1  0
 74 77  1  0
 77 78  2  0
 70 79  1  0
 79 80  2  0
 80 81  1  0
 81 82  2  0
 82 83  1  0
 83 84  1  0
 82 85  1  0
 85 86  2  0
 69 87  1  0
 87 88  1  0
 68 89  1  0
 89 90  2  0
 90 91  1  0
 91 92  1  0
 92 93  2  0
 93 94  2  0
 91 95  2  0
 95 96  1  0
 96 97  2  0
 97 98  1  0
 98 99  1  0
 99100  2  0
 95101  1  0
101102  2  3
102103  1  0
103104  2  0
103105  1  0
105106  2  0
106107  1  0
107108  2  0
108109  1  0
109110  1  0
109111  2  0
111112  1  0
111113  1  0
113114  2  0
114115  1  0
115116  2  0
116117  1  0
117118  2  3
118119  1  0
119120  3  0
118121  1  0
121122  3  0
 13  2  1  0
 43 19  1  0
 88 47  1  0
100 89  1  0
117102  1  0
 12  5  1  0
 42 21  1  0
 57 50  1  0
 65 58  1  0
 87 66  2  0
 94 90  1  0
100 96  1  0
116105  1  0
 30 23  2  0
 46 32  1  0
 78 71  1  0
 86 79  1  0
114107  1  0
 41 35  1  0
  1123  1  0
  6124  1  0
 11125  1  0
 20126  1  0
 26127  1  0
 26128  1  0
 27129  1  0
 27130  1  0
 27131  1  0
 36132  1  0
 37133  1  0
 39134  1  0
 39135  1  0
 40136  1  0
 40137  1  0
 40138  1  0
 44139  1  0
 51140  1  0
 52141  1  0
 55142  1  0
 55143  1  0
 55144  1  0
 56145  1  0
 57146  1  0
 59147  1  0
 60148  1  0
 63149  1  0
 63150  1  0
 63151  1  0
 64152  1  0
 65153  1  0
 72154  1  0
 73155  1  0
 76156  1  0
 76157  1  0
 76158  1  0
 77159  1  0
 78160  1  0
 80161  1  0
 81162  1  0
 84163  1  0
 84164  1  0
 84165  1  0
 85166  1  0
 86167  1  0
101168  1  0
106169  1  0
108170  1  0
113171  1  0
115172  1  0
M  END

