
     RDKit          3D

184200  0  0  0  0  0  0  0  0999 V2000
   -7.8779   -0.0527   -3.4761 C   0  0  0  0  0  0  0  0  0  0  0  0
   -8.7870   -0.9273   -2.9969 C   0  0  0  0  0  0  0  0  0  0  0  0
   -8.6163   -1.8071   -1.8326 C   0  0  0  0  0  0  0  0  0  0  0  0
   -7.5307   -2.1074   -1.2671 O   0  0  0  0  0  0  0  0  0  0  0  0
   -9.9223   -2.1853   -1.3563 C   0  0  0  0  0  0  0  0  0  0  0  0
  -10.2508   -2.9382   -0.2249 C   0  0  0  0  0  0  0  0  0  0  0  0
  -11.6016   -3.1148    0.0992 C   0  0  0  0  0  0  0  0  0  0  0  0
  -12.0332   -4.0710    1.5082 Cl  0  0  0  0  0  0  0  0  0  0  0  0
  -12.6038   -2.5273   -0.6961 C   0  0  0  0  0  0  0  0  0  0  0  0
  -13.9144   -2.6886   -0.3763 F   0  0  0  0  0  0  0  0  0  0  0  0
  -12.2535   -1.7800   -1.8337 C   0  0  0  0  0  0  0  0  0  0  0  0
  -10.8929   -1.6331   -2.1726 C   0  0  0  0  0  0  0  0  0  0  0  0
  -10.2466   -0.9180   -3.3052 C   0  0  0  0  0  0  0  0  0  0  0  0
  -10.8286   -0.5174   -4.4670 C   0  0  0  0  0  0  0  0  0  0  0  0
  -10.0494   -0.2230   -5.6462 C   0  0  0  0  0  0  0  0  0  0  0  0
   -9.4425   -0.0301   -6.6041 N   0  0  0  0  0  0  0  0  0  0  0  0
  -12.2576   -0.5428   -4.6745 C   0  0  0  0  0  0  0  0  0  0  0  0
  -13.4043   -0.5513   -4.8640 N   0  0  0  0  0  0  0  0  0  0  0  0
   -6.4792    0.0381   -2.9987 C   0  0  0  0  0  0  0  0  0  0  0  0
   -6.0588    1.1947   -2.3093 C   0  0  0  0  0  0  0  0  0  0  0  0
   -7.2932    2.4440   -1.8263 S   0  0  0  0  0  0  0  0  0  0  0  0
   -7.8658    1.5905   -0.3098 C   0  0  0  0  0  0  0  0  0  0  0  0
   -6.8008    1.5510    0.7863 C   0  0  0  0  0  0  0  0  0  0  0  0
   -4.6964    1.3668   -1.9570 C   0  0  0  0  0  0  0  0  0  0  0  0
   -4.2411    2.9086   -1.0845 S   0  0  0  0  0  0  0  0  0  0  0  0
   -4.2600    4.0611   -2.4946 C   0  0  0  0  0  0  0  0  0  0  0  0
   -3.1571    3.7537   -3.4901 C   0  0  0  0  0  0  0  0  0  0  0  0
   -3.7805    0.2746   -2.1102 C   0  0  0  0  0  0  0  0  0  0  0  0
   -4.3185   -0.9822   -2.5015 C   0  0  0  0  0  0  0  0  0  0  0  0
   -5.5782   -1.0426   -3.1522 C   0  0  0  0  0  0  0  0  0  0  0  0
   -5.9434   -2.2837   -3.9071 C   0  0  0  0  0  0  0  0  0  0  0  0
   -6.8007   -2.2664   -4.8278 O   0  0  0  0  0  0  0  0  0  0  0  0
   -5.2038   -3.5201   -3.6261 C   0  0  0  0  0  0  0  0  0  0  0  0
   -4.1266   -3.5173   -2.7423 C   0  0  0  0  0  0  0  0  0  0  0  0
   -3.7099   -2.2768   -2.0730 C   0  0  0  0  0  0  0  0  0  0  0  0
   -2.9453   -2.3378   -1.0754 O   0  0  0  0  0  0  0  0  0  0  0  0
   -3.5422   -4.7669   -2.5645 C   0  0  0  0  0  0  0  0  0  0  0  0
   -4.3732   -5.8552   -3.5345 S   0  0  0  0  0  0  0  0  0  0  0  0
   -5.4837   -4.7665   -4.1806 C   0  0  0  0  0  0  0  0  0  0  0  0
   -2.3126    0.3769   -1.7740 C   0  0  0  0  0  0  0  0  0  0  0  0
   -1.2375   -0.4394   -2.2741 C   0  0  0  0  0  0  0  0  0  0  0  0
   -1.2224   -1.1181   -3.5641 N   0  0  0  0  0  0  0  0  0  0  0  0
   -2.0699   -0.6590   -4.6295 C   0  0  0  0  0  0  0  0  0  0  0  0
   -2.0636    0.6945   -5.0045 C   0  0  0  0  0  0  0  0  0  0  0  0
   -2.9114    1.1504   -6.0105 C   0  0  0  0  0  0  0  0  0  0  0  0
   -3.7784    0.2663   -6.6602 C   0  0  0  0  0  0  0  0  0  0  0  0
   -5.0108    0.8999   -7.7951 S   0  0  0  0  0  0  0  0  0  0  0  0
   -6.2579    1.1028   -6.4829 C   0  0  0  0  0  0  0  0  0  0  0  0
   -3.7098   -1.1020   -6.3676 C   0  0  0  0  0  0  0  0  0  0  0  0
   -2.8427   -1.5680   -5.3649 C   0  0  0  0  0  0  0  0  0  0  0  0
   -0.0526   -1.8248   -4.0017 C   0  0  0  0  0  0  0  0  0  0  0  0
   -0.0750   -3.2258   -4.1482 C   0  0  0  0  0  0  0  0  0  0  0  0
    1.0366   -3.8890   -4.6609 C   0  0  0  0  0  0  0  0  0  0  0  0
    2.2003   -3.1734   -4.9960 C   0  0  0  0  0  0  0  0  0  0  0  0
    3.6517   -4.0244   -5.6316 S   0  0  0  0  0  0  0  0  0  0  0  0
    3.3172   -3.6240   -7.3758 C   0  0  0  0  0  0  0  0  0  0  0  0
    2.2318   -1.7863   -4.8292 C   0  0  0  0  0  0  0  0  0  0  0  0
    1.0995   -1.1059   -4.3775 C   0  0  0  0  0  0  0  0  0  0  0  0
   -0.1187   -0.3689   -1.4107 C   0  0  0  0  0  0  0  0  0  0  0  0
    1.2827   -1.2730   -1.1475 S   0  0  0  0  0  0  0  0  0  0  0  0
    1.8365   -0.3064    0.1428 C   0  0  0  0  0  0  0  0  0  0  0  0
    0.9232    0.7272    0.3661 C   0  0  0  0  0  0  0  0  0  0  0  0
    1.3244    2.0078    0.8824 N   0  0  0  0  0  0  0  0  0  0  0  0
    0.5063    2.6739    1.8586 C   0  0  0  0  0  0  0  0  0  0  0  0
    0.2106    2.0447    3.0768 C   0  0  0  0  0  0  0  0  0  0  0  0
   -0.6190    2.6717    4.0094 C   0  0  0  0  0  0  0  0  0  0  0  0
   -1.1569    3.9332    3.7353 C   0  0  0  0  0  0  0  0  0  0  0  0
   -2.2568    4.7215    4.9086 S   0  0  0  0  0  0  0  0  0  0  0  0
   -3.7569    3.9534    4.2142 C   0  0  0  0  0  0  0  0  0  0  0  0
   -0.8520    4.5692    2.5223 C   0  0  0  0  0  0  0  0  0  0  0  0
   -0.0210    3.9440    1.5913 C   0  0  0  0  0  0  0  0  0  0  0  0
    2.3516    2.7363    0.1700 C   0  0  0  0  0  0  0  0  0  0  0  0
    2.4411    2.6682   -1.2357 C   0  0  0  0  0  0  0  0  0  0  0  0
    3.4583    3.3338   -1.9226 C   0  0  0  0  0  0  0  0  0  0  0  0
    4.3913    4.0960   -1.2163 C   0  0  0  0  0  0  0  0  0  0  0  0
    5.6779    4.9715   -2.1154 S   0  0  0  0  0  0  0  0  0  0  0  0
    6.8828    3.6108   -2.0185 C   0  0  0  0  0  0  0  0  0  0  0  0
    4.2987    4.2011    0.1760 C   0  0  0  0  0  0  0  0  0  0  0  0
    3.2889    3.5186    0.8693 C   0  0  0  0  0  0  0  0  0  0  0  0
   -0.1843    0.5898   -0.4583 C   0  0  0  0  0  0  0  0  0  0  0  0
   -1.6940    1.2756   -0.4554 S   0  0  0  0  0  0  0  0  0  0  0  0
    2.8583   -0.6657    1.1562 C   0  0  0  0  0  0  0  0  0  0  0  0
    4.2159   -0.3735    0.9071 C   0  0  0  0  0  0  0  0  0  0  0  0
    4.7675   -0.0301   -0.7851 S   0  0  0  0  0  0  0  0  0  0  0  0
    5.4658   -1.6817   -1.1002 C   0  0  0  0  0  0  0  0  0  0  0  0
    4.3988   -2.6480   -1.5855 C   0  0  0  0  0  0  0  0  0  0  0  0
    5.1072   -0.2095    1.9894 C   0  0  0  0  0  0  0  0  0  0  0  0
    6.8405    0.2164    1.6838 S   0  0  0  0  0  0  0  0  0  0  0  0
    6.5891    2.0156    1.7238 C   0  0  0  0  0  0  0  0  0  0  0  0
    7.8757    2.7053    2.1331 C   0  0  0  0  0  0  0  0  0  0  0  0
    4.6342   -0.3246    3.3110 C   0  0  0  0  0  0  0  0  0  0  0  0
    3.3287   -0.8214    3.5548 C   0  0  0  0  0  0  0  0  0  0  0  0
    2.4400   -1.0196    2.4635 C   0  0  0  0  0  0  0  0  0  0  0  0
    1.0597   -1.5258    2.7314 C   0  0  0  0  0  0  0  0  0  0  0  0
    0.3149   -1.9305    1.7930 O   0  0  0  0  0  0  0  0  0  0  0  0
    0.5699   -1.6022    4.1156 C   0  0  0  0  0  0  0  0  0  0  0  0
    1.4368   -1.4075    5.1857 C   0  0  0  0  0  0  0  0  0  0  0  0
    2.8526   -1.1039    4.9511 C   0  0  0  0  0  0  0  0  0  0  0  0
    3.6542   -1.1148    5.9244 O   0  0  0  0  0  0  0  0  0  0  0  0
    0.8448   -1.5675    6.4333 C   0  0  0  0  0  0  0  0  0  0  0  0
   -0.7698   -1.9495    6.1826 S   0  0  0  0  0  0  0  0  0  0  0  0
   -0.7357   -1.9133    4.4985 C   0  0  0  0  0  0  0  0  0  0  0  0
    5.3394    0.4023    4.3903 C   0  0  0  0  0  0  0  0  0  0  0  0
    6.4867    0.0135    4.9730 C   0  0  0  0  0  0  0  0  0  0  0  0
    7.1179   -1.3039    4.8196 C   0  0  0  0  0  0  0  0  0  0  0  0
    6.8114   -2.1555    3.9466 O   0  0  0  0  0  0  0  0  0  0  0  0
    8.0957   -1.4832    5.8926 C   0  0  0  0  0  0  0  0  0  0  0  0
    8.1102   -0.3253    6.6617 C   0  0  0  0  0  0  0  0  0  0  0  0
    8.8583   -0.2832    7.8493 C   0  0  0  0  0  0  0  0  0  0  0  0
    9.6431   -1.3787    8.2153 C   0  0  0  0  0  0  0  0  0  0  0  0
    9.6795   -2.5295    7.4122 C   0  0  0  0  0  0  0  0  0  0  0  0
   10.4690   -3.6193    7.7887 C   0  0  0  0  0  0  0  0  0  0  0  0
   10.4713   -4.7892    7.0202 C   0  0  0  0  0  0  0  0  0  0  0  0
    9.6940   -4.8686    5.8625 C   0  0  0  0  0  0  0  0  0  0  0  0
    8.9057   -3.7826    5.4648 C   0  0  0  0  0  0  0  0  0  0  0  0
    8.8863   -2.6037    6.2358 C   0  0  0  0  0  0  0  0  0  0  0  0
    7.1994    0.7036    6.0862 C   0  0  0  0  0  0  0  0  0  0  0  0
    7.1917    2.0412    6.3711 C   0  0  0  0  0  0  0  0  0  0  0  0
    6.3253    2.9814    5.7077 C   0  0  0  0  0  0  0  0  0  0  0  0
    5.6115    3.7544    5.2167 N   0  0  0  0  0  0  0  0  0  0  0  0
    8.0364    2.6341    7.3734 C   0  0  0  0  0  0  0  0  0  0  0  0
    8.6999    3.1281    8.1806 N   0  0  0  0  0  0  0  0  0  0  0  0
   -8.2046    0.7345   -4.1450 H   0  0  0  0  0  0  0  0  0  0  0  0
   -9.4741   -3.3618    0.4026 H   0  0  0  0  0  0  0  0  0  0  0  0
  -13.0396   -1.3071   -2.3979 H   0  0  0  0  0  0  0  0  0  0  0  0
   -8.7449    2.1593    0.0807 H   0  0  0  0  0  0  0  0  0  0  0  0
   -8.1932    0.5597   -0.5482 H   0  0  0  0  0  0  0  0  0  0  0  0
   -6.4042    2.5687    0.9704 H   0  0  0  0  0  0  0  0  0  0  0  0
   -5.9759    0.8623    0.4974 H   0  0  0  0  0  0  0  0  0  0  0  0
   -7.2411    1.1592    1.7310 H   0  0  0  0  0  0  0  0  0  0  0  0
   -4.0972    5.0793   -2.0782 H   0  0  0  0  0  0  0  0  0  0  0  0
   -5.2467    4.0411   -2.9976 H   0  0  0  0  0  0  0  0  0  0  0  0
   -3.3796    2.7841   -3.9672 H   0  0  0  0  0  0  0  0  0  0  0  0
   -3.1388    4.5450   -4.2680 H   0  0  0  0  0  0  0  0  0  0  0  0
   -2.1658    3.6980   -2.9776 H   0  0  0  0  0  0  0  0  0  0  0  0
   -2.6797   -4.9952   -1.9458 H   0  0  0  0  0  0  0  0  0  0  0  0
   -6.2895   -5.0056   -4.8640 H   0  0  0  0  0  0  0  0  0  0  0  0
   -1.4253    1.3995   -4.4915 H   0  0  0  0  0  0  0  0  0  0  0  0
   -2.9351    2.2051   -6.2561 H   0  0  0  0  0  0  0  0  0  0  0  0
   -6.5844    0.1069   -6.1299 H   0  0  0  0  0  0  0  0  0  0  0  0
   -5.8339    1.6796   -5.6265 H   0  0  0  0  0  0  0  0  0  0  0  0
   -7.1286    1.6507   -6.8786 H   0  0  0  0  0  0  0  0  0  0  0  0
   -4.3531   -1.8034   -6.9026 H   0  0  0  0  0  0  0  0  0  0  0  0
   -2.8140   -2.6292   -5.1479 H   0  0  0  0  0  0  0  0  0  0  0  0
   -0.9620   -3.7834   -3.8588 H   0  0  0  0  0  0  0  0  0  0  0  0
    1.0027   -4.9596   -4.7832 H   0  0  0  0  0  0  0  0  0  0  0  0
    4.2338   -3.8292   -7.9568 H   0  0  0  0  0  0  0  0  0  0  0  0
    2.4844   -4.2466   -7.7608 H   0  0  0  0  0  0  0  0  0  0  0  0
    3.0432   -2.5531   -7.4953 H   0  0  0  0  0  0  0  0  0  0  0  0
    3.1257   -1.2279   -5.0601 H   0  0  0  0  0  0  0  0  0  0  0  0
    1.1281   -0.0255   -4.2901 H   0  0  0  0  0  0  0  0  0  0  0  0
    0.6391    1.0840    3.3087 H   0  0  0  0  0  0  0  0  0  0  0  0
   -0.8278    2.1771    4.9485 H   0  0  0  0  0  0  0  0  0  0  0  0
   -4.6520    4.4863    4.5812 H   0  0  0  0  0  0  0  0  0  0  0  0
   -3.7368    3.9995    3.1048 H   0  0  0  0  0  0  0  0  0  0  0  0
   -3.8087    2.8885    4.5285 H   0  0  0  0  0  0  0  0  0  0  0  0
   -1.2823    5.5364    2.2928 H   0  0  0  0  0  0  0  0  0  0  0  0
    0.1923    4.4416    0.6525 H   0  0  0  0  0  0  0  0  0  0  0  0
    1.7262    2.0894   -1.8064 H   0  0  0  0  0  0  0  0  0  0  0  0
    3.5159    3.2557   -2.9946 H   0  0  0  0  0  0  0  0  0  0  0  0
    7.2780    3.5493   -0.9866 H   0  0  0  0  0  0  0  0  0  0  0  0
    6.4127    2.6475   -2.2994 H   0  0  0  0  0  0  0  0  0  0  0  0
    7.7350    3.8169   -2.7026 H   0  0  0  0  0  0  0  0  0  0  0  0
    5.0172    4.7953    0.7283 H   0  0  0  0  0  0  0  0  0  0  0  0
    3.2490    3.5804    1.9464 H   0  0  0  0  0  0  0  0  0  0  0  0
    5.9472   -2.0823   -0.1851 H   0  0  0  0  0  0  0  0  0  0  0  0
    6.2438   -1.5725   -1.8873 H   0  0  0  0  0  0  0  0  0  0  0  0
    4.8698   -3.5947   -1.9155 H   0  0  0  0  0  0  0  0  0  0  0  0
    3.6928   -2.8721   -0.7690 H   0  0  0  0  0  0  0  0  0  0  0  0
    3.8528   -2.2133   -2.4483 H   0  0  0  0  0  0  0  0  0  0  0  0
    6.2954    2.3317    0.7083 H   0  0  0  0  0  0  0  0  0  0  0  0
    5.7863    2.3019    2.4314 H   0  0  0  0  0  0  0  0  0  0  0  0
    7.7383    3.8035    2.0966 H   0  0  0  0  0  0  0  0  0  0  0  0
    8.7023    2.4218    1.4467 H   0  0  0  0  0  0  0  0  0  0  0  0
    8.1412    2.4109    3.1694 H   0  0  0  0  0  0  0  0  0  0  0  0
    1.3291   -1.4768    7.3972 H   0  0  0  0  0  0  0  0  0  0  0  0
   -1.5688   -2.1044    3.8374 H   0  0  0  0  0  0  0  0  0  0  0  0
    4.7968    1.2442    4.7849 H   0  0  0  0  0  0  0  0  0  0  0  0
    8.8018    0.5499    8.5319 H   0  0  0  0  0  0  0  0  0  0  0  0
   10.2068   -1.3283    9.1385 H   0  0  0  0  0  0  0  0  0  0  0  0
   11.0858   -3.5718    8.6873 H   0  0  0  0  0  0  0  0  0  0  0  0
   11.0894   -5.6232    7.3206 H   0  0  0  0  0  0  0  0  0  0  0  0
    9.7061   -5.7640    5.2668 H   0  0  0  0  0  0  0  0  0  0  0  0
    8.3319   -3.8852    4.5566 H   0  0  0  0  0  0  0  0  0  0  0  0
  1  2  2  3
  2  3  1  0
  3  4  2  0
  3  5  1  0
  5  6  2  0
  6  7  1  0
  7  8  1  0
  7  9  2  0
  9 10  1  0
  9 11  1  0
 11 12  2  0
 12 13  1  0
 13 14  2  3
 14 15  1  0
 15 16  3  0
 14 17  1  0
 17 18  3  0
  1 19  1  0
 19 20  2  0
 20 21  1  0
 21 22  1  0
 22 23  1  0
 20 24  1  0
 24 25  1  0
 25 26  1  0
 26 27  1  0
 24 28  2  0
 28 29  1  0
 29 30  2  0
 30 31  1  0
 31 32  2  0
 31 33  1  0
 33 34  1  0
 34 35  1  0
 35 36  2  0
 34 37  2  0
 37 38  1  0
 38 39  1  0
 28 40  1  0
 40 41  2  0
 41 42  1  0
 42 43  1  0
 43 44  2  0
 44 45  1  0
 45 46  2  0
 46 47  1  0
 47 48  1  0
 46 49  1  0
 49 50  2  0
 42 51  1  0
 51 52  2  0
 52 53  1  0
 53 54  2  0
 54 55  1  0
 55 56  1  0
 54 57  1  0
 57 58  2  0
 41 59  1  0
 59 60  1  0
 60 61  1  0
 61 62  2  0
 62 63  1  0
 63 64  1  0
 64 65  2  0
 65 66  1  0
 66 67  2  0
 67 68  1  0
 68 69  1  0
 67 70  1  0
 70 71  2  0
 63 72  1  0
 72 73  2  0
 73 74  1  0
 74 75  2  0
 75 76  1  0
 76 77  1  0
 75 78  1  0
 78 79  2  0
 62 80  1  0
 80 81  1  0
 61 82  1  0
 82 83  2  0
 83 84  1  0
 84 85  1  0
 85 86  1  0
 83 87  1  0
 87 88  1  0
 88 89  1  0
 89 90  1  0
 87 91  2  0
 91 92  1  0
 92 93  2  0
 93 94  1  0
 94 95  2  0
 94 96  1  0
 96 97  1  0
 97 98  1  0
 98 99  2  0
 97100  2  0
100101  1  0
101102  1  0
 91103  1  0
103104  2  3
104105  1  0
105106  2  0
105107  1  0
107108  2  0
108109  1  0
109110  2  0
110111  1  0
111112  2  0
112113  1  0
113114  2  0
114115  1  0
115116  2  0
108117  1  0
117118  2  3
118119  1  0
119120  3  0
118121  1  0
121122  3  0
 13  2  1  0
 30 19  1  0
 39 33  2  0
 81 40  1  0
 93 82  1  0
102 96  2  0
117104  1  0
 12  5  1  0
 35 29  1  0
 50 43  1  0
 58 51  1  0
 80 59  2  0
 98 92  1  0
116107  1  0
 71 64  1  0
 79 72  1  0
116111  1  0
  1123  1  0
  6124  1  0
 11125  1  0
 22126  1  0
 22127  1  0
 23128  1  0
 23129  1  0
 23130  1  0
 26131  1  0
 26132  1  0
 27133  1  0
 27134  1  0
 27135  1  0
 37136  1  0
 39137  1  0
 44138  1  0
 45139  1  0
 48140  1  0
 48141  1  0
 48142  1  0
 49143  1  0
 50144  1  0
 52145  1  0
 53146  1  0
 56147  1  0
 56148  1  0
 56149  1  0
 57150  1  0
 58151  1  0
 65152  1  0
 66153  1  0
 69154  1  0
 69155  1  0
 69156  1  0
 70157  1  0
 71158  1  0
 73159  1  0
 74160  1  0
 77161  1  0
 77162  1  0
 77163  1  0
 78164  1  0
 79165  1  0
 85166  1  0
 85167  1  0
 86168  1  0
 86169  1  0
 86170  1  0
 89171  1  0
 89172  1  0
 90173  1  0
 90174  1  0
 90175  1  0
100176  1  0
102177  1  0
103178  1  0
109179  1  0
110180  1  0
112181  1  0
113182  1  0
114183  1  0
115184  1  0
M  END

