
     RDKit          3D

174187  0  0  0  0  0  0  0  0999 V2000
    1.7844    0.2662   -6.3877 C   0  0  0  0  0  0  0  0  0  0  0  0
    2.0325    0.8287   -7.5844 C   0  0  0  0  0  0  0  0  0  0  0  0
    2.6444    2.1223   -7.8711 C   0  0  0  0  0  0  0  0  0  0  0  0
    2.8963    3.0331   -7.0403 O   0  0  0  0  0  0  0  0  0  0  0  0
    2.7861    2.2294   -9.3148 C   0  0  0  0  0  0  0  0  0  0  0  0
    3.3445    3.2851  -10.0521 C   0  0  0  0  0  0  0  0  0  0  0  0
    4.0435    4.6860   -9.2406 Cl  0  0  0  0  0  0  0  0  0  0  0  0
    3.3438    3.2016  -11.4563 C   0  0  0  0  0  0  0  0  0  0  0  0
    4.0369    4.5149  -12.4073 Cl  0  0  0  0  0  0  0  0  0  0  0  0
    2.8183    2.0613  -12.0953 C   0  0  0  0  0  0  0  0  0  0  0  0
    2.8393    1.9733  -13.8612 Cl  0  0  0  0  0  0  0  0  0  0  0  0
    2.2753    0.9936  -11.3406 C   0  0  0  0  0  0  0  0  0  0  0  0
    1.7459   -0.4534  -12.1877 Cl  0  0  0  0  0  0  0  0  0  0  0  0
    2.2434    1.1028   -9.9290 C   0  0  0  0  0  0  0  0  0  0  0  0
    1.6819    0.1848   -8.8845 C   0  0  0  0  0  0  0  0  0  0  0  0
    0.4947   -0.4401   -9.0298 C   0  0  0  0  0  0  0  0  0  0  0  0
   -0.7023    0.0889   -8.4266 C   0  0  0  0  0  0  0  0  0  0  0  0
   -1.6599    0.5424   -7.9598 N   0  0  0  0  0  0  0  0  0  0  0  0
    0.3547   -1.6364   -9.8162 C   0  0  0  0  0  0  0  0  0  0  0  0
    0.2223   -2.6022  -10.4481 N   0  0  0  0  0  0  0  0  0  0  0  0
    2.0240    0.8535   -5.0575 C   0  0  0  0  0  0  0  0  0  0  0  0
    3.1457    1.5307   -4.5843 C   0  0  0  0  0  0  0  0  0  0  0  0
    3.0730    1.8340   -3.2097 C   0  0  0  0  0  0  0  0  0  0  0  0
    4.0990    2.6304   -2.5044 C   0  0  0  0  0  0  0  0  0  0  0  0
    5.4505    2.2299   -2.5231 C   0  0  0  0  0  0  0  0  0  0  0  0
    5.8050    1.0915   -3.2700 O   0  0  0  0  0  0  0  0  0  0  0  0
    7.1361    0.6313   -3.5088 C   0  0  0  0  0  0  0  0  0  0  0  0
    7.8378    1.5158   -4.5305 C   0  0  0  0  0  0  0  0  0  0  0  0
    6.4024    2.9716   -1.7963 C   0  0  0  0  0  0  0  0  0  0  0  0
    6.0227    4.1100   -1.0902 C   0  0  0  0  0  0  0  0  0  0  0  0
    4.6951    4.5349   -1.1076 C   0  0  0  0  0  0  0  0  0  0  0  0
    3.7189    3.8059   -1.8132 C   0  0  0  0  0  0  0  0  0  0  0  0
    2.3688    4.2058   -1.8484 O   0  0  0  0  0  0  0  0  0  0  0  0
    1.8177    5.3603   -1.2210 C   0  0  0  0  0  0  0  0  0  0  0  0
    2.0864    6.6078   -2.0487 C   0  0  0  0  0  0  0  0  0  0  0  0
    1.9154    1.3480   -2.6023 C   0  0  0  0  0  0  0  0  0  0  0  0
    0.9897    0.5605   -3.7628 S   0  0  0  0  0  0  0  0  0  0  0  0
    1.5437    1.3798   -1.1848 C   0  0  0  0  0  0  0  0  0  0  0  0
    2.0692    0.5283   -0.1911 C   0  0  0  0  0  0  0  0  0  0  0  0
    3.3823   -0.0534   -0.2022 N   0  0  0  0  0  0  0  0  0  0  0  0
    3.6442   -1.2379   -0.9863 C   0  0  0  0  0  0  0  0  0  0  0  0
    2.6605   -2.2345   -1.1416 C   0  0  0  0  0  0  0  0  0  0  0  0
    2.9818   -3.4496   -1.7549 C   0  0  0  0  0  0  0  0  0  0  0  0
    4.2770   -3.6729   -2.2398 C   0  0  0  0  0  0  0  0  0  0  0  0
    4.7223   -5.2692   -2.9222 S   0  0  0  0  0  0  0  0  0  0  0  0
    5.2381   -5.9407   -1.3102 C   0  0  0  0  0  0  0  0  0  0  0  0
    5.2480   -2.6659   -2.1409 C   0  0  0  0  0  0  0  0  0  0  0  0
    4.9281   -1.4544   -1.5183 C   0  0  0  0  0  0  0  0  0  0  0  0
    4.3505    0.4533    0.7509 C   0  0  0  0  0  0  0  0  0  0  0  0
    5.2535   -0.4067    1.4016 C   0  0  0  0  0  0  0  0  0  0  0  0
    6.1985    0.0971    2.3010 C   0  0  0  0  0  0  0  0  0  0  0  0
    6.2377    1.4630    2.5853 C   0  0  0  0  0  0  0  0  0  0  0  0
    7.4496    2.1150    3.7294 S   0  0  0  0  0  0  0  0  0  0  0  0
    8.7016    2.3866    2.4381 C   0  0  0  0  0  0  0  0  0  0  0  0
    5.3168    2.3253    1.9769 C   0  0  0  0  0  0  0  0  0  0  0  0
    4.3728    1.8215    1.0807 C   0  0  0  0  0  0  0  0  0  0  0  0
    1.2116    0.4421    0.8997 C   0  0  0  0  0  0  0  0  0  0  0  0
    1.0526   -0.6617    2.1456 S   0  0  0  0  0  0  0  0  0  0  0  0
   -0.4795   -0.1051    2.6509 C   0  0  0  0  0  0  0  0  0  0  0  0
   -0.8434    0.9743    1.8271 C   0  0  0  0  0  0  0  0  0  0  0  0
   -1.9158    1.8863    2.1115 N   0  0  0  0  0  0  0  0  0  0  0  0
   -2.9172    2.1347    1.1127 C   0  0  0  0  0  0  0  0  0  0  0  0
   -3.1745    3.4450    0.6794 C   0  0  0  0  0  0  0  0  0  0  0  0
   -4.2047    3.6966   -0.2295 C   0  0  0  0  0  0  0  0  0  0  0  0
   -4.9818    2.6417   -0.7204 C   0  0  0  0  0  0  0  0  0  0  0  0
   -6.3764    2.9718   -1.7993 S   0  0  0  0  0  0  0  0  0  0  0  0
   -7.5052    3.3243   -0.4187 C   0  0  0  0  0  0  0  0  0  0  0  0
   -4.6834    1.3281   -0.3430 C   0  0  0  0  0  0  0  0  0  0  0  0
   -3.6611    1.0725    0.5759 C   0  0  0  0  0  0  0  0  0  0  0  0
   -1.8106    2.7559    3.2619 C   0  0  0  0  0  0  0  0  0  0  0  0
   -0.5517    3.2224    3.7040 C   0  0  0  0  0  0  0  0  0  0  0  0
   -0.4585    4.1157    4.7756 C   0  0  0  0  0  0  0  0  0  0  0  0
   -1.6225    4.5494    5.4264 C   0  0  0  0  0  0  0  0  0  0  0  0
   -1.5106    5.7026    6.7958 S   0  0  0  0  0  0  0  0  0  0  0  0
   -1.5317    7.1954    5.7428 C   0  0  0  0  0  0  0  0  0  0  0  0
   -2.8729    4.0755    5.0187 C   0  0  0  0  0  0  0  0  0  0  0  0
   -2.9687    3.1937    3.9347 C   0  0  0  0  0  0  0  0  0  0  0  0
    0.1007    1.2068    0.8307 C   0  0  0  0  0  0  0  0  0  0  0  0
    0.0548    2.0056   -0.6395 S   0  0  0  0  0  0  0  0  0  0  0  0
   -1.4669   -1.0069    3.2768 C   0  0  0  0  0  0  0  0  0  0  0  0
   -2.6790   -0.6335    3.8564 C   0  0  0  0  0  0  0  0  0  0  0  0
   -3.6069   -1.6843    3.9591 C   0  0  0  0  0  0  0  0  0  0  0  0
   -4.9676   -1.4841    4.5104 C   0  0  0  0  0  0  0  0  0  0  0  0
   -6.1041   -1.8020    3.7308 C   0  0  0  0  0  0  0  0  0  0  0  0
   -5.9261   -2.2681    2.4140 O   0  0  0  0  0  0  0  0  0  0  0  0
   -6.9615   -2.5403    1.4718 C   0  0  0  0  0  0  0  0  0  0  0  0
   -7.5435   -1.2429    0.9187 C   0  0  0  0  0  0  0  0  0  0  0  0
   -7.3867   -1.6388    4.2879 C   0  0  0  0  0  0  0  0  0  0  0  0
   -7.5413   -1.1167    5.5721 C   0  0  0  0  0  0  0  0  0  0  0  0
   -6.4233   -0.7612    6.3245 C   0  0  0  0  0  0  0  0  0  0  0  0
   -5.1254   -0.9419    5.8058 C   0  0  0  0  0  0  0  0  0  0  0  0
   -3.9742   -0.6244    6.5534 O   0  0  0  0  0  0  0  0  0  0  0  0
   -3.9576    0.0362    7.8190 C   0  0  0  0  0  0  0  0  0  0  0  0
   -4.2258    1.5265    7.6491 C   0  0  0  0  0  0  0  0  0  0  0  0
   -3.1393   -2.8869    3.4222 C   0  0  0  0  0  0  0  0  0  0  0  0
   -1.5586   -2.6450    2.9032 S   0  0  0  0  0  0  0  0  0  0  0  0
   -3.8658   -4.1654    3.3470 C   0  0  0  0  0  0  0  0  0  0  0  0
   -3.9813   -4.8828    2.2090 C   0  0  0  0  0  0  0  0  0  0  0  0
   -3.6605   -4.4212    0.8512 C   0  0  0  0  0  0  0  0  0  0  0  0
   -3.2576   -3.2701    0.5379 O   0  0  0  0  0  0  0  0  0  0  0  0
   -4.0702   -5.4413   -0.1037 C   0  0  0  0  0  0  0  0  0  0  0  0
   -4.0092   -5.4080   -1.5027 C   0  0  0  0  0  0  0  0  0  0  0  0
   -3.2083   -4.0728   -2.3381 Cl  0  0  0  0  0  0  0  0  0  0  0  0
   -4.6282   -6.4414   -2.2309 C   0  0  0  0  0  0  0  0  0  0  0  0
   -4.5191   -6.4769   -3.9909 Cl  0  0  0  0  0  0  0  0  0  0  0  0
   -5.3671   -7.4379   -1.5504 C   0  0  0  0  0  0  0  0  0  0  0  0
   -6.2322   -8.6759   -2.4728 Cl  0  0  0  0  0  0  0  0  0  0  0  0
   -5.4431   -7.4316   -0.1375 C   0  0  0  0  0  0  0  0  0  0  0  0
   -6.6332   -8.4639    0.6565 Cl  0  0  0  0  0  0  0  0  0  0  0  0
   -4.6854   -6.4776    0.5782 C   0  0  0  0  0  0  0  0  0  0  0  0
   -4.5482   -6.2610    2.0505 C   0  0  0  0  0  0  0  0  0  0  0  0
   -4.4776   -7.2481    2.9768 C   0  0  0  0  0  0  0  0  0  0  0  0
   -4.3716   -6.9935    4.3933 C   0  0  0  0  0  0  0  0  0  0  0  0
   -4.2965   -6.7977    5.5363 N   0  0  0  0  0  0  0  0  0  0  0  0
   -4.3263   -8.6280    2.5993 C   0  0  0  0  0  0  0  0  0  0  0  0
   -4.1738   -9.7401    2.3111 N   0  0  0  0  0  0  0  0  0  0  0  0
    1.2745   -0.6845   -6.3823 H   0  0  0  0  0  0  0  0  0  0  0  0
    4.0041    1.7785   -5.1923 H   0  0  0  0  0  0  0  0  0  0  0  0
    7.0719   -0.4000   -3.9187 H   0  0  0  0  0  0  0  0  0  0  0  0
    7.7109    0.5738   -2.5623 H   0  0  0  0  0  0  0  0  0  0  0  0
    7.9290    2.5574   -4.1558 H   0  0  0  0  0  0  0  0  0  0  0  0
    8.8542    1.1188   -4.7304 H   0  0  0  0  0  0  0  0  0  0  0  0
    7.2620    1.5233   -5.4850 H   0  0  0  0  0  0  0  0  0  0  0  0
    7.4434    2.6741   -1.7538 H   0  0  0  0  0  0  0  0  0  0  0  0
    6.7592    4.6729   -0.5349 H   0  0  0  0  0  0  0  0  0  0  0  0
    4.4395    5.4286   -0.5557 H   0  0  0  0  0  0  0  0  0  0  0  0
    2.1985    5.4720   -0.1801 H   0  0  0  0  0  0  0  0  0  0  0  0
    0.7163    5.2214   -1.1488 H   0  0  0  0  0  0  0  0  0  0  0  0
    1.7319    6.4537   -3.0929 H   0  0  0  0  0  0  0  0  0  0  0  0
    1.5339    7.4686   -1.6188 H   0  0  0  0  0  0  0  0  0  0  0  0
    3.1715    6.8371   -2.0827 H   0  0  0  0  0  0  0  0  0  0  0  0
    1.6669   -2.0963   -0.7371 H   0  0  0  0  0  0  0  0  0  0  0  0
    2.2336   -4.2308   -1.8260 H   0  0  0  0  0  0  0  0  0  0  0  0
    4.3716   -5.9729   -0.6165 H   0  0  0  0  0  0  0  0  0  0  0  0
    5.6209   -6.9736   -1.4533 H   0  0  0  0  0  0  0  0  0  0  0  0
    6.0467   -5.3083   -0.8768 H   0  0  0  0  0  0  0  0  0  0  0  0
    6.2486   -2.8317   -2.5085 H   0  0  0  0  0  0  0  0  0  0  0  0
    5.6998   -0.7060   -1.3982 H   0  0  0  0  0  0  0  0  0  0  0  0
    5.2259   -1.4738    1.2216 H   0  0  0  0  0  0  0  0  0  0  0  0
    6.8961   -0.5804    2.7769 H   0  0  0  0  0  0  0  0  0  0  0  0
    9.6049    2.8365    2.9016 H   0  0  0  0  0  0  0  0  0  0  0  0
    8.9801    1.4189    1.9725 H   0  0  0  0  0  0  0  0  0  0  0  0
    8.3111    3.0781    1.6632 H   0  0  0  0  0  0  0  0  0  0  0  0
    5.3286    3.3814    2.2006 H   0  0  0  0  0  0  0  0  0  0  0  0
    3.6695    2.5075    0.6328 H   0  0  0  0  0  0  0  0  0  0  0  0
   -2.5864    4.2738    1.0559 H   0  0  0  0  0  0  0  0  0  0  0  0
   -4.4143    4.7117   -0.5344 H   0  0  0  0  0  0  0  0  0  0  0  0
   -8.5373    3.4309   -0.8176 H   0  0  0  0  0  0  0  0  0  0  0  0
   -7.2044    4.2765    0.0655 H   0  0  0  0  0  0  0  0  0  0  0  0
   -7.4748    2.4986    0.3291 H   0  0  0  0  0  0  0  0  0  0  0  0
   -5.2466    0.5020   -0.7579 H   0  0  0  0  0  0  0  0  0  0  0  0
   -3.4741    0.0568    0.8996 H   0  0  0  0  0  0  0  0  0  0  0  0
    0.3532    2.9212    3.1977 H   0  0  0  0  0  0  0  0  0  0  0  0
    0.5147    4.4765    5.0892 H   0  0  0  0  0  0  0  0  0  0  0  0
   -1.9759    8.0305    6.3139 H   0  0  0  0  0  0  0  0  0  0  0  0
   -0.4907    7.4405    5.4471 H   0  0  0  0  0  0  0  0  0  0  0  0
   -2.1467    7.0406    4.8317 H   0  0  0  0  0  0  0  0  0  0  0  0
   -3.7739    4.4125    5.5149 H   0  0  0  0  0  0  0  0  0  0  0  0
   -3.9398    2.8354    3.6230 H   0  0  0  0  0  0  0  0  0  0  0  0
   -2.9050    0.3746    4.1562 H   0  0  0  0  0  0  0  0  0  0  0  0
   -7.7564   -3.1762    1.9198 H   0  0  0  0  0  0  0  0  0  0  0  0
   -6.5255   -3.1111    0.6277 H   0  0  0  0  0  0  0  0  0  0  0  0
   -8.3159   -1.4700    0.1520 H   0  0  0  0  0  0  0  0  0  0  0  0
   -6.7373   -0.6574    0.4440 H   0  0  0  0  0  0  0  0  0  0  0  0
   -8.0002   -0.6313    1.7253 H   0  0  0  0  0  0  0  0  0  0  0  0
   -8.2831   -1.8977    3.7378 H   0  0  0  0  0  0  0  0  0  0  0  0
   -8.5352   -0.9949    5.9843 H   0  0  0  0  0  0  0  0  0  0  0  0
   -6.5869   -0.3613    7.3145 H   0  0  0  0  0  0  0  0  0  0  0  0
   -4.6872   -0.4219    8.5172 H   0  0  0  0  0  0  0  0  0  0  0  0
   -2.9528   -0.0910    8.2698 H   0  0  0  0  0  0  0  0  0  0  0  0
   -5.1947    1.7001    7.1397 H   0  0  0  0  0  0  0  0  0  0  0  0
   -4.2525    2.0159    8.6450 H   0  0  0  0  0  0  0  0  0  0  0  0
   -3.4181    1.9920    7.0395 H   0  0  0  0  0  0  0  0  0  0  0  0
   -4.3855   -4.4700    4.2339 H   0  0  0  0  0  0  0  0  0  0  0  0
  1  2  2  3
  2  3  1  0
  3  4  2  0
  3  5  1  0
  5  6  2  0
  6  7  1  0
  6  8  1  0
  8  9  1  0
  8 10  2  0
 10 11  1  0
 10 12  1  0
 12 13  1  0
 12 14  2  0
 14 15  1  0
 15 16  2  3
 16 17  1  0
 17 18  3  0
 16 19  1  0
 19 20  3  0
  1 21  1  0
 21 22  2  0
 22 23  1  0
 23 24  1  0
 24 25  2  0
 25 26  1  0
 26 27  1  0
 27 28  1  0
 25 29  1  0
 29 30  2  0
 30 31  1  0
 31 32  2  0
 32 33  1  0
 33 34  1  0
 34 35  1  0
 23 36  2  0
 36 37  1  0
 36 38  1  0
 38 39  2  0
 39 40  1  0
 40 41  1  0
 41 42  2  0
 42 43  1  0
 43 44  2  0
 44 45  1  0
 45 46  1  0
 44 47  1  0
 47 48  2  0
 40 49  1  0
 49 50  2  0
 50 51  1  0
 51 52  2  0
 52 53  1  0
 53 54  1  0
 52 55  1  0
 55 56  2  0
 39 57  1  0
 57 58  1  0
 58 59  1  0
 59 60  2  0
 60 61  1  0
 61 62  1  0
 62 63  2  0
 63 64  1  0
 64 65  2  0
 65 66  1  0
 66 67  1  0
 65 68  1  0
 68 69  2  0
 61 70  1  0
 70 71  2  0
 71 72  1  0
 72 73  2  0
 73 74  1  0
 74 75  1  0
 73 76  1  0
 76 77  2  0
 60 78  1  0
 78 79  1  0
 59 80  1  0
 80 81  2  0
 81 82  1  0
 82 83  1  0
 83 84  2  0
 84 85  1  0
 85 86  1  0
 86 87  1  0
 84 88  1  0
 88 89  2  0
 89 90  1  0
 90 91  2  0
 91 92  1  0
 92 93  1  0
 93 94  1  0
 82 95  2  0
 95 96  1  0
 95 97  1  0
 97 98  2  3
 98 99  1  0
 99100  2  0
 99101  1  0
101102  2  0
102103  1  0
102104  1  0
104105  1  0
104106  2  0
106107  1  0
106108  1  0
108109  1  0
108110  2  0
110111  1  0
111112  2  3
112113  1  0
113114  3  0
112115  1  0
115116  3  0
 15  2  1  0
 37 21  1  0
 79 38  1  0
 96 80  1  0
111 98  1  0
 14  5  1  0
 32 24  1  0
 48 41  1  0
 56 49  1  0
 78 57  2  0
 91 83  1  0
110101  1  0
 69 62  1  0
 77 70  1  0
  1117  1  0
 22118  1  0
 27119  1  0
 27120  1  0
 28121  1  0
 28122  1  0
 28123  1  0
 29124  1  0
 30125  1  0
 31126  1  0
 34127  1  0
 34128  1  0
 35129  1  0
 35130  1  0
 35131  1  0
 42132  1  0
 43133  1  0
 46134  1  0
 46135  1  0
 46136  1  0
 47137  1  0
 48138  1  0
 50139  1  0
 51140  1  0
 54141  1  0
 54142  1  0
 54143  1  0
 55144  1  0
 56145  1  0
 63146  1  0
 64147  1  0
 67148  1  0
 67149  1  0
 67150  1  0
 68151  1  0
 69152  1  0
 71153  1  0
 72154  1  0
 75155  1  0
 75156  1  0
 75157  1  0
 76158  1  0
 77159  1  0
 81160  1  0
 86161  1  0
 86162  1  0
 87163  1  0
 87164  1  0
 87165  1  0
 88166  1  0
 89167  1  0
 90168  1  0
 93169  1  0
 93170  1  0
 94171  1  0
 94172  1  0
 94173  1  0
 97174  1  0
M  END

