
     RDKit          3D

136151  0  0  0  0  0  0  0  0999 V2000
   -2.9569   -4.1071   -6.0875 C   0  0  0  0  0  0  0  0  0  0  0  0
   -4.1801   -4.6645   -6.0420 C   0  0  0  0  0  0  0  0  0  0  0  0
   -5.2600   -4.3187   -5.1052 C   0  0  0  0  0  0  0  0  0  0  0  0
   -5.2117   -3.4211   -4.2242 O   0  0  0  0  0  0  0  0  0  0  0  0
   -6.4643   -5.0305   -5.5074 C   0  0  0  0  0  0  0  0  0  0  0  0
   -7.7488   -4.9653   -4.9571 C   0  0  0  0  0  0  0  0  0  0  0  0
   -8.0383   -4.1171   -3.4363 Cl  0  0  0  0  0  0  0  0  0  0  0  0
   -8.8029   -5.5982   -5.6439 C   0  0  0  0  0  0  0  0  0  0  0  0
  -10.4369   -5.5643   -4.9730 Cl  0  0  0  0  0  0  0  0  0  0  0  0
   -8.5663   -6.2144   -6.8955 C   0  0  0  0  0  0  0  0  0  0  0  0
   -9.9140   -6.8933   -7.8079 Cl  0  0  0  0  0  0  0  0  0  0  0  0
   -7.2595   -6.2599   -7.4319 C   0  0  0  0  0  0  0  0  0  0  0  0
   -7.0220   -6.7480   -9.1123 Cl  0  0  0  0  0  0  0  0  0  0  0  0
   -6.1968   -5.7434   -6.6654 C   0  0  0  0  0  0  0  0  0  0  0  0
   -4.7398   -5.6900   -6.9689 C   0  0  0  0  0  0  0  0  0  0  0  0
   -4.0218   -6.7088   -7.5110 C   0  0  0  0  0  0  0  0  0  0  0  0
   -2.5900   -6.6481   -7.6790 C   0  0  0  0  0  0  0  0  0  0  0  0
   -1.4386   -6.6021   -7.8156 N   0  0  0  0  0  0  0  0  0  0  0  0
   -4.6092   -8.0040   -7.7402 C   0  0  0  0  0  0  0  0  0  0  0  0
   -5.0757   -9.0493   -7.9052 N   0  0  0  0  0  0  0  0  0  0  0  0
   -2.3543   -3.3287   -4.9803 C   0  0  0  0  0  0  0  0  0  0  0  0
   -2.3777   -3.7954   -3.6508 C   0  0  0  0  0  0  0  0  0  0  0  0
   -1.7546   -3.0771   -2.6055 C   0  0  0  0  0  0  0  0  0  0  0  0
   -1.8717   -3.6785   -1.3130 N   0  0  0  0  0  0  0  0  0  0  0  0
   -2.6859   -4.9993   -1.6742 S   0  0  0  0  0  4  0  0  0  0  0  0
   -2.9842   -5.0274   -3.2398 N   0  0  0  0  0  0  0  0  0  0  0  0
   -1.0466   -1.8931   -2.8544 C   0  0  0  0  0  0  0  0  0  0  0  0
   -0.9416   -1.4608   -4.1894 C   0  0  0  0  0  0  0  0  0  0  0  0
   -0.1813   -0.4002   -4.5622 N   0  0  0  0  0  0  0  0  0  0  0  0
   -0.4138   -0.4126   -6.1938 S   0  0  0  0  0  0  0  0  0  0  0  0
   -1.4123   -1.6899   -6.5042 N   0  0  0  0  0  0  0  0  0  0  0  0
   -1.6011   -2.1722   -5.2474 C   0  0  0  0  0  0  0  0  0  0  0  0
   -0.3312   -1.2153   -1.7618 C   0  0  0  0  0  0  0  0  0  0  0  0
   -0.5967    0.0709   -1.2523 C   0  0  0  0  0  0  0  0  0  0  0  0
   -1.6520    0.9310   -1.7086 N   0  0  0  0  0  0  0  0  0  0  0  0
   -1.4584    1.7375   -2.8856 C   0  0  0  0  0  0  0  0  0  0  0  0
   -0.2506    2.4259   -3.0951 C   0  0  0  0  0  0  0  0  0  0  0  0
   -0.0827    3.2254   -4.2308 C   0  0  0  0  0  0  0  0  0  0  0  0
   -1.1125    3.3372   -5.1703 C   0  0  0  0  0  0  0  0  0  0  0  0
   -0.9149    4.4045   -6.5970 S   0  0  0  0  0  0  0  0  0  0  0  0
   -0.2330    3.0862   -7.6508 C   0  0  0  0  0  0  0  0  0  0  0  0
   -2.3126    2.6468   -4.9732 C   0  0  0  0  0  0  0  0  0  0  0  0
   -2.4852    1.8507   -3.8363 C   0  0  0  0  0  0  0  0  0  0  0  0
   -2.8484    1.0646   -0.9129 C   0  0  0  0  0  0  0  0  0  0  0  0
   -3.4641    2.3205   -0.7549 C   0  0  0  0  0  0  0  0  0  0  0  0
   -4.5990    2.4593    0.0493 C   0  0  0  0  0  0  0  0  0  0  0  0
   -5.1305    1.3479    0.7072 C   0  0  0  0  0  0  0  0  0  0  0  0
   -6.5666    1.5324    1.7640 S   0  0  0  0  0  0  0  0  0  0  0  0
   -5.5696    1.8631    3.2500 C   0  0  0  0  0  0  0  0  0  0  0  0
   -4.5371    0.0912    0.5420 C   0  0  0  0  0  0  0  0  0  0  0  0
   -3.4007   -0.0517   -0.2590 C   0  0  0  0  0  0  0  0  0  0  0  0
    0.1830    0.3316   -0.1272 C   0  0  0  0  0  0  0  0  0  0  0  0
    0.3690    1.6422    0.9128 S   0  0  0  0  0  0  0  0  0  0  0  0
    1.5681    0.8679    1.8503 C   0  0  0  0  0  0  0  0  0  0  0  0
    1.8199   -0.4129    1.3402 C   0  0  0  0  0  0  0  0  0  0  0  0
    2.8324   -1.3053    1.8360 N   0  0  0  0  0  0  0  0  0  0  0  0
    3.7891   -1.8911    0.9265 C   0  0  0  0  0  0  0  0  0  0  0  0
    4.2440   -3.2085    1.1211 C   0  0  0  0  0  0  0  0  0  0  0  0
    5.1699   -3.7758    0.2411 C   0  0  0  0  0  0  0  0  0  0  0  0
    5.6523   -3.0359   -0.8434 C   0  0  0  0  0  0  0  0  0  0  0  0
    6.8428   -3.7596   -1.9710 S   0  0  0  0  0  0  0  0  0  0  0  0
    8.2758   -3.2271   -0.9843 C   0  0  0  0  0  0  0  0  0  0  0  0
    5.1976   -1.7295   -1.0509 C   0  0  0  0  0  0  0  0  0  0  0  0
    4.2697   -1.1618   -0.1752 C   0  0  0  0  0  0  0  0  0  0  0  0
    2.8428   -1.6564    3.2319 C   0  0  0  0  0  0  0  0  0  0  0  0
    1.6772   -2.1362    3.8522 C   0  0  0  0  0  0  0  0  0  0  0  0
    1.7156   -2.5777    5.1781 C   0  0  0  0  0  0  0  0  0  0  0  0
    2.9127   -2.5301    5.9026 C   0  0  0  0  0  0  0  0  0  0  0  0
    2.9939   -3.2371    7.5528 S   0  0  0  0  0  0  0  0  0  0  0  0
    2.4495   -1.7208    8.3945 C   0  0  0  0  0  0  0  0  0  0  0  0
    4.0635   -2.0016    5.3086 C   0  0  0  0  0  0  0  0  0  0  0  0
    4.0314   -1.5708    3.9767 C   0  0  0  0  0  0  0  0  0  0  0  0
    1.0239   -0.6717    0.2323 C   0  0  0  0  0  0  0  0  0  0  0  0
    0.8551   -1.9773   -0.8060 S   0  0  0  0  0  0  0  0  0  0  0  0
    2.4139    1.5262    2.8547 C   0  0  0  0  0  0  0  0  0  0  0  0
    2.0793    1.4802    4.2141 C   0  0  0  0  0  0  0  0  0  0  0  0
    3.0072    1.8644    5.2135 C   0  0  0  0  0  0  0  0  0  0  0  0
    2.5557    1.6521    6.5571 N   0  0  0  0  0  0  0  0  0  0  0  0
    1.1015    1.0541    6.2835 S   0  0  0  0  0  4  0  0  0  0  0  0
    0.8428    0.9573    4.7109 N   0  0  0  0  0  0  0  0  0  0  0  0
    4.2876    2.3444    4.8743 C   0  0  0  0  0  0  0  0  0  0  0  0
    4.6248    2.4037    3.5101 C   0  0  0  0  0  0  0  0  0  0  0  0
    5.8461    2.8083    3.0715 N   0  0  0  0  0  0  0  0  0  0  0  0
    5.6579    2.6274    1.4392 S   0  0  0  0  0  0  0  0  0  0  0  0
    4.1234    2.0605    1.2192 N   0  0  0  0  0  0  0  0  0  0  0  0
    3.6906    1.9982    2.5049 C   0  0  0  0  0  0  0  0  0  0  0  0
    5.3064    2.6361    5.9044 C   0  0  0  0  0  0  0  0  0  0  0  0
    5.1255    3.4746    6.9397 C   0  0  0  0  0  0  0  0  0  0  0  0
    4.0384    4.4508    7.0994 C   0  0  0  0  0  0  0  0  0  0  0  0
    3.0195    4.5579    6.3665 O   0  0  0  0  0  0  0  0  0  0  0  0
    4.4117    5.3808    8.1553 C   0  0  0  0  0  0  0  0  0  0  0  0
    3.7522    6.5433    8.5748 C   0  0  0  0  0  0  0  0  0  0  0  0
    2.1416    6.9331    7.9773 Cl  0  0  0  0  0  0  0  0  0  0  0  0
    4.4157    7.4020    9.4729 C   0  0  0  0  0  0  0  0  0  0  0  0
    3.6160    8.8647   10.0435 Cl  0  0  0  0  0  0  0  0  0  0  0  0
    5.7476    7.1265    9.8600 C   0  0  0  0  0  0  0  0  0  0  0  0
    6.6202    8.2695   10.8867 Cl  0  0  0  0  0  0  0  0  0  0  0  0
    6.4000    5.9630    9.3988 C   0  0  0  0  0  0  0  0  0  0  0  0
    8.1492    5.8155    9.5871 Cl  0  0  0  0  0  0  0  0  0  0  0  0
    5.6663    5.0366    8.6339 C   0  0  0  0  0  0  0  0  0  0  0  0
    6.0925    3.7434    8.0336 C   0  0  0  0  0  0  0  0  0  0  0  0
    6.8328    2.7891    8.6585 C   0  0  0  0  0  0  0  0  0  0  0  0
    7.2721    2.9367   10.0221 C   0  0  0  0  0  0  0  0  0  0  0  0
    7.6315    3.0447   11.1176 N   0  0  0  0  0  0  0  0  0  0  0  0
    7.0311    1.4728    8.1002 C   0  0  0  0  0  0  0  0  0  0  0  0
    7.1884    0.4147    7.6558 N   0  0  0  0  0  0  0  0  0  0  0  0
   -2.3519   -4.2315   -6.9716 H   0  0  0  0  0  0  0  0  0  0  0  0
    0.5539    2.3572   -2.3732 H   0  0  0  0  0  0  0  0  0  0  0  0
    0.8467    3.7615   -4.3759 H   0  0  0  0  0  0  0  0  0  0  0  0
   -0.9764    2.2732   -7.7730 H   0  0  0  0  0  0  0  0  0  0  0  0
    0.6959    2.6788   -7.1995 H   0  0  0  0  0  0  0  0  0  0  0  0
    0.0053    3.5056   -8.6495 H   0  0  0  0  0  0  0  0  0  0  0  0
   -3.1173    2.7284   -5.6949 H   0  0  0  0  0  0  0  0  0  0  0  0
   -3.4163    1.3152   -3.6978 H   0  0  0  0  0  0  0  0  0  0  0  0
   -3.0508    3.1982   -1.2337 H   0  0  0  0  0  0  0  0  0  0  0  0
   -5.0531    3.4341    0.1698 H   0  0  0  0  0  0  0  0  0  0  0  0
   -4.9176    0.9937    3.4799 H   0  0  0  0  0  0  0  0  0  0  0  0
   -6.2472    2.0349    4.1104 H   0  0  0  0  0  0  0  0  0  0  0  0
   -4.9445    2.7678    3.1055 H   0  0  0  0  0  0  0  0  0  0  0  0
   -4.9503   -0.7764    1.0422 H   0  0  0  0  0  0  0  0  0  0  0  0
   -2.9540   -1.0291   -0.3706 H   0  0  0  0  0  0  0  0  0  0  0  0
    3.8800   -3.8000    1.9516 H   0  0  0  0  0  0  0  0  0  0  0  0
    5.5116   -4.7903    0.4051 H   0  0  0  0  0  0  0  0  0  0  0  0
    8.2426   -2.1301   -0.8082 H   0  0  0  0  0  0  0  0  0  0  0  0
    9.2080   -3.4658   -1.5358 H   0  0  0  0  0  0  0  0  0  0  0  0
    8.2870   -3.7569   -0.0099 H   0  0  0  0  0  0  0  0  0  0  0  0
    5.5613   -1.1536   -1.8929 H   0  0  0  0  0  0  0  0  0  0  0  0
    3.9311   -0.1526   -0.3571 H   0  0  0  0  0  0  0  0  0  0  0  0
    0.7529   -2.2094    3.2944 H   0  0  0  0  0  0  0  0  0  0  0  0
    0.8215   -2.9836    5.6341 H   0  0  0  0  0  0  0  0  0  0  0  0
    3.2193   -0.9272    8.2961 H   0  0  0  0  0  0  0  0  0  0  0  0
    2.2924   -1.9431    9.4692 H   0  0  0  0  0  0  0  0  0  0  0  0
    1.4834   -1.3794    7.9737 H   0  0  0  0  0  0  0  0  0  0  0  0
    4.9936   -1.9588    5.8604 H   0  0  0  0  0  0  0  0  0  0  0  0
    4.9353   -1.1934    3.5162 H   0  0  0  0  0  0  0  0  0  0  0  0
    6.2779    2.1838    5.7615 H   0  0  0  0  0  0  0  0  0  0  0  0
  1  2  2  3
  2  3  1  0
  3  4  2  0
  3  5  1  0
  5  6  2  0
  6  7  1  0
  6  8  1  0
  8  9  1  0
  8 10  2  0
 10 11  1  0
 10 12  1  0
 12 13  1  0
 12 14  2  0
 14 15  1  0
 15 16  2  3
 16 17  1  0
 17 18  3  0
 16 19  1  0
 19 20  3  0
  1 21  1  0
 21 22  2  0
 22 23  1  0
 23 24  1  0
 24 25  2  0
 25 26  2  0
 23 27  2  0
 27 28  1  0
 28 29  2  0
 29 30  1  0
 30 31  1  0
 31 32  2  0
 27 33  1  0
 33 34  2  0
 34 35  1  0
 35 36  1  0
 36 37  2  0
 37 38  1  0
 38 39  2  0
 39 40  1  0
 40 41  1  0
 39 42  1  0
 42 43  2  0
 35 44  1  0
 44 45  2  0
 45 46  1  0
 46 47  2  0
 47 48  1  0
 48 49  1  0
 47 50  1  0
 50 51  2  0
 34 52  1  0
 52 53  1  0
 53 54  1  0
 54 55  2  0
 55 56  1  0
 56 57  1  0
 57 58  2  0
 58 59  1  0
 59 60  2  0
 60 61  1  0
 61 62  1  0
 60 63  1  0
 63 64  2  0
 56 65  1  0
 65 66  2  0
 66 67  1  0
 67 68  2  0
 68 69  1  0
 69 70  1  0
 68 71  1  0
 71 72  2  0
 55 73  1  0
 73 74  1  0
 54 75  1  0
 75 76  2  0
 76 77  1  0
 77 78  1  0
 78 79  2  0
 79 80  2  0
 77 81  2  0
 81 82  1  0
 82 83  2  0
 83 84  1  0
 84 85  1  0
 85 86  2  0
 81 87  1  0
 87 88  2  3
 88 89  1  0
 89 90  2  0
 89 91  1  0
 91 92  2  0
 92 93  1  0
 92 94  1  0
 94 95  1  0
 94 96  2  0
 96 97  1  0
 96 98  1  0
 98 99  1  0
 98100  2  0
100101  1  0
101102  2  3
102103  1  0
103104  3  0
102105  1  0
105106  3  0
 15  2  1  0
 32 21  1  0
 74 33  1  0
 86 75  1  0
101 88  1  0
 14  5  1  0
 26 22  1  0
 32 28  1  0
 43 36  1  0
 51 44  1  0
 73 52  2  0
 80 76  1  0
 86 82  1  0
100 91  1  0
 64 57  1  0
 72 65  1  0
  1107  1  0
 37108  1  0
 38109  1  0
 41110  1  0
 41111  1  0
 41112  1  0
 42113  1  0
 43114  1  0
 45115  1  0
 46116  1  0
 49117  1  0
 49118  1  0
 49119  1  0
 50120  1  0
 51121  1  0
 58122  1  0
 59123  1  0
 62124  1  0
 62125  1  0
 62126  1  0
 63127  1  0
 64128  1  0
 66129  1  0
 67130  1  0
 70131  1  0
 70132  1  0
 70133  1  0
 71134  1  0
 72135  1  0
 87136  1  0
M  END

