
     RDKit          3D

232253  0  0  0  0  0  0  0  0999 V2000
    8.3333    0.3227   -6.2684 C   0  0  0  0  0  0  0  0  0  0  0  0
    8.9616    1.3167   -5.6066 C   0  0  0  0  0  0  0  0  0  0  0  0
    9.0113    1.5805   -4.1585 C   0  0  0  0  0  0  0  0  0  0  0  0
    8.1186    1.3143   -3.3093 O   0  0  0  0  0  0  0  0  0  0  0  0
   10.2266    2.3359   -3.8826 C   0  0  0  0  0  0  0  0  0  0  0  0
   10.8272    2.6259   -2.6520 C   0  0  0  0  0  0  0  0  0  0  0  0
    9.9993    2.2525   -1.1463 Cl  0  0  0  0  0  0  0  0  0  0  0  0
   12.1215    3.1839   -2.6527 C   0  0  0  0  0  0  0  0  0  0  0  0
   12.9201    3.5453   -1.1206 Cl  0  0  0  0  0  0  0  0  0  0  0  0
   12.8072    3.3899   -3.8749 C   0  0  0  0  0  0  0  0  0  0  0  0
   14.4716    3.9795   -3.8654 Cl  0  0  0  0  0  0  0  0  0  0  0  0
   12.1763    3.0906   -5.1055 C   0  0  0  0  0  0  0  0  0  0  0  0
   13.1220    3.0594   -6.6017 Cl  0  0  0  0  0  0  0  0  0  0  0  0
   10.8409    2.6454   -5.0871 C   0  0  0  0  0  0  0  0  0  0  0  0
    9.9646    2.2242   -6.2134 C   0  0  0  0  0  0  0  0  0  0  0  0
    9.7367    2.9452   -7.3493 C   0  0  0  0  0  0  0  0  0  0  0  0
   10.4538    4.1630   -7.6443 C   0  0  0  0  0  0  0  0  0  0  0  0
   11.0230    5.1395   -7.8942 N   0  0  0  0  0  0  0  0  0  0  0  0
    8.5533    2.7081   -8.1472 C   0  0  0  0  0  0  0  0  0  0  0  0
    7.5893    2.5270   -8.7671 N   0  0  0  0  0  0  0  0  0  0  0  0
    7.3498   -0.6260   -5.7217 C   0  0  0  0  0  0  0  0  0  0  0  0
    7.2939   -1.2073   -4.4537 C   0  0  0  0  0  0  0  0  0  0  0  0
    6.1547   -2.0090   -4.2712 C   0  0  0  0  0  0  0  0  0  0  0  0
    5.7057   -2.5478   -3.0521 C   0  0  0  0  0  0  0  0  0  0  0  0
    6.3890   -2.2466   -1.7818 C   0  0  0  0  0  0  0  0  0  0  0  0
    7.4333   -3.0602   -1.3286 C   0  0  0  0  0  0  0  0  0  0  0  0
    8.0775   -2.7704   -0.1307 C   0  0  0  0  0  0  0  0  0  0  0  0
    9.0630   -3.5969    0.3024 F   0  0  0  0  0  0  0  0  0  0  0  0
    7.6869   -1.6540    0.6344 C   0  0  0  0  0  0  0  0  0  0  0  0
    8.3423   -1.3755    1.9641 C   0  0  0  0  0  0  0  0  0  0  0  0
    7.5824   -2.0647    3.0885 C   0  0  0  0  0  0  0  0  0  0  0  0
    6.6416   -0.8321    0.1733 C   0  0  0  0  0  0  0  0  0  0  0  0
    6.2316    0.2402    0.8974 F   0  0  0  0  0  0  0  0  0  0  0  0
    5.9988   -1.1307   -1.0337 C   0  0  0  0  0  0  0  0  0  0  0  0
    4.4490   -3.1793   -3.0503 C   0  0  0  0  0  0  0  0  0  0  0  0
    3.6607   -3.2972   -4.1971 C   0  0  0  0  0  0  0  0  0  0  0  0
    4.1081   -2.7582   -5.4294 C   0  0  0  0  0  0  0  0  0  0  0  0
    3.2323   -2.6674   -6.6215 C   0  0  0  0  0  0  0  0  0  0  0  0
    2.0580   -1.9027   -6.5726 C   0  0  0  0  0  0  0  0  0  0  0  0
    1.2358   -1.7988   -7.6919 C   0  0  0  0  0  0  0  0  0  0  0  0
    1.5779   -2.4578   -8.8863 C   0  0  0  0  0  0  0  0  0  0  0  0
    0.6760   -2.3564  -10.0907 C   0  0  0  0  0  0  0  0  0  0  0  0
    1.0148   -1.1329  -10.9377 C   0  0  0  0  0  0  0  0  0  0  0  0
    2.7787   -3.1880   -8.9471 C   0  0  0  0  0  0  0  0  0  0  0  0
    3.5984   -3.2922   -7.8200 C   0  0  0  0  0  0  0  0  0  0  0  0
    3.1526   -3.8038  -10.0991 F   0  0  0  0  0  0  0  0  0  0  0  0
    0.1015   -1.0656   -7.6031 F   0  0  0  0  0  0  0  0  0  0  0  0
    5.3615   -2.1117   -5.4168 C   0  0  0  0  0  0  0  0  0  0  0  0
    6.0515   -1.1826   -6.6352 S   0  0  0  0  0  0  0  0  0  0  0  0
    2.3677   -3.7740   -3.9322 C   0  0  0  0  0  0  0  0  0  0  0  0
    2.1113   -3.9679   -2.5694 C   0  0  0  0  0  0  0  0  0  0  0  0
    3.5132   -3.5834   -1.7145 S   0  0  0  0  0  0  0  0  0  0  0  0
    0.7861   -3.7231   -1.9900 C   0  0  0  0  0  0  0  0  0  0  0  0
    0.3292   -4.0921   -0.6989 C   0  0  0  0  0  0  0  0  0  0  0  0
    0.7555   -5.2516    0.0658 N   0  0  0  0  0  0  0  0  0  0  0  0
    1.7505   -6.1491   -0.4326 C   0  0  0  0  0  0  0  0  0  0  0  0
    3.0064   -6.2245    0.1748 C   0  0  0  0  0  0  0  0  0  0  0  0
    3.9619   -7.1401   -0.2846 C   0  0  0  0  0  0  0  0  0  0  0  0
    3.6554   -7.9941   -1.3474 C   0  0  0  0  0  0  0  0  0  0  0  0
    4.8821   -9.1584   -1.9502 S   0  0  0  0  0  0  0  0  0  0  0  0
    5.6183   -7.9564   -3.1047 C   0  0  0  0  0  0  0  0  0  0  0  0
    2.3773   -7.9544   -1.9343 C   0  0  0  0  0  0  0  0  0  0  0  0
    1.4257   -7.0461   -1.4747 C   0  0  0  0  0  0  0  0  0  0  0  0
   -0.1102   -5.7786    1.0783 C   0  0  0  0  0  0  0  0  0  0  0  0
   -1.3937   -6.2391    0.7303 C   0  0  0  0  0  0  0  0  0  0  0  0
   -2.2513   -6.7456    1.7067 C   0  0  0  0  0  0  0  0  0  0  0  0
   -1.8300   -6.8091    3.0443 C   0  0  0  0  0  0  0  0  0  0  0  0
   -2.9227   -7.4906    4.2981 S   0  0  0  0  0  0  0  0  0  0  0  0
   -2.2603   -9.1753    4.1115 C   0  0  0  0  0  0  0  0  0  0  0  0
   -0.5605   -6.3451    3.3963 C   0  0  0  0  0  0  0  0  0  0  0  0
    0.3036   -5.8374    2.4152 C   0  0  0  0  0  0  0  0  0  0  0  0
   -0.6651   -3.1995   -0.2662 C   0  0  0  0  0  0  0  0  0  0  0  0
   -1.3863   -2.8836    1.2149 S   0  0  0  0  0  0  0  0  0  0  0  0
   -2.1704   -1.4755    0.6927 C   0  0  0  0  0  0  0  0  0  0  0  0
   -1.8506   -1.2297   -0.6454 C   0  0  0  0  0  0  0  0  0  0  0  0
   -2.1970   -0.0317   -1.3651 N   0  0  0  0  0  0  0  0  0  0  0  0
   -3.2763   -0.1016   -2.3091 C   0  0  0  0  0  0  0  0  0  0  0  0
   -4.5628    0.3114   -1.9454 C   0  0  0  0  0  0  0  0  0  0  0  0
   -5.6278    0.1627   -2.8348 C   0  0  0  0  0  0  0  0  0  0  0  0
   -5.4113   -0.3860   -4.1022 C   0  0  0  0  0  0  0  0  0  0  0  0
   -6.7885   -0.6461   -5.2149 S   0  0  0  0  0  0  0  0  0  0  0  0
   -7.0738   -2.3443   -4.6337 C   0  0  0  0  0  0  0  0  0  0  0  0
   -4.1130   -0.7402   -4.4960 C   0  0  0  0  0  0  0  0  0  0  0  0
   -3.0495   -0.5952   -3.6047 C   0  0  0  0  0  0  0  0  0  0  0  0
   -1.3411    1.1338   -1.3433 C   0  0  0  0  0  0  0  0  0  0  0  0
   -1.8998    2.4226   -1.4347 C   0  0  0  0  0  0  0  0  0  0  0  0
   -1.0754    3.5537   -1.4760 C   0  0  0  0  0  0  0  0  0  0  0  0
    0.3161    3.4100   -1.4525 C   0  0  0  0  0  0  0  0  0  0  0  0
    1.3769    4.8570   -1.4622 S   0  0  0  0  0  0  0  0  0  0  0  0
    1.5072    4.9238   -3.2735 C   0  0  0  0  0  0  0  0  0  0  0  0
    0.8790    2.1334   -1.3746 C   0  0  0  0  0  0  0  0  0  0  0  0
    0.0586    1.0044   -1.2874 C   0  0  0  0  0  0  0  0  0  0  0  0
   -1.0186   -2.2294   -1.1459 C   0  0  0  0  0  0  0  0  0  0  0  0
   -0.1057   -2.3750   -2.5283 S   0  0  0  0  0  0  0  0  0  0  0  0
   -2.9434   -0.6028    1.5655 C   0  0  0  0  0  0  0  0  0  0  0  0
   -2.4248    0.1695    2.6175 C   0  0  0  0  0  0  0  0  0  0  0  0
   -1.0952    0.0377    3.1294 N   0  0  0  0  0  0  0  0  0  0  0  0
   -0.0185    0.7712    2.5161 C   0  0  0  0  0  0  0  0  0  0  0  0
    1.1896    0.1246    2.2155 C   0  0  0  0  0  0  0  0  0  0  0  0
    2.2897    0.8602    1.7649 C   0  0  0  0  0  0  0  0  0  0  0  0
    2.1973    2.2526    1.6153 C   0  0  0  0  0  0  0  0  0  0  0  0
    3.4028    3.0344    1.1799 C   0  0  0  0  0  0  0  0  0  0  0  0
    0.9755    2.8937    1.8742 C   0  0  0  0  0  0  0  0  0  0  0  0
   -0.1328    2.1559    2.3071 C   0  0  0  0  0  0  0  0  0  0  0  0
   -0.8880   -0.7234    4.3425 C   0  0  0  0  0  0  0  0  0  0  0  0
   -1.7294   -1.8087    4.6566 C   0  0  0  0  0  0  0  0  0  0  0  0
   -1.5624   -2.5188    5.8476 C   0  0  0  0  0  0  0  0  0  0  0  0
   -0.5494   -2.1628    6.7459 C   0  0  0  0  0  0  0  0  0  0  0  0
   -0.4162   -2.8895    8.0485 C   0  0  0  0  0  0  0  0  0  0  0  0
    0.2897   -1.0804    6.4446 C   0  0  0  0  0  0  0  0  0  0  0  0
    0.1228   -0.3659    5.2579 C   0  0  0  0  0  0  0  0  0  0  0  0
   -3.4280    0.8871    3.2520 C   0  0  0  0  0  0  0  0  0  0  0  0
   -3.4501    2.0727    4.4325 S   0  0  0  0  0  0  0  0  0  0  0  0
   -5.1315    2.3395    4.2795 C   0  0  0  0  0  0  0  0  0  0  0  0
   -5.6717    1.4671    3.3296 C   0  0  0  0  0  0  0  0  0  0  0  0
   -7.0613    1.3633    3.0122 N   0  0  0  0  0  0  0  0  0  0  0  0
   -7.8346    0.2936    3.5758 C   0  0  0  0  0  0  0  0  0  0  0  0
   -8.1321    0.2996    4.9480 C   0  0  0  0  0  0  0  0  0  0  0  0
   -8.8746   -0.7431    5.5128 C   0  0  0  0  0  0  0  0  0  0  0  0
   -9.3077   -1.8210    4.7137 C   0  0  0  0  0  0  0  0  0  0  0  0
  -10.1322   -2.9238    5.3051 C   0  0  0  0  0  0  0  0  0  0  0  0
   -9.0002   -1.8217    3.3438 C   0  0  0  0  0  0  0  0  0  0  0  0
   -8.2716   -0.7690    2.7759 C   0  0  0  0  0  0  0  0  0  0  0  0
   -7.6335    2.1914    1.9923 C   0  0  0  0  0  0  0  0  0  0  0  0
   -8.3694    3.3324    2.3465 C   0  0  0  0  0  0  0  0  0  0  0  0
   -8.9961    4.1039    1.3640 C   0  0  0  0  0  0  0  0  0  0  0  0
   -8.9091    3.7266    0.0107 C   0  0  0  0  0  0  0  0  0  0  0  0
   -9.5778    4.5480   -1.0516 C   0  0  0  0  0  0  0  0  0  0  0  0
   -8.1566    2.5981   -0.3437 C   0  0  0  0  0  0  0  0  0  0  0  0
   -7.5232    1.8337    0.6394 C   0  0  0  0  0  0  0  0  0  0  0  0
   -4.6806    0.6837    2.7585 C   0  0  0  0  0  0  0  0  0  0  0  0
   -4.6353   -0.4157    1.4879 S   0  0  0  0  0  0  0  0  0  0  0  0
   -5.8200    3.5160    4.8235 C   0  0  0  0  0  0  0  0  0  0  0  0
   -5.6400    4.7540    4.3096 C   0  0  0  0  0  0  0  0  0  0  0  0
   -4.7767    5.0599    3.1634 C   0  0  0  0  0  0  0  0  0  0  0  0
   -4.2455    4.2327    2.3728 O   0  0  0  0  0  0  0  0  0  0  0  0
   -4.6641    6.4921    3.0375 C   0  0  0  0  0  0  0  0  0  0  0  0
   -3.8890    7.1962    2.1209 C   0  0  0  0  0  0  0  0  0  0  0  0
   -3.9153    8.5984    2.1539 C   0  0  0  0  0  0  0  0  0  0  0  0
   -3.1441    9.3483    1.2463 C   0  0  0  0  0  0  0  0  0  0  0  0
   -3.1736   10.7417    1.2894 C   0  0  0  0  0  0  0  0  0  0  0  0
   -3.9783   11.4046    2.2183 C   0  0  0  0  0  0  0  0  0  0  0  0
   -4.0370   12.7574    2.2235 F   0  0  0  0  0  0  0  0  0  0  0  0
   -4.7368   10.6731    3.1340 C   0  0  0  0  0  0  0  0  0  0  0  0
   -4.7208    9.2693    3.1137 C   0  0  0  0  0  0  0  0  0  0  0  0
   -5.4890    8.5181    4.0320 C   0  0  0  0  0  0  0  0  0  0  0  0
   -5.4496    7.1138    3.9873 C   0  0  0  0  0  0  0  0  0  0  0  0
   -6.1447    6.0768    4.8210 C   0  0  0  0  0  0  0  0  0  0  0  0
   -7.0448    6.2978    5.8162 C   0  0  0  0  0  0  0  0  0  0  0  0
   -7.4269    7.6102    6.2585 C   0  0  0  0  0  0  0  0  0  0  0  0
   -7.7541    8.6568    6.6304 N   0  0  0  0  0  0  0  0  0  0  0  0
   -7.7218    5.2362    6.5238 C   0  0  0  0  0  0  0  0  0  0  0  0
   -8.2781    4.4005    7.0968 N   0  0  0  0  0  0  0  0  0  0  0  0
    8.5253    0.2102   -7.3311 H   0  0  0  0  0  0  0  0  0  0  0  0
    8.0492   -1.0553   -3.6900 H   0  0  0  0  0  0  0  0  0  0  0  0
    7.7387   -3.9242   -1.9088 H   0  0  0  0  0  0  0  0  0  0  0  0
    8.3739   -0.2790    2.1549 H   0  0  0  0  0  0  0  0  0  0  0  0
    9.3955   -1.7301    1.9611 H   0  0  0  0  0  0  0  0  0  0  0  0
    8.1287   -1.9172    4.0425 H   0  0  0  0  0  0  0  0  0  0  0  0
    7.4921   -3.1554    2.8892 H   0  0  0  0  0  0  0  0  0  0  0  0
    6.5686   -1.6324    3.1830 H   0  0  0  0  0  0  0  0  0  0  0  0
    5.1979   -0.4967   -1.3881 H   0  0  0  0  0  0  0  0  0  0  0  0
    1.7817   -1.3945   -5.6554 H   0  0  0  0  0  0  0  0  0  0  0  0
    0.7664   -3.2712  -10.7108 H   0  0  0  0  0  0  0  0  0  0  0  0
   -0.3819   -2.2969   -9.7705 H   0  0  0  0  0  0  0  0  0  0  0  0
    2.0668   -1.1812  -11.2892 H   0  0  0  0  0  0  0  0  0  0  0  0
    0.8694   -0.2017  -10.3466 H   0  0  0  0  0  0  0  0  0  0  0  0
    0.3444   -1.0990  -11.8205 H   0  0  0  0  0  0  0  0  0  0  0  0
    4.5094   -3.8714   -7.8863 H   0  0  0  0  0  0  0  0  0  0  0  0
    1.5814   -3.8225   -4.6735 H   0  0  0  0  0  0  0  0  0  0  0  0
    3.2527   -5.5600    0.9956 H   0  0  0  0  0  0  0  0  0  0  0  0
    4.9327   -7.1744    0.1832 H   0  0  0  0  0  0  0  0  0  0  0  0
    6.4022   -8.4646   -3.7027 H   0  0  0  0  0  0  0  0  0  0  0  0
    4.8438   -7.5533   -3.7926 H   0  0  0  0  0  0  0  0  0  0  0  0
    6.0845   -7.1255   -2.5326 H   0  0  0  0  0  0  0  0  0  0  0  0
    2.1285   -8.6347   -2.7343 H   0  0  0  0  0  0  0  0  0  0  0  0
    0.4451   -7.0288   -1.9287 H   0  0  0  0  0  0  0  0  0  0  0  0
   -1.7301   -6.1909   -0.2995 H   0  0  0  0  0  0  0  0  0  0  0  0
   -3.2391   -7.0870    1.4290 H   0  0  0  0  0  0  0  0  0  0  0  0
   -2.8644   -9.8748    4.7254 H   0  0  0  0  0  0  0  0  0  0  0  0
   -1.2086   -9.1981    4.4643 H   0  0  0  0  0  0  0  0  0  0  0  0
   -2.2955   -9.4971    3.0457 H   0  0  0  0  0  0  0  0  0  0  0  0
   -0.2288   -6.3901    4.4288 H   0  0  0  0  0  0  0  0  0  0  0  0
    1.2844   -5.4838    2.6985 H   0  0  0  0  0  0  0  0  0  0  0  0
   -4.7386    0.7602   -0.9810 H   0  0  0  0  0  0  0  0  0  0  0  0
   -6.6215    0.4690   -2.5366 H   0  0  0  0  0  0  0  0  0  0  0  0
   -7.2921   -2.3428   -3.5449 H   0  0  0  0  0  0  0  0  0  0  0  0
   -6.1795   -2.9681   -4.8395 H   0  0  0  0  0  0  0  0  0  0  0  0
   -7.9472   -2.7702   -5.1690 H   0  0  0  0  0  0  0  0  0  0  0  0
   -3.9379   -1.1481   -5.4833 H   0  0  0  0  0  0  0  0  0  0  0  0
   -2.0553   -0.8845   -3.9128 H   0  0  0  0  0  0  0  0  0  0  0  0
   -2.9721    2.5570   -1.4674 H   0  0  0  0  0  0  0  0  0  0  0  0
   -1.5173    4.5371   -1.5325 H   0  0  0  0  0  0  0  0  0  0  0  0
    2.2972    5.6516   -3.5521 H   0  0  0  0  0  0  0  0  0  0  0  0
    0.5417    5.2514   -3.7057 H   0  0  0  0  0  0  0  0  0  0  0  0
    1.7789    3.9318   -3.6910 H   0  0  0  0  0  0  0  0  0  0  0  0
    1.9544    2.0116   -1.3569 H   0  0  0  0  0  0  0  0  0  0  0  0
    0.5332    0.0379   -1.2046 H   0  0  0  0  0  0  0  0  0  0  0  0
    1.2913   -0.9423    2.3709 H   0  0  0  0  0  0  0  0  0  0  0  0
    3.2194    0.3513    1.5554 H   0  0  0  0  0  0  0  0  0  0  0  0
    4.2108    2.9198    1.9309 H   0  0  0  0  0  0  0  0  0  0  0  0
    3.7600    2.6665    0.1960 H   0  0  0  0  0  0  0  0  0  0  0  0
    3.1694    4.1156    1.0823 H   0  0  0  0  0  0  0  0  0  0  0  0
    0.8812    3.9638    1.7488 H   0  0  0  0  0  0  0  0  0  0  0  0
   -1.0559    2.6766    2.5313 H   0  0  0  0  0  0  0  0  0  0  0  0
   -2.5276   -2.1019    3.9914 H   0  0  0  0  0  0  0  0  0  0  0  0
   -2.2363   -3.3386    6.0747 H   0  0  0  0  0  0  0  0  0  0  0  0
   -1.1368   -2.4681    8.7807 H   0  0  0  0  0  0  0  0  0  0  0  0
   -0.6332   -3.9717    7.9117 H   0  0  0  0  0  0  0  0  0  0  0  0
    0.6144   -2.7902    8.4570 H   0  0  0  0  0  0  0  0  0  0  0  0
    1.0605   -0.7720    7.1395 H   0  0  0  0  0  0  0  0  0  0  0  0
    0.7677    0.4840    5.0668 H   0  0  0  0  0  0  0  0  0  0  0  0
   -7.8068    1.1223    5.5724 H   0  0  0  0  0  0  0  0  0  0  0  0
   -9.1199   -0.7074    6.5647 H   0  0  0  0  0  0  0  0  0  0  0  0
  -11.2015   -2.7349    5.0867 H   0  0  0  0  0  0  0  0  0  0  0  0
   -9.9937   -2.9831    6.4053 H   0  0  0  0  0  0  0  0  0  0  0  0
   -9.8395   -3.9008    4.8657 H   0  0  0  0  0  0  0  0  0  0  0  0
   -9.3367   -2.6413    2.7106 H   0  0  0  0  0  0  0  0  0  0  0  0
   -8.0422   -0.7956    1.7214 H   0  0  0  0  0  0  0  0  0  0  0  0
   -8.4637    3.6112    3.3875 H   0  0  0  0  0  0  0  0  0  0  0  0
   -9.5589    4.9803    1.6568 H   0  0  0  0  0  0  0  0  0  0  0  0
   -8.8135    5.1574   -1.5803 H   0  0  0  0  0  0  0  0  0  0  0  0
  -10.0813    3.8766   -1.7852 H   0  0  0  0  0  0  0  0  0  0  0  0
  -10.3468    5.2208   -0.6205 H   0  0  0  0  0  0  0  0  0  0  0  0
   -8.0705    2.3008   -1.3839 H   0  0  0  0  0  0  0  0  0  0  0  0
   -6.9732    0.9531    0.3483 H   0  0  0  0  0  0  0  0  0  0  0  0
   -6.4268    3.3305    5.6830 H   0  0  0  0  0  0  0  0  0  0  0  0
   -3.2784    6.6638    1.3955 H   0  0  0  0  0  0  0  0  0  0  0  0
   -2.5231    8.8541    0.5188 H   0  0  0  0  0  0  0  0  0  0  0  0
   -2.5828   11.3124    0.5825 H   0  0  0  0  0  0  0  0  0  0  0  0
   -5.3448   11.2048    3.8608 H   0  0  0  0  0  0  0  0  0  0  0  0
   -6.0753    9.0551    4.7567 H   0  0  0  0  0  0  0  0  0  0  0  0
  1  2  2  3
  2  3  1  0
  3  4  2  0
  3  5  1  0
  5  6  2  0
  6  7  1  0
  6  8  1  0
  8  9  1  0
  8 10  2  0
 10 11  1  0
 10 12  1  0
 12 13  1  0
 12 14  2  0
 14 15  1  0
 15 16  2  3
 16 17  1  0
 17 18  3  0
 16 19  1  0
 19 20  3  0
  1 21  1  0
 21 22  2  0
 22 23  1  0
 23 24  2  0
 24 25  1  0
 25 26  2  0
 26 27  1  0
 27 28  1  0
 27 29  2  0
 29 30  1  0
 30 31  1  0
 29 32  1  0
 32 33  1  0
 32 34  2  0
 24 35  1  0
 35 36  2  0
 36 37  1  0
 37 38  1  0
 38 39  2  0
 39 40  1  0
 40 41  2  0
 41 42  1  0
 42 43  1  0
 41 44  1  0
 44 45  2  0
 44 46  1  0
 40 47  1  0
 37 48  2  0
 48 49  1  0
 36 50  1  0
 50 51  2  0
 51 52  1  0
 51 53  1  0
 53 54  2  0
 54 55  1  0
 55 56  1  0
 56 57  2  0
 57 58  1  0
 58 59  2  0
 59 60  1  0
 60 61  1  0
 59 62  1  0
 62 63  2  0
 55 64  1  0
 64 65  2  0
 65 66  1  0
 66 67  2  0
 67 68  1  0
 68 69  1  0
 67 70  1  0
 70 71  2  0
 54 72  1  0
 72 73  1  0
 73 74  1  0
 74 75  2  0
 75 76  1  0
 76 77  1  0
 77 78  2  0
 78 79  1  0
 79 80  2  0
 80 81  1  0
 81 82  1  0
 80 83  1  0
 83 84  2  0
 76 85  1  0
 85 86  2  0
 86 87  1  0
 87 88  2  0
 88 89  1  0
 89 90  1  0
 88 91  1  0
 91 92  2  0
 75 93  1  0
 93 94  1  0
 74 95  1  0
 95 96  2  0
 96 97  1  0
 97 98  1  0
 98 99  2  0
 99100  1  0
100101  2  0
101102  1  0
101103  1  0
103104  2  0
 97105  1  0
105106  2  0
106107  1  0
107108  2  0
108109  1  0
108110  1  0
110111  2  0
 96112  1  0
112113  1  0
113114  1  0
114115  2  0
115116  1  0
116117  1  0
117118  2  0
118119  1  0
119120  2  0
120121  1  0
120122  1  0
122123  2  0
116124  1  0
124125  2  0
125126  1  0
126127  2  0
127128  1  0
127129  1  0
129130  2  0
115131  1  0
131132  1  0
114133  1  0
133134  2  3
134135  1  0
135136  2  0
135137  1  0
137138  2  0
138139  1  0
139140  2  0
140141  1  0
141142  2  0
142143  1  0
142144  1  0
144145  2  0
145146  1  0
146147  2  0
147148  1  0
148149  2  3
149150  1  0
150151  3  0
149152  1  0
152153  3  0
 15  2  1  0
 49 21  1  0
 94 53  1  0
132 95  1  0
148134  1  0
 14  5  1  0
 48 23  1  0
 63 56  1  0
 71 64  1  0
 93 72  2  0
104 98  1  0
111105  1  0
131112  2  0
147137  1  0
 34 25  1  0
 52 35  1  0
 84 77  1  0
 92 85  1  0
123117  1  0
130124  1  0
145139  1  0
 45 38  1  0
  1154  1  0
 22155  1  0
 26156  1  0
 30157  1  0
 30158  1  0
 31159  1  0
 31160  1  0
 31161  1  0
 34162  1  0
 39163  1  0
 42164  1  0
 42165  1  0
 43166  1  0
 43167  1  0
 43168  1  0
 45169  1  0
 50170  1  0
 57171  1  0
 58172  1  0
 61173  1  0
 61174  1  0
 61175  1  0
 62176  1  0
 63177  1  0
 65178  1  0
 66179  1  0
 69180  1  0
 69181  1  0
 69182  1  0
 70183  1  0
 71184  1  0
 78185  1  0
 79186  1  0
 82187  1  0
 82188  1  0
 82189  1  0
 83190  1  0
 84191  1  0
 86192  1  0
 87193  1  0
 90194  1  0
 90195  1  0
 90196  1  0
 91197  1  0
 92198  1  0
 99199  1  0
100200  1  0
102201  1  0
102202  1  0
102203  1  0
103204  1  0
104205  1  0
106206  1  0
107207  1  0
109208  1  0
109209  1  0
109210  1  0
110211  1  0
111212  1  0
118213  1  0
119214  1  0
121215  1  0
121216  1  0
121217  1  0
122218  1  0
123219  1  0
125220  1  0
126221  1  0
128222  1  0
128223  1  0
128224  1  0
129225  1  0
130226  1  0
133227  1  0
138228  1  0
140229  1  0
141230  1  0
144231  1  0
146232  1  0
M  END

