
     RDKit          3D

178193  0  0  0  0  0  0  0  0999 V2000
    5.0261    3.3117    7.5135 C   0  0  0  0  0  0  0  0  0  0  0  0
    5.7359    4.2090    6.8007 C   0  0  0  0  0  0  0  0  0  0  0  0
    6.0036    4.2121    5.3572 C   0  0  0  0  0  0  0  0  0  0  0  0
    5.3269    3.6283    4.4724 O   0  0  0  0  0  0  0  0  0  0  0  0
    7.1421    5.0871    5.1084 C   0  0  0  0  0  0  0  0  0  0  0  0
    7.8920    5.2501    3.9362 C   0  0  0  0  0  0  0  0  0  0  0  0
    7.3735    4.5039    2.4266 Cl  0  0  0  0  0  0  0  0  0  0  0  0
    9.0796    6.0090    3.9987 C   0  0  0  0  0  0  0  0  0  0  0  0
   10.0419    6.2594    2.5423 Cl  0  0  0  0  0  0  0  0  0  0  0  0
    9.5318    6.5133    5.2435 C   0  0  0  0  0  0  0  0  0  0  0  0
   11.0725    7.3725    5.3400 Cl  0  0  0  0  0  0  0  0  0  0  0  0
    8.7703    6.3112    6.4139 C   0  0  0  0  0  0  0  0  0  0  0  0
    9.4823    6.6485    7.9916 Cl  0  0  0  0  0  0  0  0  0  0  0  0
    7.5191    5.6737    6.3033 C   0  0  0  0  0  0  0  0  0  0  0  0
    6.5327    5.3328    7.3578 C   0  0  0  0  0  0  0  0  0  0  0  0
    6.0938    6.1922    8.3137 C   0  0  0  0  0  0  0  0  0  0  0  0
    6.5772    7.5501    8.3915 C   0  0  0  0  0  0  0  0  0  0  0  0
    6.9472    8.6451    8.4440 N   0  0  0  0  0  0  0  0  0  0  0  0
    4.9422    5.9094    9.1330 C   0  0  0  0  0  0  0  0  0  0  0  0
    4.0175    5.6931    9.7956 N   0  0  0  0  0  0  0  0  0  0  0  0
    4.2760    2.1730    6.9495 C   0  0  0  0  0  0  0  0  0  0  0  0
    2.9639    1.8145    7.3254 C   0  0  0  0  0  0  0  0  0  0  0  0
    2.1297    2.5970    8.3103 C   0  0  0  0  0  0  0  0  0  0  0  0
    1.6771    3.9400    7.7385 C   0  0  0  0  0  0  0  0  0  0  0  0
    2.5358    0.6631    6.6374 C   0  0  0  0  0  0  0  0  0  0  0  0
    3.4980    0.1278    5.8325 C   0  0  0  0  0  0  0  0  0  0  0  0
    4.8885    1.0507    5.8242 S   0  0  0  0  0  0  0  0  0  0  0  0
    2.9242   -0.8595    4.9645 C   0  0  0  0  0  0  0  0  0  0  0  0
    1.5805   -0.9093    5.2285 C   0  0  0  0  0  0  0  0  0  0  0  0
    1.1790    0.0074    6.3827 C   0  0  0  0  0  0  0  0  0  0  0  0
    0.7500   -0.8223    7.6208 C   0  0  0  0  0  0  0  0  0  0  0  0
   -0.3845   -1.8172    7.3522 C   0  0  0  0  0  0  0  0  0  0  0  0
    0.0928    1.0404    5.9539 C   0  0  0  0  0  0  0  0  0  0  0  0
    0.4886    1.9272    4.7621 C   0  0  0  0  0  0  0  0  0  0  0  0
    0.8134   -1.3412    4.1482 C   0  0  0  0  0  0  0  0  0  0  0  0
    1.5954   -1.5843    3.0188 C   0  0  0  0  0  0  0  0  0  0  0  0
    3.2194   -1.2280    3.3554 S   0  0  0  0  0  0  0  0  0  0  0  0
    1.0459   -1.6311    1.6651 C   0  0  0  0  0  0  0  0  0  0  0  0
    1.4340   -2.4830    0.6198 C   0  0  0  0  0  0  0  0  0  0  0  0
    2.4140   -3.5216    0.7321 N   0  0  0  0  0  0  0  0  0  0  0  0
    1.9488   -4.8110    1.1592 C   0  0  0  0  0  0  0  0  0  0  0  0
    1.6320   -5.0389    2.5061 C   0  0  0  0  0  0  0  0  0  0  0  0
    1.1210   -6.2731    2.9106 C   0  0  0  0  0  0  0  0  0  0  0  0
    0.9252   -7.2913    1.9703 C   0  0  0  0  0  0  0  0  0  0  0  0
    0.2229   -8.8559    2.4872 S   0  0  0  0  0  0  0  0  0  0  0  0
   -1.4910   -8.3207    2.1815 C   0  0  0  0  0  0  0  0  0  0  0  0
    1.2644   -7.0790    0.6289 C   0  0  0  0  0  0  0  0  0  0  0  0
    1.7775   -5.8414    0.2236 C   0  0  0  0  0  0  0  0  0  0  0  0
    3.7979   -3.3001    0.3546 C   0  0  0  0  0  0  0  0  0  0  0  0
    4.1847   -2.1205   -0.3185 C   0  0  0  0  0  0  0  0  0  0  0  0
    5.5180   -1.9077   -0.6731 C   0  0  0  0  0  0  0  0  0  0  0  0
    6.4904   -2.8600   -0.3615 C   0  0  0  0  0  0  0  0  0  0  0  0
    8.2055   -2.5941   -0.8254 S   0  0  0  0  0  0  0  0  0  0  0  0
    8.6128   -1.6942    0.7037 C   0  0  0  0  0  0  0  0  0  0  0  0
    6.1237   -4.0321    0.3068 C   0  0  0  0  0  0  0  0  0  0  0  0
    4.7933   -4.2496    0.6692 C   0  0  0  0  0  0  0  0  0  0  0  0
    0.7312   -2.1896   -0.5479 C   0  0  0  0  0  0  0  0  0  0  0  0
    0.6898   -2.8084   -2.1098 S   0  0  0  0  0  0  0  0  0  0  0  0
   -0.4545   -1.6641   -2.6603 C   0  0  0  0  0  0  0  0  0  0  0  0
   -0.8145   -0.8187   -1.5995 C   0  0  0  0  0  0  0  0  0  0  0  0
   -1.7149    0.2999   -1.6862 N   0  0  0  0  0  0  0  0  0  0  0  0
   -1.2394    1.5779   -2.1714 C   0  0  0  0  0  0  0  0  0  0  0  0
    0.1190    1.9377   -2.0633 C   0  0  0  0  0  0  0  0  0  0  0  0
    0.5613    3.1838   -2.5227 C   0  0  0  0  0  0  0  0  0  0  0  0
   -0.3493    4.0869   -3.0795 C   0  0  0  0  0  0  0  0  0  0  0  0
    0.2125    5.6909   -3.6526 S   0  0  0  0  0  0  0  0  0  0  0  0
   -0.0310    6.4881   -2.0324 C   0  0  0  0  0  0  0  0  0  0  0  0
   -1.6990    3.7434   -3.1855 C   0  0  0  0  0  0  0  0  0  0  0  0
   -2.1431    2.5014   -2.7271 C   0  0  0  0  0  0  0  0  0  0  0  0
   -2.9429    0.2398   -0.9369 C   0  0  0  0  0  0  0  0  0  0  0  0
   -3.1980    1.1683    0.0914 C   0  0  0  0  0  0  0  0  0  0  0  0
   -4.3857    1.0968    0.8239 C   0  0  0  0  0  0  0  0  0  0  0  0
   -5.3349    0.1112    0.5297 C   0  0  0  0  0  0  0  0  0  0  0  0
   -6.8621    0.0279    1.4653 S   0  0  0  0  0  0  0  0  0  0  0  0
   -7.7452    1.1705    0.3586 C   0  0  0  0  0  0  0  0  0  0  0  0
   -5.0857   -0.8137   -0.4912 C   0  0  0  0  0  0  0  0  0  0  0  0
   -3.8920   -0.7565   -1.2140 C   0  0  0  0  0  0  0  0  0  0  0  0
   -0.1389   -1.1577   -0.4410 C   0  0  0  0  0  0  0  0  0  0  0  0
   -0.1333   -0.5358    1.1124 S   0  0  0  0  0  0  0  0  0  0  0  0
   -1.1485   -1.7416   -3.9467 C   0  0  0  0  0  0  0  0  0  0  0  0
   -1.0340   -0.8288   -5.0114 C   0  0  0  0  0  0  0  0  0  0  0  0
    0.1132    0.1276   -5.1774 C   0  0  0  0  0  0  0  0  0  0  0  0
    1.2738   -0.5470   -5.9078 C   0  0  0  0  0  0  0  0  0  0  0  0
   -2.0173   -1.0707   -5.9841 C   0  0  0  0  0  0  0  0  0  0  0  0
   -2.7932   -2.1599   -5.7079 C   0  0  0  0  0  0  0  0  0  0  0  0
   -2.4333   -2.8255   -4.2203 S   0  0  0  0  0  0  0  0  0  0  0  0
   -3.9054   -2.1904   -6.6074 C   0  0  0  0  0  0  0  0  0  0  0  0
   -3.8320   -1.1077   -7.4313 C   0  0  0  0  0  0  0  0  0  0  0  0
   -2.6271   -0.2346   -7.1121 C   0  0  0  0  0  0  0  0  0  0  0  0
   -3.0908    1.1667   -6.6141 C   0  0  0  0  0  0  0  0  0  0  0  0
   -4.0323    1.1337   -5.4019 C   0  0  0  0  0  0  0  0  0  0  0  0
   -1.6841   -0.0886   -8.3342 C   0  0  0  0  0  0  0  0  0  0  0  0
   -1.2790   -1.4228   -8.9784 C   0  0  0  0  0  0  0  0  0  0  0  0
   -4.9928   -0.8850   -8.1693 C   0  0  0  0  0  0  0  0  0  0  0  0
   -5.9741   -1.8319   -7.8511 C   0  0  0  0  0  0  0  0  0  0  0  0
   -5.4124   -2.9152   -6.6594 S   0  0  0  0  0  0  0  0  0  0  0  0
   -7.3305   -1.8458   -8.4065 C   0  0  0  0  0  0  0  0  0  0  0  0
   -8.4272   -1.5598   -7.6792 C   0  0  0  0  0  0  0  0  0  0  0  0
   -8.4304   -1.0795   -6.2913 C   0  0  0  0  0  0  0  0  0  0  0  0
   -7.4143   -0.7713   -5.6122 O   0  0  0  0  0  0  0  0  0  0  0  0
   -9.8029   -0.9900   -5.8263 C   0  0  0  0  0  0  0  0  0  0  0  0
  -10.2795   -0.6885   -4.5452 C   0  0  0  0  0  0  0  0  0  0  0  0
   -9.1790   -0.1595   -3.2756 Cl  0  0  0  0  0  0  0  0  0  0  0  0
  -11.6547   -0.8413   -4.2890 C   0  0  0  0  0  0  0  0  0  0  0  0
  -12.3034   -0.4366   -2.7007 Cl  0  0  0  0  0  0  0  0  0  0  0  0
  -12.5080   -1.3553   -5.2939 C   0  0  0  0  0  0  0  0  0  0  0  0
  -14.2122   -1.6488   -4.9355 Cl  0  0  0  0  0  0  0  0  0  0  0  0
  -11.9936   -1.6802   -6.5677 C   0  0  0  0  0  0  0  0  0  0  0  0
  -12.9579   -2.6659   -7.6657 Cl  0  0  0  0  0  0  0  0  0  0  0  0
  -10.6469   -1.3778   -6.8517 C   0  0  0  0  0  0  0  0  0  0  0  0
   -9.8593   -1.6033   -8.0986 C   0  0  0  0  0  0  0  0  0  0  0  0
  -10.3348   -1.4450   -9.3598 C   0  0  0  0  0  0  0  0  0  0  0  0
  -11.5803   -0.7611   -9.6068 C   0  0  0  0  0  0  0  0  0  0  0  0
  -12.5715   -0.1983   -9.8139 N   0  0  0  0  0  0  0  0  0  0  0  0
   -9.5983   -1.8173  -10.5415 C   0  0  0  0  0  0  0  0  0  0  0  0
   -9.0272   -2.1224  -11.5045 N   0  0  0  0  0  0  0  0  0  0  0  0
    4.9725    3.4168    8.5868 H   0  0  0  0  0  0  0  0  0  0  0  0
    1.2430    2.0158    8.6285 H   0  0  0  0  0  0  0  0  0  0  0  0
    2.7301    2.7822    9.2269 H   0  0  0  0  0  0  0  0  0  0  0  0
    2.5460    4.5548    7.4336 H   0  0  0  0  0  0  0  0  0  0  0  0
    1.0162    3.7954    6.8638 H   0  0  0  0  0  0  0  0  0  0  0  0
    1.1088    4.4991    8.5101 H   0  0  0  0  0  0  0  0  0  0  0  0
    1.6209   -1.3992    8.0035 H   0  0  0  0  0  0  0  0  0  0  0  0
    0.4311   -0.1399    8.4370 H   0  0  0  0  0  0  0  0  0  0  0  0
   -1.2829   -1.3056    6.9603 H   0  0  0  0  0  0  0  0  0  0  0  0
   -0.0587   -2.5997    6.6358 H   0  0  0  0  0  0  0  0  0  0  0  0
   -0.6623   -2.3204    8.3012 H   0  0  0  0  0  0  0  0  0  0  0  0
   -0.1671    1.6889    6.8130 H   0  0  0  0  0  0  0  0  0  0  0  0
   -0.8444    0.5116    5.6749 H   0  0  0  0  0  0  0  0  0  0  0  0
   -0.2861    2.7107    4.6170 H   0  0  0  0  0  0  0  0  0  0  0  0
    1.4604    2.4289    4.9353 H   0  0  0  0  0  0  0  0  0  0  0  0
    0.5512    1.3337    3.8267 H   0  0  0  0  0  0  0  0  0  0  0  0
   -0.2684   -1.3004    4.1237 H   0  0  0  0  0  0  0  0  0  0  0  0
    1.7805   -4.2635    3.2447 H   0  0  0  0  0  0  0  0  0  0  0  0
    0.8744   -6.4354    3.9529 H   0  0  0  0  0  0  0  0  0  0  0  0
   -1.7156   -7.3952    2.7530 H   0  0  0  0  0  0  0  0  0  0  0  0
   -1.6355   -8.1354    1.0965 H   0  0  0  0  0  0  0  0  0  0  0  0
   -2.1846   -9.1257    2.5072 H   0  0  0  0  0  0  0  0  0  0  0  0
    1.1142   -7.8631   -0.1025 H   0  0  0  0  0  0  0  0  0  0  0  0
    2.0155   -5.6759   -0.8185 H   0  0  0  0  0  0  0  0  0  0  0  0
    3.4610   -1.3578   -0.5736 H   0  0  0  0  0  0  0  0  0  0  0  0
    5.7963   -0.9971   -1.1920 H   0  0  0  0  0  0  0  0  0  0  0  0
    8.3152   -2.2852    1.5945 H   0  0  0  0  0  0  0  0  0  0  0  0
    8.0935   -0.7158    0.7107 H   0  0  0  0  0  0  0  0  0  0  0  0
    9.7072   -1.5185    0.7361 H   0  0  0  0  0  0  0  0  0  0  0  0
    6.8712   -4.7774    0.5521 H   0  0  0  0  0  0  0  0  0  0  0  0
    4.5464   -5.1567    1.2040 H   0  0  0  0  0  0  0  0  0  0  0  0
    0.8390    1.2626   -1.6226 H   0  0  0  0  0  0  0  0  0  0  0  0
    1.6096    3.4480   -2.4354 H   0  0  0  0  0  0  0  0  0  0  0  0
   -1.0569    6.3011   -1.6464 H   0  0  0  0  0  0  0  0  0  0  0  0
    0.1219    7.5829   -2.1385 H   0  0  0  0  0  0  0  0  0  0  0  0
    0.7223    6.0978   -1.3149 H   0  0  0  0  0  0  0  0  0  0  0  0
   -2.4092    4.4382   -3.6108 H   0  0  0  0  0  0  0  0  0  0  0  0
   -3.1939    2.2645   -2.7905 H   0  0  0  0  0  0  0  0  0  0  0  0
   -2.4761    1.9353    0.3278 H   0  0  0  0  0  0  0  0  0  0  0  0
   -4.5686    1.8119    1.6172 H   0  0  0  0  0  0  0  0  0  0  0  0
   -8.7713    1.3335    0.7519 H   0  0  0  0  0  0  0  0  0  0  0  0
   -7.2216    2.1492    0.3105 H   0  0  0  0  0  0  0  0  0  0  0  0
   -7.8178    0.7314   -0.6569 H   0  0  0  0  0  0  0  0  0  0  0  0
   -5.8169   -1.5772   -0.7251 H   0  0  0  0  0  0  0  0  0  0  0  0
   -3.7140   -1.4706   -2.0032 H   0  0  0  0  0  0  0  0  0  0  0  0
    0.4819    0.4637   -4.1917 H   0  0  0  0  0  0  0  0  0  0  0  0
   -0.2026    1.0253   -5.7435 H   0  0  0  0  0  0  0  0  0  0  0  0
    1.7201   -1.3311   -5.2585 H   0  0  0  0  0  0  0  0  0  0  0  0
    0.9302   -1.0137   -6.8513 H   0  0  0  0  0  0  0  0  0  0  0  0
    2.0514    0.2055   -6.1434 H   0  0  0  0  0  0  0  0  0  0  0  0
   -2.2153    1.7945   -6.3589 H   0  0  0  0  0  0  0  0  0  0  0  0
   -3.6224    1.6867   -7.4413 H   0  0  0  0  0  0  0  0  0  0  0  0
   -3.5587    0.6136   -4.5429 H   0  0  0  0  0  0  0  0  0  0  0  0
   -4.2711    2.1744   -5.0938 H   0  0  0  0  0  0  0  0  0  0  0  0
   -4.9829    0.6229   -5.6561 H   0  0  0  0  0  0  0  0  0  0  0  0
   -2.1823    0.5305   -9.1114 H   0  0  0  0  0  0  0  0  0  0  0  0
   -0.7643    0.4498   -8.0297 H   0  0  0  0  0  0  0  0  0  0  0  0
   -0.5185   -1.2343   -9.7650 H   0  0  0  0  0  0  0  0  0  0  0  0
   -0.8446   -2.1121   -8.2286 H   0  0  0  0  0  0  0  0  0  0  0  0
   -2.1581   -1.9031   -9.4509 H   0  0  0  0  0  0  0  0  0  0  0  0
   -5.1446   -0.0418   -8.8290 H   0  0  0  0  0  0  0  0  0  0  0  0
   -7.3976   -2.1049   -9.4517 H   0  0  0  0  0  0  0  0  0  0  0  0
  1  2  2  3
  2  3  1  0
  3  4  2  0
  3  5  1  0
  5  6  2  0
  6  7  1  0
  6  8  1  0
  8  9  1  0
  8 10  2  0
 10 11  1  0
 10 12  1  0
 12 13  1  0
 12 14  2  0
 14 15  1  0
 15 16  2  3
 16 17  1  0
 17 18  3  0
 16 19  1  0
 19 20  3  0
  1 21  1  0
 21 22  2  0
 22 23  1  0
 23 24  1  0
 22 25  1  0
 25 26  2  0
 26 27  1  0
 26 28  1  0
 28 29  2  0
 29 30  1  0
 30 31  1  0
 31 32  1  0
 30 33  1  0
 33 34  1  0
 29 35  1  0
 35 36  2  0
 36 37  1  0
 36 38  1  0
 38 39  2  0
 39 40  1  0
 40 41  1  0
 41 42  2  0
 42 43  1  0
 43 44  2  0
 44 45  1  0
 45 46  1  0
 44 47  1  0
 47 48  2  0
 40 49  1  0
 49 50  2  0
 50 51  1  0
 51 52  2  0
 52 53  1  0
 53 54  1  0
 52 55  1  0
 55 56  2  0
 39 57  1  0
 57 58  1  0
 58 59  1  0
 59 60  2  0
 60 61  1  0
 61 62  1  0
 62 63  2  0
 63 64  1  0
 64 65  2  0
 65 66  1  0
 66 67  1  0
 65 68  1  0
 68 69  2  0
 61 70  1  0
 70 71  2  0
 71 72  1  0
 72 73  2  0
 73 74  1  0
 74 75  1  0
 73 76  1  0
 76 77  2  0
 60 78  1  0
 78 79  1  0
 59 80  1  0
 80 81  2  0
 81 82  1  0
 82 83  1  0
 81 84  1  0
 84 85  2  0
 85 86  1  0
 85 87  1  0
 87 88  2  0
 88 89  1  0
 89 90  1  0
 90 91  1  0
 89 92  1  0
 92 93  1  0
 88 94  1  0
 94 95  2  0
 95 96  1  0
 95 97  1  0
 97 98  2  3
 98 99  1  0
 99100  2  0
 99101  1  0
101102  2  0
102103  1  0
102104  1  0
104105  1  0
104106  2  0
106107  1  0
106108  1  0
108109  1  0
108110  2  0
110111  1  0
111112  2  3
112113  1  0
113114  3  0
112115  1  0
115116  3  0
 15  2  1  0
 27 21  1  0
 37 28  1  0
 79 38  1  0
 86 80  1  0
 96 87  1  0
111 98  1  0
 14  5  1  0
 30 25  1  0
 48 41  1  0
 56 49  1  0
 78 57  2  0
 89 84  1  0
110101  1  0
 69 62  1  0
 77 70  1  0
  1117  1  0
 23118  1  0
 23119  1  0
 24120  1  0
 24121  1  0
 24122  1  0
 31123  1  0
 31124  1  0
 32125  1  0
 32126  1  0
 32127  1  0
 33128  1  0
 33129  1  0
 34130  1  0
 34131  1  0
 34132  1  0
 35133  1  0
 42134  1  0
 43135  1  0
 46136  1  0
 46137  1  0
 46138  1  0
 47139  1  0
 48140  1  0
 50141  1  0
 51142  1  0
 54143  1  0
 54144  1  0
 54145  1  0
 55146  1  0
 56147  1  0
 63148  1  0
 64149  1  0
 67150  1  0
 67151  1  0
 67152  1  0
 68153  1  0
 69154  1  0
 71155  1  0
 72156  1  0
 75157  1  0
 75158  1  0
 75159  1  0
 76160  1  0
 77161  1  0
 82162  1  0
 82163  1  0
 83164  1  0
 83165  1  0
 83166  1  0
 90167  1  0
 90168  1  0
 91169  1  0
 91170  1  0
 91171  1  0
 92172  1  0
 92173  1  0
 93174  1  0
 93175  1  0
 93176  1  0
 94177  1  0
 97178  1  0
M  END

