
     RDKit          3D

102112  0  0  0  0  0  0  0  0999 V2000
    4.3509   -3.3609   -8.1428 C   0  0  0  0  0  0  0  0  0  0  0  0
    5.3935   -2.5881   -7.7789 C   0  0  0  0  0  0  0  0  0  0  0  0
    6.0912   -1.7473   -8.7434 C   0  0  0  0  0  0  0  0  0  0  0  0
    6.0640   -1.8942   -9.9941 O   0  0  0  0  0  0  0  0  0  0  0  0
    6.7705   -0.6757   -8.0271 C   0  0  0  0  0  0  0  0  0  0  0  0
    7.5328    0.3731   -8.5555 C   0  0  0  0  0  0  0  0  0  0  0  0
    7.6425    0.6240  -10.2993 Cl  0  0  0  0  0  0  0  0  0  0  0  0
    8.2126    1.2247   -7.6646 C   0  0  0  0  0  0  0  0  0  0  0  0
    9.1537    2.5810   -8.2881 Cl  0  0  0  0  0  0  0  0  0  0  0  0
    8.1867    0.9609   -6.2784 C   0  0  0  0  0  0  0  0  0  0  0  0
    9.1426    1.9595   -5.1763 Cl  0  0  0  0  0  0  0  0  0  0  0  0
    7.4453   -0.1291   -5.7717 C   0  0  0  0  0  0  0  0  0  0  0  0
    7.7571   -0.6389   -4.1149 Cl  0  0  0  0  0  0  0  0  0  0  0  0
    6.6324   -0.8729   -6.6578 C   0  0  0  0  0  0  0  0  0  0  0  0
    5.7563   -2.0646   -6.4311 C   0  0  0  0  0  0  0  0  0  0  0  0
    5.4203   -2.6217   -5.2487 C   0  0  0  0  0  0  0  0  0  0  0  0
    5.2445   -4.0455   -5.1111 C   0  0  0  0  0  0  0  0  0  0  0  0
    5.1073   -5.1867   -4.9871 N   0  0  0  0  0  0  0  0  0  0  0  0
    5.0386   -1.8147   -4.1180 C   0  0  0  0  0  0  0  0  0  0  0  0
    4.7156   -1.1791   -3.2063 N   0  0  0  0  0  0  0  0  0  0  0  0
    3.1950   -3.6340   -7.2817 C   0  0  0  0  0  0  0  0  0  0  0  0
    2.3509   -2.4472   -6.4089 S   0  0  0  0  0  0  0  0  0  0  0  0
    1.3357   -3.5524   -5.6662 C   0  0  0  0  0  0  0  0  0  0  0  0
    0.5787   -3.4671   -4.4303 C   0  0  0  0  0  0  0  0  0  0  0  0
    0.2818   -4.6683   -3.8438 C   0  0  0  0  0  0  0  0  0  0  0  0
    0.9242   -6.1558   -4.8731 Ge  0  0  0  0  0  4  0  0  0  0  0  0
   -0.4963   -7.2432   -5.6446 C   0  0  0  0  0  0  0  0  0  0  0  0
   -1.5876   -6.3620   -6.2372 C   0  0  0  0  0  0  0  0  0  0  0  0
    2.2988   -7.1564   -3.9178 C   0  0  0  0  0  0  0  0  0  0  0  0
    2.9984   -8.1331   -4.8510 C   0  0  0  0  0  0  0  0  0  0  0  0
    1.6399   -4.8284   -6.0677 C   0  0  0  0  0  0  0  0  0  0  0  0
    2.6711   -4.8995   -7.0037 C   0  0  0  0  0  0  0  0  0  0  0  0
   -0.1270   -4.5760   -2.5127 C   0  0  0  0  0  0  0  0  0  0  0  0
   -0.1443   -3.2458   -2.0748 C   0  0  0  0  0  0  0  0  0  0  0  0
    0.3803   -2.2262   -3.3299 S   0  0  0  0  0  0  0  0  0  0  0  0
   -0.4105   -2.7809   -0.7055 C   0  0  0  0  0  0  0  0  0  0  0  0
   -0.7229   -3.5593    0.4065 C   0  0  0  0  0  0  0  0  0  0  0  0
   -0.8798   -2.8616    1.5640 N   0  0  0  0  0  0  0  0  0  0  0  0
   -0.6888   -1.5378    1.3848 C   0  0  0  0  0  0  0  0  0  0  0  0
   -0.3341   -1.1781   -0.2153 S   0  0  0  0  0  0  0  0  0  0  0  0
   -0.7897   -0.5424    2.4589 C   0  0  0  0  0  0  0  0  0  0  0  0
   -0.9136    1.1310    2.1903 S   0  0  0  0  0  0  0  0  0  0  0  0
   -0.9515    1.4981    3.8178 C   0  0  0  0  0  0  0  0  0  0  0  0
   -1.1128    2.7266    4.5663 C   0  0  0  0  0  0  0  0  0  0  0  0
   -1.1527    2.5722    5.9251 C   0  0  0  0  0  0  0  0  0  0  0  0
   -0.9365    0.7401    6.4592 Ge  0  0  0  0  0  4  0  0  0  0  0  0
   -2.5155    0.0031    7.3180 C   0  0  0  0  0  0  0  0  0  0  0  0
   -2.3983   -1.5073    7.4363 C   0  0  0  0  0  0  0  0  0  0  0  0
    0.7430    0.3778    7.3787 C   0  0  0  0  0  0  0  0  0  0  0  0
    1.9118    1.0023    6.6282 C   0  0  0  0  0  0  0  0  0  0  0  0
   -0.8697    0.3642    4.5764 C   0  0  0  0  0  0  0  0  0  0  0  0
   -0.7867   -0.8123    3.8352 C   0  0  0  0  0  0  0  0  0  0  0  0
   -1.4316    3.7428    6.6264 C   0  0  0  0  0  0  0  0  0  0  0  0
   -1.6370    4.8143    5.7490 C   0  0  0  0  0  0  0  0  0  0  0  0
   -1.4319    4.3103    4.1331 S   0  0  0  0  0  0  0  0  0  0  0  0
   -1.9486    6.1936    6.1539 C   0  0  0  0  0  0  0  0  0  0  0  0
   -3.0428    6.8472    5.7239 C   0  0  0  0  0  0  0  0  0  0  0  0
   -4.1091    6.2972    4.8789 C   0  0  0  0  0  0  0  0  0  0  0  0
   -4.3625    5.0728    4.7068 O   0  0  0  0  0  0  0  0  0  0  0  0
   -4.8607    7.4017    4.3060 C   0  0  0  0  0  0  0  0  0  0  0  0
   -5.8506    7.3700    3.3178 C   0  0  0  0  0  0  0  0  0  0  0  0
   -6.5098    5.8335    2.7543 Cl  0  0  0  0  0  0  0  0  0  0  0  0
   -6.2832    8.5933    2.7681 C   0  0  0  0  0  0  0  0  0  0  0  0
   -7.5354    8.5989    1.5269 Cl  0  0  0  0  0  0  0  0  0  0  0  0
   -5.6671    9.8062    3.1591 C   0  0  0  0  0  0  0  0  0  0  0  0
   -6.1374   11.3245    2.3789 Cl  0  0  0  0  0  0  0  0  0  0  0  0
   -4.6580    9.8068    4.1501 C   0  0  0  0  0  0  0  0  0  0  0  0
   -3.6606   11.2465    4.3769 Cl  0  0  0  0  0  0  0  0  0  0  0  0
   -4.3450    8.5927    4.7954 C   0  0  0  0  0  0  0  0  0  0  0  0
   -3.3365    8.3011    5.8555 C   0  0  0  0  0  0  0  0  0  0  0  0
   -3.1290    9.0452    6.9738 C   0  0  0  0  0  0  0  0  0  0  0  0
   -2.3163    8.5830    8.0717 C   0  0  0  0  0  0  0  0  0  0  0  0
   -1.6650    8.2162    8.9571 N   0  0  0  0  0  0  0  0  0  0  0  0
   -3.8884   10.2376    7.2418 C   0  0  0  0  0  0  0  0  0  0  0  0
   -4.5007   11.1942    7.4705 N   0  0  0  0  0  0  0  0  0  0  0  0
    4.2450   -3.6449   -9.1820 H   0  0  0  0  0  0  0  0  0  0  0  0
   -0.0612   -7.8854   -6.4386 H   0  0  0  0  0  0  0  0  0  0  0  0
   -0.9312   -7.8896   -4.8542 H   0  0  0  0  0  0  0  0  0  0  0  0
   -1.1720   -5.7235   -7.0505 H   0  0  0  0  0  0  0  0  0  0  0  0
   -2.3957   -7.0001   -6.6584 H   0  0  0  0  0  0  0  0  0  0  0  0
   -2.0287   -5.7156   -5.4471 H   0  0  0  0  0  0  0  0  0  0  0  0
    3.0367   -6.4425   -3.4943 H   0  0  0  0  0  0  0  0  0  0  0  0
    1.8217   -7.7168   -3.0848 H   0  0  0  0  0  0  0  0  0  0  0  0
    2.2672   -8.8567   -5.2695 H   0  0  0  0  0  0  0  0  0  0  0  0
    3.7639   -8.6997   -4.2827 H   0  0  0  0  0  0  0  0  0  0  0  0
    3.5016   -7.5954   -5.6795 H   0  0  0  0  0  0  0  0  0  0  0  0
    3.0959   -5.8231   -7.3648 H   0  0  0  0  0  0  0  0  0  0  0  0
   -0.3082   -5.4346   -1.8813 H   0  0  0  0  0  0  0  0  0  0  0  0
   -0.8261   -4.6321    0.3774 H   0  0  0  0  0  0  0  0  0  0  0  0
   -2.6092    0.4594    8.3256 H   0  0  0  0  0  0  0  0  0  0  0  0
   -3.4080    0.2610    6.7106 H   0  0  0  0  0  0  0  0  0  0  0  0
   -1.5216   -1.7710    8.0621 H   0  0  0  0  0  0  0  0  0  0  0  0
   -3.3146   -1.9138    7.9132 H   0  0  0  0  0  0  0  0  0  0  0  0
   -2.2812   -1.9680    6.4311 H   0  0  0  0  0  0  0  0  0  0  0  0
    0.6935    0.7947    8.4069 H   0  0  0  0  0  0  0  0  0  0  0  0
    0.8828   -0.7229    7.4371 H   0  0  0  0  0  0  0  0  0  0  0  0
    1.7980    2.1078    6.5796 H   0  0  0  0  0  0  0  0  0  0  0  0
    2.8609    0.7610    7.1533 H   0  0  0  0  0  0  0  0  0  0  0  0
    1.9649    0.5940    5.5958 H   0  0  0  0  0  0  0  0  0  0  0  0
   -0.7244   -1.7997    4.2704 H   0  0  0  0  0  0  0  0  0  0  0  0
   -1.5209    3.8042    7.7031 H   0  0  0  0  0  0  0  0  0  0  0  0
   -1.2084    6.7056    6.7508 H   0  0  0  0  0  0  0  0  0  0  0  0
  1  2  2  3
  2  3  1  0
  3  4  2  0
  3  5  1  0
  5  6  2  0
  6  7  1  0
  6  8  1  0
  8  9  1  0
  8 10  2  0
 10 11  1  0
 10 12  1  0
 12 13  1  0
 12 14  2  0
 14 15  1  0
 15 16  2  3
 16 17  1  0
 17 18  3  0
 16 19  1  0
 19 20  3  0
  1 21  1  0
 21 22  1  0
 22 23  1  0
 23 24  1  0
 24 25  2  0
 25 26  1  0
 26 27  1  0
 27 28  1  0
 26 29  1  0
 29 30  1  0
 26 31  1  0
 31 32  1  0
 25 33  1  0
 33 34  2  0
 34 35  1  0
 34 36  1  0
 36 37  2  0
 37 38  1  0
 38 39  2  0
 39 40  1  0
 39 41  1  0
 41 42  1  0
 42 43  1  0
 43 44  1  0
 44 45  2  0
 45 46  1  0
 46 47  1  0
 47 48  1  0
 46 49  1  0
 49 50  1  0
 46 51  1  0
 51 52  1  0
 45 53  1  0
 53 54  2  0
 54 55  1  0
 54 56  1  0
 56 57  2  3
 57 58  1  0
 58 59  2  0
 58 60  1  0
 60 61  2  0
 61 62  1  0
 61 63  1  0
 63 64  1  0
 63 65  2  0
 65 66  1  0
 65 67  1  0
 67 68  1  0
 67 69  2  0
 69 70  1  0
 70 71  2  3
 71 72  1  0
 72 73  3  0
 71 74  1  0
 74 75  3  0
 15  2  1  0
 32 21  2  0
 40 36  1  0
 52 41  2  0
 70 57  1  0
 14  5  1  0
 31 23  2  0
 51 43  2  0
 69 60  1  0
 35 24  1  0
 55 44  1  0
  1 76  1  0
 27 77  1  0
 27 78  1  0
 28 79  1  0
 28 80  1  0
 28 81  1  0
 29 82  1  0
 29 83  1  0
 30 84  1  0
 30 85  1  0
 30 86  1  0
 32 87  1  0
 33 88  1  0
 37 89  1  0
 47 90  1  0
 47 91  1  0
 48 92  1  0
 48 93  1  0
 48 94  1  0
 49 95  1  0
 49 96  1  0
 50 97  1  0
 50 98  1  0
 50 99  1  0
 52100  1  0
 53101  1  0
 56102  1  0
M  END

