
     RDKit          3D

188207  0  0  0  0  0  0  0  0999 V2000
    0.3013    6.4805   -8.7439 C   0  0  0  0  0  0  0  0  0  0  0  0
   -0.2319    5.5173   -9.5196 C   0  0  0  0  0  0  0  0  0  0  0  0
   -0.8827    4.2858   -9.0525 C   0  0  0  0  0  0  0  0  0  0  0  0
   -0.7746    3.7753   -7.9072 O   0  0  0  0  0  0  0  0  0  0  0  0
   -1.7228    3.7775  -10.1247 C   0  0  0  0  0  0  0  0  0  0  0  0
   -2.6412    2.7240  -10.0878 C   0  0  0  0  0  0  0  0  0  0  0  0
   -2.7547    1.6722   -8.6746 Cl  0  0  0  0  0  0  0  0  0  0  0  0
   -3.4919    2.5408  -11.1946 C   0  0  0  0  0  0  0  0  0  0  0  0
   -4.6393    1.2007  -11.2021 Cl  0  0  0  0  0  0  0  0  0  0  0  0
   -3.4689    3.4637  -12.2680 C   0  0  0  0  0  0  0  0  0  0  0  0
   -4.6172    3.2869  -13.5982 Cl  0  0  0  0  0  0  0  0  0  0  0  0
   -2.5550    4.5416  -12.2609 C   0  0  0  0  0  0  0  0  0  0  0  0
   -2.7738    5.8669  -13.4050 Cl  0  0  0  0  0  0  0  0  0  0  0  0
   -1.6089    4.6188  -11.2221 C   0  0  0  0  0  0  0  0  0  0  0  0
   -0.5262    5.6145  -10.9714 C   0  0  0  0  0  0  0  0  0  0  0  0
    0.3403    6.1039  -11.8962 C   0  0  0  0  0  0  0  0  0  0  0  0
    1.5448    6.7971  -11.5164 C   0  0  0  0  0  0  0  0  0  0  0  0
    2.5194    7.3410  -11.2145 N   0  0  0  0  0  0  0  0  0  0  0  0
    0.2694    5.7185  -13.2850 C   0  0  0  0  0  0  0  0  0  0  0  0
    0.2265    5.4080  -14.3983 N   0  0  0  0  0  0  0  0  0  0  0  0
    0.3233    6.3627   -7.2768 C   0  0  0  0  0  0  0  0  0  0  0  0
    1.2453    5.5249   -6.6371 C   0  0  0  0  0  0  0  0  0  0  0  0
    1.0683    5.1434   -5.2853 C   0  0  0  0  0  0  0  0  0  0  0  0
    1.9832    4.1377   -4.8342 N   0  0  0  0  0  0  0  0  0  0  0  0
    2.8555    3.9121   -6.1488 S   0  0  0  0  0  4  0  0  0  0  0  0
    2.3162    4.8566   -7.3158 N   0  0  0  0  0  0  0  0  0  0  0  0
   -0.0233    5.6067   -4.5333 C   0  0  0  0  0  0  0  0  0  0  0  0
   -0.8917    6.5271   -5.1430 C   0  0  0  0  0  0  0  0  0  0  0  0
   -1.9711    7.0496   -4.5059 N   0  0  0  0  0  0  0  0  0  0  0  0
   -2.6314    7.9568   -5.7152 S   0  0  0  0  0  0  0  0  0  0  0  0
   -1.6528    7.7423   -7.0282 N   0  0  0  0  0  0  0  0  0  0  0  0
   -0.7161    6.9079   -6.5090 C   0  0  0  0  0  0  0  0  0  0  0  0
   -0.4210    4.9355   -3.2805 C   0  0  0  0  0  0  0  0  0  0  0  0
    0.3763    4.6785   -2.1430 C   0  0  0  0  0  0  0  0  0  0  0  0
    1.7079    5.1953   -1.9407 N   0  0  0  0  0  0  0  0  0  0  0  0
    2.7564    4.3335   -1.4435 C   0  0  0  0  0  0  0  0  0  0  0  0
    2.8931    3.0193   -1.9262 C   0  0  0  0  0  0  0  0  0  0  0  0
    3.9334    2.2038   -1.4745 C   0  0  0  0  0  0  0  0  0  0  0  0
    4.8456    2.6873   -0.5306 C   0  0  0  0  0  0  0  0  0  0  0  0
    6.2347    1.6731   -0.0294 S   0  0  0  0  0  0  0  0  0  0  0  0
    7.3609    2.4297   -1.2401 C   0  0  0  0  0  0  0  0  0  0  0  0
    4.6935    3.9796   -0.0134 C   0  0  0  0  0  0  0  0  0  0  0  0
    3.6557    4.7999   -0.4695 C   0  0  0  0  0  0  0  0  0  0  0  0
    1.9928    6.5729   -2.2626 C   0  0  0  0  0  0  0  0  0  0  0  0
    1.0624    7.5824   -1.9572 C   0  0  0  0  0  0  0  0  0  0  0  0
    1.3249    8.9121   -2.2964 C   0  0  0  0  0  0  0  0  0  0  0  0
    2.5203    9.2502   -2.9425 C   0  0  0  0  0  0  0  0  0  0  0  0
    2.8485   10.9549   -3.3928 S   0  0  0  0  0  0  0  0  0  0  0  0
    3.7296   11.3253   -1.8457 C   0  0  0  0  0  0  0  0  0  0  0  0
    3.4486    8.2506   -3.2529 C   0  0  0  0  0  0  0  0  0  0  0  0
    3.1886    6.9194   -2.9168 C   0  0  0  0  0  0  0  0  0  0  0  0
   -0.2613    3.7793   -1.2797 C   0  0  0  0  0  0  0  0  0  0  0  0
    0.2269    2.8738    0.0520 S   0  0  0  0  0  0  0  0  0  0  0  0
   -1.1540    1.8751    0.0521 C   0  0  0  0  0  0  0  0  0  0  0  0
   -1.9841    2.2389   -1.0175 C   0  0  0  0  0  0  0  0  0  0  0  0
   -2.9915    1.3729   -1.5630 N   0  0  0  0  0  0  0  0  0  0  0  0
   -2.7362    0.6504   -2.7933 C   0  0  0  0  0  0  0  0  0  0  0  0
   -1.4189    0.3071   -3.1661 C   0  0  0  0  0  0  0  0  0  0  0  0
   -1.1708   -0.3882   -4.3507 C   0  0  0  0  0  0  0  0  0  0  0  0
   -2.2291   -0.7374   -5.1933 C   0  0  0  0  0  0  0  0  0  0  0  0
   -1.9069   -1.6344   -6.7113 S   0  0  0  0  0  0  0  0  0  0  0  0
   -2.2011   -3.2607   -5.9565 C   0  0  0  0  0  0  0  0  0  0  0  0
   -3.5379   -0.3832   -4.8499 C   0  0  0  0  0  0  0  0  0  0  0  0
   -3.7914    0.3053   -3.6582 C   0  0  0  0  0  0  0  0  0  0  0  0
   -4.2606    1.2881   -0.8902 C   0  0  0  0  0  0  0  0  0  0  0  0
   -4.9537    2.4595   -0.5460 C   0  0  0  0  0  0  0  0  0  0  0  0
   -6.2276    2.3809    0.0230 C   0  0  0  0  0  0  0  0  0  0  0  0
   -6.8185    1.1328    0.2526 C   0  0  0  0  0  0  0  0  0  0  0  0
   -8.4838    1.0400    0.9074 S   0  0  0  0  0  0  0  0  0  0  0  0
   -9.2585    1.1239   -0.7393 C   0  0  0  0  0  0  0  0  0  0  0  0
   -6.1155   -0.0377   -0.0509 C   0  0  0  0  0  0  0  0  0  0  0  0
   -4.8398    0.0373   -0.6183 C   0  0  0  0  0  0  0  0  0  0  0  0
   -1.4640    3.3229   -1.7150 C   0  0  0  0  0  0  0  0  0  0  0  0
   -1.8417    4.0031   -3.1933 S   0  0  0  0  0  0  0  0  0  0  0  0
   -1.1731    0.5453    0.6546 C   0  0  0  0  0  0  0  0  0  0  0  0
   -2.0007    0.1253    1.6863 C   0  0  0  0  0  0  0  0  0  0  0  0
   -1.8652   -1.2484    1.9581 C   0  0  0  0  0  0  0  0  0  0  0  0
   -2.4730   -1.9641    3.0138 C   0  0  0  0  0  0  0  0  0  0  0  0
   -3.3525   -1.3089    4.0030 C   0  0  0  0  0  0  0  0  0  0  0  0
   -4.4775   -0.5350    3.7321 C   0  0  0  0  0  0  0  0  0  0  0  0
   -5.0981   -0.0385    4.8854 C   0  0  0  0  0  0  0  0  0  0  0  0
   -4.4770   -0.4429    6.0626 C   0  0  0  0  0  0  0  0  0  0  0  0
   -4.8641   -0.0180    7.4212 C   0  0  0  0  0  0  0  0  0  0  0  0
   -4.6696   -0.7435    8.5300 C   0  0  0  0  0  0  0  0  0  0  0  0
   -4.2625   -2.1597    8.5326 C   0  0  0  0  0  0  0  0  0  0  0  0
   -4.8005   -3.1724    7.7409 C   0  0  0  0  0  0  0  0  0  0  0  0
   -4.2285   -4.4243    7.9813 C   0  0  0  0  0  0  0  0  0  0  0  0
   -3.2408   -4.3938    8.9573 C   0  0  0  0  0  0  0  0  0  0  0  0
   -2.4653   -5.5729    9.4522 C   0  0  0  0  0  0  0  0  0  0  0  0
   -3.0826   -6.1246   10.7322 C   0  0  0  0  0  0  0  0  0  0  0  0
   -3.1036   -2.8244    9.5535 S   0  0  0  0  0  0  0  0  0  0  0  0
   -3.1190   -1.3536    5.6648 S   0  0  0  0  0  0  0  0  0  0  0  0
   -2.0989   -3.3164    3.1582 C   0  0  0  0  0  0  0  0  0  0  0  0
   -1.1890   -3.9430    2.2981 C   0  0  0  0  0  0  0  0  0  0  0  0
   -0.6017   -3.2342    1.2346 C   0  0  0  0  0  0  0  0  0  0  0  0
    0.4321   -3.8280    0.3725 C   0  0  0  0  0  0  0  0  0  0  0  0
    0.3891   -3.9066   -1.0142 C   0  0  0  0  0  0  0  0  0  0  0  0
    1.5966   -4.3329   -1.5833 C   0  0  0  0  0  0  0  0  0  0  0  0
    2.5943   -4.5503   -0.6418 C   0  0  0  0  0  0  0  0  0  0  0  0
    3.9940   -4.8910   -0.9493 C   0  0  0  0  0  0  0  0  0  0  0  0
    5.0464   -4.2821   -0.3836 C   0  0  0  0  0  0  0  0  0  0  0  0
    4.9409   -3.0755    0.4584 C   0  0  0  0  0  0  0  0  0  0  0  0
    4.1592   -1.9512    0.2016 C   0  0  0  0  0  0  0  0  0  0  0  0
    4.2098   -0.9998    1.2262 C   0  0  0  0  0  0  0  0  0  0  0  0
    5.0535   -1.3662    2.2673 C   0  0  0  0  0  0  0  0  0  0  0  0
    5.2159   -0.6260    3.5570 C   0  0  0  0  0  0  0  0  0  0  0  0
    4.1270   -1.0320    4.5438 C   0  0  0  0  0  0  0  0  0  0  0  0
    5.7207   -2.8754    1.9322 S   0  0  0  0  0  0  0  0  0  0  0  0
    1.9673   -4.2637    0.8967 S   0  0  0  0  0  0  0  0  0  0  0  0
   -0.9516   -1.8849    1.1055 C   0  0  0  0  0  0  0  0  0  0  0  0
   -0.2926   -0.7556    0.0540 S   0  0  0  0  0  0  0  0  0  0  0  0
   -0.9297   -5.2763    2.6384 C   0  0  0  0  0  0  0  0  0  0  0  0
   -1.5972   -5.6819    3.7905 C   0  0  0  0  0  0  0  0  0  0  0  0
   -2.5765   -4.4216    4.3396 S   0  0  0  0  0  0  0  0  0  0  0  0
   -1.4822   -6.9943    4.4485 C   0  0  0  0  0  0  0  0  0  0  0  0
   -0.3053   -7.6025    4.7020 C   0  0  0  0  0  0  0  0  0  0  0  0
    1.0341   -7.0993    4.3753 C   0  0  0  0  0  0  0  0  0  0  0  0
    1.3527   -5.8944    4.2002 O   0  0  0  0  0  0  0  0  0  0  0  0
    1.9604   -8.2171    4.3965 C   0  0  0  0  0  0  0  0  0  0  0  0
    3.2795   -8.2659    3.9313 C   0  0  0  0  0  0  0  0  0  0  0  0
    4.0935   -6.8013    3.3725 Cl  0  0  0  0  0  0  0  0  0  0  0  0
    3.9246   -9.5161    3.8795 C   0  0  0  0  0  0  0  0  0  0  0  0
    5.6001   -9.6195    3.3326 Cl  0  0  0  0  0  0  0  0  0  0  0  0
    3.2104  -10.6957    4.2076 C   0  0  0  0  0  0  0  0  0  0  0  0
    3.9873  -12.2694    4.0232 Cl  0  0  0  0  0  0  0  0  0  0  0  0
    1.8653  -10.6210    4.6336 C   0  0  0  0  0  0  0  0  0  0  0  0
    0.8990  -12.0967    4.7092 Cl  0  0  0  0  0  0  0  0  0  0  0  0
    1.2841   -9.3505    4.8169 C   0  0  0  0  0  0  0  0  0  0  0  0
   -0.1016   -8.9824    5.2212 C   0  0  0  0  0  0  0  0  0  0  0  0
   -0.8007   -9.5389    6.2444 C   0  0  0  0  0  0  0  0  0  0  0  0
   -2.0555   -9.0033    6.7082 C   0  0  0  0  0  0  0  0  0  0  0  0
   -3.0644   -8.5820    7.0940 N   0  0  0  0  0  0  0  0  0  0  0  0
   -0.2266  -10.5547    7.0888 C   0  0  0  0  0  0  0  0  0  0  0  0
    0.2330  -11.3598    7.7822 N   0  0  0  0  0  0  0  0  0  0  0  0
    0.5777    7.4366   -9.1731 H   0  0  0  0  0  0  0  0  0  0  0  0
    2.2005    2.6268   -2.6584 H   0  0  0  0  0  0  0  0  0  0  0  0
    4.0404    1.2047   -1.8753 H   0  0  0  0  0  0  0  0  0  0  0  0
    6.9318    2.3577   -2.2616 H   0  0  0  0  0  0  0  0  0  0  0  0
    7.5274    3.4952   -0.9827 H   0  0  0  0  0  0  0  0  0  0  0  0
    8.3342    1.9020   -1.2196 H   0  0  0  0  0  0  0  0  0  0  0  0
    5.3955    4.3597    0.7176 H   0  0  0  0  0  0  0  0  0  0  0  0
    3.5555    5.8011   -0.0696 H   0  0  0  0  0  0  0  0  0  0  0  0
    0.1359    7.3378   -1.4545 H   0  0  0  0  0  0  0  0  0  0  0  0
    0.5988    9.6800   -2.0581 H   0  0  0  0  0  0  0  0  0  0  0  0
    4.6554   10.7152   -1.7817 H   0  0  0  0  0  0  0  0  0  0  0  0
    3.0779   11.1099   -0.9738 H   0  0  0  0  0  0  0  0  0  0  0  0
    4.0023   12.3993   -1.8348 H   0  0  0  0  0  0  0  0  0  0  0  0
    4.3727    8.5025   -3.7594 H   0  0  0  0  0  0  0  0  0  0  0  0
    3.9112    6.1571   -3.1815 H   0  0  0  0  0  0  0  0  0  0  0  0
   -0.5771    0.5737   -2.5419 H   0  0  0  0  0  0  0  0  0  0  0  0
   -0.1549   -0.6535   -4.6152 H   0  0  0  0  0  0  0  0  0  0  0  0
   -3.2458   -3.3198   -5.5856 H   0  0  0  0  0  0  0  0  0  0  0  0
   -2.0452   -4.0480   -6.7206 H   0  0  0  0  0  0  0  0  0  0  0  0
   -1.4967   -3.4235   -5.1158 H   0  0  0  0  0  0  0  0  0  0  0  0
   -4.3610   -0.6474   -5.5013 H   0  0  0  0  0  0  0  0  0  0  0  0
   -4.8133    0.5755   -3.4234 H   0  0  0  0  0  0  0  0  0  0  0  0
   -4.5245    3.4316   -0.7533 H   0  0  0  0  0  0  0  0  0  0  0  0
   -6.7674    3.2890    0.2557 H   0  0  0  0  0  0  0  0  0  0  0  0
   -8.9336    2.0416   -1.2737 H   0  0  0  0  0  0  0  0  0  0  0  0
   -8.9846    0.2296   -1.3363 H   0  0  0  0  0  0  0  0  0  0  0  0
  -10.3621    1.1552   -0.6230 H   0  0  0  0  0  0  0  0  0  0  0  0
   -6.5618   -1.0056    0.1350 H   0  0  0  0  0  0  0  0  0  0  0  0
   -4.3067   -0.8733   -0.8605 H   0  0  0  0  0  0  0  0  0  0  0  0
   -2.6544    0.7979    2.2252 H   0  0  0  0  0  0  0  0  0  0  0  0
   -4.8396   -0.3286    2.7333 H   0  0  0  0  0  0  0  0  0  0  0  0
   -5.9777    0.5920    4.8619 H   0  0  0  0  0  0  0  0  0  0  0  0
   -5.2955    0.9710    7.5309 H   0  0  0  0  0  0  0  0  0  0  0  0
   -4.8487   -0.2775    9.4876 H   0  0  0  0  0  0  0  0  0  0  0  0
   -5.5879   -3.0142    7.0181 H   0  0  0  0  0  0  0  0  0  0  0  0
   -4.5247   -5.3232    7.4582 H   0  0  0  0  0  0  0  0  0  0  0  0
   -2.4562   -6.3687    8.6749 H   0  0  0  0  0  0  0  0  0  0  0  0
   -1.4145   -5.2665    9.6481 H   0  0  0  0  0  0  0  0  0  0  0  0
   -4.1500   -6.3912   10.5654 H   0  0  0  0  0  0  0  0  0  0  0  0
   -2.5348   -7.0347   11.0517 H   0  0  0  0  0  0  0  0  0  0  0  0
   -3.0177   -5.3661   11.5451 H   0  0  0  0  0  0  0  0  0  0  0  0
   -0.4756   -3.6319   -1.6052 H   0  0  0  0  0  0  0  0  0  0  0  0
    1.7539   -4.4259   -2.6495 H   0  0  0  0  0  0  0  0  0  0  0  0
    4.1760   -5.6936   -1.6562 H   0  0  0  0  0  0  0  0  0  0  0  0
    6.0376   -4.6834   -0.5629 H   0  0  0  0  0  0  0  0  0  0  0  0
    3.5504   -1.8281   -0.6857 H   0  0  0  0  0  0  0  0  0  0  0  0
    3.6323   -0.0840    1.2152 H   0  0  0  0  0  0  0  0  0  0  0  0
    5.1565    0.4681    3.3699 H   0  0  0  0  0  0  0  0  0  0  0  0
    6.2136   -0.8529    3.9909 H   0  0  0  0  0  0  0  0  0  0  0  0
    4.1714   -2.1250    4.7359 H   0  0  0  0  0  0  0  0  0  0  0  0
    4.2746   -0.4974    5.5063 H   0  0  0  0  0  0  0  0  0  0  0  0
    3.1241   -0.7715    4.1411 H   0  0  0  0  0  0  0  0  0  0  0  0
   -0.2654   -5.9217    2.0788 H   0  0  0  0  0  0  0  0  0  0  0  0
   -2.4108   -7.4789    4.7031 H   0  0  0  0  0  0  0  0  0  0  0  0
  1  2  2  3
  2  3  1  0
  3  4  2  0
  3  5  1  0
  5  6  2  0
  6  7  1  0
  6  8  1  0
  8  9  1  0
  8 10  2  0
 10 11  1  0
 10 12  1  0
 12 13  1  0
 12 14  2  0
 14 15  1  0
 15 16  2  3
 16 17  1  0
 17 18  3  0
 16 19  1  0
 19 20  3  0
  1 21  1  0
 21 22  2  0
 22 23  1  0
 23 24  1  0
 24 25  2  0
 25 26  2  0
 23 27  2  0
 27 28  1  0
 28 29  2  0
 29 30  1  0
 30 31  1  0
 31 32  2  0
 27 33  1  0
 33 34  2  0
 34 35  1  0
 35 36  1  0
 36 37  2  0
 37 38  1  0
 38 39  2  0
 39 40  1  0
 40 41  1  0
 39 42  1  0
 42 43  2  0
 35 44  1  0
 44 45  2  0
 45 46  1  0
 46 47  2  0
 47 48  1  0
 48 49  1  0
 47 50  1  0
 50 51  2  0
 34 52  1  0
 52 53  1  0
 53 54  1  0
 54 55  2  0
 55 56  1  0
 56 57  1  0
 57 58  2  0
 58 59  1  0
 59 60  2  0
 60 61  1  0
 61 62  1  0
 60 63  1  0
 63 64  2  0
 56 65  1  0
 65 66  2  0
 66 67  1  0
 67 68  2  0
 68 69  1  0
 69 70  1  0
 68 71  1  0
 71 72  2  0
 55 73  1  0
 73 74  1  0
 54 75  1  0
 75 76  2  0
 76 77  1  0
 77 78  2  0
 78 79  1  0
 79 80  2  0
 80 81  1  0
 81 82  2  0
 82 83  1  0
 83 84  2  3
 84 85  1  0
 85 86  2  0
 86 87  1  0
 87 88  2  0
 88 89  1  0
 89 90  1  0
 88 91  1  0
 82 92  1  0
 78 93  1  0
 93 94  2  0
 94 95  1  0
 95 96  1  0
 96 97  2  0
 97 98  1  0
 98 99  2  0
 99100  1  0
100101  2  3
101102  1  0
102103  2  0
103104  1  0
104105  2  0
105106  1  0
106107  1  0
105108  1  0
 99109  1  0
 95110  2  0
110111  1  0
 94112  1  0
112113  2  0
113114  1  0
113115  1  0
115116  2  3
116117  1  0
117118  2  0
117119  1  0
119120  2  0
120121  1  0
120122  1  0
122123  1  0
122124  2  0
124125  1  0
124126  1  0
126127  1  0
126128  2  0
128129  1  0
129130  2  3
130131  1  0
131132  3  0
130133  1  0
133134  3  0
 15  2  1  0
 32 21  1  0
 74 33  1  0
111 75  1  0
129116  1  0
 14  5  1  0
 26 22  1  0
 32 28  1  0
 43 36  1  0
 51 44  1  0
 73 52  2  0
110 77  1  0
128119  1  0
 64 57  1  0
 72 65  1  0
 92 79  1  0
114 93  1  0
 91 85  1  0
109 96  1  0
108102  1  0
  1135  1  0
 37136  1  0
 38137  1  0
 41138  1  0
 41139  1  0
 41140  1  0
 42141  1  0
 43142  1  0
 45143  1  0
 46144  1  0
 49145  1  0
 49146  1  0
 49147  1  0
 50148  1  0
 51149  1  0
 58150  1  0
 59151  1  0
 62152  1  0
 62153  1  0
 62154  1  0
 63155  1  0
 64156  1  0
 66157  1  0
 67158  1  0
 70159  1  0
 70160  1  0
 70161  1  0
 71162  1  0
 72163  1  0
 76164  1  0
 80165  1  0
 81166  1  0
 83167  1  0
 84168  1  0
 86169  1  0
 87170  1  0
 89171  1  0
 89172  1  0
 90173  1  0
 90174  1  0
 90175  1  0
 97176  1  0
 98177  1  0
100178  1  0
101179  1  0
103180  1  0
104181  1  0
106182  1  0
106183  1  0
107184  1  0
107185  1  0
107186  1  0
112187  1  0
115188  1  0
M  END

