
     RDKit          3D

 77 88  0  0  0  0  0  0  0  0999 V2000
    5.2001    0.6739    1.3929 C   0  0  0  0  0  0  0  0  0  0  0  0
    6.5467    0.5963    1.4187 C   0  0  0  0  0  0  0  0  0  0  0  0
    7.3970   -0.5585    1.1114 C   0  0  0  0  0  0  0  0  0  0  0  0
    7.0215   -1.7626    1.0301 O   0  0  0  0  0  0  0  0  0  0  0  0
    8.7700   -0.0891    1.0467 C   0  0  0  0  0  0  0  0  0  0  0  0
    9.9334   -0.7734    0.6510 C   0  0  0  0  0  0  0  0  0  0  0  0
    9.8661   -2.4655    0.1429 Cl  0  0  0  0  0  0  0  0  0  0  0  0
   11.1583   -0.0684    0.6584 C   0  0  0  0  0  0  0  0  0  0  0  0
   12.6431   -0.8799    0.1762 Cl  0  0  0  0  0  0  0  0  0  0  0  0
   11.1958    1.2987    1.0503 C   0  0  0  0  0  0  0  0  0  0  0  0
   12.7398    2.1682    1.0911 Cl  0  0  0  0  0  0  0  0  0  0  0  0
   10.0103    1.9641    1.4249 C   0  0  0  0  0  0  0  0  0  0  0  0
   10.0720    3.6160    2.0286 Cl  0  0  0  0  0  0  0  0  0  0  0  0
    8.7942    1.2553    1.3903 C   0  0  0  0  0  0  0  0  0  0  0  0
    7.4310    1.7541    1.6866 C   0  0  0  0  0  0  0  0  0  0  0  0
    7.0734    3.0018    1.3558 C   0  0  0  0  0  0  0  0  0  0  0  0
    6.8642    3.3184   -0.0445 C   0  0  0  0  0  0  0  0  0  0  0  0
    6.6741    3.5717   -1.1585 N   0  0  0  0  0  0  0  0  0  0  0  0
    6.2509    3.7377    2.2906 C   0  0  0  0  0  0  0  0  0  0  0  0
    5.5852    4.3343    3.0280 N   0  0  0  0  0  0  0  0  0  0  0  0
    4.2610   -0.3649    0.9177 C   0  0  0  0  0  0  0  0  0  0  0  0
    3.0396   -0.5087    1.5978 C   0  0  0  0  0  0  0  0  0  0  0  0
    1.9711   -1.2543    1.0555 C   0  0  0  0  0  0  0  0  0  0  0  0
    0.7548   -1.1960    1.8065 N   0  0  0  0  0  0  0  0  0  0  0  0
    1.2081   -0.2756    3.0209 S   0  0  0  0  0  4  0  0  0  0  0  0
    2.7322    0.1526    2.8327 N   0  0  0  0  0  0  0  0  0  0  0  0
    2.0922   -1.9050   -0.1788 C   0  0  0  0  0  0  0  0  0  0  0  0
    3.3336   -1.8257   -0.8435 C   0  0  0  0  0  0  0  0  0  0  0  0
    3.5595   -2.4232   -2.0429 N   0  0  0  0  0  0  0  0  0  0  0  0
    5.0770   -1.8632   -2.3810 S   0  0  0  0  0  0  0  0  0  0  0  0
    5.5066   -0.9061   -1.1052 N   0  0  0  0  0  0  0  0  0  0  0  0
    4.4066   -1.0287   -0.3160 C   0  0  0  0  0  0  0  0  0  0  0  0
    0.8692   -2.4309   -0.8421 C   0  0  0  0  0  0  0  0  0  0  0  0
   -0.0207   -3.2378   -0.1140 C   0  0  0  0  0  0  0  0  0  0  0  0
   -1.3787   -3.3028   -0.4425 C   0  0  0  0  0  0  0  0  0  0  0  0
   -1.8863   -2.5920   -1.5338 C   0  0  0  0  0  0  0  0  0  0  0  0
   -0.9752   -1.9300   -2.3736 C   0  0  0  0  0  0  0  0  0  0  0  0
   -1.3805   -1.2422   -3.4769 N   0  0  0  0  0  0  0  0  0  0  0  0
    0.0523   -0.5562   -3.9426 S   0  0  0  0  0  0  0  0  0  0  0  0
    1.1723   -1.0521   -2.8342 N   0  0  0  0  0  0  0  0  0  0  0  0
    0.3967   -1.8292   -2.0259 C   0  0  0  0  0  0  0  0  0  0  0  0
   -3.2696   -2.0958   -1.4690 C   0  0  0  0  0  0  0  0  0  0  0  0
   -3.4796   -0.8002   -0.9731 C   0  0  0  0  0  0  0  0  0  0  0  0
   -4.7631   -0.2403   -0.8955 C   0  0  0  0  0  0  0  0  0  0  0  0
   -4.7964    1.1220   -0.4365 N   0  0  0  0  0  0  0  0  0  0  0  0
   -3.2410    1.3938   -0.2028 S   0  0  0  0  0  4  0  0  0  0  0  0
   -2.4212    0.0760   -0.5532 N   0  0  0  0  0  0  0  0  0  0  0  0
   -5.8974   -0.9783   -1.2685 C   0  0  0  0  0  0  0  0  0  0  0  0
   -5.7094   -2.2792   -1.7816 C   0  0  0  0  0  0  0  0  0  0  0  0
   -6.7379   -3.0545   -2.2207 N   0  0  0  0  0  0  0  0  0  0  0  0
   -5.8907   -4.4126   -2.6447 S   0  0  0  0  0  0  0  0  0  0  0  0
   -4.2928   -4.1110   -2.3401 N   0  0  0  0  0  0  0  0  0  0  0  0
   -4.3924   -2.8455   -1.8648 C   0  0  0  0  0  0  0  0  0  0  0  0
   -7.2203   -0.3388   -1.2354 C   0  0  0  0  0  0  0  0  0  0  0  0
   -7.7154    0.2492   -0.1250 C   0  0  0  0  0  0  0  0  0  0  0  0
   -7.0984    0.1732    1.2176 C   0  0  0  0  0  0  0  0  0  0  0  0
   -6.3293   -0.7265    1.6412 O   0  0  0  0  0  0  0  0  0  0  0  0
   -7.4974    1.3491    1.9654 C   0  0  0  0  0  0  0  0  0  0  0  0
   -7.1729    1.6782    3.2780 C   0  0  0  0  0  0  0  0  0  0  0  0
   -7.7300    2.8287    3.8417 C   0  0  0  0  0  0  0  0  0  0  0  0
   -7.2897    3.2955    5.4756 Cl  0  0  0  0  0  0  0  0  0  0  0  0
   -8.6104    3.6260    3.0918 C   0  0  0  0  0  0  0  0  0  0  0  0
   -9.1210    4.7652    3.6352 F   0  0  0  0  0  0  0  0  0  0  0  0
   -8.9629    3.2490    1.7800 C   0  0  0  0  0  0  0  0  0  0  0  0
   -8.3633    2.1166    1.2081 C   0  0  0  0  0  0  0  0  0  0  0  0
   -8.6029    1.4509   -0.1023 C   0  0  0  0  0  0  0  0  0  0  0  0
   -9.4377    1.8702   -1.0831 C   0  0  0  0  0  0  0  0  0  0  0  0
   -9.8708    3.2358   -1.2003 C   0  0  0  0  0  0  0  0  0  0  0  0
  -10.1985    4.3308   -1.3107 N   0  0  0  0  0  0  0  0  0  0  0  0
   -9.9575    0.9480   -2.0627 C   0  0  0  0  0  0  0  0  0  0  0  0
  -10.4061    0.2013   -2.8172 N   0  0  0  0  0  0  0  0  0  0  0  0
    4.7379    1.5890    1.7451 H   0  0  0  0  0  0  0  0  0  0  0  0
    0.3056   -3.6998    0.8030 H   0  0  0  0  0  0  0  0  0  0  0  0
   -2.0598   -3.7954    0.2444 H   0  0  0  0  0  0  0  0  0  0  0  0
   -7.6709   -0.1870   -2.2034 H   0  0  0  0  0  0  0  0  0  0  0  0
   -6.5112    1.0509    3.8557 H   0  0  0  0  0  0  0  0  0  0  0  0
   -9.6883    3.8407    1.2508 H   0  0  0  0  0  0  0  0  0  0  0  0
  1  2  2  3
  2  3  1  0
  3  4  2  0
  3  5  1  0
  5  6  2  0
  6  7  1  0
  6  8  1  0
  8  9  1  0
  8 10  2  0
 10 11  1  0
 10 12  1  0
 12 13  1  0
 12 14  2  0
 14 15  1  0
 15 16  2  3
 16 17  1  0
 17 18  3  0
 16 19  1  0
 19 20  3  0
  1 21  1  0
 21 22  2  0
 22 23  1  0
 23 24  1  0
 24 25  2  0
 25 26  2  0
 23 27  2  0
 27 28  1  0
 28 29  2  0
 29 30  1  0
 30 31  1  0
 31 32  2  0
 27 33  1  0
 33 34  2  0
 34 35  1  0
 35 36  2  0
 36 37  1  0
 37 38  2  0
 38 39  1  0
 39 40  1  0
 40 41  2  0
 36 42  1  0
 42 43  2  0
 43 44  1  0
 44 45  1  0
 45 46  2  0
 46 47  2  0
 44 48  2  0
 48 49  1  0
 49 50  2  0
 50 51  1  0
 51 52  1  0
 52 53  2  0
 48 54  1  0
 54 55  2  3
 55 56  1  0
 56 57  2  0
 56 58  1  0
 58 59  2  0
 59 60  1  0
 60 61  1  0
 60 62  2  0
 62 63  1  0
 62 64  1  0
 64 65  2  0
 65 66  1  0
 66 67  2  3
 67 68  1  0
 68 69  3  0
 67 70  1  0
 70 71  3  0
 15  2  1  0
 32 21  1  0
 41 33  1  0
 53 42  1  0
 66 55  1  0
 14  5  1  0
 26 22  1  0
 32 28  1  0
 41 37  1  0
 47 43  1  0
 53 49  1  0
 65 58  1  0
  1 72  1  0
 34 73  1  0
 35 74  1  0
 54 75  1  0
 59 76  1  0
 64 77  1  0
M  END

