
     RDKit          3D

108119  0  0  0  0  0  0  0  0999 V2000
    4.0950    5.9676    7.7096 C   0  0  0  0  0  0  0  0  0  0  0  0
    5.4034    5.8765    8.0180 C   0  0  0  0  0  0  0  0  0  0  0  0
    6.4320    5.1918    7.2312 C   0  0  0  0  0  0  0  0  0  0  0  0
    6.2274    4.4545    6.2234 O   0  0  0  0  0  0  0  0  0  0  0  0
    7.7314    5.6133    7.7337 C   0  0  0  0  0  0  0  0  0  0  0  0
    9.0050    5.3221    7.2394 C   0  0  0  0  0  0  0  0  0  0  0  0
    9.2001    4.1283    5.9556 Cl  0  0  0  0  0  0  0  0  0  0  0  0
   10.1138    6.0145    7.7688 C   0  0  0  0  0  0  0  0  0  0  0  0
   11.7309    5.6773    7.1470 Cl  0  0  0  0  0  0  0  0  0  0  0  0
    9.9065    7.0601    8.7110 C   0  0  0  0  0  0  0  0  0  0  0  0
   11.2835    8.0054    9.2627 Cl  0  0  0  0  0  0  0  0  0  0  0  0
    8.6074    7.3236    9.2030 C   0  0  0  0  0  0  0  0  0  0  0  0
    8.3281    8.7845   10.1800 Cl  0  0  0  0  0  0  0  0  0  0  0  0
    7.5430    6.5409    8.7552 C   0  0  0  0  0  0  0  0  0  0  0  0
    6.1063    6.5991    9.1134 C   0  0  0  0  0  0  0  0  0  0  0  0
    5.6130    6.7075   10.3808 C   0  0  0  0  0  0  0  0  0  0  0  0
    4.2301    6.4785   10.6855 C   0  0  0  0  0  0  0  0  0  0  0  0
    3.1268    6.2786   10.9284 N   0  0  0  0  0  0  0  0  0  0  0  0
    6.4891    6.7116   11.5286 C   0  0  0  0  0  0  0  0  0  0  0  0
    7.1932    6.6870   12.4519 N   0  0  0  0  0  0  0  0  0  0  0  0
    3.3994    5.0203    6.8218 C   0  0  0  0  0  0  0  0  0  0  0  0
    2.5290    5.4993    5.8154 C   0  0  0  0  0  0  0  0  0  0  0  0
    1.8352    4.5593    5.0486 C   0  0  0  0  0  0  0  0  0  0  0  0
    0.9540    4.7439    3.8910 C   0  0  0  0  0  0  0  0  0  0  0  0
    0.6044    5.8392    3.3773 O   0  0  0  0  0  0  0  0  0  0  0  0
    0.5724    3.3999    3.4489 C   0  0  0  0  0  0  0  0  0  0  0  0
    1.1818    2.4785    4.2840 C   0  0  0  0  0  0  0  0  0  0  0  0
    1.9833    3.2002    5.2681 C   0  0  0  0  0  0  0  0  0  0  0  0
    2.8312    2.7114    6.2530 C   0  0  0  0  0  0  0  0  0  0  0  0
    3.5409    3.6257    7.0337 C   0  0  0  0  0  0  0  0  0  0  0  0
    1.0618    1.1066    4.0758 C   0  0  0  0  0  0  0  0  0  0  0  0
    0.3422    0.6777    2.9555 C   0  0  0  0  0  0  0  0  0  0  0  0
   -0.2348    1.6049    2.0600 C   0  0  0  0  0  0  0  0  0  0  0  0
   -0.1413    2.9888    2.3200 C   0  0  0  0  0  0  0  0  0  0  0  0
   -0.8076    1.0881    0.8067 C   0  0  0  0  0  0  0  0  0  0  0  0
    0.0767    0.6343   -0.1742 C   0  0  0  0  0  0  0  0  0  0  0  0
    1.4163    0.8236   -0.0303 F   0  0  0  0  0  0  0  0  0  0  0  0
   -0.3904   -0.1350   -1.2298 C   0  0  0  0  0  0  0  0  0  0  0  0
    0.4840   -0.5568   -2.1958 F   0  0  0  0  0  0  0  0  0  0  0  0
   -1.7532   -0.4744   -1.3226 C   0  0  0  0  0  0  0  0  0  0  0  0
   -2.6657    0.0559   -0.3958 C   0  0  0  0  0  0  0  0  0  0  0  0
   -3.9924   -0.2220   -0.4779 N   0  0  0  0  0  0  0  0  0  0  0  0
   -4.8716    0.1995    0.4686 C   0  0  0  0  0  0  0  0  0  0  0  0
   -6.3341   -0.0897    0.2681 C   0  0  0  0  0  0  0  0  0  0  0  0
   -7.0590    1.0853   -0.4090 C   0  0  0  0  0  0  0  0  0  0  0  0
   -4.3848    0.9646    1.5670 C   0  0  0  0  0  0  0  0  0  0  0  0
   -3.0621    1.2451    1.6354 N   0  0  0  0  0  0  0  0  0  0  0  0
   -2.1882    0.8289    0.6858 C   0  0  0  0  0  0  0  0  0  0  0  0
   -5.2623    1.4533    2.6935 C   0  0  0  0  0  0  0  0  0  0  0  0
   -5.5775    0.3375    3.7024 C   0  0  0  0  0  0  0  0  0  0  0  0
   -2.1612   -1.4564   -2.3352 C   0  0  0  0  0  0  0  0  0  0  0  0
   -2.5918   -1.0385   -3.6166 C   0  0  0  0  0  0  0  0  0  0  0  0
   -2.6142   -1.9923   -4.6357 C   0  0  0  0  0  0  0  0  0  0  0  0
   -2.7601   -1.7950   -6.0724 C   0  0  0  0  0  0  0  0  0  0  0  0
   -3.0762   -0.7247   -6.6573 O   0  0  0  0  0  0  0  0  0  0  0  0
   -2.4036   -3.0599   -6.7117 C   0  0  0  0  0  0  0  0  0  0  0  0
   -2.0832   -3.9654   -5.7151 C   0  0  0  0  0  0  0  0  0  0  0  0
   -2.2258   -3.3015   -4.4192 C   0  0  0  0  0  0  0  0  0  0  0  0
   -1.8733   -3.7398   -3.1453 C   0  0  0  0  0  0  0  0  0  0  0  0
   -1.8514   -2.8101   -2.0984 C   0  0  0  0  0  0  0  0  0  0  0  0
   -1.4627   -5.1741   -6.0150 C   0  0  0  0  0  0  0  0  0  0  0  0
   -1.1975   -5.4621   -7.3653 C   0  0  0  0  0  0  0  0  0  0  0  0
   -1.5833   -4.5704   -8.4003 C   0  0  0  0  0  0  0  0  0  0  0  0
   -2.1561   -3.3244   -8.0568 C   0  0  0  0  0  0  0  0  0  0  0  0
   -1.2161   -4.7936   -9.8186 C   0  0  0  0  0  0  0  0  0  0  0  0
   -1.0102   -5.9833  -10.4103 C   0  0  0  0  0  0  0  0  0  0  0  0
   -0.1478   -6.1302  -11.5847 C   0  0  0  0  0  0  0  0  0  0  0  0
    0.2239   -5.1998  -12.3584 O   0  0  0  0  0  0  0  0  0  0  0  0
    0.2959   -7.5116  -11.6346 C   0  0  0  0  0  0  0  0  0  0  0  0
    1.2727   -8.0705  -12.4532 C   0  0  0  0  0  0  0  0  0  0  0  0
    1.6665   -9.3991  -12.2161 C   0  0  0  0  0  0  0  0  0  0  0  0
    2.8939  -10.1456  -13.2390 Cl  0  0  0  0  0  0  0  0  0  0  0  0
    1.0851  -10.1306  -11.1585 C   0  0  0  0  0  0  0  0  0  0  0  0
    1.4989  -11.4002  -10.9007 F   0  0  0  0  0  0  0  0  0  0  0  0
    0.1197   -9.5344  -10.3321 C   0  0  0  0  0  0  0  0  0  0  0  0
   -0.2957   -8.2219  -10.6039 C   0  0  0  0  0  0  0  0  0  0  0  0
   -1.2701   -7.3610   -9.8998 C   0  0  0  0  0  0  0  0  0  0  0  0
   -2.4060   -7.7943   -9.2927 C   0  0  0  0  0  0  0  0  0  0  0  0
   -2.6606   -9.1889   -9.0429 C   0  0  0  0  0  0  0  0  0  0  0  0
   -2.8629  -10.3060   -8.8327 N   0  0  0  0  0  0  0  0  0  0  0  0
   -3.5078   -6.9044   -9.0139 C   0  0  0  0  0  0  0  0  0  0  0  0
   -4.3888   -6.1988   -8.7655 N   0  0  0  0  0  0  0  0  0  0  0  0
    3.4994    6.7552    8.1501 H   0  0  0  0  0  0  0  0  0  0  0  0
    2.4138    6.5639    5.6374 H   0  0  0  0  0  0  0  0  0  0  0  0
    2.9497    1.6525    6.4039 H   0  0  0  0  0  0  0  0  0  0  0  0
    4.1788    3.2628    7.8311 H   0  0  0  0  0  0  0  0  0  0  0  0
    1.5534    0.3932    4.7251 H   0  0  0  0  0  0  0  0  0  0  0  0
    0.2618   -0.3796    2.7619 H   0  0  0  0  0  0  0  0  0  0  0  0
   -0.5559    3.7167    1.6381 H   0  0  0  0  0  0  0  0  0  0  0  0
   -6.8161   -0.3191    1.2318 H   0  0  0  0  0  0  0  0  0  0  0  0
   -6.4530   -0.9806   -0.3855 H   0  0  0  0  0  0  0  0  0  0  0  0
   -8.1336    1.0755   -0.1205 H   0  0  0  0  0  0  0  0  0  0  0  0
   -6.6276    2.0529   -0.0849 H   0  0  0  0  0  0  0  0  0  0  0  0
   -6.9505    1.0277   -1.5322 H   0  0  0  0  0  0  0  0  0  0  0  0
   -6.2054    1.9036    2.3070 H   0  0  0  0  0  0  0  0  0  0  0  0
   -4.7402    2.2740    3.2279 H   0  0  0  0  0  0  0  0  0  0  0  0
   -4.8973   -0.5368    3.5776 H   0  0  0  0  0  0  0  0  0  0  0  0
   -5.4627    0.7348    4.7407 H   0  0  0  0  0  0  0  0  0  0  0  0
   -6.6360    0.0199    3.5715 H   0  0  0  0  0  0  0  0  0  0  0  0
   -2.7652    0.0111   -3.8383 H   0  0  0  0  0  0  0  0  0  0  0  0
   -1.5590   -4.7589   -2.9709 H   0  0  0  0  0  0  0  0  0  0  0  0
   -1.5192   -3.1233   -1.1207 H   0  0  0  0  0  0  0  0  0  0  0  0
   -1.1432   -5.8477   -5.2198 H   0  0  0  0  0  0  0  0  0  0  0  0
   -0.6501   -6.3558   -7.5833 H   0  0  0  0  0  0  0  0  0  0  0  0
   -2.4018   -2.5844   -8.8135 H   0  0  0  0  0  0  0  0  0  0  0  0
   -0.9748   -3.9063  -10.3712 H   0  0  0  0  0  0  0  0  0  0  0  0
    1.7358   -7.4825  -13.2310 H   0  0  0  0  0  0  0  0  0  0  0  0
   -0.2401  -10.0674   -9.4756 H   0  0  0  0  0  0  0  0  0  0  0  0
  1  2  2  3
  2  3  1  0
  3  4  2  0
  3  5  1  0
  5  6  2  0
  6  7  1  0
  6  8  1  0
  8  9  1  0
  8 10  2  0
 10 11  1  0
 10 12  1  0
 12 13  1  0
 12 14  2  0
 14 15  1  0
 15 16  2  3
 16 17  1  0
 17 18  3  0
 16 19  1  0
 19 20  3  0
  1 21  1  0
 21 22  2  0
 22 23  1  0
 23 24  1  0
 24 25  2  0
 24 26  1  0
 26 27  2  0
 27 28  1  0
 28 29  1  0
 29 30  2  0
 27 31  1  0
 31 32  2  0
 32 33  1  0
 33 34  2  0
 33 35  1  0
 35 36  2  0
 36 37  1  0
 36 38  1  0
 38 39  1  0
 38 40  2  0
 40 41  1  0
 41 42  2  0
 42 43  1  0
 43 44  1  0
 44 45  1  0
 43 46  2  0
 46 47  1  0
 47 48  2  0
 46 49  1  0
 49 50  1  0
 40 51  1  0
 51 52  2  0
 52 53  1  0
 53 54  1  0
 54 55  2  0
 54 56  1  0
 56 57  2  0
 57 58  1  0
 58 59  1  0
 59 60  2  0
 57 61  1  0
 61 62  2  0
 62 63  1  0
 63 64  2  0
 63 65  1  0
 65 66  2  3
 66 67  1  0
 67 68  2  0
 67 69  1  0
 69 70  2  0
 70 71  1  0
 71 72  1  0
 71 73  2  0
 73 74  1  0
 73 75  1  0
 75 76  2  0
 76 77  1  0
 77 78  2  3
 78 79  1  0
 79 80  3  0
 78 81  1  0
 81 82  3  0
 15  2  1  0
 30 21  1  0
 48 35  1  0
 60 51  1  0
 77 66  1  0
 14  5  1  0
 28 23  2  0
 48 41  1  0
 58 53  2  0
 76 69  1  0
 34 26  1  0
 64 56  1  0
  1 83  1  0
 22 84  1  0
 29 85  1  0
 30 86  1  0
 31 87  1  0
 32 88  1  0
 34 89  1  0
 44 90  1  0
 44 91  1  0
 45 92  1  0
 45 93  1  0
 45 94  1  0
 49 95  1  0
 49 96  1  0
 50 97  1  0
 50 98  1  0
 50 99  1  0
 52100  1  0
 59101  1  0
 60102  1  0
 61103  1  0
 62104  1  0
 64105  1  0
 65106  1  0
 70107  1  0
 75108  1  0
M  END

