
     RDKit          3D

166181  0  0  0  0  0  0  0  0999 V2000
   -8.0912   -1.4200   -0.1315 C   0  0  0  0  0  0  0  0  0  0  0  0
   -8.0323   -2.3005   -1.1428 C   0  0  0  0  0  0  0  0  0  0  0  0
   -7.6930   -2.0591   -2.5569 C   0  0  0  0  0  0  0  0  0  0  0  0
   -7.6700   -0.9173   -3.0754 O   0  0  0  0  0  0  0  0  0  0  0  0
   -7.2086   -3.2989   -3.1787 C   0  0  0  0  0  0  0  0  0  0  0  0
   -6.9026   -3.4917   -4.5534 C   0  0  0  0  0  0  0  0  0  0  0  0
   -6.8708   -2.1107   -5.6915 Cl  0  0  0  0  0  0  0  0  0  0  0  0
   -6.6124   -4.7972   -4.9991 C   0  0  0  0  0  0  0  0  0  0  0  0
   -6.1510   -5.0700   -6.6470 Cl  0  0  0  0  0  0  0  0  0  0  0  0
   -6.7609   -5.8947   -4.1189 C   0  0  0  0  0  0  0  0  0  0  0  0
   -6.4781   -7.5352   -4.7383 Cl  0  0  0  0  0  0  0  0  0  0  0  0
   -7.1301   -5.6814   -2.7481 C   0  0  0  0  0  0  0  0  0  0  0  0
   -7.5219   -7.1338   -1.7968 Cl  0  0  0  0  0  0  0  0  0  0  0  0
   -7.2377   -4.3440   -2.2564 C   0  0  0  0  0  0  0  0  0  0  0  0
   -7.7803   -3.8019   -0.9782 C   0  0  0  0  0  0  0  0  0  0  0  0
   -7.8775   -4.4476    0.1950 C   0  0  0  0  0  0  0  0  0  0  0  0
   -6.8839   -5.4491    0.5833 C   0  0  0  0  0  0  0  0  0  0  0  0
   -6.1478   -6.2688    0.8574 N   0  0  0  0  0  0  0  0  0  0  0  0
   -9.1894   -4.5187    0.7884 C   0  0  0  0  0  0  0  0  0  0  0  0
  -10.2313   -4.5718    1.2996 N   0  0  0  0  0  0  0  0  0  0  0  0
   -7.5224   -0.0685   -0.1511 C   0  0  0  0  0  0  0  0  0  0  0  0
   -6.3197    0.4276    0.9261 S   0  0  0  0  0  0  0  0  0  0  0  0
   -6.1748    2.0024    0.3408 C   0  0  0  0  0  0  0  0  0  0  0  0
   -5.1280    3.0285    0.4756 C   0  0  0  0  0  0  0  0  0  0  0  0
   -5.1129    3.9686   -0.5017 C   0  0  0  0  0  0  0  0  0  0  0  0
   -6.6639    3.8150   -1.6854 Ge  0  0  0  0  0  4  0  0  0  0  0  0
   -6.2550    3.6441   -3.5869 C   0  0  0  0  0  0  0  0  0  0  0  0
   -6.4920    2.1948   -4.0522 C   0  0  0  0  0  0  0  0  0  0  0  0
   -7.9812    5.1636   -1.2082 C   0  0  0  0  0  0  0  0  0  0  0  0
   -8.9960    5.3709   -2.3235 C   0  0  0  0  0  0  0  0  0  0  0  0
   -7.0208    2.1554   -0.7035 C   0  0  0  0  0  0  0  0  0  0  0  0
   -7.7938    1.0120   -0.9980 C   0  0  0  0  0  0  0  0  0  0  0  0
   -3.9268    4.6965   -0.5748 C   0  0  0  0  0  0  0  0  0  0  0  0
   -3.0237    4.3083    0.4265 C   0  0  0  0  0  0  0  0  0  0  0  0
   -3.6934    3.0308    1.3354 S   0  0  0  0  0  0  0  0  0  0  0  0
   -1.5755    4.6245    0.4887 C   0  0  0  0  0  0  0  0  0  0  0  0
   -0.6943    4.3876   -0.5746 C   0  0  0  0  0  0  0  0  0  0  0  0
   -1.1464    3.8913   -1.8669 N   0  0  0  0  0  0  0  0  0  0  0  0
   -0.9678    4.7137   -3.0403 C   0  0  0  0  0  0  0  0  0  0  0  0
   -1.0295    6.1190   -2.9679 C   0  0  0  0  0  0  0  0  0  0  0  0
   -0.7968    6.9037   -4.1100 C   0  0  0  0  0  0  0  0  0  0  0  0
   -0.4706    6.2967   -5.3345 C   0  0  0  0  0  0  0  0  0  0  0  0
   -0.0215    7.2622   -6.7765 S   0  0  0  0  0  0  0  0  0  0  0  0
    1.7605    6.8909   -6.6070 C   0  0  0  0  0  0  0  0  0  0  0  0
   -0.4446    4.8889   -5.4261 C   0  0  0  0  0  0  0  0  0  0  0  0
   -0.6549    4.1109   -4.2790 C   0  0  0  0  0  0  0  0  0  0  0  0
   -1.5599    2.5067   -1.9744 C   0  0  0  0  0  0  0  0  0  0  0  0
   -2.6442    2.1467   -2.8004 C   0  0  0  0  0  0  0  0  0  0  0  0
   -3.0012    0.8034   -2.9719 C   0  0  0  0  0  0  0  0  0  0  0  0
   -2.3067   -0.1938   -2.2754 C   0  0  0  0  0  0  0  0  0  0  0  0
   -2.6348   -1.9158   -2.6057 S   0  0  0  0  0  0  0  0  0  0  0  0
   -4.0630   -2.0895   -1.5024 C   0  0  0  0  0  0  0  0  0  0  0  0
   -1.2723    0.1509   -1.3930 C   0  0  0  0  0  0  0  0  0  0  0  0
   -0.9148    1.4843   -1.2330 C   0  0  0  0  0  0  0  0  0  0  0  0
    0.6403    4.2630   -0.1555 C   0  0  0  0  0  0  0  0  0  0  0  0
    1.9199    3.4823   -0.8786 S   0  0  0  0  0  0  0  0  0  0  0  0
    2.8095    3.1520    0.5613 C   0  0  0  0  0  0  0  0  0  0  0  0
    2.0564    3.7313    1.6246 C   0  0  0  0  0  0  0  0  0  0  0  0
    2.3327    3.5697    3.0388 N   0  0  0  0  0  0  0  0  0  0  0  0
    2.5925    4.7558    3.8444 C   0  0  0  0  0  0  0  0  0  0  0  0
    3.7200    5.5620    3.6127 C   0  0  0  0  0  0  0  0  0  0  0  0
    4.0216    6.6249    4.4713 C   0  0  0  0  0  0  0  0  0  0  0  0
    3.1837    6.9255    5.5518 C   0  0  0  0  0  0  0  0  0  0  0  0
    3.6462    8.2329    6.7041 S   0  0  0  0  0  0  0  0  0  0  0  0
    4.1382    7.0734    8.0429 C   0  0  0  0  0  0  0  0  0  0  0  0
    2.0218    6.1642    5.7700 C   0  0  0  0  0  0  0  0  0  0  0  0
    1.7246    5.0939    4.9167 C   0  0  0  0  0  0  0  0  0  0  0  0
    2.0212    2.3083    3.6860 C   0  0  0  0  0  0  0  0  0  0  0  0
    0.9570    1.4802    3.2412 C   0  0  0  0  0  0  0  0  0  0  0  0
    0.6651    0.2801    3.8801 C   0  0  0  0  0  0  0  0  0  0  0  0
    1.4076   -0.1230    5.0061 C   0  0  0  0  0  0  0  0  0  0  0  0
    0.9576   -1.6726    5.8153 S   0  0  0  0  0  0  0  0  0  0  0  0
    2.5195   -2.4768    5.4676 C   0  0  0  0  0  0  0  0  0  0  0  0
    2.4279    0.7293    5.4986 C   0  0  0  0  0  0  0  0  0  0  0  0
    2.7041    1.9354    4.8528 C   0  0  0  0  0  0  0  0  0  0  0  0
    0.8533    4.3149    1.1737 C   0  0  0  0  0  0  0  0  0  0  0  0
   -0.6207    4.5993    1.9093 S   0  0  0  0  0  0  0  0  0  0  0  0
    3.9808    2.1775    0.5971 C   0  0  0  0  0  0  0  0  0  0  0  0
    4.5958    1.5580   -0.8595 S   0  0  0  0  0  0  0  0  0  0  0  0
    5.5567    0.3991   -0.1576 C   0  0  0  0  0  0  0  0  0  0  0  0
    6.2371   -0.7843   -0.6790 C   0  0  0  0  0  0  0  0  0  0  0  0
    6.7014   -1.6495    0.2642 C   0  0  0  0  0  0  0  0  0  0  0  0
    6.4473   -0.9789    2.0415 Ge  0  0  0  0  0  4  0  0  0  0  0  0
    8.1708   -0.4205    2.7505 C   0  0  0  0  0  0  0  0  0  0  0  0
    9.0852   -0.0436    1.6243 C   0  0  0  0  0  0  0  0  0  0  0  0
    5.5254   -2.2740    3.1528 C   0  0  0  0  0  0  0  0  0  0  0  0
    6.0963   -2.3080    4.5428 C   0  0  0  0  0  0  0  0  0  0  0  0
    5.4567    0.4714    1.2040 C   0  0  0  0  0  0  0  0  0  0  0  0
    4.5768    1.4594    1.6678 C   0  0  0  0  0  0  0  0  0  0  0  0
    7.2740   -2.8071   -0.2378 C   0  0  0  0  0  0  0  0  0  0  0  0
    7.2506   -2.8139   -1.6232 C   0  0  0  0  0  0  0  0  0  0  0  0
    6.5232   -1.3824   -2.2150 S   0  0  0  0  0  0  0  0  0  0  0  0
    7.7030   -3.9339   -2.4619 C   0  0  0  0  0  0  0  0  0  0  0  0
    6.9333   -5.0222   -2.6908 C   0  0  0  0  0  0  0  0  0  0  0  0
    5.6717   -5.3248   -2.0228 C   0  0  0  0  0  0  0  0  0  0  0  0
    5.0162   -4.5396   -1.2989 O   0  0  0  0  0  0  0  0  0  0  0  0
    5.2558   -6.6705   -2.3721 C   0  0  0  0  0  0  0  0  0  0  0  0
    4.0945   -7.3329   -1.9359 C   0  0  0  0  0  0  0  0  0  0  0  0
    2.9482   -6.5132   -0.8616 Cl  0  0  0  0  0  0  0  0  0  0  0  0
    3.8672   -8.6532   -2.3897 C   0  0  0  0  0  0  0  0  0  0  0  0
    2.4071   -9.5187   -1.8602 Cl  0  0  0  0  0  0  0  0  0  0  0  0
    4.8329   -9.3062   -3.1948 C   0  0  0  0  0  0  0  0  0  0  0  0
    4.5652  -10.9836   -3.6507 Cl  0  0  0  0  0  0  0  0  0  0  0  0
    6.0308   -8.6446   -3.5735 C   0  0  0  0  0  0  0  0  0  0  0  0
    7.3250   -9.6652   -4.2057 Cl  0  0  0  0  0  0  0  0  0  0  0  0
    6.1966   -7.2521   -3.2453 C   0  0  0  0  0  0  0  0  0  0  0  0
    7.2251   -6.1957   -3.6111 C   0  0  0  0  0  0  0  0  0  0  0  0
    7.9662   -6.1303   -4.7641 C   0  0  0  0  0  0  0  0  0  0  0  0
    8.1083   -7.2124   -5.7322 C   0  0  0  0  0  0  0  0  0  0  0  0
    8.2651   -8.0141   -6.5591 N   0  0  0  0  0  0  0  0  0  0  0  0
    8.4866   -4.8577   -5.2439 C   0  0  0  0  0  0  0  0  0  0  0  0
    8.9098   -3.8549   -5.6874 N   0  0  0  0  0  0  0  0  0  0  0  0
   -8.1232   -1.8527    0.8611 H   0  0  0  0  0  0  0  0  0  0  0  0
   -5.1855    3.9147   -3.7304 H   0  0  0  0  0  0  0  0  0  0  0  0
   -6.8921    4.3159   -4.2022 H   0  0  0  0  0  0  0  0  0  0  0  0
   -6.1070    2.0748   -5.0938 H   0  0  0  0  0  0  0  0  0  0  0  0
   -5.9438    1.5033   -3.4063 H   0  0  0  0  0  0  0  0  0  0  0  0
   -7.5790    1.9531   -4.0250 H   0  0  0  0  0  0  0  0  0  0  0  0
   -8.4769    4.8836   -0.2657 H   0  0  0  0  0  0  0  0  0  0  0  0
   -7.4461    6.1232   -1.0332 H   0  0  0  0  0  0  0  0  0  0  0  0
   -8.5021    5.7208   -3.2575 H   0  0  0  0  0  0  0  0  0  0  0  0
   -9.5607    4.4242   -2.5126 H   0  0  0  0  0  0  0  0  0  0  0  0
   -9.7358    6.1682   -2.0353 H   0  0  0  0  0  0  0  0  0  0  0  0
   -8.5112    0.9923   -1.8005 H   0  0  0  0  0  0  0  0  0  0  0  0
   -3.7024    5.3853   -1.3731 H   0  0  0  0  0  0  0  0  0  0  0  0
   -1.2258    6.5925   -2.0338 H   0  0  0  0  0  0  0  0  0  0  0  0
   -0.8392    7.9839   -4.0432 H   0  0  0  0  0  0  0  0  0  0  0  0
    1.9323    5.8206   -6.3809 H   0  0  0  0  0  0  0  0  0  0  0  0
    2.2264    7.5227   -5.8298 H   0  0  0  0  0  0  0  0  0  0  0  0
    2.2751    7.0705   -7.5748 H   0  0  0  0  0  0  0  0  0  0  0  0
   -0.1943    4.3786   -6.3644 H   0  0  0  0  0  0  0  0  0  0  0  0
   -0.5610    3.0263   -4.3780 H   0  0  0  0  0  0  0  0  0  0  0  0
   -3.1851    2.9241   -3.3542 H   0  0  0  0  0  0  0  0  0  0  0  0
   -3.7995    0.5381   -3.6743 H   0  0  0  0  0  0  0  0  0  0  0  0
   -5.0043   -2.0169   -2.1062 H   0  0  0  0  0  0  0  0  0  0  0  0
   -4.0202   -3.0897   -1.0338 H   0  0  0  0  0  0  0  0  0  0  0  0
   -4.0645   -1.3248   -0.6925 H   0  0  0  0  0  0  0  0  0  0  0  0
   -0.6993   -0.6067   -0.8760 H   0  0  0  0  0  0  0  0  0  0  0  0
   -0.0883    1.6836   -0.5674 H   0  0  0  0  0  0  0  0  0  0  0  0
    4.4397    5.2807    2.8582 H   0  0  0  0  0  0  0  0  0  0  0  0
    4.9361    7.1961    4.3244 H   0  0  0  0  0  0  0  0  0  0  0  0
    4.4849    6.0989    7.6489 H   0  0  0  0  0  0  0  0  0  0  0  0
    3.2778    6.9262    8.7250 H   0  0  0  0  0  0  0  0  0  0  0  0
    4.9717    7.5070    8.6073 H   0  0  0  0  0  0  0  0  0  0  0  0
    1.3888    6.3620    6.6296 H   0  0  0  0  0  0  0  0  0  0  0  0
    0.8669    4.4682    5.1683 H   0  0  0  0  0  0  0  0  0  0  0  0
    0.3584    1.7803    2.4028 H   0  0  0  0  0  0  0  0  0  0  0  0
   -0.1764   -0.2949    3.5009 H   0  0  0  0  0  0  0  0  0  0  0  0
    3.2834   -2.0818    6.1584 H   0  0  0  0  0  0  0  0  0  0  0  0
    2.3997   -3.5565    5.6243 H   0  0  0  0  0  0  0  0  0  0  0  0
    2.7895   -2.3510    4.3909 H   0  0  0  0  0  0  0  0  0  0  0  0
    3.0099    0.4476    6.3867 H   0  0  0  0  0  0  0  0  0  0  0  0
    3.5006    2.5389    5.2591 H   0  0  0  0  0  0  0  0  0  0  0  0
    8.6142   -1.2359    3.3510 H   0  0  0  0  0  0  0  0  0  0  0  0
    7.9707    0.4577    3.4308 H   0  0  0  0  0  0  0  0  0  0  0  0
    9.3000   -0.9278    0.9774 H   0  0  0  0  0  0  0  0  0  0  0  0
   10.0507    0.3304    2.0331 H   0  0  0  0  0  0  0  0  0  0  0  0
    8.6425    0.7630    1.0104 H   0  0  0  0  0  0  0  0  0  0  0  0
    5.6079   -3.2993    2.7014 H   0  0  0  0  0  0  0  0  0  0  0  0
    4.4497   -1.9391    3.1419 H   0  0  0  0  0  0  0  0  0  0  0  0
    5.3968   -2.8082    5.2590 H   0  0  0  0  0  0  0  0  0  0  0  0
    6.2664   -1.2839    4.9397 H   0  0  0  0  0  0  0  0  0  0  0  0
    7.0871   -2.8424    4.5787 H   0  0  0  0  0  0  0  0  0  0  0  0
    4.3515    1.5624    2.7197 H   0  0  0  0  0  0  0  0  0  0  0  0
    7.6528   -3.6110    0.3530 H   0  0  0  0  0  0  0  0  0  0  0  0
    8.6879   -3.8361   -2.9150 H   0  0  0  0  0  0  0  0  0  0  0  0
  1  2  2  3
  2  3  1  0
  3  4  2  0
  3  5  1  0
  5  6  2  0
  6  7  1  0
  6  8  1  0
  8  9  1  0
  8 10  2  0
 10 11  1  0
 10 12  1  0
 12 13  1  0
 12 14  2  0
 14 15  1  0
 15 16  2  3
 16 17  1  0
 17 18  3  0
 16 19  1  0
 19 20  3  0
  1 21  1  0
 21 22  1  0
 22 23  1  0
 23 24  1  0
 24 25  2  0
 25 26  1  0
 26 27  1  0
 27 28  1  0
 26 29  1  0
 29 30  1  0
 26 31  1  0
 31 32  1  0
 25 33  1  0
 33 34  2  0
 34 35  1  0
 34 36  1  0
 36 37  2  0
 37 38  1  0
 38 39  1  0
 39 40  2  0
 40 41  1  0
 41 42  2  0
 42 43  1  0
 43 44  1  0
 42 45  1  0
 45 46  2  0
 38 47  1  0
 47 48  2  0
 48 49  1  0
 49 50  2  0
 50 51  1  0
 51 52  1  0
 50 53  1  0
 53 54  2  0
 37 55  1  0
 55 56  1  0
 56 57  1  0
 57 58  2  0
 58 59  1  0
 59 60  1  0
 60 61  2  0
 61 62  1  0
 62 63  2  0
 63 64  1  0
 64 65  1  0
 63 66  1  0
 66 67  2  0
 59 68  1  0
 68 69  2  0
 69 70  1  0
 70 71  2  0
 71 72  1  0
 72 73  1  0
 71 74  1  0
 74 75  2  0
 58 76  1  0
 76 77  1  0
 57 78  1  0
 78 79  1  0
 79 80  1  0
 80 81  1  0
 81 82  2  0
 82 83  1  0
 83 84  1  0
 84 85  1  0
 83 86  1  0
 86 87  1  0
 83 88  1  0
 88 89  1  0
 82 90  1  0
 90 91  2  0
 91 92  1  0
 91 93  1  0
 93 94  2  3
 94 95  1  0
 95 96  2  0
 95 97  1  0
 97 98  2  0
 98 99  1  0
 98100  1  0
100101  1  0
100102  2  0
102103  1  0
102104  1  0
104105  1  0
104106  2  0
106107  1  0
107108  2  3
108109  1  0
109110  3  0
108111  1  0
111112  3  0
 15  2  1  0
 32 21  2  0
 77 36  1  0
 89 78  2  0
107 94  1  0
 14  5  1  0
 31 23  2  0
 46 39  1  0
 54 47  1  0
 76 55  2  0
 88 80  2  0
106 97  1  0
 35 24  1  0
 67 60  1  0
 75 68  1  0
 92 81  1  0
  1113  1  0
 27114  1  0
 27115  1  0
 28116  1  0
 28117  1  0
 28118  1  0
 29119  1  0
 29120  1  0
 30121  1  0
 30122  1  0
 30123  1  0
 32124  1  0
 33125  1  0
 40126  1  0
 41127  1  0
 44128  1  0
 44129  1  0
 44130  1  0
 45131  1  0
 46132  1  0
 48133  1  0
 49134  1  0
 52135  1  0
 52136  1  0
 52137  1  0
 53138  1  0
 54139  1  0
 61140  1  0
 62141  1  0
 65142  1  0
 65143  1  0
 65144  1  0
 66145  1  0
 67146  1  0
 69147  1  0
 70148  1  0
 73149  1  0
 73150  1  0
 73151  1  0
 74152  1  0
 75153  1  0
 84154  1  0
 84155  1  0
 85156  1  0
 85157  1  0
 85158  1  0
 86159  1  0
 86160  1  0
 87161  1  0
 87162  1  0
 87163  1  0
 89164  1  0
 90165  1  0
 93166  1  0
M  END

