
     RDKit          3D

151167  0  0  0  0  0  0  0  0999 V2000
   -7.6622    1.6506    1.5225 C   0  0  0  0  0  0  0  0  0  0  0  0
   -7.8234    0.5195    0.8074 C   0  0  0  0  0  0  0  0  0  0  0  0
   -6.7578   -0.2470    0.1490 C   0  0  0  0  0  0  0  0  0  0  0  0
   -5.5963    0.1678   -0.1202 O   0  0  0  0  0  0  0  0  0  0  0  0
   -7.2571   -1.5833   -0.1199 C   0  0  0  0  0  0  0  0  0  0  0  0
   -6.5523   -2.7073   -0.5648 C   0  0  0  0  0  0  0  0  0  0  0  0
   -4.8734   -2.5685   -1.0923 Cl  0  0  0  0  0  0  0  0  0  0  0  0
   -7.2093   -3.9539   -0.5591 C   0  0  0  0  0  0  0  0  0  0  0  0
   -6.3609   -5.3898   -1.1384 Cl  0  0  0  0  0  0  0  0  0  0  0  0
   -8.5181   -4.0649   -0.0336 C   0  0  0  0  0  0  0  0  0  0  0  0
   -9.2846   -5.6500    0.0778 Cl  0  0  0  0  0  0  0  0  0  0  0  0
   -9.1956   -2.9185    0.4394 C   0  0  0  0  0  0  0  0  0  0  0  0
  -10.6635   -3.1110    1.3966 Cl  0  0  0  0  0  0  0  0  0  0  0  0
   -8.5795   -1.6589    0.2908 C   0  0  0  0  0  0  0  0  0  0  0  0
   -9.0546   -0.3035    0.6940 C   0  0  0  0  0  0  0  0  0  0  0  0
  -10.2950    0.1986    0.4719 C   0  0  0  0  0  0  0  0  0  0  0  0
  -10.5827    1.6052    0.6006 C   0  0  0  0  0  0  0  0  0  0  0  0
  -10.8128    2.7350    0.6811 N   0  0  0  0  0  0  0  0  0  0  0  0
  -11.3261   -0.5789   -0.1685 C   0  0  0  0  0  0  0  0  0  0  0  0
  -12.1570   -1.1925   -0.6908 N   0  0  0  0  0  0  0  0  0  0  0  0
   -6.3394    2.2838    1.6500 C   0  0  0  0  0  0  0  0  0  0  0  0
   -5.9381    3.2450    0.7169 C   0  0  0  0  0  0  0  0  0  0  0  0
   -4.5686    3.5515    0.5280 C   0  0  0  0  0  0  0  0  0  0  0  0
   -4.2986    4.4160   -0.5837 N   0  0  0  0  0  0  0  0  0  0  0  0
   -5.7769    4.6578   -1.1323 S   0  0  0  0  0  4  0  0  0  0  0  0
   -6.8210    3.8501   -0.2348 N   0  0  0  0  0  0  0  0  0  0  0  0
   -3.5707    2.9210    1.2851 C   0  0  0  0  0  0  0  0  0  0  0  0
   -3.9742    2.0308    2.2948 C   0  0  0  0  0  0  0  0  0  0  0  0
   -3.0929    1.3325    3.0545 N   0  0  0  0  0  0  0  0  0  0  0  0
   -4.1222    0.3909    3.9373 S   0  0  0  0  0  0  0  0  0  0  0  0
   -5.6429    0.7709    3.4155 N   0  0  0  0  0  0  0  0  0  0  0  0
   -5.3577    1.7187    2.4840 C   0  0  0  0  0  0  0  0  0  0  0  0
   -2.1913    2.8970    0.7845 C   0  0  0  0  0  0  0  0  0  0  0  0
   -1.0527    3.4739    1.3674 C   0  0  0  0  0  0  0  0  0  0  0  0
   -1.0490    4.2262    2.5885 N   0  0  0  0  0  0  0  0  0  0  0  0
   -0.9799    5.6587    2.4930 C   0  0  0  0  0  0  0  0  0  0  0  0
    0.0420    6.3649    3.1474 C   0  0  0  0  0  0  0  0  0  0  0  0
    0.1193    7.7545    3.0360 C   0  0  0  0  0  0  0  0  0  0  0  0
   -0.8280    8.4504    2.2710 C   0  0  0  0  0  0  0  0  0  0  0  0
   -0.7550   10.2388    2.1529 S   0  0  0  0  0  0  0  0  0  0  0  0
   -1.7749   10.4898    3.6416 C   0  0  0  0  0  0  0  0  0  0  0  0
   -1.8456    7.7508    1.6145 C   0  0  0  0  0  0  0  0  0  0  0  0
   -1.9189    6.3606    1.7226 C   0  0  0  0  0  0  0  0  0  0  0  0
   -0.9832    3.5582    3.8692 C   0  0  0  0  0  0  0  0  0  0  0  0
   -0.3295    2.3162    4.0124 C   0  0  0  0  0  0  0  0  0  0  0  0
   -0.2747    1.6827    5.2563 C   0  0  0  0  0  0  0  0  0  0  0  0
   -0.8827    2.2654    6.3698 C   0  0  0  0  0  0  0  0  0  0  0  0
   -0.8062    1.4504    7.9663 S   0  0  0  0  0  0  0  0  0  0  0  0
   -2.2872    0.4368    7.6596 C   0  0  0  0  0  0  0  0  0  0  0  0
   -1.5407    3.4923    6.2408 C   0  0  0  0  0  0  0  0  0  0  0  0
   -1.5936    4.1346    4.9988 C   0  0  0  0  0  0  0  0  0  0  0  0
    0.1051    3.0856    0.6957 C   0  0  0  0  0  0  0  0  0  0  0  0
    1.7439    3.1501    1.0767 S   0  0  0  0  0  0  0  0  0  0  0  0
    2.1886    1.9830   -0.0864 C   0  0  0  0  0  0  0  0  0  0  0  0
    1.0400    1.5442   -0.7664 C   0  0  0  0  0  0  0  0  0  0  0  0
    0.9843    0.3895   -1.6176 N   0  0  0  0  0  0  0  0  0  0  0  0
    0.6929   -0.9302   -1.0869 C   0  0  0  0  0  0  0  0  0  0  0  0
    0.3230   -1.1026    0.2661 C   0  0  0  0  0  0  0  0  0  0  0  0
    0.1494   -2.3814    0.7990 C   0  0  0  0  0  0  0  0  0  0  0  0
    0.3392   -3.5091    0.0002 C   0  0  0  0  0  0  0  0  0  0  0  0
    0.1772   -5.1444    0.7149 S   0  0  0  0  0  0  0  0  0  0  0  0
    1.9505   -5.2749    1.1095 C   0  0  0  0  0  0  0  0  0  0  0  0
    0.6768   -3.3592   -1.3457 C   0  0  0  0  0  0  0  0  0  0  0  0
    0.8542   -2.0828   -1.8886 C   0  0  0  0  0  0  0  0  0  0  0  0
    1.1076    0.6097   -3.0275 C   0  0  0  0  0  0  0  0  0  0  0  0
   -0.0398    0.7755   -3.8138 C   0  0  0  0  0  0  0  0  0  0  0  0
    0.0746    0.9900   -5.1894 C   0  0  0  0  0  0  0  0  0  0  0  0
    1.3420    1.0198   -5.7902 C   0  0  0  0  0  0  0  0  0  0  0  0
    1.4909    1.2960   -7.5540 S   0  0  0  0  0  0  0  0  0  0  0  0
    1.4279   -0.4756   -7.9689 C   0  0  0  0  0  0  0  0  0  0  0  0
    2.4914    0.8570   -5.0037 C   0  0  0  0  0  0  0  0  0  0  0  0
    2.3731    0.6568   -3.6258 C   0  0  0  0  0  0  0  0  0  0  0  0
   -0.0932    2.2011   -0.3160 C   0  0  0  0  0  0  0  0  0  0  0  0
   -1.7213    1.8715   -0.4875 S   0  0  0  0  0  0  0  0  0  0  0  0
    3.4818    1.2939   -0.0925 C   0  0  0  0  0  0  0  0  0  0  0  0
    4.7449    1.8667   -0.1674 C   0  0  0  0  0  0  0  0  0  0  0  0
    5.7779    0.9104   -0.1839 C   0  0  0  0  0  0  0  0  0  0  0  0
    7.5110    1.3665   -0.3161 S   0  0  0  0  0  0  0  0  0  0  0  0
    7.5138    1.4692   -2.1413 C   0  0  0  0  0  0  0  0  0  0  0  0
    7.6310    0.0858   -2.7717 C   0  0  0  0  0  0  0  0  0  0  0  0
    5.3245   -0.4049   -0.1087 C   0  0  0  0  0  0  0  0  0  0  0  0
    3.6577   -0.3631    0.0321 S   0  0  0  0  0  0  0  0  0  0  0  0
    6.1363   -1.6296    0.0295 C   0  0  0  0  0  0  0  0  0  0  0  0
    5.7192   -2.8343   -0.4128 C   0  0  0  0  0  0  0  0  0  0  0  0
    4.7662   -3.0356   -1.5148 C   0  0  0  0  0  0  0  0  0  0  0  0
    4.2568   -2.1359   -2.2355 O   0  0  0  0  0  0  0  0  0  0  0  0
    4.6483   -4.4455   -1.7832 C   0  0  0  0  0  0  0  0  0  0  0  0
    3.8173   -5.0503   -2.7544 C   0  0  0  0  0  0  0  0  0  0  0  0
    3.9120   -6.4261   -2.7884 C   0  0  0  0  0  0  0  0  0  0  0  0
    4.7716   -7.1726   -1.9213 C   0  0  0  0  0  0  0  0  0  0  0  0
    5.5950   -6.5858   -0.9755 C   0  0  0  0  0  0  0  0  0  0  0  0
    5.5205   -5.1617   -0.9203 C   0  0  0  0  0  0  0  0  0  0  0  0
    6.2105   -4.1935   -0.0107 C   0  0  0  0  0  0  0  0  0  0  0  0
    6.9677   -4.4944    1.0795 C   0  0  0  0  0  0  0  0  0  0  0  0
    7.3361   -3.5103    2.0672 C   0  0  0  0  0  0  0  0  0  0  0  0
    7.6225   -2.7298    2.8718 N   0  0  0  0  0  0  0  0  0  0  0  0
    7.3863   -5.8342    1.3992 C   0  0  0  0  0  0  0  0  0  0  0  0
    7.7399   -6.9016    1.6749 N   0  0  0  0  0  0  0  0  0  0  0  0
    4.3015   -8.4588   -2.5325 C   0  0  0  0  0  0  0  0  0  0  0  0
    3.3038   -9.3318   -1.7147 C   0  0  0  0  0  0  0  0  0  0  0  0
    2.4343   -8.4555   -0.8412 C   0  0  0  0  0  0  0  0  0  0  0  0
    1.6433   -7.7670   -1.6639 C   0  0  0  0  0  0  0  0  0  0  0  0
    1.9976   -8.1946   -3.0659 C   0  0  0  0  0  0  0  0  0  0  0  0
    2.2935   -9.6584   -2.7990 C   0  0  0  0  0  0  0  0  0  0  0  0
    3.4279   -7.6935   -3.4279 C   0  0  0  0  0  0  0  0  0  0  0  0
   -8.4828    2.0839    2.0724 H   0  0  0  0  0  0  0  0  0  0  0  0
    0.7841    5.8339    3.7341 H   0  0  0  0  0  0  0  0  0  0  0  0
    0.9081    8.2910    3.5442 H   0  0  0  0  0  0  0  0  0  0  0  0
   -1.9211   11.5780    3.8003 H   0  0  0  0  0  0  0  0  0  0  0  0
   -2.7685   10.0061    3.5126 H   0  0  0  0  0  0  0  0  0  0  0  0
   -1.2593   10.0635    4.5282 H   0  0  0  0  0  0  0  0  0  0  0  0
   -2.5833    8.2809    1.0249 H   0  0  0  0  0  0  0  0  0  0  0  0
   -2.7163    5.8336    1.2155 H   0  0  0  0  0  0  0  0  0  0  0  0
    0.1375    1.8327    3.1668 H   0  0  0  0  0  0  0  0  0  0  0  0
    0.2376    0.7312    5.3476 H   0  0  0  0  0  0  0  0  0  0  0  0
   -3.1554    1.0869    7.4197 H   0  0  0  0  0  0  0  0  0  0  0  0
   -2.0958   -0.2615    6.8198 H   0  0  0  0  0  0  0  0  0  0  0  0
   -2.5154   -0.1504    8.5729 H   0  0  0  0  0  0  0  0  0  0  0  0
   -2.0150    3.9518    7.1022 H   0  0  0  0  0  0  0  0  0  0  0  0
   -2.1227    5.0771    4.9156 H   0  0  0  0  0  0  0  0  0  0  0  0
    0.1963   -0.2577    0.9282 H   0  0  0  0  0  0  0  0  0  0  0  0
   -0.1161   -2.4930    1.8484 H   0  0  0  0  0  0  0  0  0  0  0  0
    2.1271   -6.2093    1.6810 H   0  0  0  0  0  0  0  0  0  0  0  0
    2.2742   -4.4104    1.7263 H   0  0  0  0  0  0  0  0  0  0  0  0
    2.5451   -5.3094    0.1726 H   0  0  0  0  0  0  0  0  0  0  0  0
    0.8229   -4.2323   -1.9715 H   0  0  0  0  0  0  0  0  0  0  0  0
    1.1506   -2.0023   -2.9234 H   0  0  0  0  0  0  0  0  0  0  0  0
   -1.0240    0.7365   -3.3599 H   0  0  0  0  0  0  0  0  0  0  0  0
   -0.8150    1.1261   -5.7909 H   0  0  0  0  0  0  0  0  0  0  0  0
    1.4914   -0.5948   -9.0692 H   0  0  0  0  0  0  0  0  0  0  0  0
    2.2827   -1.0064   -7.4984 H   0  0  0  0  0  0  0  0  0  0  0  0
    0.4719   -0.9147   -7.6128 H   0  0  0  0  0  0  0  0  0  0  0  0
    3.4711    0.8821   -5.4601 H   0  0  0  0  0  0  0  0  0  0  0  0
    3.2641    0.5319   -3.0242 H   0  0  0  0  0  0  0  0  0  0  0  0
    4.9167    2.9335   -0.2327 H   0  0  0  0  0  0  0  0  0  0  0  0
    6.5919    1.9677   -2.5140 H   0  0  0  0  0  0  0  0  0  0  0  0
    8.3845    2.0806   -2.4561 H   0  0  0  0  0  0  0  0  0  0  0  0
    8.5140   -0.4528   -2.3666 H   0  0  0  0  0  0  0  0  0  0  0  0
    6.7153   -0.5085   -2.5806 H   0  0  0  0  0  0  0  0  0  0  0  0
    7.7468    0.1883   -3.8725 H   0  0  0  0  0  0  0  0  0  0  0  0
    7.0532   -1.5315    0.5837 H   0  0  0  0  0  0  0  0  0  0  0  0
    3.1549   -4.4916   -3.4013 H   0  0  0  0  0  0  0  0  0  0  0  0
    6.2253   -7.1980   -0.3594 H   0  0  0  0  0  0  0  0  0  0  0  0
    5.0967   -9.0233   -3.0606 H   0  0  0  0  0  0  0  0  0  0  0  0
    3.7522  -10.2073   -1.1997 H   0  0  0  0  0  0  0  0  0  0  0  0
    2.3872   -8.4444    0.2432 H   0  0  0  0  0  0  0  0  0  0  0  0
    0.8326   -7.1100   -1.3655 H   0  0  0  0  0  0  0  0  0  0  0  0
    1.2160   -7.9974   -3.8292 H   0  0  0  0  0  0  0  0  0  0  0  0
    2.7341  -10.1912   -3.6756 H   0  0  0  0  0  0  0  0  0  0  0  0
    1.4086  -10.2274   -2.4263 H   0  0  0  0  0  0  0  0  0  0  0  0
    3.6993   -7.7866   -4.5022 H   0  0  0  0  0  0  0  0  0  0  0  0
  1  2  2  3
  2  3  1  0
  3  4  2  0
  3  5  1  0
  5  6  2  0
  6  7  1  0
  6  8  1  0
  8  9  1  0
  8 10  2  0
 10 11  1  0
 10 12  1  0
 12 13  1  0
 12 14  2  0
 14 15  1  0
 15 16  2  3
 16 17  1  0
 17 18  3  0
 16 19  1  0
 19 20  3  0
  1 21  1  0
 21 22  2  0
 22 23  1  0
 23 24  1  0
 24 25  2  0
 25 26  2  0
 23 27  2  0
 27 28  1  0
 28 29  2  0
 29 30  1  0
 30 31  1  0
 31 32  2  0
 27 33  1  0
 33 34  2  0
 34 35  1  0
 35 36  1  0
 36 37  2  0
 37 38  1  0
 38 39  2  0
 39 40  1  0
 40 41  1  0
 39 42  1  0
 42 43  2  0
 35 44  1  0
 44 45  2  0
 45 46  1  0
 46 47  2  0
 47 48  1  0
 48 49  1  0
 47 50  1  0
 50 51  2  0
 34 52  1  0
 52 53  1  0
 53 54  1  0
 54 55  2  0
 55 56  1  0
 56 57  1  0
 57 58  2  0
 58 59  1  0
 59 60  2  0
 60 61  1  0
 61 62  1  0
 60 63  1  0
 63 64  2  0
 56 65  1  0
 65 66  2  0
 66 67  1  0
 67 68  2  0
 68 69  1  0
 69 70  1  0
 68 71  1  0
 71 72  2  0
 55 73  1  0
 73 74  1  0
 54 75  1  0
 75 76  2  0
 76 77  1  0
 77 78  1  0
 78 79  1  0
 79 80  1  0
 77 81  2  0
 81 82  1  0
 81 83  1  0
 83 84  2  3
 84 85  1  0
 85 86  2  0
 85 87  1  0
 87 88  2  0
 88 89  1  0
 89 90  2  0
 90 91  1  0
 91 92  2  0
 92 93  1  0
 93 94  2  3
 94 95  1  0
 95 96  3  0
 94 97  1  0
 97 98  3  0
 90 99  1  0
 99100  1  0
100101  1  0
101102  2  0
102103  1  0
103104  1  0
103105  1  0
 15  2  1  0
 32 21  1  0
 74 33  1  0
 82 75  1  0
 93 84  1  0
105 99  1  0
 14  5  1  0
 26 22  1  0
 32 28  1  0
 43 36  1  0
 51 44  1  0
 73 52  2  0
 92 87  1  0
104100  1  0
 64 57  1  0
 72 65  1  0
105 89  1  0
  1106  1  0
 37107  1  0
 38108  1  0
 41109  1  0
 41110  1  0
 41111  1  0
 42112  1  0
 43113  1  0
 45114  1  0
 46115  1  0
 49116  1  0
 49117  1  0
 49118  1  0
 50119  1  0
 51120  1  0
 58121  1  0
 59122  1  0
 62123  1  0
 62124  1  0
 62125  1  0
 63126  1  0
 64127  1  0
 66128  1  0
 67129  1  0
 70130  1  0
 70131  1  0
 70132  1  0
 71133  1  0
 72134  1  0
 76135  1  0
 79136  1  0
 79137  1  0
 80138  1  0
 80139  1  0
 80140  1  0
 83141  1  0
 88142  1  0
 91143  1  0
 99144  1  0
100145  1  0
101146  1  0
102147  1  0
103148  1  0
104149  1  0
104150  1  0
105151  1  0
M  END

