
     RDKit          3D

168185  0  0  0  0  0  0  0  0999 V2000
   -0.2684    8.4941   -1.8179 C   0  0  0  0  0  0  0  0  0  0  0  0
   -0.4740    8.8674   -3.0952 C   0  0  0  0  0  0  0  0  0  0  0  0
    0.1442    8.2667   -4.2868 C   0  0  0  0  0  0  0  0  0  0  0  0
    0.9820    7.3208   -4.2872 O   0  0  0  0  0  0  0  0  0  0  0  0
   -0.1743    9.0949   -5.4354 C   0  0  0  0  0  0  0  0  0  0  0  0
    0.2878    8.9788   -6.7529 C   0  0  0  0  0  0  0  0  0  0  0  0
    1.2211    7.5668   -7.2631 Cl  0  0  0  0  0  0  0  0  0  0  0  0
    0.0070   10.0202   -7.6564 C   0  0  0  0  0  0  0  0  0  0  0  0
    0.5229    9.8872   -9.3372 Cl  0  0  0  0  0  0  0  0  0  0  0  0
   -0.6458   11.1924   -7.2028 C   0  0  0  0  0  0  0  0  0  0  0  0
   -0.8795   12.5457   -8.3092 Cl  0  0  0  0  0  0  0  0  0  0  0  0
   -1.0676   11.3019   -5.8596 C   0  0  0  0  0  0  0  0  0  0  0  0
   -1.5094   12.8821   -5.2177 Cl  0  0  0  0  0  0  0  0  0  0  0  0
   -0.9214   10.1855   -5.0141 C   0  0  0  0  0  0  0  0  0  0  0  0
   -1.2805   10.0256   -3.5769 C   0  0  0  0  0  0  0  0  0  0  0  0
   -2.4282   10.4637   -2.9979 C   0  0  0  0  0  0  0  0  0  0  0  0
   -2.7877   10.1465   -1.6382 C   0  0  0  0  0  0  0  0  0  0  0  0
   -3.0774    9.9070   -0.5466 N   0  0  0  0  0  0  0  0  0  0  0  0
   -3.4762   11.0803   -3.7675 C   0  0  0  0  0  0  0  0  0  0  0  0
   -4.3360   11.5823   -4.3704 N   0  0  0  0  0  0  0  0  0  0  0  0
    0.2005    7.1580   -1.4344 C   0  0  0  0  0  0  0  0  0  0  0  0
   -0.1752    5.9713   -2.0497 C   0  0  0  0  0  0  0  0  0  0  0  0
    0.3607    4.8359   -1.4369 C   0  0  0  0  0  0  0  0  0  0  0  0
    0.1912    3.5166   -1.8759 C   0  0  0  0  0  0  0  0  0  0  0  0
   -0.6780    3.1975   -3.0203 C   0  0  0  0  0  0  0  0  0  0  0  0
   -2.0298    2.8967   -2.9275 C   0  0  0  0  0  0  0  0  0  0  0  0
   -2.6637    2.8389   -4.1723 C   0  0  0  0  0  0  0  0  0  0  0  0
   -1.8074    3.1127   -5.2319 C   0  0  0  0  0  0  0  0  0  0  0  0
   -2.2986    3.2796   -6.9512 S   0  0  0  0  0  0  0  0  0  0  0  0
   -1.8402    1.5783   -7.4284 C   0  0  0  0  0  0  0  0  0  0  0  0
   -0.3548    1.4731   -7.7487 C   0  0  0  0  0  0  0  0  0  0  0  0
   -0.2672    3.4225   -4.6320 S   0  0  0  0  0  0  0  0  0  0  0  0
    0.8355    2.5155   -1.1429 C   0  0  0  0  0  0  0  0  0  0  0  0
    1.5846    2.7774    0.0139 C   0  0  0  0  0  0  0  0  0  0  0  0
    1.7228    4.1086    0.4808 C   0  0  0  0  0  0  0  0  0  0  0  0
    2.4141    4.4354    1.7453 C   0  0  0  0  0  0  0  0  0  0  0  0
    1.8886    5.2373    2.7593 C   0  0  0  0  0  0  0  0  0  0  0  0
    2.7728    5.4362    3.8250 C   0  0  0  0  0  0  0  0  0  0  0  0
    3.9826    4.7805    3.6471 C   0  0  0  0  0  0  0  0  0  0  0  0
    5.3652    4.8370    4.7902 S   0  0  0  0  0  0  0  0  0  0  0  0
    4.8386    3.3832    5.7624 C   0  0  0  0  0  0  0  0  0  0  0  0
    3.7980    3.7620    6.8130 C   0  0  0  0  0  0  0  0  0  0  0  0
    3.9821    3.9875    2.1639 S   0  0  0  0  0  0  0  0  0  0  0  0
    1.1038    5.1187   -0.2901 C   0  0  0  0  0  0  0  0  0  0  0  0
    1.1118    6.7937   -0.0591 S   0  0  0  0  0  0  0  0  0  0  0  0
    2.1034    1.6027    0.6029 C   0  0  0  0  0  0  0  0  0  0  0  0
    1.7928    0.4550   -0.1291 C   0  0  0  0  0  0  0  0  0  0  0  0
    0.8292    0.8712   -1.4451 S   0  0  0  0  0  0  0  0  0  0  0  0
    2.1003   -0.9432    0.2109 C   0  0  0  0  0  0  0  0  0  0  0  0
    2.1135   -1.9699   -0.7462 C   0  0  0  0  0  0  0  0  0  0  0  0
    2.6556   -1.7803   -2.0711 N   0  0  0  0  0  0  0  0  0  0  0  0
    3.7616   -0.8685   -2.2318 C   0  0  0  0  0  0  0  0  0  0  0  0
    3.7100    0.1539   -3.1914 C   0  0  0  0  0  0  0  0  0  0  0  0
    4.7070    1.1362   -3.2351 C   0  0  0  0  0  0  0  0  0  0  0  0
    5.7785    1.0829   -2.3322 C   0  0  0  0  0  0  0  0  0  0  0  0
    7.0340    2.3618   -2.3468 S   0  0  0  0  0  0  0  0  0  0  0  0
    6.2335    3.3408   -1.0345 C   0  0  0  0  0  0  0  0  0  0  0  0
    5.8654    0.0345   -1.4117 C   0  0  0  0  0  0  0  0  0  0  0  0
    4.8609   -0.9335   -1.3632 C   0  0  0  0  0  0  0  0  0  0  0  0
    2.4112   -2.7160   -3.1272 C   0  0  0  0  0  0  0  0  0  0  0  0
    1.4288   -2.4425   -4.0889 C   0  0  0  0  0  0  0  0  0  0  0  0
    1.2738   -3.2854   -5.1956 C   0  0  0  0  0  0  0  0  0  0  0  0
    2.1065   -4.3997   -5.3497 C   0  0  0  0  0  0  0  0  0  0  0  0
    1.9325   -5.4594   -6.7817 S   0  0  0  0  0  0  0  0  0  0  0  0
    3.1673   -4.5494   -7.7675 C   0  0  0  0  0  0  0  0  0  0  0  0
    3.0861   -4.6789   -4.3888 C   0  0  0  0  0  0  0  0  0  0  0  0
    3.2403   -3.8329   -3.2828 C   0  0  0  0  0  0  0  0  0  0  0  0
    1.8653   -3.2119   -0.1575 C   0  0  0  0  0  0  0  0  0  0  0  0
    0.9146   -4.4854   -0.7033 S   0  0  0  0  0  0  0  0  0  0  0  0
    0.4546   -5.0586    0.8449 C   0  0  0  0  0  0  0  0  0  0  0  0
    1.0888   -4.2327    1.7938 C   0  0  0  0  0  0  0  0  0  0  0  0
    1.2974   -4.5982    3.1674 N   0  0  0  0  0  0  0  0  0  0  0  0
    2.5806   -5.1799    3.4956 C   0  0  0  0  0  0  0  0  0  0  0  0
    3.3184   -4.7264    4.6066 C   0  0  0  0  0  0  0  0  0  0  0  0
    4.5612   -5.2966    4.9058 C   0  0  0  0  0  0  0  0  0  0  0  0
    5.0855   -6.3133    4.0928 C   0  0  0  0  0  0  0  0  0  0  0  0
    6.6724   -7.0532    4.4837 S   0  0  0  0  0  0  0  0  0  0  0  0
    7.5848   -6.0405    3.2735 C   0  0  0  0  0  0  0  0  0  0  0  0
    4.3644   -6.7619    2.9846 C   0  0  0  0  0  0  0  0  0  0  0  0
    3.1312   -6.1883    2.6759 C   0  0  0  0  0  0  0  0  0  0  0  0
    0.2706   -4.3890    4.1669 C   0  0  0  0  0  0  0  0  0  0  0  0
    0.2566   -5.1430    5.3600 C   0  0  0  0  0  0  0  0  0  0  0  0
   -0.7372   -4.9501    6.3198 C   0  0  0  0  0  0  0  0  0  0  0  0
   -1.7498   -4.0093    6.1007 C   0  0  0  0  0  0  0  0  0  0  0  0
   -3.0279   -3.7487    7.3307 S   0  0  0  0  0  0  0  0  0  0  0  0
   -4.0348   -5.1551    6.7651 C   0  0  0  0  0  0  0  0  0  0  0  0
   -1.7603   -3.2645    4.9181 C   0  0  0  0  0  0  0  0  0  0  0  0
   -0.7588   -3.4516    3.9586 C   0  0  0  0  0  0  0  0  0  0  0  0
    1.7969   -3.1911    1.2097 C   0  0  0  0  0  0  0  0  0  0  0  0
    1.9213   -1.6059    1.7576 S   0  0  0  0  0  0  0  0  0  0  0  0
   -0.8232   -5.7741    1.1316 C   0  0  0  0  0  0  0  0  0  0  0  0
   -0.9329   -6.6833    2.1988 C   0  0  0  0  0  0  0  0  0  0  0  0
   -2.1894   -7.0383    2.7438 C   0  0  0  0  0  0  0  0  0  0  0  0
   -2.1360   -7.9235    3.8709 N   0  0  0  0  0  0  0  0  0  0  0  0
   -0.5642   -8.1492    3.9819 S   0  0  0  0  0  4  0  0  0  0  0  0
    0.1772   -7.3007    2.8511 N   0  0  0  0  0  0  0  0  0  0  0  0
   -3.3795   -6.5187    2.2212 C   0  0  0  0  0  0  0  0  0  0  0  0
   -3.2973   -5.7835    1.0259 C   0  0  0  0  0  0  0  0  0  0  0  0
   -4.3954   -5.3601    0.3440 N   0  0  0  0  0  0  0  0  0  0  0  0
   -3.6901   -4.4912   -0.8638 S   0  0  0  0  0  0  0  0  0  0  0  0
   -2.0630   -4.5964   -0.6061 N   0  0  0  0  0  0  0  0  0  0  0  0
   -2.0271   -5.3861    0.4999 C   0  0  0  0  0  0  0  0  0  0  0  0
   -4.6603   -6.7684    2.9164 C   0  0  0  0  0  0  0  0  0  0  0  0
   -5.5226   -5.7950    3.2942 C   0  0  0  0  0  0  0  0  0  0  0  0
   -5.3118   -4.3404    3.2126 C   0  0  0  0  0  0  0  0  0  0  0  0
   -4.3245   -3.7594    2.6921 O   0  0  0  0  0  0  0  0  0  0  0  0
   -6.3244   -3.6747    4.0156 C   0  0  0  0  0  0  0  0  0  0  0  0
   -6.4422   -2.3134    4.3231 C   0  0  0  0  0  0  0  0  0  0  0  0
   -5.4580   -1.1138    3.4901 Cl  0  0  0  0  0  0  0  0  0  0  0  0
   -7.3589   -1.9301    5.3215 C   0  0  0  0  0  0  0  0  0  0  0  0
   -7.5414   -0.2168    5.7315 Cl  0  0  0  0  0  0  0  0  0  0  0  0
   -8.0462   -2.9136    6.0656 C   0  0  0  0  0  0  0  0  0  0  0  0
   -9.0366   -2.4282    7.4469 Cl  0  0  0  0  0  0  0  0  0  0  0  0
   -7.8801   -4.2824    5.7648 C   0  0  0  0  0  0  0  0  0  0  0  0
   -8.3800   -5.4936    6.9402 Cl  0  0  0  0  0  0  0  0  0  0  0  0
   -7.1044   -4.6321    4.6381 C   0  0  0  0  0  0  0  0  0  0  0  0
   -6.7712   -5.9725    4.0868 C   0  0  0  0  0  0  0  0  0  0  0  0
   -7.6507   -7.0110    3.9689 C   0  0  0  0  0  0  0  0  0  0  0  0
   -7.2945   -8.2909    3.4247 C   0  0  0  0  0  0  0  0  0  0  0  0
   -7.0431   -9.3629    3.0471 N   0  0  0  0  0  0  0  0  0  0  0  0
   -9.0374   -6.8895    4.3298 C   0  0  0  0  0  0  0  0  0  0  0  0
  -10.1564   -6.8029    4.6113 N   0  0  0  0  0  0  0  0  0  0  0  0
   -0.5112    9.1713   -1.0126 H   0  0  0  0  0  0  0  0  0  0  0  0
   -0.8266    5.9385   -2.9139 H   0  0  0  0  0  0  0  0  0  0  0  0
   -2.5667    2.8204   -1.9940 H   0  0  0  0  0  0  0  0  0  0  0  0
   -3.7243    2.6814   -4.2801 H   0  0  0  0  0  0  0  0  0  0  0  0
   -2.1230    0.8525   -6.6294 H   0  0  0  0  0  0  0  0  0  0  0  0
   -2.4130    1.3193   -8.3443 H   0  0  0  0  0  0  0  0  0  0  0  0
    0.2499    1.6388   -6.8336 H   0  0  0  0  0  0  0  0  0  0  0  0
   -0.1291    0.4618   -8.1419 H   0  0  0  0  0  0  0  0  0  0  0  0
   -0.0745    2.2230   -8.5148 H   0  0  0  0  0  0  0  0  0  0  0  0
    0.8912    5.6397    2.7421 H   0  0  0  0  0  0  0  0  0  0  0  0
    2.5266    6.0145    4.7046 H   0  0  0  0  0  0  0  0  0  0  0  0
    5.7341    2.9721    6.2760 H   0  0  0  0  0  0  0  0  0  0  0  0
    4.4329    2.5933    5.0953 H   0  0  0  0  0  0  0  0  0  0  0  0
    4.1842    4.5787    7.4603 H   0  0  0  0  0  0  0  0  0  0  0  0
    2.8557    4.0905    6.3266 H   0  0  0  0  0  0  0  0  0  0  0  0
    3.5717    2.8770    7.4494 H   0  0  0  0  0  0  0  0  0  0  0  0
    2.6815    1.5828    1.5150 H   0  0  0  0  0  0  0  0  0  0  0  0
    2.8680    0.2239   -3.8685 H   0  0  0  0  0  0  0  0  0  0  0  0
    4.6416    1.9377   -3.9577 H   0  0  0  0  0  0  0  0  0  0  0  0
    5.2238    3.6667   -1.3625 H   0  0  0  0  0  0  0  0  0  0  0  0
    6.1494    2.7408   -0.1028 H   0  0  0  0  0  0  0  0  0  0  0  0
    6.8531    4.2376   -0.8249 H   0  0  0  0  0  0  0  0  0  0  0  0
    6.6954   -0.0175   -0.7102 H   0  0  0  0  0  0  0  0  0  0  0  0
    4.9237   -1.7183   -0.6204 H   0  0  0  0  0  0  0  0  0  0  0  0
    0.8086   -1.5608   -3.9954 H   0  0  0  0  0  0  0  0  0  0  0  0
    0.5146   -3.0647   -5.9350 H   0  0  0  0  0  0  0  0  0  0  0  0
    2.8333   -3.5056   -7.9358 H   0  0  0  0  0  0  0  0  0  0  0  0
    3.2864   -5.0467   -8.7554 H   0  0  0  0  0  0  0  0  0  0  0  0
    4.1470   -4.5495   -7.2512 H   0  0  0  0  0  0  0  0  0  0  0  0
    3.7356   -5.5367   -4.5020 H   0  0  0  0  0  0  0  0  0  0  0  0
    4.0209   -4.0332   -2.5628 H   0  0  0  0  0  0  0  0  0  0  0  0
    2.9273   -3.9345    5.2340 H   0  0  0  0  0  0  0  0  0  0  0  0
    5.1164   -4.9521    5.7718 H   0  0  0  0  0  0  0  0  0  0  0  0
    8.6410   -6.3815    3.2414 H   0  0  0  0  0  0  0  0  0  0  0  0
    7.1444   -6.1537    2.2616 H   0  0  0  0  0  0  0  0  0  0  0  0
    7.5541   -4.9764    3.5767 H   0  0  0  0  0  0  0  0  0  0  0  0
    4.7573   -7.5466    2.3519 H   0  0  0  0  0  0  0  0  0  0  0  0
    2.5995   -6.5423    1.8029 H   0  0  0  0  0  0  0  0  0  0  0  0
    1.0057   -5.8963    5.5476 H   0  0  0  0  0  0  0  0  0  0  0  0
   -0.7248   -5.5408    7.2243 H   0  0  0  0  0  0  0  0  0  0  0  0
   -5.0429   -5.0935    7.2205 H   0  0  0  0  0  0  0  0  0  0  0  0
   -4.1324   -5.1513    5.6587 H   0  0  0  0  0  0  0  0  0  0  0  0
   -3.5569   -6.1065    7.0759 H   0  0  0  0  0  0  0  0  0  0  0  0
   -2.5329   -2.5252    4.7466 H   0  0  0  0  0  0  0  0  0  0  0  0
   -0.7786   -2.8515    3.0576 H   0  0  0  0  0  0  0  0  0  0  0  0
   -4.8206   -7.7768    3.2563 H   0  0  0  0  0  0  0  0  0  0  0  0
  1  2  2  3
  2  3  1  0
  3  4  2  0
  3  5  1  0
  5  6  2  0
  6  7  1  0
  6  8  1  0
  8  9  1  0
  8 10  2  0
 10 11  1  0
 10 12  1  0
 12 13  1  0
 12 14  2  0
 14 15  1  0
 15 16  2  3
 16 17  1  0
 17 18  3  0
 16 19  1  0
 19 20  3  0
  1 21  1  0
 21 22  2  0
 22 23  1  0
 23 24  2  0
 24 25  1  0
 25 26  2  0
 26 27  1  0
 27 28  2  0
 28 29  1  0
 29 30  1  0
 30 31  1  0
 28 32  1  0
 24 33  1  0
 33 34  2  0
 34 35  1  0
 35 36  1  0
 36 37  2  0
 37 38  1  0
 38 39  2  0
 39 40  1  0
 40 41  1  0
 41 42  1  0
 39 43  1  0
 35 44  2  0
 44 45  1  0
 34 46  1  0
 46 47  2  0
 47 48  1  0
 47 49  1  0
 49 50  2  0
 50 51  1  0
 51 52  1  0
 52 53  2  0
 53 54  1  0
 54 55  2  0
 55 56  1  0
 56 57  1  0
 55 58  1  0
 58 59  2  0
 51 60  1  0
 60 61  2  0
 61 62  1  0
 62 63  2  0
 63 64  1  0
 64 65  1  0
 63 66  1  0
 66 67  2  0
 50 68  1  0
 68 69  1  0
 69 70  1  0
 70 71  2  0
 71 72  1  0
 72 73  1  0
 73 74  2  0
 74 75  1  0
 75 76  2  0
 76 77  1  0
 77 78  1  0
 76 79  1  0
 79 80  2  0
 72 81  1  0
 81 82  2  0
 82 83  1  0
 83 84  2  0
 84 85  1  0
 85 86  1  0
 84 87  1  0
 87 88  2  0
 71 89  1  0
 89 90  1  0
 70 91  1  0
 91 92  2  0
 92 93  1  0
 93 94  1  0
 94 95  2  0
 95 96  2  0
 93 97  2  0
 97 98  1  0
 98 99  2  0
 99100  1  0
100101  1  0
101102  2  0
 97103  1  0
103104  2  3
104105  1  0
105106  2  0
105107  1  0
107108  2  0
108109  1  0
108110  1  0
110111  1  0
110112  2  0
112113  1  0
112114  1  0
114115  1  0
114116  2  0
116117  1  0
117118  2  3
118119  1  0
119120  3  0
118121  1  0
121122  3  0
 15  2  1  0
 45 21  1  0
 90 49  1  0
102 91  1  0
117104  1  0
 14  5  1  0
 44 23  1  0
 59 52  1  0
 67 60  1  0
 89 68  2  0
 96 92  1  0
102 98  1  0
116107  1  0
 32 25  1  0
 48 33  1  0
 80 73  1  0
 88 81  1  0
 43 36  1  0
  1123  1  0
 22124  1  0
 26125  1  0
 27126  1  0
 30127  1  0
 30128  1  0
 31129  1  0
 31130  1  0
 31131  1  0
 37132  1  0
 38133  1  0
 41134  1  0
 41135  1  0
 42136  1  0
 42137  1  0
 42138  1  0
 46139  1  0
 53140  1  0
 54141  1  0
 57142  1  0
 57143  1  0
 57144  1  0
 58145  1  0
 59146  1  0
 61147  1  0
 62148  1  0
 65149  1  0
 65150  1  0
 65151  1  0
 66152  1  0
 67153  1  0
 74154  1  0
 75155  1  0
 78156  1  0
 78157  1  0
 78158  1  0
 79159  1  0
 80160  1  0
 82161  1  0
 83162  1  0
 86163  1  0
 86164  1  0
 86165  1  0
 87166  1  0
 88167  1  0
103168  1  0
M  END

