
     RDKit          3D

 84 94  0  0  0  0  0  0  0  0999 V2000
   -5.4542    5.1699    3.2579 C   0  0  0  0  0  0  0  0  0  0  0  0
   -5.3495    4.6664    4.5000 C   0  0  0  0  0  0  0  0  0  0  0  0
   -4.8562    3.3309    4.8488 C   0  0  0  0  0  0  0  0  0  0  0  0
   -4.7665    2.3453    4.0647 O   0  0  0  0  0  0  0  0  0  0  0  0
   -4.4366    3.3485    6.2457 C   0  0  0  0  0  0  0  0  0  0  0  0
   -3.7488    2.3665    6.9723 C   0  0  0  0  0  0  0  0  0  0  0  0
   -3.4872    0.7608    6.2930 Cl  0  0  0  0  0  0  0  0  0  0  0  0
   -3.2389    2.7030    8.2433 C   0  0  0  0  0  0  0  0  0  0  0  0
   -2.3752    1.4863    9.1860 Cl  0  0  0  0  0  0  0  0  0  0  0  0
   -3.3678    4.0261    8.7329 C   0  0  0  0  0  0  0  0  0  0  0  0
   -2.6131    4.4737   10.2627 Cl  0  0  0  0  0  0  0  0  0  0  0  0
   -4.0470    5.0040    7.9709 C   0  0  0  0  0  0  0  0  0  0  0  0
   -3.8810    6.7035    8.4046 Cl  0  0  0  0  0  0  0  0  0  0  0  0
   -4.6805    4.6085    6.7723 C   0  0  0  0  0  0  0  0  0  0  0  0
   -5.4330    5.4214    5.7777 C   0  0  0  0  0  0  0  0  0  0  0  0
   -6.3842    6.3422    6.0722 C   0  0  0  0  0  0  0  0  0  0  0  0
   -7.2039    6.9478    5.0562 C   0  0  0  0  0  0  0  0  0  0  0  0
   -7.8660    7.4581    4.2543 N   0  0  0  0  0  0  0  0  0  0  0  0
   -6.7802    6.6342    7.4297 C   0  0  0  0  0  0  0  0  0  0  0  0
   -7.1037    6.8793    8.5164 N   0  0  0  0  0  0  0  0  0  0  0  0
   -5.0863    4.3778    2.0714 C   0  0  0  0  0  0  0  0  0  0  0  0
   -5.9900    3.4719    1.4988 C   0  0  0  0  0  0  0  0  0  0  0  0
   -5.5842    2.5792    0.4791 C   0  0  0  0  0  0  0  0  0  0  0  0
   -6.6037    1.6800    0.0345 N   0  0  0  0  0  0  0  0  0  0  0  0
   -7.8133    2.1175    0.9748 S   0  0  0  0  0  4  0  0  0  0  0  0
   -7.3459    3.3113    1.9236 N   0  0  0  0  0  0  0  0  0  0  0  0
   -4.2691    2.5819   -0.0055 C   0  0  0  0  0  0  0  0  0  0  0  0
   -3.3682    3.5159    0.5364 C   0  0  0  0  0  0  0  0  0  0  0  0
   -2.0649    3.5751    0.1668 N   0  0  0  0  0  0  0  0  0  0  0  0
   -1.5180    4.7672    1.1679 S   0  0  0  0  0  0  0  0  0  0  0  0
   -2.8150    5.2305    2.0762 N   0  0  0  0  0  0  0  0  0  0  0  0
   -3.7753    4.4105    1.5731 C   0  0  0  0  0  0  0  0  0  0  0  0
   -3.7849    1.5345   -0.9271 C   0  0  0  0  0  0  0  0  0  0  0  0
   -3.2706    1.8868   -2.1843 C   0  0  0  0  0  0  0  0  0  0  0  0
   -2.5863    0.9434   -2.9555 C   0  0  0  0  0  0  0  0  0  0  0  0
   -2.3804   -0.3617   -2.4716 C   0  0  0  0  0  0  0  0  0  0  0  0
   -2.9592   -0.7281   -1.2363 C   0  0  0  0  0  0  0  0  0  0  0  0
   -2.7432   -1.9551   -0.7048 F   0  0  0  0  0  0  0  0  0  0  0  0
   -3.6687    0.2084   -0.4778 C   0  0  0  0  0  0  0  0  0  0  0  0
   -4.1487   -0.1473    0.7441 F   0  0  0  0  0  0  0  0  0  0  0  0
   -1.4109   -1.2594   -3.1499 C   0  0  0  0  0  0  0  0  0  0  0  0
   -0.1608   -0.7379   -3.5528 C   0  0  0  0  0  0  0  0  0  0  0  0
    0.8112   -1.6244   -4.0102 C   0  0  0  0  0  0  0  0  0  0  0  0
    2.2249   -1.3748   -4.2505 C   0  0  0  0  0  0  0  0  0  0  0  0
    2.8088   -0.2581   -4.2293 O   0  0  0  0  0  0  0  0  0  0  0  0
    2.8556   -2.6784   -4.3734 C   0  0  0  0  0  0  0  0  0  0  0  0
    1.8760   -3.6502   -4.2591 C   0  0  0  0  0  0  0  0  0  0  0  0
    0.5886   -2.9880   -4.0468 C   0  0  0  0  0  0  0  0  0  0  0  0
   -0.6481   -3.5306   -3.7006 C   0  0  0  0  0  0  0  0  0  0  0  0
   -1.6611   -2.6545   -3.2725 C   0  0  0  0  0  0  0  0  0  0  0  0
    2.2164   -4.9962   -4.1156 C   0  0  0  0  0  0  0  0  0  0  0  0
    3.5783   -5.3457   -4.0576 C   0  0  0  0  0  0  0  0  0  0  0  0
    4.5762   -4.3432   -4.0940 C   0  0  0  0  0  0  0  0  0  0  0  0
    4.2099   -2.9975   -4.3116 C   0  0  0  0  0  0  0  0  0  0  0  0
    5.9910   -4.6978   -3.8522 C   0  0  0  0  0  0  0  0  0  0  0  0
    6.7363   -4.1583   -2.8599 C   0  0  0  0  0  0  0  0  0  0  0  0
    6.2912   -3.1368   -1.8920 C   0  0  0  0  0  0  0  0  0  0  0  0
    5.1003   -2.8685   -1.5799 O   0  0  0  0  0  0  0  0  0  0  0  0
    7.4582   -2.5147   -1.3142 C   0  0  0  0  0  0  0  0  0  0  0  0
    7.5176   -1.4016   -0.4846 C   0  0  0  0  0  0  0  0  0  0  0  0
    8.7817   -0.9097   -0.1159 C   0  0  0  0  0  0  0  0  0  0  0  0
    8.9183    0.6251    1.0085 Br  0  0  0  0  0  0  0  0  0  0  0  0
    9.9482   -1.5288   -0.5994 C   0  0  0  0  0  0  0  0  0  0  0  0
    9.8637   -2.6459   -1.4386 C   0  0  0  0  0  0  0  0  0  0  0  0
    8.5954   -3.1531   -1.7813 C   0  0  0  0  0  0  0  0  0  0  0  0
    8.2125   -4.2977   -2.6585 C   0  0  0  0  0  0  0  0  0  0  0  0
    8.9817   -5.3817   -2.9470 C   0  0  0  0  0  0  0  0  0  0  0  0
    8.4228   -6.5797   -3.5208 C   0  0  0  0  0  0  0  0  0  0  0  0
    7.9808   -7.5540   -3.9712 N   0  0  0  0  0  0  0  0  0  0  0  0
   10.3645   -5.4839   -2.5537 C   0  0  0  0  0  0  0  0  0  0  0  0
   11.4768   -5.5751   -2.2406 N   0  0  0  0  0  0  0  0  0  0  0  0
   -5.6421    6.2276    3.1109 H   0  0  0  0  0  0  0  0  0  0  0  0
   -3.3350    2.9132   -2.5333 H   0  0  0  0  0  0  0  0  0  0  0  0
   -2.1483    1.2589   -3.8947 H   0  0  0  0  0  0  0  0  0  0  0  0
    0.0827    0.3101   -3.4258 H   0  0  0  0  0  0  0  0  0  0  0  0
   -0.8074   -4.5938   -3.7004 H   0  0  0  0  0  0  0  0  0  0  0  0
   -2.6212   -3.0613   -2.9740 H   0  0  0  0  0  0  0  0  0  0  0  0
    1.4595   -5.7598   -3.9995 H   0  0  0  0  0  0  0  0  0  0  0  0
    3.8565   -6.3898   -3.9203 H   0  0  0  0  0  0  0  0  0  0  0  0
    4.9562   -2.2110   -4.3293 H   0  0  0  0  0  0  0  0  0  0  0  0
    6.4333   -5.3898   -4.5580 H   0  0  0  0  0  0  0  0  0  0  0  0
    6.6106   -0.9157   -0.1384 H   0  0  0  0  0  0  0  0  0  0  0  0
   10.9223   -1.1361   -0.3368 H   0  0  0  0  0  0  0  0  0  0  0  0
   10.7799   -3.0617   -1.8270 H   0  0  0  0  0  0  0  0  0  0  0  0
  1  2  2  3
  2  3  1  0
  3  4  2  0
  3  5  1  0
  5  6  2  0
  6  7  1  0
  6  8  1  0
  8  9  1  0
  8 10  2  0
 10 11  1  0
 10 12  1  0
 12 13  1  0
 12 14  2  0
 14 15  1  0
 15 16  2  3
 16 17  1  0
 17 18  3  0
 16 19  1  0
 19 20  3  0
  1 21  1  0
 21 22  2  0
 22 23  1  0
 23 24  1  0
 24 25  2  0
 25 26  2  0
 23 27  2  0
 27 28  1  0
 28 29  2  0
 29 30  1  0
 30 31  1  0
 31 32  2  0
 27 33  1  0
 33 34  2  0
 34 35  1  0
 35 36  2  0
 36 37  1  0
 37 38  1  0
 37 39  2  0
 39 40  1  0
 36 41  1  0
 41 42  2  0
 42 43  1  0
 43 44  1  0
 44 45  2  0
 44 46  1  0
 46 47  2  0
 47 48  1  0
 48 49  1  0
 49 50  2  0
 47 51  1  0
 51 52  2  0
 52 53  1  0
 53 54  2  0
 53 55  1  0
 55 56  2  3
 56 57  1  0
 57 58  2  0
 57 59  1  0
 59 60  2  0
 60 61  1  0
 61 62  1  0
 61 63  2  0
 63 64  1  0
 64 65  2  0
 65 66  1  0
 66 67  2  3
 67 68  1  0
 68 69  3  0
 67 70  1  0
 70 71  3  0
 15  2  1  0
 32 21  1  0
 39 33  1  0
 50 41  1  0
 66 56  1  0
 14  5  1  0
 26 22  1  0
 32 28  1  0
 48 43  2  0
 65 59  1  0
 54 46  1  0
  1 72  1  0
 34 73  1  0
 35 74  1  0
 42 75  1  0
 49 76  1  0
 50 77  1  0
 51 78  1  0
 52 79  1  0
 54 80  1  0
 55 81  1  0
 60 82  1  0
 63 83  1  0
 64 84  1  0
M  END

