
     RDKit          3D

195211  0  0  0  0  0  0  0  0999 V2000
    5.1433   -6.3472    7.1855 C   0  0  0  0  0  0  0  0  0  0  0  0
    4.8841   -5.8187    8.4049 C   0  0  0  0  0  0  0  0  0  0  0  0
    4.2071   -4.5531    8.7325 C   0  0  0  0  0  0  0  0  0  0  0  0
    3.2575   -4.0220    8.1037 O   0  0  0  0  0  0  0  0  0  0  0  0
    4.6899   -4.0965   10.0252 C   0  0  0  0  0  0  0  0  0  0  0  0
    4.5106   -2.8483   10.6402 C   0  0  0  0  0  0  0  0  0  0  0  0
    3.4273   -1.6507    9.9429 Cl  0  0  0  0  0  0  0  0  0  0  0  0
    5.2413   -2.5662   11.8116 C   0  0  0  0  0  0  0  0  0  0  0  0
    5.0359   -1.0059   12.6162 Cl  0  0  0  0  0  0  0  0  0  0  0  0
    6.1907   -3.4952   12.2968 C   0  0  0  0  0  0  0  0  0  0  0  0
    7.1855   -3.0866   13.6940 Cl  0  0  0  0  0  0  0  0  0  0  0  0
    6.3708   -4.7359   11.6408 C   0  0  0  0  0  0  0  0  0  0  0  0
    7.7607   -5.7409   12.0515 Cl  0  0  0  0  0  0  0  0  0  0  0  0
    5.5374   -5.0550   10.5514 C   0  0  0  0  0  0  0  0  0  0  0  0
    5.5226   -6.2571    9.6775 C   0  0  0  0  0  0  0  0  0  0  0  0
    5.5509   -7.5437   10.1093 C   0  0  0  0  0  0  0  0  0  0  0  0
    5.2450   -8.6439    9.2326 C   0  0  0  0  0  0  0  0  0  0  0  0
    5.0023   -9.5414    8.5377 N   0  0  0  0  0  0  0  0  0  0  0  0
    5.6302   -7.8722   11.5136 C   0  0  0  0  0  0  0  0  0  0  0  0
    5.6806   -8.1479   12.6367 N   0  0  0  0  0  0  0  0  0  0  0  0
    4.7288   -5.7547    5.8997 C   0  0  0  0  0  0  0  0  0  0  0  0
    5.0474   -6.2499    4.6340 C   0  0  0  0  0  0  0  0  0  0  0  0
    4.4956   -5.3386    3.7466 C   0  0  0  0  0  0  0  0  0  0  0  0
    4.4141   -5.3196    2.3304 C   0  0  0  0  0  0  0  0  0  0  0  0
    4.9037   -6.4415    1.5126 C   0  0  0  0  0  0  0  0  0  0  0  0
    6.0173   -6.2834    0.6683 C   0  0  0  0  0  0  0  0  0  0  0  0
    6.5387   -7.3839   -0.0295 C   0  0  0  0  0  0  0  0  0  0  0  0
    7.6166   -7.2070   -0.8331 F   0  0  0  0  0  0  0  0  0  0  0  0
    5.9549   -8.6587    0.1113 C   0  0  0  0  0  0  0  0  0  0  0  0
    6.5283   -9.8496   -0.6192 C   0  0  0  0  0  0  0  0  0  0  0  0
    5.9332   -9.9781   -2.0197 C   0  0  0  0  0  0  0  0  0  0  0  0
    4.8202   -8.8080    0.9283 C   0  0  0  0  0  0  0  0  0  0  0  0
    4.2131  -10.0159    1.0633 F   0  0  0  0  0  0  0  0  0  0  0  0
    4.3063   -7.7096    1.6304 C   0  0  0  0  0  0  0  0  0  0  0  0
    3.7116   -4.2268    1.7707 C   0  0  0  0  0  0  0  0  0  0  0  0
    3.1781   -3.2400    2.5804 C   0  0  0  0  0  0  0  0  0  0  0  0
    3.1544   -3.3177    3.9767 C   0  0  0  0  0  0  0  0  0  0  0  0
    2.1497   -2.5683    4.7662 C   0  0  0  0  0  0  0  0  0  0  0  0
    0.8073   -2.6230    4.3605 C   0  0  0  0  0  0  0  0  0  0  0  0
   -0.1670   -1.8478    4.9819 C   0  0  0  0  0  0  0  0  0  0  0  0
    0.1732   -1.0472    6.0975 C   0  0  0  0  0  0  0  0  0  0  0  0
   -0.8500   -0.1585    6.7738 C   0  0  0  0  0  0  0  0  0  0  0  0
   -2.2480   -0.7888    6.9146 C   0  0  0  0  0  0  0  0  0  0  0  0
    1.5266   -1.0061    6.5224 C   0  0  0  0  0  0  0  0  0  0  0  0
    2.5021   -1.7695    5.8600 C   0  0  0  0  0  0  0  0  0  0  0  0
    1.9055   -0.1919    7.5330 F   0  0  0  0  0  0  0  0  0  0  0  0
   -1.4167   -1.8527    4.4607 F   0  0  0  0  0  0  0  0  0  0  0  0
    3.8708   -4.3792    4.5271 C   0  0  0  0  0  0  0  0  0  0  0  0
    4.0203   -4.6529    5.7950 O   0  0  0  0  0  0  0  0  0  0  0  0
    2.5058   -2.3736    1.7754 C   0  0  0  0  0  0  0  0  0  0  0  0
    2.5843   -2.9269    0.5162 C   0  0  0  0  0  0  0  0  0  0  0  0
    3.3422   -4.0181    0.5152 O   0  0  0  0  0  0  0  0  0  0  0  0
    1.6881   -2.4550   -0.5451 C   0  0  0  0  0  0  0  0  0  0  0  0
    0.3365   -2.2731   -0.3134 C   0  0  0  0  0  0  0  0  0  0  0  0
   -0.1378   -1.5773   -1.3948 C   0  0  0  0  0  0  0  0  0  0  0  0
   -1.3929   -0.9812   -1.6315 C   0  0  0  0  0  0  0  0  0  0  0  0
   -2.4028   -0.6659   -0.5738 C   0  0  0  0  0  0  0  0  0  0  0  0
   -2.6557   -1.3217    0.6446 C   0  0  0  0  0  0  0  0  0  0  0  0
   -3.4058   -0.5525    1.5486 C   0  0  0  0  0  0  0  0  0  0  0  0
   -3.7764    0.6956    1.0560 C   0  0  0  0  0  0  0  0  0  0  0  0
   -4.4032    2.1186    2.0581 Si  0  0  0  0  0  4  0  0  0  0  0  0
   -5.9356    1.5625    2.9833 C   0  0  0  0  0  0  0  0  0  0  0  0
   -6.6223    2.7030    3.7338 C   0  0  0  0  0  0  0  0  0  0  0  0
   -4.6971    3.5862    0.9027 C   0  0  0  0  0  0  0  0  0  0  0  0
   -4.8778    4.9170    1.6274 C   0  0  0  0  0  0  0  0  0  0  0  0
   -3.0325    2.5154    3.2806 C   0  0  0  0  0  0  0  0  0  0  0  0
   -1.7564    2.9202    2.5476 C   0  0  0  0  0  0  0  0  0  0  0  0
   -3.1367    0.8483   -0.4716 S   0  0  0  0  0  0  0  0  0  0  0  0
   -1.4966   -0.3325   -2.8650 C   0  0  0  0  0  0  0  0  0  0  0  0
   -0.4322   -0.1597   -3.7332 C   0  0  0  0  0  0  0  0  0  0  0  0
    0.8750   -0.5975   -3.4044 C   0  0  0  0  0  0  0  0  0  0  0  0
    2.0874   -0.0173   -4.0420 C   0  0  0  0  0  0  0  0  0  0  0  0
    2.1769    1.2584   -4.6072 C   0  0  0  0  0  0  0  0  0  0  0  0
    3.4793    1.6723   -4.8972 C   0  0  0  0  0  0  0  0  0  0  0  0
    4.4515    0.7436   -4.5375 C   0  0  0  0  0  0  0  0  0  0  0  0
    6.2680    1.0906   -4.4418 Si  0  0  0  0  0  4  0  0  0  0  0  0
    7.0047    1.5889   -6.1045 C   0  0  0  0  0  0  0  0  0  0  0  0
    6.4464    2.8997   -6.6457 C   0  0  0  0  0  0  0  0  0  0  0  0
    7.1787   -0.4464   -3.8621 C   0  0  0  0  0  0  0  0  0  0  0  0
    7.0615   -1.5999   -4.8537 C   0  0  0  0  0  0  0  0  0  0  0  0
    6.6282    2.4105   -3.1465 C   0  0  0  0  0  0  0  0  0  0  0  0
    5.5304    3.4632   -3.0311 C   0  0  0  0  0  0  0  0  0  0  0  0
    3.6648   -0.5805   -3.8488 S   0  0  0  0  0  0  0  0  0  0  0  0
    0.9600   -1.3855   -2.2322 C   0  0  0  0  0  0  0  0  0  0  0  0
    2.0423   -1.9203   -1.6998 O   0  0  0  0  0  0  0  0  0  0  0  0
   -0.9257    0.5778   -4.8017 C   0  0  0  0  0  0  0  0  0  0  0  0
   -2.2504    0.8288   -4.4719 C   0  0  0  0  0  0  0  0  0  0  0  0
   -2.5623    0.2646   -3.3290 O   0  0  0  0  0  0  0  0  0  0  0  0
   -3.2244    1.6457   -5.2058 C   0  0  0  0  0  0  0  0  0  0  0  0
   -4.1409    0.9814   -6.0449 C   0  0  0  0  0  0  0  0  0  0  0  0
   -3.8556   -0.7567   -6.4910 S   0  0  0  0  0  0  0  0  0  0  0  0
   -2.6261   -0.4115   -7.7986 C   0  0  0  0  0  0  0  0  0  0  0  0
   -3.2865    0.0564   -9.0812 C   0  0  0  0  0  0  0  0  0  0  0  0
   -5.3544    1.6017   -6.3894 C   0  0  0  0  0  0  0  0  0  0  0  0
   -6.6577    0.6443   -7.2172 S   0  0  0  0  0  0  0  0  0  0  0  0
   -6.5652    1.4982   -8.8329 C   0  0  0  0  0  0  0  0  0  0  0  0
   -7.9741    1.7345   -9.3632 C   0  0  0  0  0  0  0  0  0  0  0  0
   -5.6376    2.8948   -5.9151 C   0  0  0  0  0  0  0  0  0  0  0  0
   -4.6452    3.6438   -5.2385 C   0  0  0  0  0  0  0  0  0  0  0  0
   -3.4395    3.0013   -4.8348 C   0  0  0  0  0  0  0  0  0  0  0  0
   -2.4883    3.7422   -3.9289 C   0  0  0  0  0  0  0  0  0  0  0  0
   -1.3699    3.2637   -3.6088 O   0  0  0  0  0  0  0  0  0  0  0  0
   -2.8612    5.0639   -3.4083 C   0  0  0  0  0  0  0  0  0  0  0  0
   -4.0073    5.7095   -3.8680 C   0  0  0  0  0  0  0  0  0  0  0  0
   -4.8861    5.0730   -4.8511 C   0  0  0  0  0  0  0  0  0  0  0  0
   -5.8062    5.7568   -5.3804 O   0  0  0  0  0  0  0  0  0  0  0  0
   -4.1998    6.9723   -3.3128 C   0  0  0  0  0  0  0  0  0  0  0  0
   -2.9250    7.2599   -2.2528 S   0  0  0  0  0  0  0  0  0  0  0  0
   -2.1233    5.8007   -2.4854 C   0  0  0  0  0  0  0  0  0  0  0  0
   -7.0372    3.3798   -5.9134 C   0  0  0  0  0  0  0  0  0  0  0  0
   -7.7991    3.2925   -4.8039 C   0  0  0  0  0  0  0  0  0  0  0  0
   -7.4135    2.5713   -3.5876 C   0  0  0  0  0  0  0  0  0  0  0  0
   -6.4806    1.7289   -3.4921 O   0  0  0  0  0  0  0  0  0  0  0  0
   -8.3389    2.9128   -2.5196 C   0  0  0  0  0  0  0  0  0  0  0  0
   -8.3926    2.3954   -1.2253 C   0  0  0  0  0  0  0  0  0  0  0  0
   -7.1915    1.2308   -0.6645 Cl  0  0  0  0  0  0  0  0  0  0  0  0
   -9.4566    2.7897   -0.3902 C   0  0  0  0  0  0  0  0  0  0  0  0
   -9.5248    2.2178    1.2751 Cl  0  0  0  0  0  0  0  0  0  0  0  0
  -10.5010    3.5884   -0.9007 C   0  0  0  0  0  0  0  0  0  0  0  0
  -11.8797    3.9980    0.1148 Cl  0  0  0  0  0  0  0  0  0  0  0  0
  -10.4683    4.0312   -2.2459 C   0  0  0  0  0  0  0  0  0  0  0  0
  -11.9436    4.6750   -2.9674 Cl  0  0  0  0  0  0  0  0  0  0  0  0
   -9.3086    3.7819   -3.0114 C   0  0  0  0  0  0  0  0  0  0  0  0
   -9.0043    4.1042   -4.4467 C   0  0  0  0  0  0  0  0  0  0  0  0
   -9.4757    5.1696   -5.1400 C   0  0  0  0  0  0  0  0  0  0  0  0
   -9.4104    5.2558   -6.5773 C   0  0  0  0  0  0  0  0  0  0  0  0
   -9.3633    5.3188   -7.7349 N   0  0  0  0  0  0  0  0  0  0  0  0
   -9.9536    6.3504   -4.4760 C   0  0  0  0  0  0  0  0  0  0  0  0
  -10.3173    7.3151   -3.9444 N   0  0  0  0  0  0  0  0  0  0  0  0
    5.7948   -7.2063    7.1126 H   0  0  0  0  0  0  0  0  0  0  0  0
    5.6031   -7.1538    4.3983 H   0  0  0  0  0  0  0  0  0  0  0  0
    6.4907   -5.3155    0.5663 H   0  0  0  0  0  0  0  0  0  0  0  0
    6.3248  -10.7853   -0.0527 H   0  0  0  0  0  0  0  0  0  0  0  0
    7.6350   -9.7559   -0.6959 H   0  0  0  0  0  0  0  0  0  0  0  0
    4.8301  -10.0847   -1.9630 H   0  0  0  0  0  0  0  0  0  0  0  0
    6.1974   -9.0845   -2.6304 H   0  0  0  0  0  0  0  0  0  0  0  0
    6.3547  -10.8831   -2.5165 H   0  0  0  0  0  0  0  0  0  0  0  0
    3.4483   -7.8473    2.2787 H   0  0  0  0  0  0  0  0  0  0  0  0
    0.5138   -3.2546    3.5271 H   0  0  0  0  0  0  0  0  0  0  0  0
   -0.5101    0.0923    7.8021 H   0  0  0  0  0  0  0  0  0  0  0  0
   -0.9350    0.7943    6.2069 H   0  0  0  0  0  0  0  0  0  0  0  0
   -2.7974   -0.2821    7.7344 H   0  0  0  0  0  0  0  0  0  0  0  0
   -2.1629   -1.8654    7.1633 H   0  0  0  0  0  0  0  0  0  0  0  0
   -2.8357   -0.6573    5.9856 H   0  0  0  0  0  0  0  0  0  0  0  0
    3.5354   -1.7158    6.1848 H   0  0  0  0  0  0  0  0  0  0  0  0
    1.9070   -1.5234    2.0736 H   0  0  0  0  0  0  0  0  0  0  0  0
   -0.1811   -2.5682    0.5884 H   0  0  0  0  0  0  0  0  0  0  0  0
   -2.2990   -2.2998    0.9142 H   0  0  0  0  0  0  0  0  0  0  0  0
   -3.5666   -0.8450    2.5892 H   0  0  0  0  0  0  0  0  0  0  0  0
   -5.6341    0.7775    3.7119 H   0  0  0  0  0  0  0  0  0  0  0  0
   -6.6526    1.1152    2.2646 H   0  0  0  0  0  0  0  0  0  0  0  0
   -7.3177    2.2808    4.4900 H   0  0  0  0  0  0  0  0  0  0  0  0
   -5.8841    3.3445    4.2507 H   0  0  0  0  0  0  0  0  0  0  0  0
   -7.2193    3.3166    3.0262 H   0  0  0  0  0  0  0  0  0  0  0  0
   -3.8145    3.6697    0.2369 H   0  0  0  0  0  0  0  0  0  0  0  0
   -5.5816    3.3839    0.2746 H   0  0  0  0  0  0  0  0  0  0  0  0
   -4.8732    5.7337    0.8734 H   0  0  0  0  0  0  0  0  0  0  0  0
   -4.0491    5.1000    2.3449 H   0  0  0  0  0  0  0  0  0  0  0  0
   -5.8455    4.9560    2.1542 H   0  0  0  0  0  0  0  0  0  0  0  0
   -2.8319    1.6072    3.8934 H   0  0  0  0  0  0  0  0  0  0  0  0
   -3.3584    3.3356    3.9569 H   0  0  0  0  0  0  0  0  0  0  0  0
   -0.9505    3.1293    3.2818 H   0  0  0  0  0  0  0  0  0  0  0  0
   -1.9323    3.8363    1.9416 H   0  0  0  0  0  0  0  0  0  0  0  0
   -1.4127    2.0968    1.8864 H   0  0  0  0  0  0  0  0  0  0  0  0
    1.3408    1.9370   -4.7058 H   0  0  0  0  0  0  0  0  0  0  0  0
    3.6906    2.6629   -5.2710 H   0  0  0  0  0  0  0  0  0  0  0  0
    8.1003    1.7082   -5.9646 H   0  0  0  0  0  0  0  0  0  0  0  0
    6.8339    0.7803   -6.8418 H   0  0  0  0  0  0  0  0  0  0  0  0
    6.9630    3.1534   -7.5940 H   0  0  0  0  0  0  0  0  0  0  0  0
    5.3602    2.8040   -6.8587 H   0  0  0  0  0  0  0  0  0  0  0  0
    6.6228    3.7243   -5.9205 H   0  0  0  0  0  0  0  0  0  0  0  0
    8.2528   -0.1891   -3.7297 H   0  0  0  0  0  0  0  0  0  0  0  0
    6.7636   -0.7567   -2.8799 H   0  0  0  0  0  0  0  0  0  0  0  0
    7.6161   -2.4765   -4.4638 H   0  0  0  0  0  0  0  0  0  0  0  0
    7.4968   -1.3182   -5.8367 H   0  0  0  0  0  0  0  0  0  0  0  0
    5.9985   -1.8905   -4.9952 H   0  0  0  0  0  0  0  0  0  0  0  0
    6.7410    1.9136   -2.1588 H   0  0  0  0  0  0  0  0  0  0  0  0
    7.5883    2.9077   -3.4039 H   0  0  0  0  0  0  0  0  0  0  0  0
    5.3286    3.9460   -4.0103 H   0  0  0  0  0  0  0  0  0  0  0  0
    5.8494    4.2577   -2.3217 H   0  0  0  0  0  0  0  0  0  0  0  0
    4.5909    3.0081   -2.6407 H   0  0  0  0  0  0  0  0  0  0  0  0
   -0.3983    0.9172   -5.6755 H   0  0  0  0  0  0  0  0  0  0  0  0
   -1.8983    0.3564   -7.4648 H   0  0  0  0  0  0  0  0  0  0  0  0
   -2.0745   -1.3520   -7.9917 H   0  0  0  0  0  0  0  0  0  0  0  0
   -2.5274    0.1401   -9.8887 H   0  0  0  0  0  0  0  0  0  0  0  0
   -3.7334    1.0602   -8.9221 H   0  0  0  0  0  0  0  0  0  0  0  0
   -4.0631   -0.6693   -9.4006 H   0  0  0  0  0  0  0  0  0  0  0  0
   -6.0388    2.4801   -8.7512 H   0  0  0  0  0  0  0  0  0  0  0  0
   -6.0157    0.8554   -9.5563 H   0  0  0  0  0  0  0  0  0  0  0  0
   -7.9276    2.2905  -10.3272 H   0  0  0  0  0  0  0  0  0  0  0  0
   -8.5610    2.3353   -8.6332 H   0  0  0  0  0  0  0  0  0  0  0  0
   -8.4853    0.7629   -9.5285 H   0  0  0  0  0  0  0  0  0  0  0  0
   -5.0102    7.6519   -3.5311 H   0  0  0  0  0  0  0  0  0  0  0  0
   -1.2042    5.4892   -2.0094 H   0  0  0  0  0  0  0  0  0  0  0  0
   -7.3356    3.9372   -6.7806 H   0  0  0  0  0  0  0  0  0  0  0  0
  1  2  2  3
  2  3  1  0
  3  4  2  0
  3  5  1  0
  5  6  2  0
  6  7  1  0
  6  8  1  0
  8  9  1  0
  8 10  2  0
 10 11  1  0
 10 12  1  0
 12 13  1  0
 12 14  2  0
 14 15  1  0
 15 16  2  3
 16 17  1  0
 17 18  3  0
 16 19  1  0
 19 20  3  0
  1 21  1  0
 21 22  2  0
 22 23  1  0
 23 24  2  0
 24 25  1  0
 25 26  2  0
 26 27  1  0
 27 28  1  0
 27 29  2  0
 29 30  1  0
 30 31  1  0
 29 32  1  0
 32 33  1  0
 32 34  2  0
 24 35  1  0
 35 36  2  0
 36 37  1  0
 37 38  1  0
 38 39  2  0
 39 40  1  0
 40 41  2  0
 41 42  1  0
 42 43  1  0
 41 44  1  0
 44 45  2  0
 44 46  1  0
 40 47  1  0
 37 48  2  0
 48 49  1  0
 36 50  1  0
 50 51  2  0
 51 52  1  0
 51 53  1  0
 53 54  2  0
 54 55  1  0
 55 56  2  0
 56 57  1  0
 57 58  2  0
 58 59  1  0
 59 60  2  0
 60 61  1  0
 61 62  1  0
 62 63  1  0
 61 64  1  0
 64 65  1  0
 61 66  1  0
 66 67  1  0
 60 68  1  0
 56 69  1  0
 69 70  2  0
 70 71  1  0
 71 72  1  0
 72 73  2  0
 73 74  1  0
 74 75  2  0
 75 76  1  0
 76 77  1  0
 77 78  1  0
 76 79  1  0
 79 80  1  0
 76 81  1  0
 81 82  1  0
 75 83  1  0
 71 84  2  0
 84 85  1  0
 70 86  1  0
 86 87  2  0
 87 88  1  0
 87 89  1  0
 89 90  2  0
 90 91  1  0
 91 92  1  0
 92 93  1  0
 90 94  1  0
 94 95  1  0
 95 96  1  0
 96 97  1  0
 94 98  2  0
 98 99  1  0
 99100  2  0
100101  1  0
101102  2  0
101103  1  0
103104  1  0
104105  1  0
105106  2  0
104107  2  0
107108  1  0
108109  1  0
 98110  1  0
110111  2  3
111112  1  0
112113  2  0
112114  1  0
114115  2  0
115116  1  0
115117  1  0
117118  1  0
117119  2  0
119120  1  0
119121  1  0
121122  1  0
121123  2  0
123124  1  0
124125  2  3
125126  1  0
126127  3  0
125128  1  0
128129  3  0
 15  2  1  0
 49 21  1  0
 85 53  1  0
100 89  1  0
109103  2  0
124111  1  0
 14  5  1  0
 48 23  1  0
 84 55  1  0
105 99  1  0
123114  1  0
 34 25  1  0
 52 35  1  0
 68 57  1  0
 88 69  1  0
 45 38  1  0
 83 72  1  0
  1130  1  0
 22131  1  0
 26132  1  0
 30133  1  0
 30134  1  0
 31135  1  0
 31136  1  0
 31137  1  0
 34138  1  0
 39139  1  0
 42140  1  0
 42141  1  0
 43142  1  0
 43143  1  0
 43144  1  0
 45145  1  0
 50146  1  0
 54147  1  0
 58148  1  0
 59149  1  0
 62150  1  0
 62151  1  0
 63152  1  0
 63153  1  0
 63154  1  0
 64155  1  0
 64156  1  0
 65157  1  0
 65158  1  0
 65159  1  0
 66160  1  0
 66161  1  0
 67162  1  0
 67163  1  0
 67164  1  0
 73165  1  0
 74166  1  0
 77167  1  0
 77168  1  0
 78169  1  0
 78170  1  0
 78171  1  0
 79172  1  0
 79173  1  0
 80174  1  0
 80175  1  0
 80176  1  0
 81177  1  0
 81178  1  0
 82179  1  0
 82180  1  0
 82181  1  0
 86182  1  0
 92183  1  0
 92184  1  0
 93185  1  0
 93186  1  0
 93187  1  0
 96188  1  0
 96189  1  0
 97190  1  0
 97191  1  0
 97192  1  0
107193  1  0
109194  1  0
110195  1  0
M  END

