
     RDKit          3D

204223  0  0  0  0  0  0  0  0999 V2000
    6.1521    4.8821   -5.8366 C   0  0  0  0  0  0  0  0  0  0  0  0
    6.0979    3.8981   -6.7529 C   0  0  0  0  0  0  0  0  0  0  0  0
    6.9585    3.8377   -7.9227 C   0  0  0  0  0  0  0  0  0  0  0  0
    7.9679    4.5610   -8.1259 O   0  0  0  0  0  0  0  0  0  0  0  0
    6.3927    2.8823   -8.8482 C   0  0  0  0  0  0  0  0  0  0  0  0
    6.8390    2.5461  -10.1357 C   0  0  0  0  0  0  0  0  0  0  0  0
    8.3785    3.1579  -10.7420 Cl  0  0  0  0  0  0  0  0  0  0  0  0
    6.0443    1.6829  -10.9206 C   0  0  0  0  0  0  0  0  0  0  0  0
    6.6062    1.2044  -12.5292 Cl  0  0  0  0  0  0  0  0  0  0  0  0
    4.8002    1.2394  -10.4340 C   0  0  0  0  0  0  0  0  0  0  0  0
    3.7611    0.2620  -11.4798 Cl  0  0  0  0  0  0  0  0  0  0  0  0
    4.3721    1.5848   -9.1311 C   0  0  0  0  0  0  0  0  0  0  0  0
    2.7174    1.2262   -8.6679 Cl  0  0  0  0  0  0  0  0  0  0  0  0
    5.2284    2.3455   -8.3069 C   0  0  0  0  0  0  0  0  0  0  0  0
    5.1176    2.7815   -6.8753 C   0  0  0  0  0  0  0  0  0  0  0  0
    4.8351    1.9474   -5.8397 C   0  0  0  0  0  0  0  0  0  0  0  0
    3.9303    0.8303   -5.9397 C   0  0  0  0  0  0  0  0  0  0  0  0
    3.1788   -0.0563   -5.9763 N   0  0  0  0  0  0  0  0  0  0  0  0
    5.5655    2.0349   -4.6015 C   0  0  0  0  0  0  0  0  0  0  0  0
    6.2131    2.1029   -3.6498 N   0  0  0  0  0  0  0  0  0  0  0  0
    5.1882    5.0516   -4.7360 C   0  0  0  0  0  0  0  0  0  0  0  0
    3.8037    4.9012   -4.7969 C   0  0  0  0  0  0  0  0  0  0  0  0
    3.1884    5.0095   -3.5315 C   0  0  0  0  0  0  0  0  0  0  0  0
    1.8158    4.8525   -3.2491 C   0  0  0  0  0  0  0  0  0  0  0  0
    0.8097    4.6545   -4.3027 C   0  0  0  0  0  0  0  0  0  0  0  0
   -0.1966    5.5504   -4.6306 C   0  0  0  0  0  0  0  0  0  0  0  0
   -0.9986    5.1252   -5.7002 C   0  0  0  0  0  0  0  0  0  0  0  0
   -0.6365    3.8758   -6.1855 C   0  0  0  0  0  0  0  0  0  0  0  0
   -1.2647    3.1900   -7.3512 C   0  0  0  0  0  0  0  0  0  0  0  0
   -0.3659    3.2822   -8.5780 C   0  0  0  0  0  0  0  0  0  0  0  0
    0.6955    3.3123   -5.3147 S   0  0  0  0  0  0  0  0  0  0  0  0
    1.4404    4.8821   -1.8936 C   0  0  0  0  0  0  0  0  0  0  0  0
    2.3581    5.0870   -0.8581 C   0  0  0  0  0  0  0  0  0  0  0  0
    3.7199    5.3062   -1.1495 C   0  0  0  0  0  0  0  0  0  0  0  0
    4.7176    5.4582   -0.0787 C   0  0  0  0  0  0  0  0  0  0  0  0
    5.7540    4.5728    0.1992 C   0  0  0  0  0  0  0  0  0  0  0  0
    6.5478    4.9768    1.2749 C   0  0  0  0  0  0  0  0  0  0  0  0
    6.1267    6.1633    1.8611 C   0  0  0  0  0  0  0  0  0  0  0  0
    6.8403    6.8666    2.9796 C   0  0  0  0  0  0  0  0  0  0  0  0
    5.8922    7.6641    3.8686 C   0  0  0  0  0  0  0  0  0  0  0  0
    4.7864    6.7368    1.0187 S   0  0  0  0  0  0  0  0  0  0  0  0
    4.0982    5.2597   -2.4981 C   0  0  0  0  0  0  0  0  0  0  0  0
    5.6457    5.3671   -3.1422 S   0  0  0  0  0  0  0  0  0  0  0  0
    1.8087    4.8836    0.4187 C   0  0  0  0  0  0  0  0  0  0  0  0
    0.4868    4.4466    0.3834 C   0  0  0  0  0  0  0  0  0  0  0  0
   -0.0317    4.4193   -1.2241 S   0  0  0  0  0  0  0  0  0  0  0  0
   -0.1843    3.6783    1.4457 C   0  0  0  0  0  0  0  0  0  0  0  0
    0.4496    2.7995    2.3491 C   0  0  0  0  0  0  0  0  0  0  0  0
    1.8656    2.6778    2.5465 N   0  0  0  0  0  0  0  0  0  0  0  0
    2.5849    1.6392    1.8444 C   0  0  0  0  0  0  0  0  0  0  0  0
    2.5138    1.5297    0.4404 C   0  0  0  0  0  0  0  0  0  0  0  0
    3.3321    0.6216   -0.2481 C   0  0  0  0  0  0  0  0  0  0  0  0
    4.1994   -0.2102    0.4625 C   0  0  0  0  0  0  0  0  0  0  0  0
    5.2971   -1.3262   -0.4092 S   0  0  0  0  0  0  0  0  0  0  0  0
    6.6674   -0.1212   -0.4696 C   0  0  0  0  0  0  0  0  0  0  0  0
    4.2249   -0.1608    1.8610 C   0  0  0  0  0  0  0  0  0  0  0  0
    3.4159    0.7503    2.5491 C   0  0  0  0  0  0  0  0  0  0  0  0
    2.5057    3.4002    3.6275 C   0  0  0  0  0  0  0  0  0  0  0  0
    1.7809    3.7918    4.7736 C   0  0  0  0  0  0  0  0  0  0  0  0
    2.4289    4.4106    5.8515 C   0  0  0  0  0  0  0  0  0  0  0  0
    3.8098    4.6302    5.8079 C   0  0  0  0  0  0  0  0  0  0  0  0
    4.6571    5.3910    7.1901 S   0  0  0  0  0  0  0  0  0  0  0  0
    4.8784    3.8220    8.0876 C   0  0  0  0  0  0  0  0  0  0  0  0
    4.5308    4.2751    4.6616 C   0  0  0  0  0  0  0  0  0  0  0  0
    3.8849    3.6789    3.5787 C   0  0  0  0  0  0  0  0  0  0  0  0
   -0.4623    1.9353    2.9440 C   0  0  0  0  0  0  0  0  0  0  0  0
   -0.2966    0.5248    3.8249 S   0  0  0  0  0  0  0  0  0  0  0  0
   -1.9384    0.0738    3.7103 C   0  0  0  0  0  0  0  0  0  0  0  0
   -2.6164    1.0659    2.9689 C   0  0  0  0  0  0  0  0  0  0  0  0
   -4.0211    1.0400    2.6529 N   0  0  0  0  0  0  0  0  0  0  0  0
   -4.4311    1.0216    1.2678 C   0  0  0  0  0  0  0  0  0  0  0  0
   -5.4786    1.8464    0.8230 C   0  0  0  0  0  0  0  0  0  0  0  0
   -5.8452    1.8581   -0.5200 C   0  0  0  0  0  0  0  0  0  0  0  0
   -5.1665    1.0561   -1.4452 C   0  0  0  0  0  0  0  0  0  0  0  0
   -5.6627    1.0524   -3.1745 S   0  0  0  0  0  0  0  0  0  0  0  0
   -4.5156    2.3945   -3.6363 C   0  0  0  0  0  0  0  0  0  0  0  0
   -4.1207    0.2345   -1.0159 C   0  0  0  0  0  0  0  0  0  0  0  0
   -3.7488    0.2232    0.3308 C   0  0  0  0  0  0  0  0  0  0  0  0
   -4.9785    1.1827    3.7265 C   0  0  0  0  0  0  0  0  0  0  0  0
   -4.6599    1.9499    4.8651 C   0  0  0  0  0  0  0  0  0  0  0  0
   -5.5709    2.0772    5.9160 C   0  0  0  0  0  0  0  0  0  0  0  0
   -6.8176    1.4552    5.8348 C   0  0  0  0  0  0  0  0  0  0  0  0
   -8.0035    1.6654    7.1652 S   0  0  0  0  0  0  0  0  0  0  0  0
   -8.6612    3.2139    6.4677 C   0  0  0  0  0  0  0  0  0  0  0  0
   -7.1490    0.6901    4.7103 C   0  0  0  0  0  0  0  0  0  0  0  0
   -6.2406    0.5553    3.6604 C   0  0  0  0  0  0  0  0  0  0  0  0
   -1.7520    2.0799    2.5459 C   0  0  0  0  0  0  0  0  0  0  0  0
   -1.8554    3.3150    1.4186 S   0  0  0  0  0  0  0  0  0  0  0  0
   -2.3922   -1.3204    3.9286 C   0  0  0  0  0  0  0  0  0  0  0  0
   -1.5060   -2.3794    4.1203 C   0  0  0  0  0  0  0  0  0  0  0  0
   -2.0516   -3.6276    3.7951 C   0  0  0  0  0  0  0  0  0  0  0  0
   -1.3139   -4.8150    3.6580 C   0  0  0  0  0  0  0  0  0  0  0  0
    0.1535   -4.8367    3.8028 C   0  0  0  0  0  0  0  0  0  0  0  0
    0.7611   -5.5911    4.8166 C   0  0  0  0  0  0  0  0  0  0  0  0
    2.1558   -5.7019    4.8600 C   0  0  0  0  0  0  0  0  0  0  0  0
    2.9367   -5.0787    3.8897 C   0  0  0  0  0  0  0  0  0  0  0  0
    2.3301   -4.3288    2.8725 C   0  0  0  0  0  0  0  0  0  0  0  0
    3.3288   -3.5335    1.6204 S   0  0  0  0  0  0  0  0  0  0  0  0
    3.2228   -4.8973    0.4062 C   0  0  0  0  0  0  0  0  0  0  0  0
    2.1943   -4.5722   -0.6736 C   0  0  0  0  0  0  0  0  0  0  0  0
    0.9445   -4.1972    2.8390 C   0  0  0  0  0  0  0  0  0  0  0  0
   -1.9680   -5.9019    3.0624 C   0  0  0  0  0  0  0  0  0  0  0  0
   -3.2981   -5.8366    2.6345 C   0  0  0  0  0  0  0  0  0  0  0  0
   -4.0615   -4.6630    2.8423 C   0  0  0  0  0  0  0  0  0  0  0  0
   -5.4480   -4.5531    2.3404 C   0  0  0  0  0  0  0  0  0  0  0  0
   -5.7711   -3.6664    1.2996 C   0  0  0  0  0  0  0  0  0  0  0  0
   -7.0730   -3.6133    0.8001 C   0  0  0  0  0  0  0  0  0  0  0  0
   -8.0601   -4.4539    1.3304 C   0  0  0  0  0  0  0  0  0  0  0  0
   -7.7386   -5.3413    2.3607 C   0  0  0  0  0  0  0  0  0  0  0  0
   -8.9691   -6.4829    2.9987 S   0  0  0  0  0  0  0  0  0  0  0  0
   -8.3717   -7.8666    1.9483 C   0  0  0  0  0  0  0  0  0  0  0  0
   -9.0692   -9.1550    2.3407 C   0  0  0  0  0  0  0  0  0  0  0  0
   -6.4393   -5.3744    2.8795 C   0  0  0  0  0  0  0  0  0  0  0  0
   -3.3866   -3.5627    3.3991 C   0  0  0  0  0  0  0  0  0  0  0  0
   -3.8735   -1.9555    3.4304 S   0  0  0  0  0  0  0  0  0  0  0  0
   -3.6378   -6.8773    1.7401 C   0  0  0  0  0  0  0  0  0  0  0  0
   -2.5436   -7.6787    1.4121 C   0  0  0  0  0  0  0  0  0  0  0  0
   -1.2167   -7.2032    2.3228 S   0  0  0  0  0  0  0  0  0  0  0  0
   -2.3214   -8.3113    0.1099 C   0  0  0  0  0  0  0  0  0  0  0  0
   -2.0270   -7.5846   -0.9838 C   0  0  0  0  0  0  0  0  0  0  0  0
   -2.3812   -6.1786   -1.2446 C   0  0  0  0  0  0  0  0  0  0  0  0
   -2.8662   -5.3593   -0.4215 O   0  0  0  0  0  0  0  0  0  0  0  0
   -2.1901   -5.9167   -2.6629 C   0  0  0  0  0  0  0  0  0  0  0  0
   -2.5464   -4.7891   -3.4071 C   0  0  0  0  0  0  0  0  0  0  0  0
   -3.2028   -3.3535   -2.6196 Cl  0  0  0  0  0  0  0  0  0  0  0  0
   -2.4090   -4.8397   -4.8062 C   0  0  0  0  0  0  0  0  0  0  0  0
   -2.7891   -3.4233   -5.7847 Cl  0  0  0  0  0  0  0  0  0  0  0  0
   -1.9798   -6.0365   -5.4365 C   0  0  0  0  0  0  0  0  0  0  0  0
   -1.8765   -6.1262   -7.1983 Cl  0  0  0  0  0  0  0  0  0  0  0  0
   -1.6434   -7.1711   -4.6575 C   0  0  0  0  0  0  0  0  0  0  0  0
   -1.3512   -8.7263   -5.4364 Cl  0  0  0  0  0  0  0  0  0  0  0  0
   -1.6595   -7.0514   -3.2592 C   0  0  0  0  0  0  0  0  0  0  0  0
   -1.3371   -8.0600   -2.2141 C   0  0  0  0  0  0  0  0  0  0  0  0
   -0.1965   -8.8064   -2.1957 C   0  0  0  0  0  0  0  0  0  0  0  0
    0.2514   -9.4734   -0.9956 C   0  0  0  0  0  0  0  0  0  0  0  0
    0.6134   -9.9821   -0.0252 N   0  0  0  0  0  0  0  0  0  0  0  0
    0.7860   -8.7279   -3.2499 C   0  0  0  0  0  0  0  0  0  0  0  0
    1.5910   -8.6652   -4.0775 N   0  0  0  0  0  0  0  0  0  0  0  0
    6.9742    5.5830   -5.8702 H   0  0  0  0  0  0  0  0  0  0  0  0
    3.2643    4.7092   -5.7143 H   0  0  0  0  0  0  0  0  0  0  0  0
   -0.3345    6.5041   -4.1339 H   0  0  0  0  0  0  0  0  0  0  0  0
   -1.8029    5.7161   -6.1102 H   0  0  0  0  0  0  0  0  0  0  0  0
   -1.4449    2.1206   -7.1008 H   0  0  0  0  0  0  0  0  0  0  0  0
   -2.2434    3.6653   -7.5890 H   0  0  0  0  0  0  0  0  0  0  0  0
   -0.1524    4.3459   -8.8384 H   0  0  0  0  0  0  0  0  0  0  0  0
    0.5945    2.7784   -8.3665 H   0  0  0  0  0  0  0  0  0  0  0  0
   -0.8484    2.7854   -9.4497 H   0  0  0  0  0  0  0  0  0  0  0  0
    5.9252    3.6651   -0.3627 H   0  0  0  0  0  0  0  0  0  0  0  0
    7.4216    4.4215    1.6079 H   0  0  0  0  0  0  0  0  0  0  0  0
    7.5990    7.5630    2.5420 H   0  0  0  0  0  0  0  0  0  0  0  0
    7.3842    6.1252    3.6054 H   0  0  0  0  0  0  0  0  0  0  0  0
    6.4363    8.0178    4.7705 H   0  0  0  0  0  0  0  0  0  0  0  0
    5.0396    7.0359    4.1911 H   0  0  0  0  0  0  0  0  0  0  0  0
    5.5038    8.5476    3.3074 H   0  0  0  0  0  0  0  0  0  0  0  0
    2.3876    4.9333    1.3245 H   0  0  0  0  0  0  0  0  0  0  0  0
    1.8670    2.1733   -0.1328 H   0  0  0  0  0  0  0  0  0  0  0  0
    3.2952    0.5792   -1.3238 H   0  0  0  0  0  0  0  0  0  0  0  0
    6.3865    0.7253   -1.1263 H   0  0  0  0  0  0  0  0  0  0  0  0
    6.9129    0.2494    0.5471 H   0  0  0  0  0  0  0  0  0  0  0  0
    7.5588   -0.6188   -0.8972 H   0  0  0  0  0  0  0  0  0  0  0  0
    4.8854   -0.8112    2.4203 H   0  0  0  0  0  0  0  0  0  0  0  0
    3.4660    0.7831    3.6251 H   0  0  0  0  0  0  0  0  0  0  0  0
    0.7191    3.6021    4.8557 H   0  0  0  0  0  0  0  0  0  0  0  0
    1.8585    4.6944    6.7237 H   0  0  0  0  0  0  0  0  0  0  0  0
    5.2905    3.0357    7.4171 H   0  0  0  0  0  0  0  0  0  0  0  0
    3.9049    3.4831    8.5037 H   0  0  0  0  0  0  0  0  0  0  0  0
    5.5963    3.9819    8.9211 H   0  0  0  0  0  0  0  0  0  0  0  0
    5.5969    4.4544    4.6163 H   0  0  0  0  0  0  0  0  0  0  0  0
    4.4615    3.4216    2.7054 H   0  0  0  0  0  0  0  0  0  0  0  0
   -6.0046    2.4865    1.5207 H   0  0  0  0  0  0  0  0  0  0  0  0
   -6.6617    2.4939   -0.8445 H   0  0  0  0  0  0  0  0  0  0  0  0
   -3.4791    2.1337   -3.3370 H   0  0  0  0  0  0  0  0  0  0  0  0
   -4.8271    3.3461   -3.1550 H   0  0  0  0  0  0  0  0  0  0  0  0
   -4.5392    2.5269   -4.7358 H   0  0  0  0  0  0  0  0  0  0  0  0
   -3.5956   -0.3920   -1.7228 H   0  0  0  0  0  0  0  0  0  0  0  0
   -2.9375   -0.4223    0.6481 H   0  0  0  0  0  0  0  0  0  0  0  0
   -3.7053    2.4555    4.9402 H   0  0  0  0  0  0  0  0  0  0  0  0
   -5.3090    2.6656    6.7796 H   0  0  0  0  0  0  0  0  0  0  0  0
   -9.4813    3.5852    7.1163 H   0  0  0  0  0  0  0  0  0  0  0  0
   -7.8652    3.9849    6.4243 H   0  0  0  0  0  0  0  0  0  0  0  0
   -9.0630    3.0338    5.4515 H   0  0  0  0  0  0  0  0  0  0  0  0
   -8.1115    0.2006    4.6524 H   0  0  0  0  0  0  0  0  0  0  0  0
   -6.5043   -0.0532    2.8064 H   0  0  0  0  0  0  0  0  0  0  0  0
   -0.4574   -2.2376    4.3599 H   0  0  0  0  0  0  0  0  0  0  0  0
    0.1588   -6.0936    5.5592 H   0  0  0  0  0  0  0  0  0  0  0  0
    2.6245   -6.2821    5.6489 H   0  0  0  0  0  0  0  0  0  0  0  0
    4.0143   -5.1719    3.9255 H   0  0  0  0  0  0  0  0  0  0  0  0
    2.9630   -5.8630    0.8940 H   0  0  0  0  0  0  0  0  0  0  0  0
    4.2213   -5.0089   -0.0738 H   0  0  0  0  0  0  0  0  0  0  0  0
    2.1630   -5.4049   -1.4045 H   0  0  0  0  0  0  0  0  0  0  0  0
    2.4804   -3.6370   -1.2011 H   0  0  0  0  0  0  0  0  0  0  0  0
    1.1835   -4.4545   -0.2259 H   0  0  0  0  0  0  0  0  0  0  0  0
    0.4751   -3.6308    2.0379 H   0  0  0  0  0  0  0  0  0  0  0  0
   -5.0102   -3.0300    0.8647 H   0  0  0  0  0  0  0  0  0  0  0  0
   -7.3201   -2.9310    0.0033 H   0  0  0  0  0  0  0  0  0  0  0  0
   -9.0645   -4.4284    0.9341 H   0  0  0  0  0  0  0  0  0  0  0  0
   -8.5962   -7.6372    0.8824 H   0  0  0  0  0  0  0  0  0  0  0  0
   -7.2761   -7.9910    2.0634 H   0  0  0  0  0  0  0  0  0  0  0  0
   -8.7462   -9.9748    1.6563 H   0  0  0  0  0  0  0  0  0  0  0  0
  -10.1684   -9.0210    2.2699 H   0  0  0  0  0  0  0  0  0  0  0  0
   -8.7973   -9.4309    3.3812 H   0  0  0  0  0  0  0  0  0  0  0  0
   -6.1932   -6.0622    3.6775 H   0  0  0  0  0  0  0  0  0  0  0  0
   -4.5611   -6.9051    1.1670 H   0  0  0  0  0  0  0  0  0  0  0  0
   -2.0960   -9.3707    0.1227 H   0  0  0  0  0  0  0  0  0  0  0  0
  1  2  2  3
  2  3  1  0
  3  4  2  0
  3  5  1  0
  5  6  2  0
  6  7  1  0
  6  8  1  0
  8  9  1  0
  8 10  2  0
 10 11  1  0
 10 12  1  0
 12 13  1  0
 12 14  2  0
 14 15  1  0
 15 16  2  3
 16 17  1  0
 17 18  3  0
 16 19  1  0
 19 20  3  0
  1 21  1  0
 21 22  2  0
 22 23  1  0
 23 24  2  0
 24 25  1  0
 25 26  2  0
 26 27  1  0
 27 28  2  0
 28 29  1  0
 29 30  1  0
 28 31  1  0
 24 32  1  0
 32 33  2  0
 33 34  1  0
 34 35  1  0
 35 36  2  0
 36 37  1  0
 37 38  2  0
 38 39  1  0
 39 40  1  0
 38 41  1  0
 34 42  2  0
 42 43  1  0
 33 44  1  0
 44 45  2  0
 45 46  1  0
 45 47  1  0
 47 48  2  0
 48 49  1  0
 49 50  1  0
 50 51  2  0
 51 52  1  0
 52 53  2  0
 53 54  1  0
 54 55  1  0
 53 56  1  0
 56 57  2  0
 49 58  1  0
 58 59  2  0
 59 60  1  0
 60 61  2  0
 61 62  1  0
 62 63  1  0
 61 64  1  0
 64 65  2  0
 48 66  1  0
 66 67  1  0
 67 68  1  0
 68 69  2  0
 69 70  1  0
 70 71  1  0
 71 72  2  0
 72 73  1  0
 73 74  2  0
 74 75  1  0
 75 76  1  0
 74 77  1  0
 77 78  2  0
 70 79  1  0
 79 80  2  0
 80 81  1  0
 81 82  2  0
 82 83  1  0
 83 84  1  0
 82 85  1  0
 85 86  2  0
 69 87  1  0
 87 88  1  0
 68 89  1  0
 89 90  2  0
 90 91  1  0
 91 92  2  0
 92 93  1  0
 93 94  2  0
 94 95  1  0
 95 96  2  0
 96 97  1  0
 97 98  1  0
 98 99  1  0
 99100  1  0
 97101  2  0
 92102  1  0
102103  2  0
103104  1  0
104105  1  0
105106  2  0
106107  1  0
107108  2  0
108109  1  0
109110  1  0
110111  1  0
111112  1  0
109113  2  0
104114  2  0
114115  1  0
103116  1  0
116117  2  0
117118  1  0
117119  1  0
119120  2  3
120121  1  0
121122  2  0
121123  1  0
123124  2  0
124125  1  0
124126  1  0
126127  1  0
126128  2  0
128129  1  0
128130  1  0
130131  1  0
130132  2  0
132133  1  0
133134  2  3
134135  1  0
135136  3  0
134137  1  0
137138  3  0
 15  2  1  0
 43 21  1  0
 88 47  1  0
115 89  1  0
133120  1  0
 14  5  1  0
 42 23  1  0
 57 50  1  0
 65 58  1  0
 87 66  2  0
114 91  1  0
132123  1  0
 31 25  1  0
 46 32  1  0
 78 71  1  0
 86 79  1  0
101 93  1  0
118102  1  0
 41 35  1  0
113105  1  0
  1139  1  0
 22140  1  0
 26141  1  0
 27142  1  0
 29143  1  0
 29144  1  0
 30145  1  0
 30146  1  0
 30147  1  0
 36148  1  0
 37149  1  0
 39150  1  0
 39151  1  0
 40152  1  0
 40153  1  0
 40154  1  0
 44155  1  0
 51156  1  0
 52157  1  0
 55158  1  0
 55159  1  0
 55160  1  0
 56161  1  0
 57162  1  0
 59163  1  0
 60164  1  0
 63165  1  0
 63166  1  0
 63167  1  0
 64168  1  0
 65169  1  0
 72170  1  0
 73171  1  0
 76172  1  0
 76173  1  0
 76174  1  0
 77175  1  0
 78176  1  0
 80177  1  0
 81178  1  0
 84179  1  0
 84180  1  0
 84181  1  0
 85182  1  0
 86183  1  0
 90184  1  0
 94185  1  0
 95186  1  0
 96187  1  0
 99188  1  0
 99189  1  0
100190  1  0
100191  1  0
100192  1  0
101193  1  0
106194  1  0
107195  1  0
108196  1  0
111197  1  0
111198  1  0
112199  1  0
112200  1  0
112201  1  0
113202  1  0
116203  1  0
119204  1  0
M  END

