
     RDKit          3D

155169  0  0  0  0  0  0  0  0999 V2000
    3.8867   -3.7649    4.2536 C   0  0  0  0  0  0  0  0  0  0  0  0
    4.7330   -2.6899    4.4393 C   0  0  0  0  0  0  0  0  0  0  0  0
    4.6800   -1.4250    3.7098 C   0  0  0  0  0  0  0  0  0  0  0  0
    3.8785   -1.0353    2.7871 O   0  0  0  0  0  0  0  0  0  0  0  0
    5.7828   -0.5655    4.1499 C   0  0  0  0  0  0  0  0  0  0  0  0
    5.9875    0.7304    3.5531 C   0  0  0  0  0  0  0  0  0  0  0  0
    4.9354    1.4101    2.2528 Cl  0  0  0  0  0  0  0  0  0  0  0  0
    7.0798    1.4520    4.0446 C   0  0  0  0  0  0  0  0  0  0  0  0
    7.4358    3.0482    3.4089 Cl  0  0  0  0  0  0  0  0  0  0  0  0
    7.9464    0.8921    5.0053 C   0  0  0  0  0  0  0  0  0  0  0  0
    9.3665    1.8422    5.5824 Cl  0  0  0  0  0  0  0  0  0  0  0  0
    7.7278   -0.4411    5.5143 C   0  0  0  0  0  0  0  0  0  0  0  0
    9.0937   -1.0016    6.4947 Cl  0  0  0  0  0  0  0  0  0  0  0  0
    6.5496   -1.1660    5.0975 C   0  0  0  0  0  0  0  0  0  0  0  0
    5.9412   -2.5278    5.4304 C   0  0  0  0  0  0  0  0  0  0  0  0
    6.2837   -3.4215    6.4378 C   0  0  0  0  0  0  0  0  0  0  0  0
    5.5518   -4.6291    6.7794 C   0  0  0  0  0  0  0  0  0  0  0  0
    4.8591   -5.5566    7.0540 N   0  0  0  0  0  0  0  0  0  0  0  0
    7.2092   -3.1863    7.5736 C   0  0  0  0  0  0  0  0  0  0  0  0
    7.8335   -2.9907    8.4933 N   0  0  0  0  0  0  0  0  0  0  0  0
    2.6969   -3.7156    3.3938 C   0  0  0  0  0  0  0  0  0  0  0  0
    1.5592   -2.9867    3.7157 C   0  0  0  0  0  0  0  0  0  0  0  0
    0.8377   -2.5861    2.5534 C   0  0  0  0  0  0  0  0  0  0  0  0
   -0.2571   -1.6324    2.6880 C   0  0  0  0  0  0  0  0  0  0  0  0
   -1.5194   -1.8822    2.0605 C   0  0  0  0  0  0  0  0  0  0  0  0
   -1.7256   -3.1518    1.4348 O   0  0  0  0  0  0  0  0  0  0  0  0
   -2.9312   -3.6389    0.8837 C   0  0  0  0  0  0  0  0  0  0  0  0
   -3.2959   -2.8384   -0.4071 C   0  0  0  0  0  0  0  0  0  0  0  0
   -2.4800   -0.8488    2.0067 C   0  0  0  0  0  0  0  0  0  0  0  0
   -2.2304    0.4455    2.4615 C   0  0  0  0  0  0  0  0  0  0  0  0
   -0.9396    0.7286    3.0568 C   0  0  0  0  0  0  0  0  0  0  0  0
    0.0155   -0.3001    3.1282 C   0  0  0  0  0  0  0  0  0  0  0  0
    1.3459    0.0137    3.5556 O   0  0  0  0  0  0  0  0  0  0  0  0
    1.8754    1.1532    4.2634 C   0  0  0  0  0  0  0  0  0  0  0  0
    1.8467    2.3954    3.4278 C   0  0  0  0  0  0  0  0  0  0  0  0
    1.4222   -2.9053    1.3342 C   0  0  0  0  0  0  0  0  0  0  0  0
    2.7823   -3.7594    1.7176 S   0  0  0  0  0  0  0  0  0  0  0  0
    1.0551   -2.2766    0.0575 C   0  0  0  0  0  0  0  0  0  0  0  0
    0.4544   -2.9390   -1.0484 C   0  0  0  0  0  0  0  0  0  0  0  0
    0.8814   -4.2285   -1.4939 N   0  0  0  0  0  0  0  0  0  0  0  0
    2.2642   -4.4942   -1.2858 C   0  0  0  0  0  0  0  0  0  0  0  0
    2.6481   -5.6717   -0.6349 C   0  0  0  0  0  0  0  0  0  0  0  0
    3.9851   -6.1572   -0.8462 C   0  0  0  0  0  0  0  0  0  0  0  0
    4.9504   -5.3312   -1.5439 C   0  0  0  0  0  0  0  0  0  0  0  0
    6.6563   -5.9734   -1.8727 S   0  0  0  0  0  0  0  0  0  0  0  0
    7.0362   -6.9130   -0.3165 C   0  0  0  0  0  0  0  0  0  0  0  0
    4.5532   -4.1458   -2.0777 C   0  0  0  0  0  0  0  0  0  0  0  0
    3.2170   -3.6838   -1.9534 C   0  0  0  0  0  0  0  0  0  0  0  0
    0.1312   -5.1498   -2.3676 C   0  0  0  0  0  0  0  0  0  0  0  0
   -1.2595   -5.3431   -2.2970 C   0  0  0  0  0  0  0  0  0  0  0  0
   -1.8871   -6.4079   -3.0992 C   0  0  0  0  0  0  0  0  0  0  0  0
   -1.1156   -7.2555   -4.0009 C   0  0  0  0  0  0  0  0  0  0  0  0
   -1.8755   -8.2619   -5.2765 S   0  0  0  0  0  0  0  0  0  0  0  0
   -1.6210   -9.8754   -4.4876 C   0  0  0  0  0  0  0  0  0  0  0  0
    0.2425   -7.0128   -4.0714 C   0  0  0  0  0  0  0  0  0  0  0  0
    0.8491   -5.9288   -3.3985 C   0  0  0  0  0  0  0  0  0  0  0  0
   -0.1895   -1.9706   -1.9075 C   0  0  0  0  0  0  0  0  0  0  0  0
   -1.1064   -1.9323   -3.2987 S   0  0  0  0  0  0  0  0  0  0  0  0
   -1.3580   -0.1713   -3.3413 C   0  0  0  0  0  0  0  0  0  0  0  0
   -0.6077    0.3038   -2.2331 C   0  0  0  0  0  0  0  0  0  0  0  0
   -0.2252    1.6876   -2.0181 N   0  0  0  0  0  0  0  0  0  0  0  0
    0.8803    2.2620   -2.7389 C   0  0  0  0  0  0  0  0  0  0  0  0
    1.9646    1.4308   -3.1798 C   0  0  0  0  0  0  0  0  0  0  0  0
    3.1058    1.9635   -3.7486 C   0  0  0  0  0  0  0  0  0  0  0  0
    3.2535    3.3708   -3.9633 C   0  0  0  0  0  0  0  0  0  0  0  0
    4.8322    4.0248   -4.4663 S   0  0  0  0  0  0  0  0  0  0  0  0
    4.3029    5.6245   -5.2023 C   0  0  0  0  0  0  0  0  0  0  0  0
    2.1740    4.2403   -3.5547 C   0  0  0  0  0  0  0  0  0  0  0  0
    1.0041    3.6666   -3.0005 C   0  0  0  0  0  0  0  0  0  0  0  0
   -0.7134    2.4443   -0.8961 C   0  0  0  0  0  0  0  0  0  0  0  0
   -2.1713    2.6244   -0.6490 C   0  0  0  0  0  0  0  0  0  0  0  0
   -2.6664    3.4173    0.4534 C   0  0  0  0  0  0  0  0  0  0  0  0
   -1.7316    4.0280    1.3007 C   0  0  0  0  0  0  0  0  0  0  0  0
   -2.3025    5.2935    2.4305 S   0  0  0  0  0  0  0  0  0  0  0  0
   -2.5829    4.3206    3.9313 C   0  0  0  0  0  0  0  0  0  0  0  0
   -0.3127    3.8154    1.0620 C   0  0  0  0  0  0  0  0  0  0  0  0
    0.1874    3.0147   -0.0081 C   0  0  0  0  0  0  0  0  0  0  0  0
   -0.0102   -0.6702   -1.4988 C   0  0  0  0  0  0  0  0  0  0  0  0
    0.9448   -0.5746   -0.1258 S   0  0  0  0  0  0  0  0  0  0  0  0
   -2.5536    0.5734   -3.7525 C   0  0  0  0  0  0  0  0  0  0  0  0
   -2.5456    1.8925   -4.1786 C   0  0  0  0  0  0  0  0  0  0  0  0
   -3.7108    2.6697   -4.0994 C   0  0  0  0  0  0  0  0  0  0  0  0
   -3.5678    4.0788   -4.3765 N   0  0  0  0  0  0  0  0  0  0  0  0
   -1.9952    4.0932   -4.7223 S   0  0  0  0  0  4  0  0  0  0  0  0
   -1.4154    2.6380   -4.5945 N   0  0  0  0  0  0  0  0  0  0  0  0
   -4.9081    2.1228   -3.6703 C   0  0  0  0  0  0  0  0  0  0  0  0
   -5.0055    0.7908   -3.5430 C   0  0  0  0  0  0  0  0  0  0  0  0
   -6.2223    0.1891   -3.2414 N   0  0  0  0  0  0  0  0  0  0  0  0
   -5.6563   -1.2999   -2.9163 S   0  0  0  0  0  0  0  0  0  0  0  0
   -4.0158   -1.2639   -3.2021 N   0  0  0  0  0  0  0  0  0  0  0  0
   -3.8210    0.0237   -3.5553 C   0  0  0  0  0  0  0  0  0  0  0  0
   -6.1110    2.9891   -3.4545 C   0  0  0  0  0  0  0  0  0  0  0  0
   -6.7802    3.0600   -2.2495 C   0  0  0  0  0  0  0  0  0  0  0  0
   -6.3703    2.2795   -1.0466 C   0  0  0  0  0  0  0  0  0  0  0  0
   -5.2877    1.6146   -0.8465 O   0  0  0  0  0  0  0  0  0  0  0  0
   -7.4425    2.4655   -0.0798 C   0  0  0  0  0  0  0  0  0  0  0  0
   -7.5528    1.8121    1.1762 C   0  0  0  0  0  0  0  0  0  0  0  0
   -6.3057    0.6471    1.7751 Cl  0  0  0  0  0  0  0  0  0  0  0  0
   -8.6937    2.1129    1.9707 C   0  0  0  0  0  0  0  0  0  0  0  0
   -8.9240    1.3557    3.5740 Cl  0  0  0  0  0  0  0  0  0  0  0  0
   -9.6683    3.0001    1.4355 C   0  0  0  0  0  0  0  0  0  0  0  0
  -11.1278    3.3348    2.4201 Cl  0  0  0  0  0  0  0  0  0  0  0  0
   -9.5721    3.6347    0.1469 C   0  0  0  0  0  0  0  0  0  0  0  0
  -11.0151    4.5628   -0.4210 Cl  0  0  0  0  0  0  0  0  0  0  0  0
   -8.3621    3.3965   -0.5523 C   0  0  0  0  0  0  0  0  0  0  0  0
   -7.9238    3.9522   -1.8622 C   0  0  0  0  0  0  0  0  0  0  0  0
   -8.1702    5.1401   -2.4943 C   0  0  0  0  0  0  0  0  0  0  0  0
   -7.4259    5.6521   -3.5903 C   0  0  0  0  0  0  0  0  0  0  0  0
   -6.7417    6.1142   -4.4310 N   0  0  0  0  0  0  0  0  0  0  0  0
   -8.8959    6.1839   -1.8983 C   0  0  0  0  0  0  0  0  0  0  0  0
   -9.5143    7.0308   -1.3985 N   0  0  0  0  0  0  0  0  0  0  0  0
    3.9752   -4.6012    4.8545 H   0  0  0  0  0  0  0  0  0  0  0  0
    1.4486   -2.4645    4.6854 H   0  0  0  0  0  0  0  0  0  0  0  0
   -3.7073   -3.5196    1.7061 H   0  0  0  0  0  0  0  0  0  0  0  0
   -2.9430   -4.7862    0.6361 H   0  0  0  0  0  0  0  0  0  0  0  0
   -3.5334   -3.5086   -1.2668 H   0  0  0  0  0  0  0  0  0  0  0  0
   -2.5144   -2.1430   -0.6962 H   0  0  0  0  0  0  0  0  0  0  0  0
   -4.1653   -2.2167   -0.1812 H   0  0  0  0  0  0  0  0  0  0  0  0
   -3.5105   -0.9154    1.6358 H   0  0  0  0  0  0  0  0  0  0  0  0
   -3.0940    1.1803    2.3173 H   0  0  0  0  0  0  0  0  0  0  0  0
   -0.8783    1.7911    3.3792 H   0  0  0  0  0  0  0  0  0  0  0  0
    2.9665    0.9243    4.4985 H   0  0  0  0  0  0  0  0  0  0  0  0
    1.4087    1.2953    5.2181 H   0  0  0  0  0  0  0  0  0  0  0  0
    0.9208    3.0407    3.6020 H   0  0  0  0  0  0  0  0  0  0  0  0
    1.9287    2.1816    2.3107 H   0  0  0  0  0  0  0  0  0  0  0  0
    2.7234    3.0514    3.7083 H   0  0  0  0  0  0  0  0  0  0  0  0
    1.8553   -6.3742   -0.2212 H   0  0  0  0  0  0  0  0  0  0  0  0
    4.1038   -7.1630   -0.4648 H   0  0  0  0  0  0  0  0  0  0  0  0
    7.7591   -6.3505    0.3569 H   0  0  0  0  0  0  0  0  0  0  0  0
    7.4900   -7.9083   -0.6556 H   0  0  0  0  0  0  0  0  0  0  0  0
    6.1781   -7.2169    0.3367 H   0  0  0  0  0  0  0  0  0  0  0  0
    5.1940   -3.5076   -2.6982 H   0  0  0  0  0  0  0  0  0  0  0  0
    2.9014   -2.8725   -2.5409 H   0  0  0  0  0  0  0  0  0  0  0  0
   -1.9192   -4.7741   -1.5375 H   0  0  0  0  0  0  0  0  0  0  0  0
   -2.9194   -6.5215   -3.0918 H   0  0  0  0  0  0  0  0  0  0  0  0
   -0.5790  -10.0948   -4.1239 H   0  0  0  0  0  0  0  0  0  0  0  0
   -1.8823  -10.6697   -5.2437 H   0  0  0  0  0  0  0  0  0  0  0  0
   -2.3123  -10.0886   -3.6488 H   0  0  0  0  0  0  0  0  0  0  0  0
    0.9825   -7.5258   -4.8420 H   0  0  0  0  0  0  0  0  0  0  0  0
    1.8856   -5.8935   -3.6304 H   0  0  0  0  0  0  0  0  0  0  0  0
    1.9679    0.2900   -3.0014 H   0  0  0  0  0  0  0  0  0  0  0  0
    3.9247    1.3207   -3.9485 H   0  0  0  0  0  0  0  0  0  0  0  0
    3.3967    5.5497   -5.8914 H   0  0  0  0  0  0  0  0  0  0  0  0
    5.1634    5.9185   -5.7962 H   0  0  0  0  0  0  0  0  0  0  0  0
    4.2331    6.4218   -4.4126 H   0  0  0  0  0  0  0  0  0  0  0  0
    2.1633    5.3398   -3.6507 H   0  0  0  0  0  0  0  0  0  0  0  0
    0.1511    4.2816   -2.6819 H   0  0  0  0  0  0  0  0  0  0  0  0
   -2.7951    2.1748   -1.3620 H   0  0  0  0  0  0  0  0  0  0  0  0
   -3.7988    3.6019    0.4728 H   0  0  0  0  0  0  0  0  0  0  0  0
   -2.0064    4.7565    4.7966 H   0  0  0  0  0  0  0  0  0  0  0  0
   -2.3148    3.2469    3.9151 H   0  0  0  0  0  0  0  0  0  0  0  0
   -3.6340    4.3968    4.2362 H   0  0  0  0  0  0  0  0  0  0  0  0
    0.4419    4.3720    1.6321 H   0  0  0  0  0  0  0  0  0  0  0  0
    1.3811    2.9454   -0.1545 H   0  0  0  0  0  0  0  0  0  0  0  0
   -6.4549    3.4800   -4.3485 H   0  0  0  0  0  0  0  0  0  0  0  0
  1  2  2  3
  2  3  1  0
  3  4  2  0
  3  5  1  0
  5  6  2  0
  6  7  1  0
  6  8  1  0
  8  9  1  0
  8 10  2  0
 10 11  1  0
 10 12  1  0
 12 13  1  0
 12 14  2  0
 14 15  1  0
 15 16  2  3
 16 17  1  0
 17 18  3  0
 16 19  1  0
 19 20  3  0
  1 21  1  0
 21 22  2  0
 22 23  1  0
 23 24  1  0
 24 25  2  0
 25 26  1  0
 26 27  1  0
 27 28  1  0
 25 29  1  0
 29 30  2  0
 30 31  1  0
 31 32  2  0
 32 33  1  0
 33 34  1  0
 34 35  1  0
 23 36  2  0
 36 37  1  0
 36 38  1  0
 38 39  2  0
 39 40  1  0
 40 41  1  0
 41 42  2  0
 42 43  1  0
 43 44  2  0
 44 45  1  0
 45 46  1  0
 44 47  1  0
 47 48  2  0
 40 49  1  0
 49 50  2  0
 50 51  1  0
 51 52  2  0
 52 53  1  0
 53 54  1  0
 52 55  1  0
 55 56  2  0
 39 57  1  0
 57 58  1  0
 58 59  1  0
 59 60  2  0
 60 61  1  0
 61 62  1  0
 62 63  2  0
 63 64  1  0
 64 65  2  0
 65 66  1  0
 66 67  1  0
 65 68  1  0
 68 69  2  0
 61 70  1  0
 70 71  2  0
 71 72  1  0
 72 73  2  0
 73 74  1  0
 74 75  1  0
 73 76  1  0
 76 77  2  0
 60 78  1  0
 78 79  1  0
 59 80  1  0
 80 81  2  0
 81 82  1  0
 82 83  1  0
 83 84  2  0
 84 85  2  0
 82 86  2  0
 86 87  1  0
 87 88  2  0
 88 89  1  0
 89 90  1  0
 90 91  2  0
 86 92  1  0
 92 93  2  3
 93 94  1  0
 94 95  2  0
 94 96  1  0
 96 97  2  0
 97 98  1  0
 97 99  1  0
 99100  1  0
 99101  2  0
101102  1  0
101103  1  0
103104  1  0
103105  2  0
105106  1  0
106107  2  3
107108  1  0
108109  3  0
107110  1  0
110111  3  0
 15  2  1  0
 37 21  1  0
 79 38  1  0
 91 80  1  0
106 93  1  0
 14  5  1  0
 32 24  1  0
 48 41  1  0
 56 49  1  0
 78 57  2  0
 85 81  1  0
 91 87  1  0
105 96  1  0
 69 62  1  0
 77 70  1  0
  1112  1  0
 22113  1  0
 27114  1  0
 27115  1  0
 28116  1  0
 28117  1  0
 28118  1  0
 29119  1  0
 30120  1  0
 31121  1  0
 34122  1  0
 34123  1  0
 35124  1  0
 35125  1  0
 35126  1  0
 42127  1  0
 43128  1  0
 46129  1  0
 46130  1  0
 46131  1  0
 47132  1  0
 48133  1  0
 50134  1  0
 51135  1  0
 54136  1  0
 54137  1  0
 54138  1  0
 55139  1  0
 56140  1  0
 63141  1  0
 64142  1  0
 67143  1  0
 67144  1  0
 67145  1  0
 68146  1  0
 69147  1  0
 71148  1  0
 72149  1  0
 75150  1  0
 75151  1  0
 75152  1  0
 76153  1  0
 77154  1  0
 92155  1  0
M  END

