
     RDKit          3D

191207  0  0  0  0  0  0  0  0999 V2000
    0.8446   -1.8507   -7.6719 C   0  0  0  0  0  0  0  0  0  0  0  0
    1.0121   -3.0476   -8.2505 C   0  0  0  0  0  0  0  0  0  0  0  0
    1.3670   -3.2066   -9.6502 C   0  0  0  0  0  0  0  0  0  0  0  0
    1.5654   -2.2684  -10.4688 O   0  0  0  0  0  0  0  0  0  0  0  0
    1.4361   -4.6203   -9.9469 C   0  0  0  0  0  0  0  0  0  0  0  0
    1.6445   -5.2331  -11.1887 C   0  0  0  0  0  0  0  0  0  0  0  0
    1.9723   -4.2754  -12.6289 Cl  0  0  0  0  0  0  0  0  0  0  0  0
    1.5591   -6.6323  -11.2642 C   0  0  0  0  0  0  0  0  0  0  0  0
    1.7923   -7.4451  -12.8135 Cl  0  0  0  0  0  0  0  0  0  0  0  0
    1.2630   -7.3885  -10.1073 C   0  0  0  0  0  0  0  0  0  0  0  0
    1.1306   -9.1481  -10.2295 Cl  0  0  0  0  0  0  0  0  0  0  0  0
    1.0667   -6.7515   -8.8595 C   0  0  0  0  0  0  0  0  0  0  0  0
    0.7148   -7.7481   -7.4522 Cl  0  0  0  0  0  0  0  0  0  0  0  0
    1.1592   -5.3429   -8.7906 C   0  0  0  0  0  0  0  0  0  0  0  0
    0.9125   -4.4016   -7.6430 C   0  0  0  0  0  0  0  0  0  0  0  0
    0.0345   -4.6814   -6.6672 C   0  0  0  0  0  0  0  0  0  0  0  0
   -1.3500   -4.3010   -6.7865 C   0  0  0  0  0  0  0  0  0  0  0  0
   -2.4684   -4.0163   -6.8811 N   0  0  0  0  0  0  0  0  0  0  0  0
    0.4365   -5.4369   -5.5105 C   0  0  0  0  0  0  0  0  0  0  0  0
    0.7643   -6.0499   -4.5833 N   0  0  0  0  0  0  0  0  0  0  0  0
    0.5334   -1.6501   -6.2577 C   0  0  0  0  0  0  0  0  0  0  0  0
    1.4646   -1.5444   -5.2100 C   0  0  0  0  0  0  0  0  0  0  0  0
    2.8780   -1.7877   -5.3212 N   0  0  0  0  0  0  0  0  0  0  0  0
    3.4838   -2.9710   -4.7424 C   0  0  0  0  0  0  0  0  0  0  0  0
    2.8137   -3.7442   -3.7728 C   0  0  0  0  0  0  0  0  0  0  0  0
    3.4495   -4.8323   -3.1679 C   0  0  0  0  0  0  0  0  0  0  0  0
    4.7559   -5.1705   -3.5241 C   0  0  0  0  0  0  0  0  0  0  0  0
    5.5733   -6.5541   -2.7294 S   0  0  0  0  0  0  0  0  0  0  0  0
    6.2294   -5.5472   -1.3619 C   0  0  0  0  0  0  0  0  0  0  0  0
    5.4223   -4.4313   -4.5049 C   0  0  0  0  0  0  0  0  0  0  0  0
    4.7921   -3.3442   -5.1128 C   0  0  0  0  0  0  0  0  0  0  0  0
    3.7170   -0.6603   -5.6247 C   0  0  0  0  0  0  0  0  0  0  0  0
    4.4797   -0.0597   -4.6100 C   0  0  0  0  0  0  0  0  0  0  0  0
    5.2973    1.0362   -4.8970 C   0  0  0  0  0  0  0  0  0  0  0  0
    5.3611    1.5442   -6.1985 C   0  0  0  0  0  0  0  0  0  0  0  0
    6.3772    2.9766   -6.5538 S   0  0  0  0  0  0  0  0  0  0  0  0
    7.8152    1.9849   -7.0620 C   0  0  0  0  0  0  0  0  0  0  0  0
    4.6192    0.9360   -7.2190 C   0  0  0  0  0  0  0  0  0  0  0  0
    3.8123   -0.1701   -6.9369 C   0  0  0  0  0  0  0  0  0  0  0  0
    0.8601   -1.0381   -4.0633 C   0  0  0  0  0  0  0  0  0  0  0  0
    1.4038   -0.6719   -2.5276 S   0  0  0  0  0  0  0  0  0  0  0  0
   -0.1143   -0.1081   -1.9894 C   0  0  0  0  0  0  0  0  0  0  0  0
   -1.0571   -0.2411   -3.0242 C   0  0  0  0  0  0  0  0  0  0  0  0
   -2.4758   -0.0811   -2.8759 N   0  0  0  0  0  0  0  0  0  0  0  0
   -3.0771    1.1993   -3.1337 C   0  0  0  0  0  0  0  0  0  0  0  0
   -4.0169    1.7203   -2.2321 C   0  0  0  0  0  0  0  0  0  0  0  0
   -4.6474    2.9379   -2.4931 C   0  0  0  0  0  0  0  0  0  0  0  0
   -4.3650    3.6380   -3.6694 C   0  0  0  0  0  0  0  0  0  0  0  0
   -5.1412    5.2213   -3.9756 S   0  0  0  0  0  0  0  0  0  0  0  0
   -3.7755    6.1691   -3.2266 C   0  0  0  0  0  0  0  0  0  0  0  0
   -3.4642    3.1031   -4.5977 C   0  0  0  0  0  0  0  0  0  0  0  0
   -2.8092    1.8971   -4.3243 C   0  0  0  0  0  0  0  0  0  0  0  0
   -3.3113   -1.2318   -2.6148 C   0  0  0  0  0  0  0  0  0  0  0  0
   -4.6144   -1.3044   -3.1496 C   0  0  0  0  0  0  0  0  0  0  0  0
   -5.4481   -2.3822   -2.8478 C   0  0  0  0  0  0  0  0  0  0  0  0
   -4.9971   -3.4050   -2.0123 C   0  0  0  0  0  0  0  0  0  0  0  0
   -6.0975   -4.7432   -1.5509 S   0  0  0  0  0  0  0  0  0  0  0  0
   -6.7171   -3.8770   -0.0752 C   0  0  0  0  0  0  0  0  0  0  0  0
   -3.6898   -3.3733   -1.5176 C   0  0  0  0  0  0  0  0  0  0  0  0
   -2.8487   -2.2958   -1.8160 C   0  0  0  0  0  0  0  0  0  0  0  0
   -0.4620   -0.7619   -4.1684 C   0  0  0  0  0  0  0  0  0  0  0  0
   -0.9913   -1.1027   -5.7190 S   0  0  0  0  0  0  0  0  0  0  0  0
   -0.3451    0.3136   -0.6030 C   0  0  0  0  0  0  0  0  0  0  0  0
   -0.4617    1.6346   -0.1122 C   0  0  0  0  0  0  0  0  0  0  0  0
   -0.6731    2.8328   -0.8963 N   0  0  0  0  0  0  0  0  0  0  0  0
    0.0603    3.0732   -2.1187 C   0  0  0  0  0  0  0  0  0  0  0  0
   -0.5324    3.7957   -3.1681 C   0  0  0  0  0  0  0  0  0  0  0  0
    0.1230    3.9467   -4.3877 C   0  0  0  0  0  0  0  0  0  0  0  0
    1.3865    3.3790   -4.5765 C   0  0  0  0  0  0  0  0  0  0  0  0
    2.1542    3.4341   -6.1940 S   0  0  0  0  0  0  0  0  0  0  0  0
    1.2146    1.9934   -6.7988 C   0  0  0  0  0  0  0  0  0  0  0  0
    2.0242    2.7370   -3.5092 C   0  0  0  0  0  0  0  0  0  0  0  0
    1.3748    2.6058   -2.2803 C   0  0  0  0  0  0  0  0  0  0  0  0
   -1.5471    3.8567   -0.3644 C   0  0  0  0  0  0  0  0  0  0  0  0
   -2.7456    3.5050    0.2859 C   0  0  0  0  0  0  0  0  0  0  0  0
   -3.5246    4.4768    0.9157 C   0  0  0  0  0  0  0  0  0  0  0  0
   -3.1142    5.8137    0.9088 C   0  0  0  0  0  0  0  0  0  0  0  0
   -4.0451    7.0383    1.8272 S   0  0  0  0  0  0  0  0  0  0  0  0
   -3.0869    6.7629    3.3544 C   0  0  0  0  0  0  0  0  0  0  0  0
   -1.9474    6.1827    0.2342 C   0  0  0  0  0  0  0  0  0  0  0  0
   -1.1640    5.2100   -0.3949 C   0  0  0  0  0  0  0  0  0  0  0  0
   -0.3207    1.6539    1.2791 C   0  0  0  0  0  0  0  0  0  0  0  0
   -0.1671    2.8871    2.4034 S   0  0  0  0  0  0  0  0  0  0  0  0
    0.1359    1.8401    3.7038 C   0  0  0  0  0  0  0  0  0  0  0  0
    0.1365    0.5048    3.2549 C   0  0  0  0  0  0  0  0  0  0  0  0
    0.4198   -0.6491    4.0728 N   0  0  0  0  0  0  0  0  0  0  0  0
    1.4433   -0.5676    5.0747 C   0  0  0  0  0  0  0  0  0  0  0  0
    2.7595   -0.2500    4.7117 C   0  0  0  0  0  0  0  0  0  0  0  0
    3.7561   -0.1733    5.6886 C   0  0  0  0  0  0  0  0  0  0  0  0
    3.4398   -0.4017    7.0325 C   0  0  0  0  0  0  0  0  0  0  0  0
    4.7178   -0.3031    8.2863 S   0  0  0  0  0  0  0  0  0  0  0  0
    5.1298   -2.0719    8.1736 C   0  0  0  0  0  0  0  0  0  0  0  0
    2.1236   -0.7123    7.3968 C   0  0  0  0  0  0  0  0  0  0  0  0
    1.1305   -0.8012    6.4203 C   0  0  0  0  0  0  0  0  0  0  0  0
   -0.2301   -1.9130    3.8179 C   0  0  0  0  0  0  0  0  0  0  0  0
    0.4870   -3.1199    3.9191 C   0  0  0  0  0  0  0  0  0  0  0  0
   -0.1164   -4.3338    3.5801 C   0  0  0  0  0  0  0  0  0  0  0  0
   -1.4371   -4.3580    3.1181 C   0  0  0  0  0  0  0  0  0  0  0  0
   -2.1743   -5.9026    2.5809 S   0  0  0  0  0  0  0  0  0  0  0  0
   -1.4253   -5.8198    0.9227 C   0  0  0  0  0  0  0  0  0  0  0  0
   -2.1682   -3.1672    3.0425 C   0  0  0  0  0  0  0  0  0  0  0  0
   -1.5747   -1.9543    3.4051 C   0  0  0  0  0  0  0  0  0  0  0  0
   -0.1134    0.4547    1.8787 C   0  0  0  0  0  0  0  0  0  0  0  0
   -0.0460   -0.7376    0.7054 S   0  0  0  0  0  0  0  0  0  0  0  0
    0.4202    2.3335    5.0504 C   0  0  0  0  0  0  0  0  0  0  0  0
    1.6730    2.8897    5.3350 C   0  0  0  0  0  0  0  0  0  0  0  0
    1.8736    3.5467    6.5491 C   0  0  0  0  0  0  0  0  0  0  0  0
    0.8299    3.6394    7.4765 C   0  0  0  0  0  0  0  0  0  0  0  0
   -0.4076    3.0541    7.1559 C   0  0  0  0  0  0  0  0  0  0  0  0
   -0.5835    2.4336    5.9589 N   0  0  0  0  0  0  0  0  0  0  0  0
    0.9898    4.5076    8.6602 C   0  0  0  0  0  0  0  0  0  0  0  0
    0.5153    4.2344    9.8874 C   0  0  0  0  0  0  0  0  0  0  0  0
    0.1976    2.8920   10.3925 C   0  0  0  0  0  0  0  0  0  0  0  0
    0.1530    1.8252    9.7226 O   0  0  0  0  0  0  0  0  0  0  0  0
    0.1087    2.9647   11.8374 C   0  0  0  0  0  0  0  0  0  0  0  0
    0.3358    4.2669   12.2570 C   0  0  0  0  0  0  0  0  0  0  0  0
    0.3694    4.5569   13.6298 C   0  0  0  0  0  0  0  0  0  0  0  0
    0.1437    3.5263   14.5521 C   0  0  0  0  0  0  0  0  0  0  0  0
    0.1727    3.7971   15.8802 F   0  0  0  0  0  0  0  0  0  0  0  0
   -0.0954    2.2135   14.1110 C   0  0  0  0  0  0  0  0  0  0  0  0
   -0.3086    1.2232   15.0130 F   0  0  0  0  0  0  0  0  0  0  0  0
   -0.1056    1.9220   12.7405 C   0  0  0  0  0  0  0  0  0  0  0  0
   -0.3186    0.6524   12.3096 F   0  0  0  0  0  0  0  0  0  0  0  0
    0.5315    5.1488   11.0689 C   0  0  0  0  0  0  0  0  0  0  0  0
    0.5076    6.5085   11.0419 C   0  0  0  0  0  0  0  0  0  0  0  0
    0.4439    7.3109   12.2346 C   0  0  0  0  0  0  0  0  0  0  0  0
    0.3946    7.9791   13.1790 N   0  0  0  0  0  0  0  0  0  0  0  0
    0.4412    7.2534    9.8115 C   0  0  0  0  0  0  0  0  0  0  0  0
    0.3928    7.8578    8.8245 N   0  0  0  0  0  0  0  0  0  0  0  0
    0.9056   -0.9589   -8.2797 H   0  0  0  0  0  0  0  0  0  0  0  0
    1.8042   -3.5080   -3.4673 H   0  0  0  0  0  0  0  0  0  0  0  0
    2.9226   -5.4072   -2.4185 H   0  0  0  0  0  0  0  0  0  0  0  0
    6.8757   -6.1824   -0.7227 H   0  0  0  0  0  0  0  0  0  0  0  0
    6.8338   -4.7093   -1.7627 H   0  0  0  0  0  0  0  0  0  0  0  0
    5.3960   -5.1498   -0.7485 H   0  0  0  0  0  0  0  0  0  0  0  0
    6.4331   -4.6912   -4.7926 H   0  0  0  0  0  0  0  0  0  0  0  0
    5.3312   -2.7792   -5.8654 H   0  0  0  0  0  0  0  0  0  0  0  0
    4.4318   -0.4329   -3.5952 H   0  0  0  0  0  0  0  0  0  0  0  0
    5.8702    1.4950   -4.1021 H   0  0  0  0  0  0  0  0  0  0  0  0
    8.0736    1.2468   -6.2749 H   0  0  0  0  0  0  0  0  0  0  0  0
    7.5858    1.4575   -8.0112 H   0  0  0  0  0  0  0  0  0  0  0  0
    8.6825    2.6554   -7.2211 H   0  0  0  0  0  0  0  0  0  0  0  0
    4.6654    1.3176   -8.2304 H   0  0  0  0  0  0  0  0  0  0  0  0
    3.2627   -0.6404   -7.7369 H   0  0  0  0  0  0  0  0  0  0  0  0
   -4.2592    1.1848   -1.3224 H   0  0  0  0  0  0  0  0  0  0  0  0
   -5.3482    3.3424   -1.7742 H   0  0  0  0  0  0  0  0  0  0  0  0
   -4.1211    7.2009   -3.0232 H   0  0  0  0  0  0  0  0  0  0  0  0
   -3.4543    5.7090   -2.2708 H   0  0  0  0  0  0  0  0  0  0  0  0
   -2.9157    6.2024   -3.9265 H   0  0  0  0  0  0  0  0  0  0  0  0
   -3.2430    3.6358   -5.5146 H   0  0  0  0  0  0  0  0  0  0  0  0
   -2.1078    1.5031   -5.0459 H   0  0  0  0  0  0  0  0  0  0  0  0
   -4.9927   -0.5216   -3.7904 H   0  0  0  0  0  0  0  0  0  0  0  0
   -6.4528   -2.4086   -3.2471 H   0  0  0  0  0  0  0  0  0  0  0  0
   -7.2153   -2.9292   -0.3744 H   0  0  0  0  0  0  0  0  0  0  0  0
   -7.4559   -4.5214    0.4430 H   0  0  0  0  0  0  0  0  0  0  0  0
   -5.8818   -3.6540    0.6220 H   0  0  0  0  0  0  0  0  0  0  0  0
   -3.3374   -4.1732   -0.8825 H   0  0  0  0  0  0  0  0  0  0  0  0
   -1.8521   -2.2862   -1.3984 H   0  0  0  0  0  0  0  0  0  0  0  0
   -1.5179    4.2190   -3.0498 H   0  0  0  0  0  0  0  0  0  0  0  0
   -0.3722    4.4633   -5.2012 H   0  0  0  0  0  0  0  0  0  0  0  0
    1.5897    1.7001   -7.7990 H   0  0  0  0  0  0  0  0  0  0  0  0
    0.1320    2.2362   -6.8741 H   0  0  0  0  0  0  0  0  0  0  0  0
    1.3448    1.1444   -6.1013 H   0  0  0  0  0  0  0  0  0  0  0  0
    3.0108    2.3179   -3.6414 H   0  0  0  0  0  0  0  0  0  0  0  0
    1.8833    2.1057   -1.4676 H   0  0  0  0  0  0  0  0  0  0  0  0
   -3.0521    2.4696    0.3421 H   0  0  0  0  0  0  0  0  0  0  0  0
   -4.4259    4.1841    1.4347 H   0  0  0  0  0  0  0  0  0  0  0  0
   -3.1869    5.7069    3.6834 H   0  0  0  0  0  0  0  0  0  0  0  0
   -3.4749    7.4280    4.1521 H   0  0  0  0  0  0  0  0  0  0  0  0
   -2.0161    6.9964    3.1771 H   0  0  0  0  0  0  0  0  0  0  0  0
   -1.6300    7.2166    0.2197 H   0  0  0  0  0  0  0  0  0  0  0  0
   -0.2392    5.5108   -0.8706 H   0  0  0  0  0  0  0  0  0  0  0  0
    3.0091   -0.0648    3.6752 H   0  0  0  0  0  0  0  0  0  0  0  0
    4.7710    0.0713    5.3982 H   0  0  0  0  0  0  0  0  0  0  0  0
    5.9121   -2.3134    8.9212 H   0  0  0  0  0  0  0  0  0  0  0  0
    5.5146   -2.3178    7.1613 H   0  0  0  0  0  0  0  0  0  0  0  0
    4.2312   -2.6841    8.3877 H   0  0  0  0  0  0  0  0  0  0  0  0
    1.8720   -0.8814    8.4358 H   0  0  0  0  0  0  0  0  0  0  0  0
    0.1146   -1.0381    6.7081 H   0  0  0  0  0  0  0  0  0  0  0  0
    1.5251   -3.1216    4.2284 H   0  0  0  0  0  0  0  0  0  0  0  0
    0.4583   -5.2495    3.6416 H   0  0  0  0  0  0  0  0  0  0  0  0
   -1.5800   -4.8199    0.4737 H   0  0  0  0  0  0  0  0  0  0  0  0
   -0.3369   -6.0248    0.9865 H   0  0  0  0  0  0  0  0  0  0  0  0
   -1.8973   -6.5837    0.2730 H   0  0  0  0  0  0  0  0  0  0  0  0
   -3.1901   -3.1792    2.6842 H   0  0  0  0  0  0  0  0  0  0  0  0
   -2.1561   -1.0441    3.3326 H   0  0  0  0  0  0  0  0  0  0  0  0
    2.4738    2.8500    4.6055 H   0  0  0  0  0  0  0  0  0  0  0  0
    2.8318    4.0120    6.7493 H   0  0  0  0  0  0  0  0  0  0  0  0
   -1.2493    3.1504    7.8280 H   0  0  0  0  0  0  0  0  0  0  0  0
    1.5414    5.4207    8.4993 H   0  0  0  0  0  0  0  0  0  0  0  0
    0.5805    5.5408   14.0096 H   0  0  0  0  0  0  0  0  0  0  0  0
  1  2  2  3
  2  3  1  0
  3  4  2  0
  3  5  1  0
  5  6  2  0
  6  7  1  0
  6  8  1  0
  8  9  1  0
  8 10  2  0
 10 11  1  0
 10 12  1  0
 12 13  1  0
 12 14  2  0
 14 15  1  0
 15 16  2  3
 16 17  1  0
 17 18  3  0
 16 19  1  0
 19 20  3  0
  1 21  1  0
 21 22  2  0
 22 23  1  0
 23 24  1  0
 24 25  2  0
 25 26  1  0
 26 27  2  0
 27 28  1  0
 28 29  1  0
 27 30  1  0
 30 31  2  0
 23 32  1  0
 32 33  2  0
 33 34  1  0
 34 35  2  0
 35 36  1  0
 36 37  1  0
 35 38  1  0
 38 39  2  0
 22 40  1  0
 40 41  1  0
 41 42  1  0
 42 43  2  0
 43 44  1  0
 44 45  1  0
 45 46  2  0
 46 47  1  0
 47 48  2  0
 48 49  1  0
 49 50  1  0
 48 51  1  0
 51 52  2  0
 44 53  1  0
 53 54  2  0
 54 55  1  0
 55 56  2  0
 56 57  1  0
 57 58  1  0
 56 59  1  0
 59 60  2  0
 43 61  1  0
 61 62  1  0
 42 63  1  0
 63 64  2  0
 64 65  1  0
 65 66  1  0
 66 67  2  0
 67 68  1  0
 68 69  2  0
 69 70  1  0
 70 71  1  0
 69 72  1  0
 72 73  2  0
 65 74  1  0
 74 75  2  0
 75 76  1  0
 76 77  2  0
 77 78  1  0
 78 79  1  0
 77 80  1  0
 80 81  2  0
 64 82  1  0
 82 83  1  0
 83 84  1  0
 84 85  2  0
 85 86  1  0
 86 87  1  0
 87 88  2  0
 88 89  1  0
 89 90  2  0
 90 91  1  0
 91 92  1  0
 90 93  1  0
 93 94  2  0
 86 95  1  0
 95 96  2  0
 96 97  1  0
 97 98  2  0
 98 99  1  0
 99100  1  0
 98101  1  0
101102  2  0
 85103  1  0
103104  1  0
 84105  1  0
105106  2  0
106107  1  0
107108  2  0
108109  1  0
109110  2  0
108111  1  0
111112  2  3
112113  1  0
113114  2  0
113115  1  0
115116  2  0
116117  1  0
117118  2  0
118119  1  0
118120  1  0
120121  1  0
120122  2  0
122123  1  0
116124  1  0
124125  2  3
125126  1  0
126127  3  0
125128  1  0
128129  3  0
 15  2  1  0
 62 21  1  0
104 63  1  0
110105  1  0
124112  1  0
 14  5  1  0
 31 24  1  0
 39 32  1  0
 61 40  2  0
 73 66  1  0
 81 74  1  0
103 82  2  0
122115  1  0
 52 45  1  0
 60 53  1  0
 94 87  1  0
102 95  1  0
  1130  1  0
 25131  1  0
 26132  1  0
 29133  1  0
 29134  1  0
 29135  1  0
 30136  1  0
 31137  1  0
 33138  1  0
 34139  1  0
 37140  1  0
 37141  1  0
 37142  1  0
 38143  1  0
 39144  1  0
 46145  1  0
 47146  1  0
 50147  1  0
 50148  1  0
 50149  1  0
 51150  1  0
 52151  1  0
 54152  1  0
 55153  1  0
 58154  1  0
 58155  1  0
 58156  1  0
 59157  1  0
 60158  1  0
 67159  1  0
 68160  1  0
 71161  1  0
 71162  1  0
 71163  1  0
 72164  1  0
 73165  1  0
 75166  1  0
 76167  1  0
 79168  1  0
 79169  1  0
 79170  1  0
 80171  1  0
 81172  1  0
 88173  1  0
 89174  1  0
 92175  1  0
 92176  1  0
 92177  1  0
 93178  1  0
 94179  1  0
 96180  1  0
 97181  1  0
100182  1  0
100183  1  0
100184  1  0
101185  1  0
102186  1  0
106187  1  0
107188  1  0
109189  1  0
111190  1  0
117191  1  0
M  END

