
     RDKit          3D

131144  0  0  0  0  0  0  0  0999 V2000
    7.5084    0.2777   -0.5072 C   0  0  0  0  0  0  0  0  0  0  0  0
    8.4588   -0.2177    0.3129 C   0  0  0  0  0  0  0  0  0  0  0  0
    9.5965    0.5992    0.7169 C   0  0  0  0  0  0  0  0  0  0  0  0
   10.0045    1.6300    0.1155 O   0  0  0  0  0  0  0  0  0  0  0  0
   10.1524    0.0592    1.9462 C   0  0  0  0  0  0  0  0  0  0  0  0
   11.2118    0.5634    2.7111 C   0  0  0  0  0  0  0  0  0  0  0  0
   11.9605    2.1102    2.3137 Cl  0  0  0  0  0  0  0  0  0  0  0  0
   11.6652   -0.1921    3.8056 C   0  0  0  0  0  0  0  0  0  0  0  0
   12.9693    0.4314    4.8239 Cl  0  0  0  0  0  0  0  0  0  0  0  0
   11.1184   -1.4705    4.0552 C   0  0  0  0  0  0  0  0  0  0  0  0
   11.7826   -2.4599    5.3599 Cl  0  0  0  0  0  0  0  0  0  0  0  0
   10.0751   -1.9767    3.2460 C   0  0  0  0  0  0  0  0  0  0  0  0
    9.7180   -3.7008    3.3372 Cl  0  0  0  0  0  0  0  0  0  0  0  0
    9.5089   -1.1315    2.2619 C   0  0  0  0  0  0  0  0  0  0  0  0
    8.4114   -1.3646    1.2693 C   0  0  0  0  0  0  0  0  0  0  0  0
    7.5368   -2.3919    1.2392 C   0  0  0  0  0  0  0  0  0  0  0  0
    6.9736   -2.8689    0.0012 C   0  0  0  0  0  0  0  0  0  0  0  0
    6.5260   -3.2611   -0.9908 N   0  0  0  0  0  0  0  0  0  0  0  0
    6.9890   -2.9473    2.4493 C   0  0  0  0  0  0  0  0  0  0  0  0
    6.5330   -3.3871    3.4180 N   0  0  0  0  0  0  0  0  0  0  0  0
    6.0749   -0.0814   -0.4845 C   0  0  0  0  0  0  0  0  0  0  0  0
    5.3877   -0.3049   -1.6887 C   0  0  0  0  0  0  0  0  0  0  0  0
    4.0039   -0.6084   -1.7037 C   0  0  0  0  0  0  0  0  0  0  0  0
    3.4540   -0.8308   -3.0053 N   0  0  0  0  0  0  0  0  0  0  0  0
    4.7483   -0.6006   -3.9091 S   0  0  0  0  0  4  0  0  0  0  0  0
    6.0019   -0.2576   -2.9824 N   0  0  0  0  0  0  0  0  0  0  0  0
    3.2614   -0.6662   -0.5177 C   0  0  0  0  0  0  0  0  0  0  0  0
    3.9306   -0.4203    0.6928 C   0  0  0  0  0  0  0  0  0  0  0  0
    3.2919   -0.4126    1.8927 N   0  0  0  0  0  0  0  0  0  0  0  0
    4.5362    0.0067    2.8945 S   0  0  0  0  0  0  0  0  0  0  0  0
    5.8606    0.1914    1.9240 N   0  0  0  0  0  0  0  0  0  0  0  0
    5.3277   -0.1065    0.7103 C   0  0  0  0  0  0  0  0  0  0  0  0
    1.8059   -0.8592   -0.5270 C   0  0  0  0  0  0  0  0  0  0  0  0
    0.8731    0.1762   -0.6589 C   0  0  0  0  0  0  0  0  0  0  0  0
    1.1451    1.4378   -1.2852 N   0  0  0  0  0  0  0  0  0  0  0  0
    0.9649    2.6484   -0.5280 C   0  0  0  0  0  0  0  0  0  0  0  0
    0.0690    3.6360   -0.9669 C   0  0  0  0  0  0  0  0  0  0  0  0
   -0.1009    4.8132   -0.2354 C   0  0  0  0  0  0  0  0  0  0  0  0
    0.6372    5.0212    0.9349 C   0  0  0  0  0  0  0  0  0  0  0  0
    0.4326    6.5410    1.8660 S   0  0  0  0  0  0  0  0  0  0  0  0
    1.6636    7.4521    0.8807 C   0  0  0  0  0  0  0  0  0  0  0  0
    1.5264    4.0399    1.3835 C   0  0  0  0  0  0  0  0  0  0  0  0
    1.6865    2.8530    0.6573 C   0  0  0  0  0  0  0  0  0  0  0  0
    1.3411    1.4977   -2.7126 C   0  0  0  0  0  0  0  0  0  0  0  0
    0.6739    0.6032   -3.5710 C   0  0  0  0  0  0  0  0  0  0  0  0
    0.8581    0.6772   -4.9536 C   0  0  0  0  0  0  0  0  0  0  0  0
    1.7011    1.6500   -5.4967 C   0  0  0  0  0  0  0  0  0  0  0  0
    1.8925    1.7781   -7.2752 S   0  0  0  0  0  0  0  0  0  0  0  0
    0.4582    2.8845   -7.4581 C   0  0  0  0  0  0  0  0  0  0  0  0
    2.3767    2.5394   -4.6537 C   0  0  0  0  0  0  0  0  0  0  0  0
    2.1986    2.4637   -3.2686 C   0  0  0  0  0  0  0  0  0  0  0  0
   -0.3990   -0.2398   -0.2917 C   0  0  0  0  0  0  0  0  0  0  0  0
   -1.9049    0.4907   -0.2583 S   0  0  0  0  0  0  0  0  0  0  0  0
   -2.7128   -0.9136    0.2715 C   0  0  0  0  0  0  0  0  0  0  0  0
   -1.7873   -1.9705    0.3901 C   0  0  0  0  0  0  0  0  0  0  0  0
   -2.1293   -3.3596    0.5497 N   0  0  0  0  0  0  0  0  0  0  0  0
   -3.0648   -3.9776   -0.3642 C   0  0  0  0  0  0  0  0  0  0  0  0
   -3.8983   -5.0252    0.0705 C   0  0  0  0  0  0  0  0  0  0  0  0
   -4.8224   -5.6055   -0.8059 C   0  0  0  0  0  0  0  0  0  0  0  0
   -4.9241   -5.1499   -2.1252 C   0  0  0  0  0  0  0  0  0  0  0  0
   -6.1272   -5.8762   -3.2364 S   0  0  0  0  0  0  0  0  0  0  0  0
   -7.4138   -4.6490   -2.8409 C   0  0  0  0  0  0  0  0  0  0  0  0
   -4.0884   -4.1204   -2.5702 C   0  0  0  0  0  0  0  0  0  0  0  0
   -3.1639   -3.5384   -1.6996 C   0  0  0  0  0  0  0  0  0  0  0  0
   -1.3697   -4.1630    1.4756 C   0  0  0  0  0  0  0  0  0  0  0  0
   -1.1091   -3.6886    2.7735 C   0  0  0  0  0  0  0  0  0  0  0  0
   -0.3238   -4.4369    3.6538 C   0  0  0  0  0  0  0  0  0  0  0  0
    0.2188   -5.6610    3.2452 C   0  0  0  0  0  0  0  0  0  0  0  0
    1.2488   -6.6085    4.3678 S   0  0  0  0  0  0  0  0  0  0  0  0
   -0.1390   -7.5995    5.0071 C   0  0  0  0  0  0  0  0  0  0  0  0
   -0.0299   -6.1362    1.9531 C   0  0  0  0  0  0  0  0  0  0  0  0
   -0.8233   -5.3938    1.0735 C   0  0  0  0  0  0  0  0  0  0  0  0
   -0.4968   -1.5350    0.0932 C   0  0  0  0  0  0  0  0  0  0  0  0
    1.0199   -2.2634    0.0371 S   0  0  0  0  0  0  0  0  0  0  0  0
   -4.1389   -0.9086    0.6343 C   0  0  0  0  0  0  0  0  0  0  0  0
   -4.8352   -1.8673    1.3484 C   0  0  0  0  0  0  0  0  0  0  0  0
   -6.1122   -1.3679    1.5023 C   0  0  0  0  0  0  0  0  0  0  0  0
   -6.1130   -0.1369    0.8791 C   0  0  0  0  0  0  0  0  0  0  0  0
   -4.9278    0.1057    0.3749 O   0  0  0  0  0  0  0  0  0  0  0  0
   -7.2332    0.8207    0.8869 C   0  0  0  0  0  0  0  0  0  0  0  0
   -7.3715    1.8341    0.0125 C   0  0  0  0  0  0  0  0  0  0  0  0
   -6.7550    1.9454   -1.3182 C   0  0  0  0  0  0  0  0  0  0  0  0
   -5.8644    1.1948   -1.7957 O   0  0  0  0  0  0  0  0  0  0  0  0
   -7.4577    2.9818   -2.0626 C   0  0  0  0  0  0  0  0  0  0  0  0
   -7.3113    3.3551   -3.4039 C   0  0  0  0  0  0  0  0  0  0  0  0
   -5.9920    2.7170   -4.3802 Cl  0  0  0  0  0  0  0  0  0  0  0  0
   -8.2418    4.2623   -3.9522 C   0  0  0  0  0  0  0  0  0  0  0  0
   -8.0824    4.7793   -5.6306 Cl  0  0  0  0  0  0  0  0  0  0  0  0
   -9.3363    4.7112   -3.1762 C   0  0  0  0  0  0  0  0  0  0  0  0
  -10.5600    5.7562   -3.9009 Cl  0  0  0  0  0  0  0  0  0  0  0  0
   -9.4662    4.3093   -1.8276 C   0  0  0  0  0  0  0  0  0  0  0  0
  -10.9612    4.6578   -0.9515 Cl  0  0  0  0  0  0  0  0  0  0  0  0
   -8.4522    3.5127   -1.2602 C   0  0  0  0  0  0  0  0  0  0  0  0
   -8.3387    2.9602    0.1154 C   0  0  0  0  0  0  0  0  0  0  0  0
   -8.5649    3.6682    1.2536 C   0  0  0  0  0  0  0  0  0  0  0  0
   -8.8422    5.0799    1.2150 C   0  0  0  0  0  0  0  0  0  0  0  0
   -9.0490    6.2180    1.1870 N   0  0  0  0  0  0  0  0  0  0  0  0
   -8.2399    3.1477    2.5578 C   0  0  0  0  0  0  0  0  0  0  0  0
   -7.9781    2.7388    3.6089 N   0  0  0  0  0  0  0  0  0  0  0  0
    7.7580    1.1348   -1.1245 H   0  0  0  0  0  0  0  0  0  0  0  0
   -0.5088    3.4834   -1.8707 H   0  0  0  0  0  0  0  0  0  0  0  0
   -0.8008    5.5626   -0.5816 H   0  0  0  0  0  0  0  0  0  0  0  0
    1.8079    8.4590    1.3208 H   0  0  0  0  0  0  0  0  0  0  0  0
    2.6346    6.9164    0.8814 H   0  0  0  0  0  0  0  0  0  0  0  0
    1.3024    7.5654   -0.1619 H   0  0  0  0  0  0  0  0  0  0  0  0
    2.0962    4.1926    2.2920 H   0  0  0  0  0  0  0  0  0  0  0  0
    2.3824    2.1059    1.0089 H   0  0  0  0  0  0  0  0  0  0  0  0
   -0.0032   -0.1425   -3.1759 H   0  0  0  0  0  0  0  0  0  0  0  0
    0.3326   -0.0099   -5.6024 H   0  0  0  0  0  0  0  0  0  0  0  0
    0.6134    3.8223   -6.8786 H   0  0  0  0  0  0  0  0  0  0  0  0
    0.3273    3.1406   -8.5304 H   0  0  0  0  0  0  0  0  0  0  0  0
   -0.4638    2.3763   -7.0978 H   0  0  0  0  0  0  0  0  0  0  0  0
    3.0325    3.2918   -5.0686 H   0  0  0  0  0  0  0  0  0  0  0  0
    2.7302    3.1566   -2.6296 H   0  0  0  0  0  0  0  0  0  0  0  0
   -3.8524   -5.3788    1.0928 H   0  0  0  0  0  0  0  0  0  0  0  0
   -5.4624   -6.4048   -0.4586 H   0  0  0  0  0  0  0  0  0  0  0  0
   -7.0656   -3.6320   -3.1229 H   0  0  0  0  0  0  0  0  0  0  0  0
   -7.6564   -4.6782   -1.7577 H   0  0  0  0  0  0  0  0  0  0  0  0
   -8.3304   -4.8866   -3.4213 H   0  0  0  0  0  0  0  0  0  0  0  0
   -4.1613   -3.7624   -3.5884 H   0  0  0  0  0  0  0  0  0  0  0  0
   -2.5267   -2.7451   -2.0662 H   0  0  0  0  0  0  0  0  0  0  0  0
   -1.5150   -2.7377    3.0992 H   0  0  0  0  0  0  0  0  0  0  0  0
   -0.1308   -4.0616    4.6503 H   0  0  0  0  0  0  0  0  0  0  0  0
   -0.9294   -6.9340    5.4163 H   0  0  0  0  0  0  0  0  0  0  0  0
   -0.5594   -8.2337    4.1972 H   0  0  0  0  0  0  0  0  0  0  0  0
    0.2316   -8.2514    5.8241 H   0  0  0  0  0  0  0  0  0  0  0  0
    0.3919   -7.0777    1.6286 H   0  0  0  0  0  0  0  0  0  0  0  0
   -0.9895   -5.7652    0.0710 H   0  0  0  0  0  0  0  0  0  0  0  0
   -4.4527   -2.7849    1.7704 H   0  0  0  0  0  0  0  0  0  0  0  0
   -6.9271   -1.8301    2.0434 H   0  0  0  0  0  0  0  0  0  0  0  0
   -7.9484    0.7177    1.6922 H   0  0  0  0  0  0  0  0  0  0  0  0
  1  2  2  3
  2  3  1  0
  3  4  2  0
  3  5  1  0
  5  6  2  0
  6  7  1  0
  6  8  1  0
  8  9  1  0
  8 10  2  0
 10 11  1  0
 10 12  1  0
 12 13  1  0
 12 14  2  0
 14 15  1  0
 15 16  2  3
 16 17  1  0
 17 18  3  0
 16 19  1  0
 19 20  3  0
  1 21  1  0
 21 22  2  0
 22 23  1  0
 23 24  1  0
 24 25  2  0
 25 26  2  0
 23 27  2  0
 27 28  1  0
 28 29  2  0
 29 30  1  0
 30 31  1  0
 31 32  2  0
 27 33  1  0
 33 34  2  0
 34 35  1  0
 35 36  1  0
 36 37  2  0
 37 38  1  0
 38 39  2  0
 39 40  1  0
 40 41  1  0
 39 42  1  0
 42 43  2  0
 35 44  1  0
 44 45  2  0
 45 46  1  0
 46 47  2  0
 47 48  1  0
 48 49  1  0
 47 50  1  0
 50 51  2  0
 34 52  1  0
 52 53  1  0
 53 54  1  0
 54 55  2  0
 55 56  1  0
 56 57  1  0
 57 58  2  0
 58 59  1  0
 59 60  2  0
 60 61  1  0
 61 62  1  0
 60 63  1  0
 63 64  2  0
 56 65  1  0
 65 66  2  0
 66 67  1  0
 67 68  2  0
 68 69  1  0
 69 70  1  0
 68 71  1  0
 71 72  2  0
 55 73  1  0
 73 74  1  0
 54 75  1  0
 75 76  2  0
 76 77  1  0
 77 78  2  0
 78 79  1  0
 78 80  1  0
 80 81  2  3
 81 82  1  0
 82 83  2  0
 82 84  1  0
 84 85  2  0
 85 86  1  0
 85 87  1  0
 87 88  1  0
 87 89  2  0
 89 90  1  0
 89 91  1  0
 91 92  1  0
 91 93  2  0
 93 94  1  0
 94 95  2  3
 95 96  1  0
 96 97  3  0
 95 98  1  0
 98 99  3  0
 15  2  1  0
 32 21  1  0
 74 33  1  0
 79 75  1  0
 94 81  1  0
 14  5  1  0
 26 22  1  0
 32 28  1  0
 43 36  1  0
 51 44  1  0
 73 52  2  0
 93 84  1  0
 64 57  1  0
 72 65  1  0
  1100  1  0
 37101  1  0
 38102  1  0
 41103  1  0
 41104  1  0
 41105  1  0
 42106  1  0
 43107  1  0
 45108  1  0
 46109  1  0
 49110  1  0
 49111  1  0
 49112  1  0
 50113  1  0
 51114  1  0
 58115  1  0
 59116  1  0
 62117  1  0
 62118  1  0
 62119  1  0
 63120  1  0
 64121  1  0
 66122  1  0
 67123  1  0
 70124  1  0
 70125  1  0
 70126  1  0
 71127  1  0
 72128  1  0
 76129  1  0
 77130  1  0
 80131  1  0
M  END

