
     RDKit          3D

252273  0  0  0  0  0  0  0  0999 V2000
    6.6880   -3.2045   -0.5230 C   0  0  0  0  0  0  0  0  0  0  0  0
    8.0146   -3.0767   -0.6651 C   0  0  0  0  0  0  0  0  0  0  0  0
    8.7916   -1.9414   -0.1773 C   0  0  0  0  0  0  0  0  0  0  0  0
    8.3691   -1.0275    0.5802 O   0  0  0  0  0  0  0  0  0  0  0  0
   10.1406   -2.0353   -0.7105 C   0  0  0  0  0  0  0  0  0  0  0  0
   11.2194   -1.1660   -0.5070 C   0  0  0  0  0  0  0  0  0  0  0  0
   11.0008    0.3710    0.3328 Cl  0  0  0  0  0  0  0  0  0  0  0  0
   12.4811   -1.5446   -1.0050 C   0  0  0  0  0  0  0  0  0  0  0  0
   13.8625   -0.4618   -0.8001 Cl  0  0  0  0  0  0  0  0  0  0  0  0
   12.6541   -2.8099   -1.6049 C   0  0  0  0  0  0  0  0  0  0  0  0
   14.2639   -3.3239   -2.1027 Cl  0  0  0  0  0  0  0  0  0  0  0  0
   11.5515   -3.6777   -1.7702 C   0  0  0  0  0  0  0  0  0  0  0  0
   11.8581   -5.3795   -2.1137 Cl  0  0  0  0  0  0  0  0  0  0  0  0
   10.2635   -3.2061   -1.4393 C   0  0  0  0  0  0  0  0  0  0  0  0
    8.9337   -3.8716   -1.5408 C   0  0  0  0  0  0  0  0  0  0  0  0
    8.5754   -4.8252   -2.4384 C   0  0  0  0  0  0  0  0  0  0  0  0
    7.4000   -5.6395   -2.2762 C   0  0  0  0  0  0  0  0  0  0  0  0
    6.4540   -6.2969   -2.1542 N   0  0  0  0  0  0  0  0  0  0  0  0
    9.3112   -5.0477   -3.6588 C   0  0  0  0  0  0  0  0  0  0  0  0
    9.8823   -5.2270   -4.6526 N   0  0  0  0  0  0  0  0  0  0  0  0
    5.8916   -2.4096    0.4206 C   0  0  0  0  0  0  0  0  0  0  0  0
    4.8149   -1.5960    0.0601 C   0  0  0  0  0  0  0  0  0  0  0  0
    4.5504   -1.0925   -1.2600 N   0  0  0  0  0  0  0  0  0  0  0  0
    4.0780   -1.9711   -2.3106 C   0  0  0  0  0  0  0  0  0  0  0  0
    4.0855   -1.5519   -3.6536 C   0  0  0  0  0  0  0  0  0  0  0  0
    3.5101   -2.3458   -4.6487 C   0  0  0  0  0  0  0  0  0  0  0  0
    2.9359   -3.5775   -4.3197 C   0  0  0  0  0  0  0  0  0  0  0  0
    2.0994   -4.5455   -5.5742 S   0  0  0  0  0  0  0  0  0  0  0  0
    0.4555   -3.8823   -5.1456 C   0  0  0  0  0  0  0  0  0  0  0  0
    2.9745   -4.0274   -2.9984 C   0  0  0  0  0  0  0  0  0  0  0  0
    3.5352   -3.2299   -2.0014 C   0  0  0  0  0  0  0  0  0  0  0  0
    4.4056    0.3359   -1.3801 C   0  0  0  0  0  0  0  0  0  0  0  0
    3.1761    0.8960   -1.7780 C   0  0  0  0  0  0  0  0  0  0  0  0
    3.0045    2.2836   -1.7843 C   0  0  0  0  0  0  0  0  0  0  0  0
    4.0495    3.1203   -1.3827 C   0  0  0  0  0  0  0  0  0  0  0  0
    3.8182    4.9013   -1.3576 S   0  0  0  0  0  0  0  0  0  0  0  0
    3.1656    4.9065    0.3424 C   0  0  0  0  0  0  0  0  0  0  0  0
    5.2779    2.5717   -1.0015 C   0  0  0  0  0  0  0  0  0  0  0  0
    5.4527    1.1853   -0.9926 C   0  0  0  0  0  0  0  0  0  0  0  0
    3.9626   -1.3825    1.1347 C   0  0  0  0  0  0  0  0  0  0  0  0
    2.4144   -0.7777    1.2140 S   0  0  0  0  0  0  0  0  0  0  0  0
    2.1651   -1.2790    2.8182 C   0  0  0  0  0  0  0  0  0  0  0  0
    3.3145   -1.9305    3.3074 C   0  0  0  0  0  0  0  0  0  0  0  0
    3.4778   -2.3664    4.6757 N   0  0  0  0  0  0  0  0  0  0  0  0
    4.3648   -3.4529    5.0158 C   0  0  0  0  0  0  0  0  0  0  0  0
    5.2733   -3.3222    6.0825 C   0  0  0  0  0  0  0  0  0  0  0  0
    6.1712   -4.3531    6.3795 C   0  0  0  0  0  0  0  0  0  0  0  0
    6.1699   -5.5267    5.6190 C   0  0  0  0  0  0  0  0  0  0  0  0
    7.3556   -6.8291    5.9719 S   0  0  0  0  0  0  0  0  0  0  0  0
    8.6236   -6.1570    4.8494 C   0  0  0  0  0  0  0  0  0  0  0  0
    5.2542   -5.6762    4.5711 C   0  0  0  0  0  0  0  0  0  0  0  0
    4.3529   -4.6482    4.2764 C   0  0  0  0  0  0  0  0  0  0  0  0
    2.8757   -1.5822    5.7282 C   0  0  0  0  0  0  0  0  0  0  0  0
    2.1715   -2.2096    6.7654 C   0  0  0  0  0  0  0  0  0  0  0  0
    1.5528   -1.4433    7.7581 C   0  0  0  0  0  0  0  0  0  0  0  0
    1.6292   -0.0444    7.7162 C   0  0  0  0  0  0  0  0  0  0  0  0
    0.8365    0.9478    8.9843 S   0  0  0  0  0  0  0  0  0  0  0  0
    2.3569    1.1254    9.9735 C   0  0  0  0  0  0  0  0  0  0  0  0
    2.3212    0.5831    6.6765 C   0  0  0  0  0  0  0  0  0  0  0  0
    2.9610   -0.1794    5.7016 C   0  0  0  0  0  0  0  0  0  0  0  0
    4.3059   -1.9777    2.3103 C   0  0  0  0  0  0  0  0  0  0  0  0
    5.7432   -2.8200    2.0699 S   0  0  0  0  0  0  0  0  0  0  0  0
    0.8097   -1.2948    3.3792 C   0  0  0  0  0  0  0  0  0  0  0  0
   -0.1169   -2.1400    2.7416 C   0  0  0  0  0  0  0  0  0  0  0  0
   -0.2216   -3.5317    3.0953 N   0  0  0  0  0  0  0  0  0  0  0  0
    0.7016   -4.5188    2.5879 C   0  0  0  0  0  0  0  0  0  0  0  0
    1.2301   -4.4034    1.2905 C   0  0  0  0  0  0  0  0  0  0  0  0
    2.0187   -5.4284    0.7596 C   0  0  0  0  0  0  0  0  0  0  0  0
    2.3147   -6.5625    1.5175 C   0  0  0  0  0  0  0  0  0  0  0  0
    3.3567   -7.8518    0.8306 S   0  0  0  0  0  0  0  0  0  0  0  0
    1.9635   -8.7487    0.0731 C   0  0  0  0  0  0  0  0  0  0  0  0
    1.8072   -6.6805    2.8146 C   0  0  0  0  0  0  0  0  0  0  0  0
    1.0080   -5.6643    3.3470 C   0  0  0  0  0  0  0  0  0  0  0  0
   -1.3335   -3.9324    3.9248 C   0  0  0  0  0  0  0  0  0  0  0  0
   -2.1632   -4.9969    3.5352 C   0  0  0  0  0  0  0  0  0  0  0  0
   -3.2636   -5.3583    4.3184 C   0  0  0  0  0  0  0  0  0  0  0  0
   -3.5564   -4.6506    5.4881 C   0  0  0  0  0  0  0  0  0  0  0  0
   -4.9606   -5.1284    6.5019 S   0  0  0  0  0  0  0  0  0  0  0  0
   -6.1458   -4.1182    5.5579 C   0  0  0  0  0  0  0  0  0  0  0  0
   -2.7393   -3.5860    5.8819 C   0  0  0  0  0  0  0  0  0  0  0  0
   -1.6338   -3.2260    5.1043 C   0  0  0  0  0  0  0  0  0  0  0  0
   -1.2495   -1.4459    2.3258 C   0  0  0  0  0  0  0  0  0  0  0  0
   -2.0174   -1.5506    0.8328 S   0  0  0  0  0  0  0  0  0  0  0  0
   -2.6152    0.0371    0.8552 C   0  0  0  0  0  0  0  0  0  0  0  0
   -2.1720    0.6682    2.0272 C   0  0  0  0  0  0  0  0  0  0  0  0
   -2.7760    1.8549    2.5790 N   0  0  0  0  0  0  0  0  0  0  0  0
   -3.4846    1.7875    3.8400 C   0  0  0  0  0  0  0  0  0  0  0  0
   -4.0974    0.5890    4.2588 C   0  0  0  0  0  0  0  0  0  0  0  0
   -4.7956    0.5322    5.4657 C   0  0  0  0  0  0  0  0  0  0  0  0
   -4.9004    1.6734    6.2681 C   0  0  0  0  0  0  0  0  0  0  0  0
   -5.8268    1.6049    7.8041 S   0  0  0  0  0  0  0  0  0  0  0  0
   -7.3978    2.0804    7.0117 C   0  0  0  0  0  0  0  0  0  0  0  0
   -4.2950    2.8654    5.8675 C   0  0  0  0  0  0  0  0  0  0  0  0
   -3.5898    2.9254    4.6610 C   0  0  0  0  0  0  0  0  0  0  0  0
   -2.8709    3.0453    1.7855 C   0  0  0  0  0  0  0  0  0  0  0  0
   -4.1238    3.5172    1.3634 C   0  0  0  0  0  0  0  0  0  0  0  0
   -4.2126    4.6466    0.5454 C   0  0  0  0  0  0  0  0  0  0  0  0
   -3.0512    5.3359    0.1775 C   0  0  0  0  0  0  0  0  0  0  0  0
   -3.1515    6.7264   -0.9501 S   0  0  0  0  0  0  0  0  0  0  0  0
   -3.2449    7.9576    0.3833 C   0  0  0  0  0  0  0  0  0  0  0  0
   -1.8056    4.9060    0.6578 C   0  0  0  0  0  0  0  0  0  0  0  0
   -1.7131    3.7494    1.4357 C   0  0  0  0  0  0  0  0  0  0  0  0
   -1.3650   -0.1722    2.7857 C   0  0  0  0  0  0  0  0  0  0  0  0
    0.0532    0.2151    3.5814 S   0  0  0  0  0  0  0  0  0  0  0  0
   -2.9873    0.7704   -0.3544 C   0  0  0  0  0  0  0  0  0  0  0  0
   -4.2900    1.0448   -0.7801 C   0  0  0  0  0  0  0  0  0  0  0  0
   -5.3543    0.0952   -0.6761 N   0  0  0  0  0  0  0  0  0  0  0  0
   -6.0197   -0.1289    0.5697 C   0  0  0  0  0  0  0  0  0  0  0  0
   -5.8354   -1.3399    1.2512 C   0  0  0  0  0  0  0  0  0  0  0  0
   -6.5273   -1.5874    2.4370 C   0  0  0  0  0  0  0  0  0  0  0  0
   -7.4327   -0.6410    2.9319 C   0  0  0  0  0  0  0  0  0  0  0  0
   -8.3992   -1.0132    4.3974 S   0  0  0  0  0  0  0  0  0  0  0  0
   -9.6686   -1.9323    3.4669 C   0  0  0  0  0  0  0  0  0  0  0  0
   -7.5985    0.5796    2.2685 C   0  0  0  0  0  0  0  0  0  0  0  0
   -6.8864    0.8397    1.0919 C   0  0  0  0  0  0  0  0  0  0  0  0
   -5.6145   -0.7484   -1.8119 C   0  0  0  0  0  0  0  0  0  0  0  0
   -6.8909   -0.7725   -2.3967 C   0  0  0  0  0  0  0  0  0  0  0  0
   -7.0968   -1.4459   -3.6061 C   0  0  0  0  0  0  0  0  0  0  0  0
   -6.0342   -2.1101   -4.2337 C   0  0  0  0  0  0  0  0  0  0  0  0
   -6.2832   -2.9255   -5.8108 S   0  0  0  0  0  0  0  0  0  0  0  0
   -5.8269   -1.4486   -6.7774 C   0  0  0  0  0  0  0  0  0  0  0  0
   -4.7707   -2.1195   -3.6383 C   0  0  0  0  0  0  0  0  0  0  0  0
   -4.5589   -1.4362   -2.4380 C   0  0  0  0  0  0  0  0  0  0  0  0
   -4.2818    2.0338   -1.7558 C   0  0  0  0  0  0  0  0  0  0  0  0
   -5.4761    2.8892   -2.5534 S   0  0  0  0  0  0  0  0  0  0  0  0
   -4.3857    3.8316   -3.4756 C   0  0  0  0  0  0  0  0  0  0  0  0
   -3.0675    3.4564   -3.1333 C   0  0  0  0  0  0  0  0  0  0  0  0
   -1.9093    3.7910   -3.9147 N   0  0  0  0  0  0  0  0  0  0  0  0
   -1.1258    4.9446   -3.5679 C   0  0  0  0  0  0  0  0  0  0  0  0
   -1.0439    6.0206   -4.4620 C   0  0  0  0  0  0  0  0  0  0  0  0
   -0.3003    7.1545   -4.1345 C   0  0  0  0  0  0  0  0  0  0  0  0
    0.4237    7.1973   -2.9388 C   0  0  0  0  0  0  0  0  0  0  0  0
    1.3851    8.6561   -2.5159 S   0  0  0  0  0  0  0  0  0  0  0  0
    2.8245    8.1513   -3.5081 C   0  0  0  0  0  0  0  0  0  0  0  0
    0.3885    6.1022   -2.0687 C   0  0  0  0  0  0  0  0  0  0  0  0
   -0.3852    4.9802   -2.3811 C   0  0  0  0  0  0  0  0  0  0  0  0
   -1.5564    2.9893   -5.0657 C   0  0  0  0  0  0  0  0  0  0  0  0
   -2.5482    2.3407   -5.8314 C   0  0  0  0  0  0  0  0  0  0  0  0
   -2.1968    1.5612   -6.9348 C   0  0  0  0  0  0  0  0  0  0  0  0
   -0.8560    1.4125   -7.2929 C   0  0  0  0  0  0  0  0  0  0  0  0
   -0.4141    0.4082   -8.7138 S   0  0  0  0  0  0  0  0  0  0  0  0
   -0.3179   -1.1280   -7.7449 C   0  0  0  0  0  0  0  0  0  0  0  0
    0.1371    2.0503   -6.5450 C   0  0  0  0  0  0  0  0  0  0  0  0
   -0.2082    2.8329   -5.4389 C   0  0  0  0  0  0  0  0  0  0  0  0
   -3.0609    2.4709   -2.1507 C   0  0  0  0  0  0  0  0  0  0  0  0
   -1.8728    1.6919   -1.2655 S   0  0  0  0  0  0  0  0  0  0  0  0
   -4.7320    5.0282   -4.2764 C   0  0  0  0  0  0  0  0  0  0  0  0
   -5.9465    5.2975   -4.7968 C   0  0  0  0  0  0  0  0  0  0  0  0
   -7.1166    4.4147   -4.8503 C   0  0  0  0  0  0  0  0  0  0  0  0
   -7.0903    3.1616   -4.9882 O   0  0  0  0  0  0  0  0  0  0  0  0
   -8.3120    5.2449   -4.8806 C   0  0  0  0  0  0  0  0  0  0  0  0
   -9.6533    4.8682   -4.7534 C   0  0  0  0  0  0  0  0  0  0  0  0
  -10.1118    3.1637   -4.7074 Cl  0  0  0  0  0  0  0  0  0  0  0  0
  -10.6257    5.8847   -4.6467 C   0  0  0  0  0  0  0  0  0  0  0  0
  -12.3339    5.4620   -4.5502 Cl  0  0  0  0  0  0  0  0  0  0  0  0
  -10.2277    7.2443   -4.5746 C   0  0  0  0  0  0  0  0  0  0  0  0
  -11.4351    8.5038   -4.3202 Cl  0  0  0  0  0  0  0  0  0  0  0  0
   -8.8639    7.5932   -4.6826 C   0  0  0  0  0  0  0  0  0  0  0  0
   -8.3439    9.2229   -4.2615 Cl  0  0  0  0  0  0  0  0  0  0  0  0
   -7.9289    6.5724   -4.9357 C   0  0  0  0  0  0  0  0  0  0  0  0
   -6.4600    6.6504   -5.1329 C   0  0  0  0  0  0  0  0  0  0  0  0
   -5.8228    7.5646   -5.9086 C   0  0  0  0  0  0  0  0  0  0  0  0
   -4.4423    7.4218   -6.2860 C   0  0  0  0  0  0  0  0  0  0  0  0
   -3.3383    7.3105   -6.6133 N   0  0  0  0  0  0  0  0  0  0  0  0
   -6.5475    8.5748   -6.6359 C   0  0  0  0  0  0  0  0  0  0  0  0
   -7.1193    9.3808   -7.2398 N   0  0  0  0  0  0  0  0  0  0  0  0
    6.1309   -3.9301   -1.0815 H   0  0  0  0  0  0  0  0  0  0  0  0
    4.5048   -0.5918   -3.9248 H   0  0  0  0  0  0  0  0  0  0  0  0
    3.4915   -1.9904   -5.6707 H   0  0  0  0  0  0  0  0  0  0  0  0
    0.4547   -2.7738   -5.2270 H   0  0  0  0  0  0  0  0  0  0  0  0
   -0.3000   -4.2970   -5.8452 H   0  0  0  0  0  0  0  0  0  0  0  0
    0.1855   -4.1764   -4.1094 H   0  0  0  0  0  0  0  0  0  0  0  0
    2.5319   -4.9826   -2.7396 H   0  0  0  0  0  0  0  0  0  0  0  0
    3.5162   -3.5792   -0.9808 H   0  0  0  0  0  0  0  0  0  0  0  0
    2.3451    0.2581   -2.0545 H   0  0  0  0  0  0  0  0  0  0  0  0
    2.0483    2.7046   -2.0773 H   0  0  0  0  0  0  0  0  0  0  0  0
    3.9347    4.5308    1.0481 H   0  0  0  0  0  0  0  0  0  0  0  0
    2.2558    4.2720    0.4033 H   0  0  0  0  0  0  0  0  0  0  0  0
    2.8958    5.9464    0.6214 H   0  0  0  0  0  0  0  0  0  0  0  0
    6.0896    3.2164   -0.6947 H   0  0  0  0  0  0  0  0  0  0  0  0
    6.4016    0.7689   -0.6770 H   0  0  0  0  0  0  0  0  0  0  0  0
    5.3069   -2.4102    6.6643 H   0  0  0  0  0  0  0  0  0  0  0  0
    6.8758   -4.2293    7.1938 H   0  0  0  0  0  0  0  0  0  0  0  0
    8.2313   -6.1143    3.8111 H   0  0  0  0  0  0  0  0  0  0  0  0
    8.9274   -5.1422    5.1785 H   0  0  0  0  0  0  0  0  0  0  0  0
    9.5122   -6.8225    4.8695 H   0  0  0  0  0  0  0  0  0  0  0  0
    5.2553   -6.5741    3.9722 H   0  0  0  0  0  0  0  0  0  0  0  0
    3.6810   -4.7569    3.4416 H   0  0  0  0  0  0  0  0  0  0  0  0
    2.0898   -3.2894    6.7941 H   0  0  0  0  0  0  0  0  0  0  0  0
    1.0055   -1.9368    8.5533 H   0  0  0  0  0  0  0  0  0  0  0  0
    2.1540    1.7847   10.8407 H   0  0  0  0  0  0  0  0  0  0  0  0
    2.6876    0.1317   10.3415 H   0  0  0  0  0  0  0  0  0  0  0  0
    3.1642    1.5837    9.3625 H   0  0  0  0  0  0  0  0  0  0  0  0
    2.3703    1.6644    6.6306 H   0  0  0  0  0  0  0  0  0  0  0  0
    3.5104    0.3222    4.9137 H   0  0  0  0  0  0  0  0  0  0  0  0
    0.9943   -3.5451    0.6754 H   0  0  0  0  0  0  0  0  0  0  0  0
    2.3699   -5.3640   -0.2611 H   0  0  0  0  0  0  0  0  0  0  0  0
    1.4096   -8.0824   -0.6231 H   0  0  0  0  0  0  0  0  0  0  0  0
    1.2770   -9.1196    0.8639 H   0  0  0  0  0  0  0  0  0  0  0  0
    2.3575   -9.6170   -0.4985 H   0  0  0  0  0  0  0  0  0  0  0  0
    2.0320   -7.5564    3.4086 H   0  0  0  0  0  0  0  0  0  0  0  0
    0.6273   -5.7740    4.3536 H   0  0  0  0  0  0  0  0  0  0  0  0
   -1.9661   -5.5312    2.6159 H   0  0  0  0  0  0  0  0  0  0  0  0
   -3.8961   -6.1806    4.0084 H   0  0  0  0  0  0  0  0  0  0  0  0
   -7.1497   -4.2070    6.0221 H   0  0  0  0  0  0  0  0  0  0  0  0
   -5.8364   -3.0531    5.5664 H   0  0  0  0  0  0  0  0  0  0  0  0
   -6.2038   -4.4873    4.5122 H   0  0  0  0  0  0  0  0  0  0  0  0
   -2.9557   -3.0377    6.7921 H   0  0  0  0  0  0  0  0  0  0  0  0
   -1.0089   -2.4008    5.4248 H   0  0  0  0  0  0  0  0  0  0  0  0
   -4.0561   -0.2996    3.6437 H   0  0  0  0  0  0  0  0  0  0  0  0
   -5.2645   -0.3919    5.7716 H   0  0  0  0  0  0  0  0  0  0  0  0
   -7.6585    1.3588    6.2069 H   0  0  0  0  0  0  0  0  0  0  0  0
   -8.2052    2.0763    7.7747 H   0  0  0  0  0  0  0  0  0  0  0  0
   -7.3124    3.1036    6.5807 H   0  0  0  0  0  0  0  0  0  0  0  0
   -4.3725    3.7526    6.4846 H   0  0  0  0  0  0  0  0  0  0  0  0
   -3.1318    3.8600    4.3653 H   0  0  0  0  0  0  0  0  0  0  0  0
   -5.0240    2.9888    1.6441 H   0  0  0  0  0  0  0  0  0  0  0  0
   -5.1799    4.9751    0.1875 H   0  0  0  0  0  0  0  0  0  0  0  0
   -3.2630    8.9731   -0.0648 H   0  0  0  0  0  0  0  0  0  0  0  0
   -2.3562    7.8714    1.0429 H   0  0  0  0  0  0  0  0  0  0  0  0
   -4.1675    7.8006    0.9802 H   0  0  0  0  0  0  0  0  0  0  0  0
   -0.9078    5.4561    0.4114 H   0  0  0  0  0  0  0  0  0  0  0  0
   -0.7430    3.4065    1.7742 H   0  0  0  0  0  0  0  0  0  0  0  0
   -5.1525   -2.0861    0.8642 H   0  0  0  0  0  0  0  0  0  0  0  0
   -6.3900   -2.5293    2.9504 H   0  0  0  0  0  0  0  0  0  0  0  0
   -9.2091   -2.8075    2.9577 H   0  0  0  0  0  0  0  0  0  0  0  0
  -10.4481   -2.2949    4.1702 H   0  0  0  0  0  0  0  0  0  0  0  0
  -10.1441   -1.2681    2.7125 H   0  0  0  0  0  0  0  0  0  0  0  0
   -8.2899    1.3189    2.6491 H   0  0  0  0  0  0  0  0  0  0  0  0
   -7.0312    1.7773    0.5707 H   0  0  0  0  0  0  0  0  0  0  0  0
   -7.7060   -0.2243   -1.9441 H   0  0  0  0  0  0  0  0  0  0  0  0
   -8.0750   -1.4317   -4.0693 H   0  0  0  0  0  0  0  0  0  0  0  0
   -4.8061   -1.1086   -6.5008 H   0  0  0  0  0  0  0  0  0  0  0  0
   -5.8414   -1.6988   -7.8585 H   0  0  0  0  0  0  0  0  0  0  0  0
   -6.5564   -0.6340   -6.5884 H   0  0  0  0  0  0  0  0  0  0  0  0
   -3.9444   -2.6296   -4.1192 H   0  0  0  0  0  0  0  0  0  0  0  0
   -3.5674   -1.4303   -2.0064 H   0  0  0  0  0  0  0  0  0  0  0  0
   -1.5572    5.9751   -5.4086 H   0  0  0  0  0  0  0  0  0  0  0  0
   -0.2590    7.9940   -4.8196 H   0  0  0  0  0  0  0  0  0  0  0  0
    3.1763    7.1468   -3.2020 H   0  0  0  0  0  0  0  0  0  0  0  0
    2.5522    8.1374   -4.5833 H   0  0  0  0  0  0  0  0  0  0  0  0
    3.6450    8.8811   -3.3578 H   0  0  0  0  0  0  0  0  0  0  0  0
    0.9460    6.1258   -1.1405 H   0  0  0  0  0  0  0  0  0  0  0  0
   -0.3923    4.1332   -1.7090 H   0  0  0  0  0  0  0  0  0  0  0  0
   -3.5980    2.4428   -5.5932 H   0  0  0  0  0  0  0  0  0  0  0  0
   -2.9687    1.0698   -7.5114 H   0  0  0  0  0  0  0  0  0  0  0  0
    0.4695   -1.0279   -6.9701 H   0  0  0  0  0  0  0  0  0  0  0  0
   -1.2966   -1.3372   -7.2650 H   0  0  0  0  0  0  0  0  0  0  0  0
   -0.0593   -1.9696   -8.4211 H   0  0  0  0  0  0  0  0  0  0  0  0
    1.1820    1.9345   -6.8122 H   0  0  0  0  0  0  0  0  0  0  0  0
    0.5795    3.3031   -4.8610 H   0  0  0  0  0  0  0  0  0  0  0  0
   -3.9911    5.8076   -4.2750 H   0  0  0  0  0  0  0  0  0  0  0  0
  1  2  2  3
  2  3  1  0
  3  4  2  0
  3  5  1  0
  5  6  2  0
  6  7  1  0
  6  8  1  0
  8  9  1  0
  8 10  2  0
 10 11  1  0
 10 12  1  0
 12 13  1  0
 12 14  2  0
 14 15  1  0
 15 16  2  3
 16 17  1  0
 17 18  3  0
 16 19  1  0
 19 20  3  0
  1 21  1  0
 21 22  2  0
 22 23  1  0
 23 24  1  0
 24 25  2  0
 25 26  1  0
 26 27  2  0
 27 28  1  0
 28 29  1  0
 27 30  1  0
 30 31  2  0
 23 32  1  0
 32 33  2  0
 33 34  1  0
 34 35  2  0
 35 36  1  0
 36 37  1  0
 35 38  1  0
 38 39  2  0
 22 40  1  0
 40 41  1  0
 41 42  1  0
 42 43  2  0
 43 44  1  0
 44 45  1  0
 45 46  2  0
 46 47  1  0
 47 48  2  0
 48 49  1  0
 49 50  1  0
 48 51  1  0
 51 52  2  0
 44 53  1  0
 53 54  2  0
 54 55  1  0
 55 56  2  0
 56 57  1  0
 57 58  1  0
 56 59  1  0
 59 60  2  0
 43 61  1  0
 61 62  1  0
 42 63  1  0
 63 64  2  0
 64 65  1  0
 65 66  1  0
 66 67  2  0
 67 68  1  0
 68 69  2  0
 69 70  1  0
 70 71  1  0
 69 72  1  0
 72 73  2  0
 65 74  1  0
 74 75  2  0
 75 76  1  0
 76 77  2  0
 77 78  1  0
 78 79  1  0
 77 80  1  0
 80 81  2  0
 64 82  1  0
 82 83  1  0
 83 84  1  0
 84 85  2  0
 85 86  1  0
 86 87  1  0
 87 88  2  0
 88 89  1  0
 89 90  2  0
 90 91  1  0
 91 92  1  0
 90 93  1  0
 93 94  2  0
 86 95  1  0
 95 96  2  0
 96 97  1  0
 97 98  2  0
 98 99  1  0
 99100  1  0
 98101  1  0
101102  2  0
 85103  1  0
103104  1  0
 84105  1  0
105106  2  0
106107  1  0
107108  1  0
108109  2  0
109110  1  0
110111  2  0
111112  1  0
112113  1  0
111114  1  0
114115  2  0
107116  1  0
116117  2  0
117118  1  0
118119  2  0
119120  1  0
120121  1  0
119122  1  0
122123  2  0
106124  1  0
124125  1  0
125126  1  0
126127  2  0
127128  1  0
128129  1  0
129130  2  0
130131  1  0
131132  2  0
132133  1  0
133134  1  0
132135  1  0
135136  2  0
128137  1  0
137138  2  0
138139  1  0
139140  2  0
140141  1  0
141142  1  0
140143  1  0
143144  2  0
127145  1  0
145146  1  0
126147  1  0
147148  2  3
148149  1  0
149150  2  0
149151  1  0
151152  2  0
152153  1  0
152154  1  0
154155  1  0
154156  2  0
156157  1  0
156158  1  0
158159  1  0
158160  2  0
160161  1  0
161162  2  3
162163  1  0
163164  3  0
162165  1  0
165166  3  0
 15  2  1  0
 62 21  1  0
104 63  1  0
146105  1  0
161148  1  0
 14  5  1  0
 31 24  1  0
 39 32  1  0
 61 40  2  0
 73 66  1  0
 81 74  1  0
103 82  2  0
115108  1  0
123116  1  0
145124  2  0
160151  1  0
 52 45  1  0
 60 53  1  0
 94 87  1  0
102 95  1  0
136129  1  0
144137  1  0
  1167  1  0
 25168  1  0
 26169  1  0
 29170  1  0
 29171  1  0
 29172  1  0
 30173  1  0
 31174  1  0
 33175  1  0
 34176  1  0
 37177  1  0
 37178  1  0
 37179  1  0
 38180  1  0
 39181  1  0
 46182  1  0
 47183  1  0
 50184  1  0
 50185  1  0
 50186  1  0
 51187  1  0
 52188  1  0
 54189  1  0
 55190  1  0
 58191  1  0
 58192  1  0
 58193  1  0
 59194  1  0
 60195  1  0
 67196  1  0
 68197  1  0
 71198  1  0
 71199  1  0
 71200  1  0
 72201  1  0
 73202  1  0
 75203  1  0
 76204  1  0
 79205  1  0
 79206  1  0
 79207  1  0
 80208  1  0
 81209  1  0
 88210  1  0
 89211  1  0
 92212  1  0
 92213  1  0
 92214  1  0
 93215  1  0
 94216  1  0
 96217  1  0
 97218  1  0
100219  1  0
100220  1  0
100221  1  0
101222  1  0
102223  1  0
109224  1  0
110225  1  0
113226  1  0
113227  1  0
113228  1  0
114229  1  0
115230  1  0
117231  1  0
118232  1  0
121233  1  0
121234  1  0
121235  1  0
122236  1  0
123237  1  0
130238  1  0
131239  1  0
134240  1  0
134241  1  0
134242  1  0
135243  1  0
136244  1  0
138245  1  0
139246  1  0
142247  1  0
142248  1  0
142249  1  0
143250  1  0
144251  1  0
147252  1  0
M  END

