
     RDKit          3D

136149  0  0  0  0  0  0  0  0999 V2000
   -3.1833    3.7027    7.0685 C   0  0  0  0  0  0  0  0  0  0  0  0
   -1.9239    3.3529    7.4032 C   0  0  0  0  0  0  0  0  0  0  0  0
   -0.8433    2.9760    6.4822 C   0  0  0  0  0  0  0  0  0  0  0  0
   -0.9844    2.5845    5.2943 O   0  0  0  0  0  0  0  0  0  0  0  0
    0.4204    3.0671    7.1942 C   0  0  0  0  0  0  0  0  0  0  0  0
    1.7225    2.9704    6.6888 C   0  0  0  0  0  0  0  0  0  0  0  0
    2.0108    2.4868    5.0156 Cl  0  0  0  0  0  0  0  0  0  0  0  0
    2.7944    3.2791    7.5482 C   0  0  0  0  0  0  0  0  0  0  0  0
    4.4518    3.1552    6.9569 Cl  0  0  0  0  0  0  0  0  0  0  0  0
    2.5411    3.7477    8.8603 C   0  0  0  0  0  0  0  0  0  0  0  0
    3.8889    4.2377    9.8951 Cl  0  0  0  0  0  0  0  0  0  0  0  0
    1.2148    3.8521    9.3371 C   0  0  0  0  0  0  0  0  0  0  0  0
    0.8928    4.7103   10.8441 Cl  0  0  0  0  0  0  0  0  0  0  0  0
    0.1648    3.4099    8.5108 C   0  0  0  0  0  0  0  0  0  0  0  0
   -1.3052    3.3894    8.7539 C   0  0  0  0  0  0  0  0  0  0  0  0
   -1.9028    2.9533    9.8915 C   0  0  0  0  0  0  0  0  0  0  0  0
   -3.3239    2.7305    9.9779 C   0  0  0  0  0  0  0  0  0  0  0  0
   -4.4627    2.5362   10.0507 N   0  0  0  0  0  0  0  0  0  0  0  0
   -1.1353    2.4170   10.9876 C   0  0  0  0  0  0  0  0  0  0  0  0
   -0.5243    1.9660   11.8641 N   0  0  0  0  0  0  0  0  0  0  0  0
   -3.6379    3.7712    5.6753 C   0  0  0  0  0  0  0  0  0  0  0  0
   -3.0184    4.5066    4.6706 C   0  0  0  0  0  0  0  0  0  0  0  0
   -3.4841    4.1830    3.3887 C   0  0  0  0  0  0  0  0  0  0  0  0
   -2.9402    4.6400    2.1726 C   0  0  0  0  0  0  0  0  0  0  0  0
   -1.7184    5.4655    2.1240 C   0  0  0  0  0  0  0  0  0  0  0  0
   -1.5288    6.6018    1.3478 C   0  0  0  0  0  0  0  0  0  0  0  0
   -0.2124    7.0819    1.3799 C   0  0  0  0  0  0  0  0  0  0  0  0
    0.6356    6.3208    2.1794 C   0  0  0  0  0  0  0  0  0  0  0  0
    2.1208    6.5006    2.2982 C   0  0  0  0  0  0  0  0  0  0  0  0
    2.5880    6.3762    3.7477 C   0  0  0  0  0  0  0  0  0  0  0  0
   -0.2410    5.0339    2.8130 S   0  0  0  0  0  0  0  0  0  0  0  0
   -3.4726    4.0869    0.9967 C   0  0  0  0  0  0  0  0  0  0  0  0
   -4.4739    3.1131    1.0005 C   0  0  0  0  0  0  0  0  0  0  0  0
   -5.0470    2.6851    2.2179 C   0  0  0  0  0  0  0  0  0  0  0  0
   -6.0644    1.6177    2.2539 C   0  0  0  0  0  0  0  0  0  0  0  0
   -7.2730    1.6297    1.5656 C   0  0  0  0  0  0  0  0  0  0  0  0
   -7.9902    0.4348    1.6869 C   0  0  0  0  0  0  0  0  0  0  0  0
   -7.3384   -0.5219    2.4586 C   0  0  0  0  0  0  0  0  0  0  0  0
   -7.8462   -1.8985    2.7608 C   0  0  0  0  0  0  0  0  0  0  0  0
   -8.4559   -1.9602    4.1581 C   0  0  0  0  0  0  0  0  0  0  0  0
   -5.8811    0.1193    3.0026 S   0  0  0  0  0  0  0  0  0  0  0  0
   -4.5116    3.2320    3.3995 C   0  0  0  0  0  0  0  0  0  0  0  0
   -4.8139    2.7746    4.9970 S   0  0  0  0  0  0  0  0  0  0  0  0
   -4.6500    2.4916   -0.2537 C   0  0  0  0  0  0  0  0  0  0  0  0
   -3.7566    2.9375   -1.2429 C   0  0  0  0  0  0  0  0  0  0  0  0
   -2.8121    4.1560   -0.5380 S   0  0  0  0  0  0  0  0  0  0  0  0
   -3.3124    2.2020   -2.4701 C   0  0  0  0  0  0  0  0  0  0  0  0
   -2.2727    2.7565   -3.2427 C   0  0  0  0  0  0  0  0  0  0  0  0
   -1.4543    1.9529   -4.0410 C   0  0  0  0  0  0  0  0  0  0  0  0
   -1.6392    0.5595   -4.1074 C   0  0  0  0  0  0  0  0  0  0  0  0
   -2.8391    0.0437   -3.5654 C   0  0  0  0  0  0  0  0  0  0  0  0
   -3.2448   -1.2412   -3.7256 N   0  0  0  0  0  0  0  0  0  0  0  0
   -4.6301   -1.2562   -2.8342 S   0  0  0  0  0  0  0  0  0  0  0  0
   -4.7784    0.2686   -2.2270 N   0  0  0  0  0  0  0  0  0  0  0  0
   -3.6770    0.8676   -2.7468 C   0  0  0  0  0  0  0  0  0  0  0  0
   -0.4748   -0.2976   -4.4930 C   0  0  0  0  0  0  0  0  0  0  0  0
   -0.3970   -1.6986   -4.4331 C   0  0  0  0  0  0  0  0  0  0  0  0
    0.9217   -2.1957   -4.3723 C   0  0  0  0  0  0  0  0  0  0  0  0
    1.2884   -3.5285   -4.0864 C   0  0  0  0  0  0  0  0  0  0  0  0
    0.2847   -4.6051   -3.9939 C   0  0  0  0  0  0  0  0  0  0  0  0
   -0.6128   -4.9606   -4.9933 C   0  0  0  0  0  0  0  0  0  0  0  0
   -1.4627   -6.0193   -4.6294 C   0  0  0  0  0  0  0  0  0  0  0  0
   -2.5145   -6.5609   -5.5570 C   0  0  0  0  0  0  0  0  0  0  0  0
   -3.8358   -5.8239   -5.3754 C   0  0  0  0  0  0  0  0  0  0  0  0
   -1.2511   -6.4635   -3.3174 C   0  0  0  0  0  0  0  0  0  0  0  0
   -1.9612   -7.5763   -2.6084 C   0  0  0  0  0  0  0  0  0  0  0  0
   -1.2762   -8.9115   -2.8753 C   0  0  0  0  0  0  0  0  0  0  0  0
    0.0120   -5.5770   -2.6495 S   0  0  0  0  0  0  0  0  0  0  0  0
    2.6487   -3.7687   -3.8170 C   0  0  0  0  0  0  0  0  0  0  0  0
    3.6179   -2.7594   -3.8644 C   0  0  0  0  0  0  0  0  0  0  0  0
    3.2546   -1.4375   -4.1851 C   0  0  0  0  0  0  0  0  0  0  0  0
    4.2162   -0.3240   -4.1183 C   0  0  0  0  0  0  0  0  0  0  0  0
    4.4744    0.5898   -5.1311 C   0  0  0  0  0  0  0  0  0  0  0  0
    5.3464    1.6224   -4.7468 C   0  0  0  0  0  0  0  0  0  0  0  0
    5.7169    2.7315   -5.6953 C   0  0  0  0  0  0  0  0  0  0  0  0
    4.6530    3.8229   -5.6982 C   0  0  0  0  0  0  0  0  0  0  0  0
    5.7509    1.5318   -3.4089 C   0  0  0  0  0  0  0  0  0  0  0  0
    5.0385    0.1614   -2.7335 S   0  0  0  0  0  0  0  0  0  0  0  0
    6.5804    2.5051   -2.6205 C   0  0  0  0  0  0  0  0  0  0  0  0
    5.7100    3.3237   -1.6740 C   0  0  0  0  0  0  0  0  0  0  0  0
    1.8923   -1.1953   -4.4340 C   0  0  0  0  0  0  0  0  0  0  0  0
    1.1166    0.2863   -4.5424 S   0  0  0  0  0  0  0  0  0  0  0  0
    4.9031   -3.2093   -3.5222 C   0  0  0  0  0  0  0  0  0  0  0  0
    4.9284   -4.5580   -3.1794 C   0  0  0  0  0  0  0  0  0  0  0  0
    3.3771   -5.2078   -3.3375 S   0  0  0  0  0  0  0  0  0  0  0  0
    6.1173   -5.2838   -2.6928 C   0  0  0  0  0  0  0  0  0  0  0  0
    6.1459   -5.8638   -1.4697 C   0  0  0  0  0  0  0  0  0  0  0  0
    5.0339   -5.7636   -0.5507 C   0  0  0  0  0  0  0  0  0  0  0  0
    4.1431   -5.6833    0.1865 N   0  0  0  0  0  0  0  0  0  0  0  0
    7.3171   -6.5617   -0.9953 C   0  0  0  0  0  0  0  0  0  0  0  0
    8.2575   -7.1212   -0.6172 N   0  0  0  0  0  0  0  0  0  0  0  0
    7.2717   -5.3117   -3.5662 C   0  0  0  0  0  0  0  0  0  0  0  0
    8.1862   -5.3323   -4.2775 N   0  0  0  0  0  0  0  0  0  0  0  0
   -3.8948    3.9918    7.8255 H   0  0  0  0  0  0  0  0  0  0  0  0
   -2.2118    5.1996    4.8686 H   0  0  0  0  0  0  0  0  0  0  0  0
   -2.3073    7.0509    0.7454 H   0  0  0  0  0  0  0  0  0  0  0  0
    0.1144    7.9410    0.8124 H   0  0  0  0  0  0  0  0  0  0  0  0
    2.6296    5.7291    1.6795 H   0  0  0  0  0  0  0  0  0  0  0  0
    2.4055    7.5057    1.9146 H   0  0  0  0  0  0  0  0  0  0  0  0
    3.6794    6.5674    3.8028 H   0  0  0  0  0  0  0  0  0  0  0  0
    2.0613    7.1163    4.3923 H   0  0  0  0  0  0  0  0  0  0  0  0
    2.3906    5.3545    4.1339 H   0  0  0  0  0  0  0  0  0  0  0  0
   -7.6187    2.4711    0.9797 H   0  0  0  0  0  0  0  0  0  0  0  0
   -8.9492    0.2695    1.2140 H   0  0  0  0  0  0  0  0  0  0  0  0
   -8.6123   -2.1945    2.0127 H   0  0  0  0  0  0  0  0  0  0  0  0
   -7.0049   -2.6253    2.6948 H   0  0  0  0  0  0  0  0  0  0  0  0
   -9.2597   -1.1996    4.2680 H   0  0  0  0  0  0  0  0  0  0  0  0
   -7.6715   -1.7775    4.9275 H   0  0  0  0  0  0  0  0  0  0  0  0
   -8.8927   -2.9670    4.3298 H   0  0  0  0  0  0  0  0  0  0  0  0
   -5.3293    1.6670   -0.3808 H   0  0  0  0  0  0  0  0  0  0  0  0
   -2.0038    3.7998   -3.1412 H   0  0  0  0  0  0  0  0  0  0  0  0
   -0.6016    2.4186   -4.5132 H   0  0  0  0  0  0  0  0  0  0  0  0
   -1.2445   -2.3529   -4.3212 H   0  0  0  0  0  0  0  0  0  0  0  0
   -0.6476   -4.4709   -5.9570 H   0  0  0  0  0  0  0  0  0  0  0  0
   -2.1774   -6.4445   -6.6103 H   0  0  0  0  0  0  0  0  0  0  0  0
   -2.6682   -7.6445   -5.3770 H   0  0  0  0  0  0  0  0  0  0  0  0
   -3.7028   -4.7374   -5.5703 H   0  0  0  0  0  0  0  0  0  0  0  0
   -4.5880   -6.2264   -6.0902 H   0  0  0  0  0  0  0  0  0  0  0  0
   -4.2199   -5.9696   -4.3406 H   0  0  0  0  0  0  0  0  0  0  0  0
   -1.9519   -7.3769   -1.5150 H   0  0  0  0  0  0  0  0  0  0  0  0
   -3.0219   -7.6277   -2.9341 H   0  0  0  0  0  0  0  0  0  0  0  0
   -1.3282   -9.1657   -3.9543 H   0  0  0  0  0  0  0  0  0  0  0  0
   -1.7893   -9.7094   -2.2995 H   0  0  0  0  0  0  0  0  0  0  0  0
   -0.2094   -8.8725   -2.5593 H   0  0  0  0  0  0  0  0  0  0  0  0
    4.0304    0.5208   -6.1168 H   0  0  0  0  0  0  0  0  0  0  0  0
    5.8120    2.3182   -6.7241 H   0  0  0  0  0  0  0  0  0  0  0  0
    6.7066    3.1665   -5.4409 H   0  0  0  0  0  0  0  0  0  0  0  0
    3.7064    3.4232   -6.1213 H   0  0  0  0  0  0  0  0  0  0  0  0
    4.4633    4.1909   -4.6682 H   0  0  0  0  0  0  0  0  0  0  0  0
    4.9927    4.6722   -6.3230 H   0  0  0  0  0  0  0  0  0  0  0  0
    7.1417    3.1909   -3.2808 H   0  0  0  0  0  0  0  0  0  0  0  0
    7.3276    1.9367   -2.0226 H   0  0  0  0  0  0  0  0  0  0  0  0
    5.2014    2.6610   -0.9416 H   0  0  0  0  0  0  0  0  0  0  0  0
    6.3447    4.0453   -1.1145 H   0  0  0  0  0  0  0  0  0  0  0  0
    4.9438    3.8954   -2.2467 H   0  0  0  0  0  0  0  0  0  0  0  0
    5.7811   -2.5763   -3.4922 H   0  0  0  0  0  0  0  0  0  0  0  0
  1  2  2  3
  2  3  1  0
  3  4  2  0
  3  5  1  0
  5  6  2  0
  6  7  1  0
  6  8  1  0
  8  9  1  0
  8 10  2  0
 10 11  1  0
 10 12  1  0
 12 13  1  0
 12 14  2  0
 14 15  1  0
 15 16  2  3
 16 17  1  0
 17 18  3  0
 16 19  1  0
 19 20  3  0
  1 21  1  0
 21 22  2  0
 22 23  1  0
 23 24  2  0
 24 25  1  0
 25 26  2  0
 26 27  1  0
 27 28  2  0
 28 29  1  0
 29 30  1  0
 28 31  1  0
 24 32  1  0
 32 33  2  0
 33 34  1  0
 34 35  1  0
 35 36  2  0
 36 37  1  0
 37 38  2  0
 38 39  1  0
 39 40  1  0
 38 41  1  0
 34 42  2  0
 42 43  1  0
 33 44  1  0
 44 45  2  0
 45 46  1  0
 45 47  1  0
 47 48  2  0
 48 49  1  0
 49 50  2  0
 50 51  1  0
 51 52  2  0
 52 53  1  0
 53 54  1  0
 54 55  2  0
 50 56  1  0
 56 57  2  0
 57 58  1  0
 58 59  2  0
 59 60  1  0
 60 61  2  0
 61 62  1  0
 62 63  1  0
 63 64  1  0
 62 65  2  0
 65 66  1  0
 66 67  1  0
 65 68  1  0
 59 69  1  0
 69 70  2  0
 70 71  1  0
 71 72  1  0
 72 73  2  0
 73 74  1  0
 74 75  1  0
 75 76  1  0
 74 77  2  0
 77 78  1  0
 77 79  1  0
 79 80  1  0
 71 81  2  0
 81 82  1  0
 70 83  1  0
 83 84  2  0
 84 85  1  0
 84 86  1  0
 86 87  2  3
 87 88  1  0
 88 89  3  0
 87 90  1  0
 90 91  3  0
 86 92  1  0
 92 93  3  0
 15  2  1  0
 43 21  1  0
 55 47  1  0
 82 56  1  0
 14  5  1  0
 42 23  1  0
 55 51  1  0
 81 58  1  0
 31 25  1  0
 46 32  1  0
 68 60  1  0
 85 69  1  0
 41 35  1  0
 78 72  1  0
  1 94  1  0
 22 95  1  0
 26 96  1  0
 27 97  1  0
 29 98  1  0
 29 99  1  0
 30100  1  0
 30101  1  0
 30102  1  0
 36103  1  0
 37104  1  0
 39105  1  0
 39106  1  0
 40107  1  0
 40108  1  0
 40109  1  0
 44110  1  0
 48111  1  0
 49112  1  0
 57113  1  0
 61114  1  0
 63115  1  0
 63116  1  0
 64117  1  0
 64118  1  0
 64119  1  0
 66120  1  0
 66121  1  0
 67122  1  0
 67123  1  0
 67124  1  0
 73125  1  0
 75126  1  0
 75127  1  0
 76128  1  0
 76129  1  0
 76130  1  0
 79131  1  0
 79132  1  0
 80133  1  0
 80134  1  0
 80135  1  0
 83136  1  0
M  END

