
     RDKit          3D

133148  0  0  0  0  0  0  0  0999 V2000
   -3.7828    3.0967   -6.0168 C   0  0  0  0  0  0  0  0  0  0  0  0
   -4.0847    2.2191   -6.9953 C   0  0  0  0  0  0  0  0  0  0  0  0
   -5.0812    2.5302   -8.0212 C   0  0  0  0  0  0  0  0  0  0  0  0
   -5.6257    3.6566   -8.1909 O   0  0  0  0  0  0  0  0  0  0  0  0
   -5.3220    1.3473   -8.8338 C   0  0  0  0  0  0  0  0  0  0  0  0
   -6.1424    1.2055   -9.9606 C   0  0  0  0  0  0  0  0  0  0  0  0
   -7.2204    2.5103  -10.4545 Cl  0  0  0  0  0  0  0  0  0  0  0  0
   -6.0716    0.0044  -10.6943 C   0  0  0  0  0  0  0  0  0  0  0  0
   -7.1068   -0.2150  -12.1092 Cl  0  0  0  0  0  0  0  0  0  0  0  0
   -5.1346   -0.9880  -10.3366 C   0  0  0  0  0  0  0  0  0  0  0  0
   -4.9677   -2.4321  -11.3423 Cl  0  0  0  0  0  0  0  0  0  0  0  0
   -4.3062   -0.8144   -9.2036 C   0  0  0  0  0  0  0  0  0  0  0  0
   -2.9571   -1.9252   -8.9470 Cl  0  0  0  0  0  0  0  0  0  0  0  0
   -4.4883    0.3293   -8.3991 C   0  0  0  0  0  0  0  0  0  0  0  0
   -3.6977    0.7869   -7.2217 C   0  0  0  0  0  0  0  0  0  0  0  0
   -3.0945   -0.0263   -6.3271 C   0  0  0  0  0  0  0  0  0  0  0  0
   -1.7906    0.2889   -5.8035 C   0  0  0  0  0  0  0  0  0  0  0  0
   -0.7375    0.5328   -5.3946 N   0  0  0  0  0  0  0  0  0  0  0  0
   -3.6295   -1.3356   -6.0420 C   0  0  0  0  0  0  0  0  0  0  0  0
   -4.0761   -2.3802   -5.8108 N   0  0  0  0  0  0  0  0  0  0  0  0
   -2.9687    2.8308   -4.8236 C   0  0  0  0  0  0  0  0  0  0  0  0
   -3.4276    1.9862   -3.7997 C   0  0  0  0  0  0  0  0  0  0  0  0
   -2.6333    1.7181   -2.6608 C   0  0  0  0  0  0  0  0  0  0  0  0
   -3.2069    0.7859   -1.7332 N   0  0  0  0  0  0  0  0  0  0  0  0
   -4.5914    0.4674   -2.4612 S   0  0  0  0  0  4  0  0  0  0  0  0
   -4.6835    1.2937   -3.8304 N   0  0  0  0  0  0  0  0  0  0  0  0
   -1.3797    2.3215   -2.4916 C   0  0  0  0  0  0  0  0  0  0  0  0
   -0.9393    3.2133   -3.4821 C   0  0  0  0  0  0  0  0  0  0  0  0
    0.2531    3.8614   -3.4075 N   0  0  0  0  0  0  0  0  0  0  0  0
    0.2097    4.7364   -4.8083 S   0  0  0  0  0  0  0  0  0  0  0  0
   -1.2251    4.3595   -5.5375 N   0  0  0  0  0  0  0  0  0  0  0  0
   -1.7406    3.4850   -4.6345 C   0  0  0  0  0  0  0  0  0  0  0  0
   -0.5104    1.9340   -1.3743 C   0  0  0  0  0  0  0  0  0  0  0  0
   -0.7652    2.0909    0.0110 C   0  0  0  0  0  0  0  0  0  0  0  0
   -1.6893    3.0402    0.6141 N   0  0  0  0  0  0  0  0  0  0  0  0
   -1.4699    3.4823    1.9622 C   0  0  0  0  0  0  0  0  0  0  0  0
   -2.3891    3.1523    2.9695 C   0  0  0  0  0  0  0  0  0  0  0  0
   -2.0868    3.4195    4.3083 C   0  0  0  0  0  0  0  0  0  0  0  0
   -0.8631    4.0047    4.6451 C   0  0  0  0  0  0  0  0  0  0  0  0
   -0.4067    4.2067    6.3659 S   0  0  0  0  0  0  0  0  0  0  0  0
    0.4234    2.5843    6.4427 C   0  0  0  0  0  0  0  0  0  0  0  0
    0.0240    4.4105    3.6376 C   0  0  0  0  0  0  0  0  0  0  0  0
   -0.2801    4.1497    2.2988 C   0  0  0  0  0  0  0  0  0  0  0  0
   -2.6430    3.7789   -0.1655 C   0  0  0  0  0  0  0  0  0  0  0  0
   -3.9991    3.4202   -0.1487 C   0  0  0  0  0  0  0  0  0  0  0  0
   -4.9082    4.0713   -0.9849 C   0  0  0  0  0  0  0  0  0  0  0  0
   -4.4708    5.0939   -1.8348 C   0  0  0  0  0  0  0  0  0  0  0  0
   -5.6174    5.8806   -2.9736 S   0  0  0  0  0  0  0  0  0  0  0  0
   -6.0833    7.1857   -1.7905 C   0  0  0  0  0  0  0  0  0  0  0  0
   -3.1254    5.4887   -1.8180 C   0  0  0  0  0  0  0  0  0  0  0  0
   -2.2193    4.8499   -0.9686 C   0  0  0  0  0  0  0  0  0  0  0  0
    0.1018    1.2638    0.7448 C   0  0  0  0  0  0  0  0  0  0  0  0
    0.2647    0.8334    2.3631 S   0  0  0  0  0  0  0  0  0  0  0  0
    1.5600   -0.2416    2.0968 C   0  0  0  0  0  0  0  0  0  0  0  0
    1.8623   -0.2688    0.7278 C   0  0  0  0  0  0  0  0  0  0  0  0
    3.0812   -0.7919    0.1759 N   0  0  0  0  0  0  0  0  0  0  0  0
    4.0720    0.1391   -0.3181 C   0  0  0  0  0  0  0  0  0  0  0  0
    4.2908    1.3629    0.3501 C   0  0  0  0  0  0  0  0  0  0  0  0
    5.1921    2.2968   -0.1600 C   0  0  0  0  0  0  0  0  0  0  0  0
    5.8889    2.0235   -1.3447 C   0  0  0  0  0  0  0  0  0  0  0  0
    7.0393    3.2318   -2.0030 S   0  0  0  0  0  0  0  0  0  0  0  0
    8.4478    2.5701   -1.0597 C   0  0  0  0  0  0  0  0  0  0  0  0
    5.6833    0.8104   -2.0150 C   0  0  0  0  0  0  0  0  0  0  0  0
    4.7805   -0.1261   -1.5057 C   0  0  0  0  0  0  0  0  0  0  0  0
    3.2508   -2.2114    0.0204 C   0  0  0  0  0  0  0  0  0  0  0  0
    4.4537   -2.8234    0.4092 C   0  0  0  0  0  0  0  0  0  0  0  0
    4.6200   -4.2055    0.2638 C   0  0  0  0  0  0  0  0  0  0  0  0
    3.5841   -4.9835   -0.2711 C   0  0  0  0  0  0  0  0  0  0  0  0
    3.8030   -6.7540   -0.4757 S   0  0  0  0  0  0  0  0  0  0  0  0
    3.1182   -7.1654    1.1614 C   0  0  0  0  0  0  0  0  0  0  0  0
    2.3963   -4.3720   -0.6881 C   0  0  0  0  0  0  0  0  0  0  0  0
    2.2321   -2.9921   -0.5480 C   0  0  0  0  0  0  0  0  0  0  0  0
    1.0145    0.5755    0.0140 C   0  0  0  0  0  0  0  0  0  0  0  0
    0.8008    0.8751   -1.6148 S   0  0  0  0  0  0  0  0  0  0  0  0
    2.1252   -1.1026    3.1472 C   0  0  0  0  0  0  0  0  0  0  0  0
    1.7806   -2.4602    3.1984 C   0  0  0  0  0  0  0  0  0  0  0  0
    2.0349   -3.2404    4.3547 C   0  0  0  0  0  0  0  0  0  0  0  0
    1.5306   -4.5757    4.2999 N   0  0  0  0  0  0  0  0  0  0  0  0
    0.8436   -4.5674    2.8580 S   0  0  0  0  0  4  0  0  0  0  0  0
    1.0274   -3.1355    2.1849 N   0  0  0  0  0  0  0  0  0  0  0  0
    2.5877   -2.6650    5.5072 C   0  0  0  0  0  0  0  0  0  0  0  0
    3.0117   -1.3286    5.4375 C   0  0  0  0  0  0  0  0  0  0  0  0
    3.5803   -0.6865    6.4891 N   0  0  0  0  0  0  0  0  0  0  0  0
    3.7617    0.8285    5.8497 S   0  0  0  0  0  0  0  0  0  0  0  0
    3.1464    0.7597    4.3172 N   0  0  0  0  0  0  0  0  0  0  0  0
    2.7740   -0.5462    4.2615 C   0  0  0  0  0  0  0  0  0  0  0  0
    2.4190   -3.3428    6.8071 C   0  0  0  0  0  0  0  0  0  0  0  0
    1.3006   -3.1662    7.5412 C   0  0  0  0  0  0  0  0  0  0  0  0
    0.2420   -2.1707    7.2519 C   0  0  0  0  0  0  0  0  0  0  0  0
    0.1179   -1.4703    6.2078 O   0  0  0  0  0  0  0  0  0  0  0  0
   -0.6580   -2.1475    8.3709 C   0  0  0  0  0  0  0  0  0  0  0  0
   -0.2772   -3.0810    9.3052 C   0  0  0  0  0  0  0  0  0  0  0  0
   -1.0953   -3.1233   10.4315 C   0  0  0  0  0  0  0  0  0  0  0  0
   -2.2865   -1.9360   10.2000 S   0  0  0  0  0  0  0  0  0  0  0  0
   -1.7718   -1.3941    8.6863 C   0  0  0  0  0  0  0  0  0  0  0  0
   -2.4973   -0.1104    7.7354 Cl  0  0  0  0  0  0  0  0  0  0  0  0
    0.9287   -3.8168    8.8473 C   0  0  0  0  0  0  0  0  0  0  0  0
    1.4521   -4.9256    9.4268 C   0  0  0  0  0  0  0  0  0  0  0  0
    0.9235   -5.4649   10.6542 C   0  0  0  0  0  0  0  0  0  0  0  0
    0.5060   -5.9100   11.6382 N   0  0  0  0  0  0  0  0  0  0  0  0
    2.4900   -5.7098    8.8154 C   0  0  0  0  0  0  0  0  0  0  0  0
    3.3185   -6.3619    8.3324 N   0  0  0  0  0  0  0  0  0  0  0  0
   -4.1729    4.1055   -6.0967 H   0  0  0  0  0  0  0  0  0  0  0  0
   -3.3093    2.6399    2.7259 H   0  0  0  0  0  0  0  0  0  0  0  0
   -2.7823    3.1267    5.0834 H   0  0  0  0  0  0  0  0  0  0  0  0
    0.8390    2.4249    7.4564 H   0  0  0  0  0  0  0  0  0  0  0  0
    1.2500    2.5580    5.7032 H   0  0  0  0  0  0  0  0  0  0  0  0
   -0.2969    1.7706    6.2179 H   0  0  0  0  0  0  0  0  0  0  0  0
    0.9686    4.8750    3.8919 H   0  0  0  0  0  0  0  0  0  0  0  0
    0.4320    4.4145    1.5263 H   0  0  0  0  0  0  0  0  0  0  0  0
   -4.3411    2.6066    0.4835 H   0  0  0  0  0  0  0  0  0  0  0  0
   -5.9538    3.7734   -0.9805 H   0  0  0  0  0  0  0  0  0  0  0  0
   -6.7952    7.8833   -2.2776 H   0  0  0  0  0  0  0  0  0  0  0  0
   -6.5726    6.7386   -0.8997 H   0  0  0  0  0  0  0  0  0  0  0  0
   -5.1862    7.7575   -1.4798 H   0  0  0  0  0  0  0  0  0  0  0  0
   -2.7793    6.2789   -2.4768 H   0  0  0  0  0  0  0  0  0  0  0  0
   -1.1766    5.1484   -0.9718 H   0  0  0  0  0  0  0  0  0  0  0  0
    3.7592    1.5918    1.2669 H   0  0  0  0  0  0  0  0  0  0  0  0
    5.3451    3.2348    0.3592 H   0  0  0  0  0  0  0  0  0  0  0  0
    8.2401    2.6525    0.0283 H   0  0  0  0  0  0  0  0  0  0  0  0
    9.3576    3.1620   -1.2996 H   0  0  0  0  0  0  0  0  0  0  0  0
    8.6217    1.5094   -1.3284 H   0  0  0  0  0  0  0  0  0  0  0  0
    6.2164    0.5988   -2.9343 H   0  0  0  0  0  0  0  0  0  0  0  0
    4.6134   -1.0483   -2.0498 H   0  0  0  0  0  0  0  0  0  0  0  0
    5.2507   -2.2332    0.8361 H   0  0  0  0  0  0  0  0  0  0  0  0
    5.5509   -4.6644    0.5708 H   0  0  0  0  0  0  0  0  0  0  0  0
    2.0311   -6.9292    1.1811 H   0  0  0  0  0  0  0  0  0  0  0  0
    3.2602   -8.2497    1.3543 H   0  0  0  0  0  0  0  0  0  0  0  0
    3.6477   -6.5934    1.9492 H   0  0  0  0  0  0  0  0  0  0  0  0
    1.5974   -4.9700   -1.1138 H   0  0  0  0  0  0  0  0  0  0  0  0
    1.3071   -2.5321   -0.8699 H   0  0  0  0  0  0  0  0  0  0  0  0
    3.2115   -4.0026    7.1210 H   0  0  0  0  0  0  0  0  0  0  0  0
   -0.9885   -3.7475   11.3027 H   0  0  0  0  0  0  0  0  0  0  0  0
  1  2  2  3
  2  3  1  0
  3  4  2  0
  3  5  1  0
  5  6  2  0
  6  7  1  0
  6  8  1  0
  8  9  1  0
  8 10  2  0
 10 11  1  0
 10 12  1  0
 12 13  1  0
 12 14  2  0
 14 15  1  0
 15 16  2  3
 16 17  1  0
 17 18  3  0
 16 19  1  0
 19 20  3  0
  1 21  1  0
 21 22  2  0
 22 23  1  0
 23 24  1  0
 24 25  2  0
 25 26  2  0
 23 27  2  0
 27 28  1  0
 28 29  2  0
 29 30  1  0
 30 31  1  0
 31 32  2  0
 27 33  1  0
 33 34  2  0
 34 35  1  0
 35 36  1  0
 36 37  2  0
 37 38  1  0
 38 39  2  0
 39 40  1  0
 40 41  1  0
 39 42  1  0
 42 43  2  0
 35 44  1  0
 44 45  2  0
 45 46  1  0
 46 47  2  0
 47 48  1  0
 48 49  1  0
 47 50  1  0
 50 51  2  0
 34 52  1  0
 52 53  1  0
 53 54  1  0
 54 55  2  0
 55 56  1  0
 56 57  1  0
 57 58  2  0
 58 59  1  0
 59 60  2  0
 60 61  1  0
 61 62  1  0
 60 63  1  0
 63 64  2  0
 56 65  1  0
 65 66  2  0
 66 67  1  0
 67 68  2  0
 68 69  1  0
 69 70  1  0
 68 71  1  0
 71 72  2  0
 55 73  1  0
 73 74  1  0
 54 75  1  0
 75 76  2  0
 76 77  1  0
 77 78  1  0
 78 79  2  0
 79 80  2  0
 77 81  2  0
 81 82  1  0
 82 83  2  0
 83 84  1  0
 84 85  1  0
 85 86  2  0
 81 87  1  0
 87 88  2  3
 88 89  1  0
 89 90  2  0
 89 91  1  0
 91 92  1  0
 92 93  2  0
 93 94  1  0
 94 95  1  0
 95 96  1  0
 92 97  1  0
 97 98  2  3
 98 99  1  0
 99100  3  0
 98101  1  0
101102  3  0
 15  2  1  0
 32 21  1  0
 74 33  1  0
 86 75  1  0
 97 88  1  0
 14  5  1  0
 26 22  1  0
 32 28  1  0
 43 36  1  0
 51 44  1  0
 73 52  2  0
 80 76  1  0
 86 82  1  0
 95 91  2  0
 64 57  1  0
 72 65  1  0
  1103  1  0
 37104  1  0
 38105  1  0
 41106  1  0
 41107  1  0
 41108  1  0
 42109  1  0
 43110  1  0
 45111  1  0
 46112  1  0
 49113  1  0
 49114  1  0
 49115  1  0
 50116  1  0
 51117  1  0
 58118  1  0
 59119  1  0
 62120  1  0
 62121  1  0
 62122  1  0
 63123  1  0
 64124  1  0
 66125  1  0
 67126  1  0
 70127  1  0
 70128  1  0
 70129  1  0
 71130  1  0
 72131  1  0
 87132  1  0
 93133  1  0
M  END

