
     RDKit          3D

135148  0  0  0  0  0  0  0  0999 V2000
    5.4642    4.2695   -3.1952 C   0  0  0  0  0  0  0  0  0  0  0  0
    6.2603    3.5168   -2.3925 C   0  0  0  0  0  0  0  0  0  0  0  0
    5.8180    2.7333   -1.2276 C   0  0  0  0  0  0  0  0  0  0  0  0
    4.6362    2.5745   -0.8366 O   0  0  0  0  0  0  0  0  0  0  0  0
    6.9850    2.1958   -0.5484 C   0  0  0  0  0  0  0  0  0  0  0  0
    7.0632    1.5671    0.7087 C   0  0  0  0  0  0  0  0  0  0  0  0
    5.5971    1.1080    1.5875 Cl  0  0  0  0  0  0  0  0  0  0  0  0
    8.3379    1.3421    1.2693 C   0  0  0  0  0  0  0  0  0  0  0  0
    8.4807    0.5607    2.8503 Cl  0  0  0  0  0  0  0  0  0  0  0  0
    9.4932    1.8154    0.6063 C   0  0  0  0  0  0  0  0  0  0  0  0
   11.0765    1.6228    1.3625 Cl  0  0  0  0  0  0  0  0  0  0  0  0
    9.3866    2.4704   -0.6370 C   0  0  0  0  0  0  0  0  0  0  0  0
   10.7897    3.3544   -1.2636 Cl  0  0  0  0  0  0  0  0  0  0  0  0
    8.1225    2.5733   -1.2487 C   0  0  0  0  0  0  0  0  0  0  0  0
    7.7327    3.2706   -2.5095 C   0  0  0  0  0  0  0  0  0  0  0  0
    8.4609    3.3091   -3.6430 C   0  0  0  0  0  0  0  0  0  0  0  0
    8.0790    4.0583   -4.8126 C   0  0  0  0  0  0  0  0  0  0  0  0
    7.7706    4.6412   -5.7578 N   0  0  0  0  0  0  0  0  0  0  0  0
    9.5543    2.3800   -3.8516 C   0  0  0  0  0  0  0  0  0  0  0  0
   10.4083    1.6134   -4.0182 N   0  0  0  0  0  0  0  0  0  0  0  0
    4.0056    4.3517   -3.0031 C   0  0  0  0  0  0  0  0  0  0  0  0
    3.1367    3.8200   -3.9570 C   0  0  0  0  0  0  0  0  0  0  0  0
    1.7523    3.6770   -3.6882 C   0  0  0  0  0  0  0  0  0  0  0  0
    0.9849    3.2404   -4.8127 N   0  0  0  0  0  0  0  0  0  0  0  0
    2.1325    3.0433   -5.9028 S   0  0  0  0  0  4  0  0  0  0  0  0
    3.5452    3.4307   -5.2758 N   0  0  0  0  0  0  0  0  0  0  0  0
    1.2265    3.9618   -2.4107 C   0  0  0  0  0  0  0  0  0  0  0  0
    2.0582    4.7401   -1.5605 C   0  0  0  0  0  0  0  0  0  0  0  0
    1.6151    5.3720   -0.4444 N   0  0  0  0  0  0  0  0  0  0  0  0
    2.9933    6.1129    0.0838 S   0  0  0  0  0  0  0  0  0  0  0  0
    4.1664    5.7061   -1.0002 N   0  0  0  0  0  0  0  0  0  0  0  0
    3.4394    4.9378   -1.8670 C   0  0  0  0  0  0  0  0  0  0  0  0
   -0.0411    3.3329   -1.9021 C   0  0  0  0  0  0  0  0  0  0  0  0
   -0.6332    2.1029   -2.3170 C   0  0  0  0  0  0  0  0  0  0  0  0
   -0.1870    1.2718   -3.3965 N   0  0  0  0  0  0  0  0  0  0  0  0
    1.0235    0.4730   -3.2575 C   0  0  0  0  0  0  0  0  0  0  0  0
    1.5684    0.1990   -1.9805 C   0  0  0  0  0  0  0  0  0  0  0  0
    2.7532   -0.5366   -1.8558 C   0  0  0  0  0  0  0  0  0  0  0  0
    3.4069   -1.0252   -2.9953 C   0  0  0  0  0  0  0  0  0  0  0  0
    4.9064   -1.9863   -2.8270 S   0  0  0  0  0  0  0  0  0  0  0  0
    6.0063   -0.5422   -2.9831 C   0  0  0  0  0  0  0  0  0  0  0  0
    2.8715   -0.7608   -4.2618 C   0  0  0  0  0  0  0  0  0  0  0  0
    1.6949   -0.0147   -4.3965 C   0  0  0  0  0  0  0  0  0  0  0  0
   -1.1299    1.0798   -4.4856 C   0  0  0  0  0  0  0  0  0  0  0  0
   -1.4068   -0.2015   -4.9989 C   0  0  0  0  0  0  0  0  0  0  0  0
   -2.3513   -0.3657   -6.0232 C   0  0  0  0  0  0  0  0  0  0  0  0
   -3.0506    0.7418   -6.5240 C   0  0  0  0  0  0  0  0  0  0  0  0
   -4.2391    0.5391   -7.8509 S   0  0  0  0  0  0  0  0  0  0  0  0
   -3.0181    0.8797   -9.1575 C   0  0  0  0  0  0  0  0  0  0  0  0
   -2.8246    2.0078   -5.9823 C   0  0  0  0  0  0  0  0  0  0  0  0
   -1.8737    2.1812   -4.9707 C   0  0  0  0  0  0  0  0  0  0  0  0
   -1.5836    1.6286   -1.4033 C   0  0  0  0  0  0  0  0  0  0  0  0
   -2.1373    0.0731   -1.1200 S   0  0  0  0  0  0  0  0  0  0  0  0
   -2.6668    0.4001    0.4656 C   0  0  0  0  0  0  0  0  0  0  0  0
   -2.3581    1.7314    0.7851 C   0  0  0  0  0  0  0  0  0  0  0  0
   -2.2879    2.2178    2.1370 N   0  0  0  0  0  0  0  0  0  0  0  0
   -3.5071    2.5514    2.8303 C   0  0  0  0  0  0  0  0  0  0  0  0
   -4.6068    3.0789    2.1256 C   0  0  0  0  0  0  0  0  0  0  0  0
   -5.8049    3.3454    2.7876 C   0  0  0  0  0  0  0  0  0  0  0  0
   -5.9335    3.0560    4.1500 C   0  0  0  0  0  0  0  0  0  0  0  0
   -7.4912    3.3662    4.9800 S   0  0  0  0  0  0  0  0  0  0  0  0
   -8.1721    1.7245    4.5815 C   0  0  0  0  0  0  0  0  0  0  0  0
   -4.8413    2.5428    4.8631 C   0  0  0  0  0  0  0  0  0  0  0  0
   -3.6313    2.2931    4.2109 C   0  0  0  0  0  0  0  0  0  0  0  0
   -0.9976    2.4165    2.7411 C   0  0  0  0  0  0  0  0  0  0  0  0
   -0.7312    3.5808    3.4854 C   0  0  0  0  0  0  0  0  0  0  0  0
    0.5541    3.8245    3.9857 C   0  0  0  0  0  0  0  0  0  0  0  0
    1.5812    2.8923    3.7625 C   0  0  0  0  0  0  0  0  0  0  0  0
    3.2527    3.2292    4.3153 S   0  0  0  0  0  0  0  0  0  0  0  0
    3.6966    4.1475    2.8132 C   0  0  0  0  0  0  0  0  0  0  0  0
    1.3250    1.7363    3.0217 C   0  0  0  0  0  0  0  0  0  0  0  0
    0.0419    1.4998    2.5182 C   0  0  0  0  0  0  0  0  0  0  0  0
   -1.7542    2.3844   -0.2911 C   0  0  0  0  0  0  0  0  0  0  0  0
   -0.7549    3.7205   -0.3901 S   0  0  0  0  0  0  0  0  0  0  0  0
   -2.8587   -0.6720    1.4482 C   0  0  0  0  0  0  0  0  0  0  0  0
   -3.8624   -0.7550    2.4133 C   0  0  0  0  0  0  0  0  0  0  0  0
   -3.7169   -1.8611    3.2628 C   0  0  0  0  0  0  0  0  0  0  0  0
   -4.6220   -2.2156    4.2666 O   0  0  0  0  0  0  0  0  0  0  0  0
   -5.7948   -1.4739    4.5719 C   0  0  0  0  0  0  0  0  0  0  0  0
   -2.5913   -2.6189    2.9864 C   0  0  0  0  0  0  0  0  0  0  0  0
   -1.7907   -1.9453    1.6720 S   0  0  0  0  0  0  0  0  0  0  0  0
   -2.1714   -3.8634    3.6610 C   0  0  0  0  0  0  0  0  0  0  0  0
   -2.3184   -5.0718    3.0887 C   0  0  0  0  0  0  0  0  0  0  0  0
   -3.1101   -5.3745    1.9009 C   0  0  0  0  0  0  0  0  0  0  0  0
   -3.6229   -4.5325    1.1176 O   0  0  0  0  0  0  0  0  0  0  0  0
   -3.2979   -6.8068    1.8250 C   0  0  0  0  0  0  0  0  0  0  0  0
   -4.1369   -7.5289    0.9702 C   0  0  0  0  0  0  0  0  0  0  0  0
   -4.9194   -6.7454   -0.4019 Cl  0  0  0  0  0  0  0  0  0  0  0  0
   -4.3323   -8.8988    1.2267 C   0  0  0  0  0  0  0  0  0  0  0  0
   -5.4090   -9.8365    0.1957 Cl  0  0  0  0  0  0  0  0  0  0  0  0
   -3.7557   -9.4970    2.3695 C   0  0  0  0  0  0  0  0  0  0  0  0
   -4.1142  -11.1782    2.7684 Cl  0  0  0  0  0  0  0  0  0  0  0  0
   -2.9519   -8.7296    3.2429 C   0  0  0  0  0  0  0  0  0  0  0  0
   -2.5968   -9.3421    4.8559 Cl  0  0  0  0  0  0  0  0  0  0  0  0
   -2.6464   -7.3969    2.8944 C   0  0  0  0  0  0  0  0  0  0  0  0
   -1.8457   -6.3713    3.6205 C   0  0  0  0  0  0  0  0  0  0  0  0
   -0.6423   -6.5870    4.1955 C   0  0  0  0  0  0  0  0  0  0  0  0
   -0.0012   -7.8684    4.1608 C   0  0  0  0  0  0  0  0  0  0  0  0
    0.4670   -8.9252    4.1467 N   0  0  0  0  0  0  0  0  0  0  0  0
    0.1363   -5.5191    4.7695 C   0  0  0  0  0  0  0  0  0  0  0  0
    0.7700   -4.6771    5.2589 N   0  0  0  0  0  0  0  0  0  0  0  0
    5.8495    4.7789   -4.0620 H   0  0  0  0  0  0  0  0  0  0  0  0
    1.0901    0.5491   -1.0781 H   0  0  0  0  0  0  0  0  0  0  0  0
    3.1559   -0.7339   -0.8628 H   0  0  0  0  0  0  0  0  0  0  0  0
    7.0534   -0.8686   -2.8388 H   0  0  0  0  0  0  0  0  0  0  0  0
    5.7485    0.2015   -2.2093 H   0  0  0  0  0  0  0  0  0  0  0  0
    5.9010   -0.0949   -3.9931 H   0  0  0  0  0  0  0  0  0  0  0  0
    3.3684   -1.1278   -5.1534 H   0  0  0  0  0  0  0  0  0  0  0  0
    1.3045    0.1750   -5.3951 H   0  0  0  0  0  0  0  0  0  0  0  0
   -0.8925   -1.0775   -4.6112 H   0  0  0  0  0  0  0  0  0  0  0  0
   -2.5458   -1.3502   -6.4298 H   0  0  0  0  0  0  0  0  0  0  0  0
   -3.5583    1.0783  -10.1082 H   0  0  0  0  0  0  0  0  0  0  0  0
   -2.4250    1.7763   -8.8952 H   0  0  0  0  0  0  0  0  0  0  0  0
   -2.3483    0.0042   -9.2910 H   0  0  0  0  0  0  0  0  0  0  0  0
   -3.3780    2.8570   -6.3484 H   0  0  0  0  0  0  0  0  0  0  0  0
   -1.7127    3.1684   -4.5575 H   0  0  0  0  0  0  0  0  0  0  0  0
   -4.5234    3.3043    1.0796 H   0  0  0  0  0  0  0  0  0  0  0  0
   -6.6426    3.7513    2.2360 H   0  0  0  0  0  0  0  0  0  0  0  0
   -9.2455    1.6899    4.8647 H   0  0  0  0  0  0  0  0  0  0  0  0
   -8.0937    1.5120    3.4947 H   0  0  0  0  0  0  0  0  0  0  0  0
   -7.6349    0.9371    5.1469 H   0  0  0  0  0  0  0  0  0  0  0  0
   -4.9372    2.3148    5.9214 H   0  0  0  0  0  0  0  0  0  0  0  0
   -2.8138    1.8587    4.7684 H   0  0  0  0  0  0  0  0  0  0  0  0
   -1.5061    4.3170    3.6545 H   0  0  0  0  0  0  0  0  0  0  0  0
    0.7580    4.7369    4.5360 H   0  0  0  0  0  0  0  0  0  0  0  0
    4.7834    4.3853    2.8445 H   0  0  0  0  0  0  0  0  0  0  0  0
    3.1088    5.0944    2.7758 H   0  0  0  0  0  0  0  0  0  0  0  0
    3.4831    3.5269    1.9115 H   0  0  0  0  0  0  0  0  0  0  0  0
    2.1221    1.0282    2.8140 H   0  0  0  0  0  0  0  0  0  0  0  0
   -0.1348    0.6079    1.9348 H   0  0  0  0  0  0  0  0  0  0  0  0
   -4.6842   -0.0586    2.4726 H   0  0  0  0  0  0  0  0  0  0  0  0
   -5.5127   -0.4664    4.9379 H   0  0  0  0  0  0  0  0  0  0  0  0
   -6.3674   -2.0015    5.3585 H   0  0  0  0  0  0  0  0  0  0  0  0
   -6.4369   -1.3716    3.6668 H   0  0  0  0  0  0  0  0  0  0  0  0
   -1.6954   -3.7586    4.6295 H   0  0  0  0  0  0  0  0  0  0  0  0
  1  2  2  3
  2  3  1  0
  3  4  2  0
  3  5  1  0
  5  6  2  0
  6  7  1  0
  6  8  1  0
  8  9  1  0
  8 10  2  0
 10 11  1  0
 10 12  1  0
 12 13  1  0
 12 14  2  0
 14 15  1  0
 15 16  2  3
 16 17  1  0
 17 18  3  0
 16 19  1  0
 19 20  3  0
  1 21  1  0
 21 22  2  0
 22 23  1  0
 23 24  1  0
 24 25  2  0
 25 26  2  0
 23 27  2  0
 27 28  1  0
 28 29  2  0
 29 30  1  0
 30 31  1  0
 31 32  2  0
 27 33  1  0
 33 34  2  0
 34 35  1  0
 35 36  1  0
 36 37  2  0
 37 38  1  0
 38 39  2  0
 39 40  1  0
 40 41  1  0
 39 42  1  0
 42 43  2  0
 35 44  1  0
 44 45  2  0
 45 46  1  0
 46 47  2  0
 47 48  1  0
 48 49  1  0
 47 50  1  0
 50 51  2  0
 34 52  1  0
 52 53  1  0
 53 54  1  0
 54 55  2  0
 55 56  1  0
 56 57  1  0
 57 58  2  0
 58 59  1  0
 59 60  2  0
 60 61  1  0
 61 62  1  0
 60 63  1  0
 63 64  2  0
 56 65  1  0
 65 66  2  0
 66 67  1  0
 67 68  2  0
 68 69  1  0
 69 70  1  0
 68 71  1  0
 71 72  2  0
 55 73  1  0
 73 74  1  0
 54 75  1  0
 75 76  2  0
 76 77  1  0
 77 78  1  0
 78 79  1  0
 77 80  2  0
 80 81  1  0
 80 82  1  0
 82 83  2  3
 83 84  1  0
 84 85  2  0
 84 86  1  0
 86 87  2  0
 87 88  1  0
 87 89  1  0
 89 90  1  0
 89 91  2  0
 91 92  1  0
 91 93  1  0
 93 94  1  0
 93 95  2  0
 95 96  1  0
 96 97  2  3
 97 98  1  0
 98 99  3  0
 97100  1  0
100101  3  0
 15  2  1  0
 32 21  1  0
 74 33  1  0
 81 75  1  0
 96 83  1  0
 14  5  1  0
 26 22  1  0
 32 28  1  0
 43 36  1  0
 51 44  1  0
 73 52  2  0
 95 86  1  0
 64 57  1  0
 72 65  1  0
  1102  1  0
 37103  1  0
 38104  1  0
 41105  1  0
 41106  1  0
 41107  1  0
 42108  1  0
 43109  1  0
 45110  1  0
 46111  1  0
 49112  1  0
 49113  1  0
 49114  1  0
 50115  1  0
 51116  1  0
 58117  1  0
 59118  1  0
 62119  1  0
 62120  1  0
 62121  1  0
 63122  1  0
 64123  1  0
 66124  1  0
 67125  1  0
 70126  1  0
 70127  1  0
 70128  1  0
 71129  1  0
 72130  1  0
 76131  1  0
 79132  1  0
 79133  1  0
 79134  1  0
 82135  1  0
M  END

