
     RDKit          3D

150163  0  0  0  0  0  0  0  0999 V2000
    4.0173   -3.1289   -4.7163 C   0  0  0  0  0  0  0  0  0  0  0  0
    4.7535   -1.9905   -4.6375 C   0  0  0  0  0  0  0  0  0  0  0  0
    4.4551   -0.7789   -3.8510 C   0  0  0  0  0  0  0  0  0  0  0  0
    3.3990   -0.5433   -3.2106 O   0  0  0  0  0  0  0  0  0  0  0  0
    5.6582    0.0377   -3.7975 C   0  0  0  0  0  0  0  0  0  0  0  0
    5.8677    1.2582   -3.1483 C   0  0  0  0  0  0  0  0  0  0  0  0
    4.5100    2.2072   -2.5455 Cl  0  0  0  0  0  0  0  0  0  0  0  0
    7.1846    1.7496   -3.0558 C   0  0  0  0  0  0  0  0  0  0  0  0
    7.4918    3.2923   -2.2540 Cl  0  0  0  0  0  0  0  0  0  0  0  0
    8.2619    0.9817   -3.5564 C   0  0  0  0  0  0  0  0  0  0  0  0
    9.9212    1.5280   -3.3015 Cl  0  0  0  0  0  0  0  0  0  0  0  0
    8.0141   -0.2321   -4.2360 C   0  0  0  0  0  0  0  0  0  0  0  0
    9.3542   -1.3225   -4.5932 Cl  0  0  0  0  0  0  0  0  0  0  0  0
    6.6798   -0.6263   -4.4483 C   0  0  0  0  0  0  0  0  0  0  0  0
    6.1215   -1.7935   -5.1860 C   0  0  0  0  0  0  0  0  0  0  0  0
    6.5203   -2.1959   -6.4197 C   0  0  0  0  0  0  0  0  0  0  0  0
    5.7093   -3.0584   -7.2387 C   0  0  0  0  0  0  0  0  0  0  0  0
    5.0554   -3.7409   -7.9077 N   0  0  0  0  0  0  0  0  0  0  0  0
    7.6218   -1.5625   -7.1068 C   0  0  0  0  0  0  0  0  0  0  0  0
    8.4941   -1.0459   -7.6691 N   0  0  0  0  0  0  0  0  0  0  0  0
    2.7094   -3.2959   -4.0480 C   0  0  0  0  0  0  0  0  0  0  0  0
    2.5711   -4.2558   -3.0369 C   0  0  0  0  0  0  0  0  0  0  0  0
    3.5774   -5.1280   -2.7755 F   0  0  0  0  0  0  0  0  0  0  0  0
    1.4517   -4.2391   -2.1985 C   0  0  0  0  0  0  0  0  0  0  0  0
    0.4474   -3.2694   -2.3544 C   0  0  0  0  0  0  0  0  0  0  0  0
    0.5204   -2.3945   -3.4649 C   0  0  0  0  0  0  0  0  0  0  0  0
   -0.4123   -1.4237   -3.6614 N   0  0  0  0  0  0  0  0  0  0  0  0
   -0.3302   -0.5412   -4.6901 C   0  0  0  0  0  0  0  0  0  0  0  0
    0.7554   -0.6027   -5.5604 C   0  0  0  0  0  0  0  0  0  0  0  0
    0.8638    0.3153   -6.6100 O   0  0  0  0  0  0  0  0  0  0  0  0
    2.0182    0.3799   -7.4460 C   0  0  0  0  0  0  0  0  0  0  0  0
    1.8461    1.4865   -8.4743 C   0  0  0  0  0  0  0  0  0  0  0  0
    1.7132   -1.5453   -5.3555 N   0  0  0  0  0  0  0  0  0  0  0  0
    1.6348   -2.4371   -4.3290 C   0  0  0  0  0  0  0  0  0  0  0  0
   -0.3637   -2.9178   -1.1665 C   0  0  0  0  0  0  0  0  0  0  0  0
   -1.6481   -2.3350   -1.1889 C   0  0  0  0  0  0  0  0  0  0  0  0
   -2.7572   -2.9535   -1.8602 N   0  0  0  0  0  0  0  0  0  0  0  0
   -3.4203   -2.3010   -2.9503 C   0  0  0  0  0  0  0  0  0  0  0  0
   -4.4500   -1.3824   -2.7043 C   0  0  0  0  0  0  0  0  0  0  0  0
   -5.0925   -0.7404   -3.7670 C   0  0  0  0  0  0  0  0  0  0  0  0
   -4.7213   -1.0308   -5.0870 C   0  0  0  0  0  0  0  0  0  0  0  0
   -5.5127   -0.1764   -6.4527 S   0  0  0  0  0  0  0  0  0  0  0  0
   -4.3412    1.2175   -6.4023 C   0  0  0  0  0  0  0  0  0  0  0  0
   -3.7197   -1.9750   -5.3371 C   0  0  0  0  0  0  0  0  0  0  0  0
   -3.0837   -2.6201   -4.2739 C   0  0  0  0  0  0  0  0  0  0  0  0
   -3.3428   -4.1342   -1.2856 C   0  0  0  0  0  0  0  0  0  0  0  0
   -3.7831   -4.1311    0.0501 C   0  0  0  0  0  0  0  0  0  0  0  0
   -4.3108   -5.2927    0.6240 C   0  0  0  0  0  0  0  0  0  0  0  0
   -4.4030   -6.4666   -0.1283 C   0  0  0  0  0  0  0  0  0  0  0  0
   -5.0986   -7.9510    0.6046 S   0  0  0  0  0  0  0  0  0  0  0  0
   -3.5112   -8.5039    1.3104 C   0  0  0  0  0  0  0  0  0  0  0  0
   -3.9694   -6.4778   -1.4606 C   0  0  0  0  0  0  0  0  0  0  0  0
   -3.4440   -5.3159   -2.0367 C   0  0  0  0  0  0  0  0  0  0  0  0
   -1.8088   -1.4438   -0.1217 C   0  0  0  0  0  0  0  0  0  0  0  0
   -2.8927   -0.2050    0.2111 S   0  0  0  0  0  0  0  0  0  0  0  0
   -1.9807    0.4425    1.5032 C   0  0  0  0  0  0  0  0  0  0  0  0
   -0.8089   -0.3166    1.6593 C   0  0  0  0  0  0  0  0  0  0  0  0
    0.2653    0.0104    2.5730 N   0  0  0  0  0  0  0  0  0  0  0  0
    1.6258   -0.1112    2.1144 C   0  0  0  0  0  0  0  0  0  0  0  0
    2.5473   -0.9131    2.8127 C   0  0  0  0  0  0  0  0  0  0  0  0
    3.7984   -1.2023    2.2536 C   0  0  0  0  0  0  0  0  0  0  0  0
    4.1318   -0.7019    0.9904 C   0  0  0  0  0  0  0  0  0  0  0  0
    5.6833   -1.1526    0.2121 S   0  0  0  0  0  0  0  0  0  0  0  0
    4.9809   -2.6095   -0.6292 C   0  0  0  0  0  0  0  0  0  0  0  0
    3.2387    0.1340    0.3159 C   0  0  0  0  0  0  0  0  0  0  0  0
    2.0000    0.4395    0.8780 C   0  0  0  0  0  0  0  0  0  0  0  0
   -0.0202    0.3211    3.9556 C   0  0  0  0  0  0  0  0  0  0  0  0
   -1.1401   -0.2338    4.6028 C   0  0  0  0  0  0  0  0  0  0  0  0
   -1.4248    0.0897    5.9315 C   0  0  0  0  0  0  0  0  0  0  0  0
   -0.5778    0.9438    6.6426 C   0  0  0  0  0  0  0  0  0  0  0  0
   -0.9449    1.3644    8.3444 S   0  0  0  0  0  0  0  0  0  0  0  0
   -0.1266   -0.1188    9.0083 C   0  0  0  0  0  0  0  0  0  0  0  0
    0.5502    1.4834    6.0164 C   0  0  0  0  0  0  0  0  0  0  0  0
    0.8227    1.1846    4.6797 C   0  0  0  0  0  0  0  0  0  0  0  0
   -0.7566   -1.3543    0.7283 C   0  0  0  0  0  0  0  0  0  0  0  0
    0.4627   -2.3678    0.2116 S   0  0  0  0  0  0  0  0  0  0  0  0
   -2.1167    1.8252    1.9731 C   0  0  0  0  0  0  0  0  0  0  0  0
   -2.9369    2.3140    2.9967 C   0  0  0  0  0  0  0  0  0  0  0  0
   -3.9205    1.5121    3.7534 C   0  0  0  0  0  0  0  0  0  0  0  0
   -4.3181    1.7541    5.0668 C   0  0  0  0  0  0  0  0  0  0  0  0
   -5.2147    0.8011    5.5635 C   0  0  0  0  0  0  0  0  0  0  0  0
   -5.5449   -0.1781    4.6347 C   0  0  0  0  0  0  0  0  0  0  0  0
   -6.3927   -1.3822    4.8970 C   0  0  0  0  0  0  0  0  0  0  0  0
   -5.5223   -2.6097    5.1440 C   0  0  0  0  0  0  0  0  0  0  0  0
   -4.7014    0.1182    3.2130 S   0  0  0  0  0  0  0  0  0  0  0  0
   -2.6471    3.6508    3.3300 C   0  0  0  0  0  0  0  0  0  0  0  0
   -1.5923    4.1872    2.6027 C   0  0  0  0  0  0  0  0  0  0  0  0
   -1.0432    3.0378    1.5178 S   0  0  0  0  0  0  0  0  0  0  0  0
   -1.0024    5.5248    2.7581 C   0  0  0  0  0  0  0  0  0  0  0  0
   -0.5742    6.0178    3.9360 C   0  0  0  0  0  0  0  0  0  0  0  0
   -0.4038    5.2412    5.1820 C   0  0  0  0  0  0  0  0  0  0  0  0
   -0.8184    4.0822    5.4322 O   0  0  0  0  0  0  0  0  0  0  0  0
    0.4243    6.0276    6.0539 C   0  0  0  0  0  0  0  0  0  0  0  0
    1.1449    5.8138    7.5520 S   0  0  0  0  0  0  0  0  0  0  0  0
    1.9031    7.3330    7.4831 C   0  0  0  0  0  0  0  0  0  0  0  0
    2.9503    7.9649    8.7341 Cl  0  0  0  0  0  0  0  0  0  0  0  0
    1.6013    7.9892    6.2847 C   0  0  0  0  0  0  0  0  0  0  0  0
    0.7550    7.2114    5.4905 C   0  0  0  0  0  0  0  0  0  0  0  0
    0.1195    7.3364    4.1595 C   0  0  0  0  0  0  0  0  0  0  0  0
    0.0611    8.4563    3.4005 C   0  0  0  0  0  0  0  0  0  0  0  0
   -0.7658    8.5542    2.2254 C   0  0  0  0  0  0  0  0  0  0  0  0
   -1.4300    8.6431    1.2791 N   0  0  0  0  0  0  0  0  0  0  0  0
    0.7520    9.6612    3.7783 C   0  0  0  0  0  0  0  0  0  0  0  0
    1.2999   10.6365    4.0730 N   0  0  0  0  0  0  0  0  0  0  0  0
    4.4653   -4.0125   -5.1572 H   0  0  0  0  0  0  0  0  0  0  0  0
    1.4245   -4.9054   -1.3456 H   0  0  0  0  0  0  0  0  0  0  0  0
   -1.0963    0.2092   -4.8166 H   0  0  0  0  0  0  0  0  0  0  0  0
    2.9194    0.5860   -6.8250 H   0  0  0  0  0  0  0  0  0  0  0  0
    2.1564   -0.5901   -7.9725 H   0  0  0  0  0  0  0  0  0  0  0  0
    2.7792    1.5959   -9.0642 H   0  0  0  0  0  0  0  0  0  0  0  0
    1.6225    2.4474   -7.9664 H   0  0  0  0  0  0  0  0  0  0  0  0
    1.0128    1.2316   -9.1625 H   0  0  0  0  0  0  0  0  0  0  0  0
   -4.7631   -1.1675   -1.6918 H   0  0  0  0  0  0  0  0  0  0  0  0
   -5.8763   -0.0201   -3.5672 H   0  0  0  0  0  0  0  0  0  0  0  0
   -4.4927    1.7948   -5.4675 H   0  0  0  0  0  0  0  0  0  0  0  0
   -3.2970    0.8472   -6.4445 H   0  0  0  0  0  0  0  0  0  0  0  0
   -4.5255    1.8829   -7.2724 H   0  0  0  0  0  0  0  0  0  0  0  0
   -3.4429   -2.2165   -6.3558 H   0  0  0  0  0  0  0  0  0  0  0  0
   -2.3122   -3.3529   -4.4766 H   0  0  0  0  0  0  0  0  0  0  0  0
   -3.7323   -3.2291    0.6415 H   0  0  0  0  0  0  0  0  0  0  0  0
   -4.6504   -5.2756    1.6516 H   0  0  0  0  0  0  0  0  0  0  0  0
   -2.7538   -8.6149    0.5080 H   0  0  0  0  0  0  0  0  0  0  0  0
   -3.1567   -7.7650    2.0616 H   0  0  0  0  0  0  0  0  0  0  0  0
   -3.6532   -9.4842    1.8114 H   0  0  0  0  0  0  0  0  0  0  0  0
   -4.0326   -7.3865   -2.0439 H   0  0  0  0  0  0  0  0  0  0  0  0
   -3.1023   -5.3393   -3.0625 H   0  0  0  0  0  0  0  0  0  0  0  0
    2.2721   -1.3586    3.7597 H   0  0  0  0  0  0  0  0  0  0  0  0
    4.4861   -1.8490    2.7824 H   0  0  0  0  0  0  0  0  0  0  0  0
    5.7166   -2.9909   -1.3681 H   0  0  0  0  0  0  0  0  0  0  0  0
    4.0442   -2.3442   -1.1628 H   0  0  0  0  0  0  0  0  0  0  0  0
    4.7714   -3.4064    0.1117 H   0  0  0  0  0  0  0  0  0  0  0  0
    3.4828    0.5045   -0.6648 H   0  0  0  0  0  0  0  0  0  0  0  0
    1.3015    1.0484    0.3161 H   0  0  0  0  0  0  0  0  0  0  0  0
   -1.7993   -0.9171    4.0803 H   0  0  0  0  0  0  0  0  0  0  0  0
   -2.2983   -0.3388    6.4100 H   0  0  0  0  0  0  0  0  0  0  0  0
   -0.7181   -1.0171    8.7398 H   0  0  0  0  0  0  0  0  0  0  0  0
    0.9016   -0.2128    8.6041 H   0  0  0  0  0  0  0  0  0  0  0  0
   -0.0745   -0.0399   10.1143 H   0  0  0  0  0  0  0  0  0  0  0  0
    1.2081    2.1484    6.5605 H   0  0  0  0  0  0  0  0  0  0  0  0
    1.6890    1.6284    4.2094 H   0  0  0  0  0  0  0  0  0  0  0  0
   -3.9376    2.5685    5.6706 H   0  0  0  0  0  0  0  0  0  0  0  0
   -5.5894    0.8156    6.5777 H   0  0  0  0  0  0  0  0  0  0  0  0
   -7.0532   -1.5687    4.0226 H   0  0  0  0  0  0  0  0  0  0  0  0
   -7.0383   -1.2018    5.7829 H   0  0  0  0  0  0  0  0  0  0  0  0
   -6.1689   -3.4885    5.3576 H   0  0  0  0  0  0  0  0  0  0  0  0
   -4.8570   -2.4393    6.0202 H   0  0  0  0  0  0  0  0  0  0  0  0
   -4.9038   -2.8311    4.2482 H   0  0  0  0  0  0  0  0  0  0  0  0
   -3.1748    4.2064    4.0946 H   0  0  0  0  0  0  0  0  0  0  0  0
   -0.8045    6.0625    1.8461 H   0  0  0  0  0  0  0  0  0  0  0  0
    1.9972    8.9574    6.0214 H   0  0  0  0  0  0  0  0  0  0  0  0
  1  2  2  3
  2  3  1  0
  3  4  2  0
  3  5  1  0
  5  6  2  0
  6  7  1  0
  6  8  1  0
  8  9  1  0
  8 10  2  0
 10 11  1  0
 10 12  1  0
 12 13  1  0
 12 14  2  0
 14 15  1  0
 15 16  2  3
 16 17  1  0
 17 18  3  0
 16 19  1  0
 19 20  3  0
  1 21  1  0
 21 22  2  0
 22 23  1  0
 22 24  1  0
 24 25  2  0
 25 26  1  0
 26 27  2  0
 27 28  1  0
 28 29  2  0
 29 30  1  0
 30 31  1  0
 31 32  1  0
 29 33  1  0
 33 34  2  0
 25 35  1  0
 35 36  2  0
 36 37  1  0
 37 38  1  0
 38 39  2  0
 39 40  1  0
 40 41  2  0
 41 42  1  0
 42 43  1  0
 41 44  1  0
 44 45  2  0
 37 46  1  0
 46 47  2  0
 47 48  1  0
 48 49  2  0
 49 50  1  0
 50 51  1  0
 49 52  1  0
 52 53  2  0
 36 54  1  0
 54 55  1  0
 55 56  1  0
 56 57  2  0
 57 58  1  0
 58 59  1  0
 59 60  2  0
 60 61  1  0
 61 62  2  0
 62 63  1  0
 63 64  1  0
 62 65  1  0
 65 66  2  0
 58 67  1  0
 67 68  2  0
 68 69  1  0
 69 70  2  0
 70 71  1  0
 71 72  1  0
 70 73  1  0
 73 74  2  0
 57 75  1  0
 75 76  1  0
 56 77  1  0
 77 78  2  0
 78 79  1  0
 79 80  2  0
 80 81  1  0
 81 82  2  0
 82 83  1  0
 83 84  1  0
 82 85  1  0
 78 86  1  0
 86 87  2  0
 87 88  1  0
 87 89  1  0
 89 90  2  3
 90 91  1  0
 91 92  2  0
 91 93  1  0
 93 94  1  0
 94 95  1  0
 95 96  1  0
 95 97  2  0
 97 98  1  0
 98 99  1  0
 99100  2  3
100101  1  0
101102  3  0
100103  1  0
103104  3  0
 15  2  1  0
 34 21  1  0
 76 35  1  0
 88 77  1  0
 99 90  1  0
 14  5  1  0
 34 26  1  0
 45 38  1  0
 53 46  1  0
 75 54  2  0
 85 79  1  0
 98 93  2  0
 66 59  1  0
 74 67  1  0
  1105  1  0
 24106  1  0
 28107  1  0
 31108  1  0
 31109  1  0
 32110  1  0
 32111  1  0
 32112  1  0
 39113  1  0
 40114  1  0
 43115  1  0
 43116  1  0
 43117  1  0
 44118  1  0
 45119  1  0
 47120  1  0
 48121  1  0
 51122  1  0
 51123  1  0
 51124  1  0
 52125  1  0
 53126  1  0
 60127  1  0
 61128  1  0
 64129  1  0
 64130  1  0
 64131  1  0
 65132  1  0
 66133  1  0
 68134  1  0
 69135  1  0
 72136  1  0
 72137  1  0
 72138  1  0
 73139  1  0
 74140  1  0
 80141  1  0
 81142  1  0
 83143  1  0
 83144  1  0
 84145  1  0
 84146  1  0
 84147  1  0
 86148  1  0
 89149  1  0
 97150  1  0
M  END

