
     RDKit          3D

157173  0  0  0  0  0  0  0  0999 V2000
   -0.5093   -6.9463    0.7903 C   0  0  0  0  0  0  0  0  0  0  0  0
    0.0245   -7.5146   -0.3076 C   0  0  0  0  0  0  0  0  0  0  0  0
    1.3989   -7.3504   -0.7945 C   0  0  0  0  0  0  0  0  0  0  0  0
    2.2455   -6.5176   -0.3622 O   0  0  0  0  0  0  0  0  0  0  0  0
    1.6896   -8.4383   -1.7173 C   0  0  0  0  0  0  0  0  0  0  0  0
    2.9261   -8.8025   -2.2706 C   0  0  0  0  0  0  0  0  0  0  0  0
    4.3349   -7.7545   -2.1075 Cl  0  0  0  0  0  0  0  0  0  0  0  0
    3.0220  -10.0313   -2.9502 C   0  0  0  0  0  0  0  0  0  0  0  0
    4.5545  -10.5173   -3.6762 Cl  0  0  0  0  0  0  0  0  0  0  0  0
    1.9070  -10.9045   -2.9971 C   0  0  0  0  0  0  0  0  0  0  0  0
    2.0617  -12.4817   -3.7699 Cl  0  0  0  0  0  0  0  0  0  0  0  0
    0.6868  -10.5375   -2.3779 C   0  0  0  0  0  0  0  0  0  0  0  0
   -0.5667  -11.7644   -2.1386 Cl  0  0  0  0  0  0  0  0  0  0  0  0
    0.5638   -9.2445   -1.8371 C   0  0  0  0  0  0  0  0  0  0  0  0
   -0.5669   -8.6282   -1.0985 C   0  0  0  0  0  0  0  0  0  0  0  0
   -1.8739   -8.6945   -1.4588 C   0  0  0  0  0  0  0  0  0  0  0  0
   -2.2938   -9.3115   -2.6921 C   0  0  0  0  0  0  0  0  0  0  0  0
   -2.6452   -9.7633   -3.7021 N   0  0  0  0  0  0  0  0  0  0  0  0
   -2.8851   -7.8900   -0.8198 C   0  0  0  0  0  0  0  0  0  0  0  0
   -3.6965   -7.2395   -0.3107 N   0  0  0  0  0  0  0  0  0  0  0  0
    0.0554   -5.7520    1.4194 C   0  0  0  0  0  0  0  0  0  0  0  0
    0.3791   -4.2748    0.6502 S   0  0  0  0  0  0  0  0  0  0  0  0
    0.7810   -3.3840    2.0375 C   0  0  0  0  0  0  0  0  0  0  0  0
    0.6583   -4.2542    3.1150 C   0  0  0  0  0  0  0  0  0  0  0  0
    0.9047   -4.0926    4.4785 C   0  0  0  0  0  0  0  0  0  0  0  0
    0.6260   -5.2694    5.1860 C   0  0  0  0  0  0  0  0  0  0  0  0
    0.7047   -5.4145    6.6721 C   0  0  0  0  0  0  0  0  0  0  0  0
   -0.5814   -4.9057    7.3175 C   0  0  0  0  0  0  0  0  0  0  0  0
    0.0855   -6.4887    4.1319 S   0  0  0  0  0  0  0  0  0  0  0  0
    0.2323   -5.5204    2.7713 C   0  0  0  0  0  0  0  0  0  0  0  0
    1.0793   -1.9474    2.0442 C   0  0  0  0  0  0  0  0  0  0  0  0
    0.4264   -0.9580    2.8030 C   0  0  0  0  0  0  0  0  0  0  0  0
   -0.6295   -1.2080    3.7474 N   0  0  0  0  0  0  0  0  0  0  0  0
   -0.4252   -0.9505    5.1666 C   0  0  0  0  0  0  0  0  0  0  0  0
   -1.4873   -1.0741    6.0924 C   0  0  0  0  0  0  0  0  0  0  0  0
   -1.2589   -0.9116    7.4634 C   0  0  0  0  0  0  0  0  0  0  0  0
    0.0154   -0.5917    7.9319 C   0  0  0  0  0  0  0  0  0  0  0  0
    0.3141   -0.4337    9.6924 S   0  0  0  0  0  0  0  0  0  0  0  0
    0.8429   -2.1678    9.8752 C   0  0  0  0  0  0  0  0  0  0  0  0
    1.0643   -0.4099    7.0281 C   0  0  0  0  0  0  0  0  0  0  0  0
    0.8510   -0.5827    5.6602 C   0  0  0  0  0  0  0  0  0  0  0  0
   -1.9112   -1.6110    3.2279 C   0  0  0  0  0  0  0  0  0  0  0  0
   -2.4269   -2.8792    3.5198 C   0  0  0  0  0  0  0  0  0  0  0  0
   -3.6516   -3.2880    2.9833 C   0  0  0  0  0  0  0  0  0  0  0  0
   -4.3792   -2.4231    2.1596 C   0  0  0  0  0  0  0  0  0  0  0  0
   -5.9425   -2.9532    1.4613 S   0  0  0  0  0  0  0  0  0  0  0  0
   -5.1858   -3.4960   -0.1074 C   0  0  0  0  0  0  0  0  0  0  0  0
   -3.8858   -1.1420    1.8903 C   0  0  0  0  0  0  0  0  0  0  0  0
   -2.6562   -0.7405    2.4168 C   0  0  0  0  0  0  0  0  0  0  0  0
    0.7920    0.3201    2.3854 C   0  0  0  0  0  0  0  0  0  0  0  0
    0.1167    1.8407    2.6122 S   0  0  0  0  0  0  0  0  0  0  0  0
    1.0536    2.5767    1.3944 C   0  0  0  0  0  0  0  0  0  0  0  0
    1.8683    1.6092    0.7883 C   0  0  0  0  0  0  0  0  0  0  0  0
    2.6438    1.8295   -0.4056 N   0  0  0  0  0  0  0  0  0  0  0  0
    1.9458    2.1310   -1.6367 C   0  0  0  0  0  0  0  0  0  0  0  0
    2.3570    3.2021   -2.4553 C   0  0  0  0  0  0  0  0  0  0  0  0
    1.6834    3.4836   -3.6429 C   0  0  0  0  0  0  0  0  0  0  0  0
    0.5992    2.6955   -4.0377 C   0  0  0  0  0  0  0  0  0  0  0  0
   -0.2284    3.0105   -5.6045 S   0  0  0  0  0  0  0  0  0  0  0  0
    0.9601    2.0325   -6.5716 C   0  0  0  0  0  0  0  0  0  0  0  0
    0.1585    1.6532   -3.2184 C   0  0  0  0  0  0  0  0  0  0  0  0
    0.8250    1.3766   -2.0199 C   0  0  0  0  0  0  0  0  0  0  0  0
    4.0913    1.8060   -0.3454 C   0  0  0  0  0  0  0  0  0  0  0  0
    4.8566    1.5086   -1.4888 C   0  0  0  0  0  0  0  0  0  0  0  0
    6.2527    1.5554   -1.4412 C   0  0  0  0  0  0  0  0  0  0  0  0
    6.9061    1.8899   -0.2470 C   0  0  0  0  0  0  0  0  0  0  0  0
    8.6921    2.0197   -0.2125 S   0  0  0  0  0  0  0  0  0  0  0  0
    8.9392    0.2980    0.3089 C   0  0  0  0  0  0  0  0  0  0  0  0
    6.1573    2.1398    0.9044 C   0  0  0  0  0  0  0  0  0  0  0  0
    4.7628    2.0938    0.8591 C   0  0  0  0  0  0  0  0  0  0  0  0
    1.6900    0.3626    1.3710 C   0  0  0  0  0  0  0  0  0  0  0  0
    2.0840   -1.1980    0.8839 S   0  0  0  0  0  0  0  0  0  0  0  0
    0.7600    3.8908    0.8252 C   0  0  0  0  0  0  0  0  0  0  0  0
   -0.4747    4.1648   -0.2905 S   0  0  0  0  0  0  0  0  0  0  0  0
    0.1198    5.5866   -1.0099 C   0  0  0  0  0  0  0  0  0  0  0  0
    1.3410    5.8134   -0.3932 C   0  0  0  0  0  0  0  0  0  0  0  0
    2.3452    6.7445   -0.6623 C   0  0  0  0  0  0  0  0  0  0  0  0
    3.4701    6.5311    0.1463 C   0  0  0  0  0  0  0  0  0  0  0  0
    4.6923    7.3948    0.1788 C   0  0  0  0  0  0  0  0  0  0  0  0
    4.5004    8.5591    1.1413 C   0  0  0  0  0  0  0  0  0  0  0  0
    3.2171    5.1985    1.1720 S   0  0  0  0  0  0  0  0  0  0  0  0
    1.6693    4.9063    0.5925 C   0  0  0  0  0  0  0  0  0  0  0  0
   -0.2694    6.1019   -2.3400 C   0  0  0  0  0  0  0  0  0  0  0  0
   -1.4918    5.9596   -2.8903 C   0  0  0  0  0  0  0  0  0  0  0  0
   -2.6838    5.4640   -2.1993 C   0  0  0  0  0  0  0  0  0  0  0  0
   -2.9630    5.6267   -0.9818 O   0  0  0  0  0  0  0  0  0  0  0  0
   -3.5540    4.8396   -3.1705 C   0  0  0  0  0  0  0  0  0  0  0  0
   -4.6515    3.9925   -2.8944 C   0  0  0  0  0  0  0  0  0  0  0  0
   -5.1525    3.3503   -4.0094 C   0  0  0  0  0  0  0  0  0  0  0  0
   -4.6137    3.5306   -5.3260 C   0  0  0  0  0  0  0  0  0  0  0  0
   -3.5494    4.3688   -5.6040 C   0  0  0  0  0  0  0  0  0  0  0  0
   -3.0213    5.0422   -4.4672 C   0  0  0  0  0  0  0  0  0  0  0  0
   -1.7897    5.8790   -4.3567 C   0  0  0  0  0  0  0  0  0  0  0  0
   -1.1453    6.5204   -5.3677 C   0  0  0  0  0  0  0  0  0  0  0  0
   -1.5713    6.4198   -6.7439 C   0  0  0  0  0  0  0  0  0  0  0  0
   -1.8919    6.3550   -7.8548 N   0  0  0  0  0  0  0  0  0  0  0  0
   -0.0734    7.4497   -5.1335 C   0  0  0  0  0  0  0  0  0  0  0  0
    0.7970    8.1959   -4.9596 N   0  0  0  0  0  0  0  0  0  0  0  0
   -5.5569    2.5048   -5.8715 C   0  0  0  0  0  0  0  0  0  0  0  0
   -4.9724    1.1027   -6.2327 C   0  0  0  0  0  0  0  0  0  0  0  0
   -3.7878    0.7886   -5.3424 C   0  0  0  0  0  0  0  0  0  0  0  0
   -4.2699    0.6280   -4.1109 C   0  0  0  0  0  0  0  0  0  0  0  0
   -5.7698    0.8174   -4.2062 C   0  0  0  0  0  0  0  0  0  0  0  0
   -5.9987    0.2028   -5.5731 C   0  0  0  0  0  0  0  0  0  0  0  0
   -6.1036    2.3110   -4.5229 C   0  0  0  0  0  0  0  0  0  0  0  0
   -1.3793   -7.3835    1.2551 H   0  0  0  0  0  0  0  0  0  0  0  0
    1.2729   -3.1854    4.9322 H   0  0  0  0  0  0  0  0  0  0  0  0
    0.8459   -6.4753    6.9435 H   0  0  0  0  0  0  0  0  0  0  0  0
    1.5677   -4.8340    7.0505 H   0  0  0  0  0  0  0  0  0  0  0  0
   -0.7481   -3.8367    7.0622 H   0  0  0  0  0  0  0  0  0  0  0  0
   -1.4560   -5.5008    6.9643 H   0  0  0  0  0  0  0  0  0  0  0  0
   -0.4995   -4.9997    8.4201 H   0  0  0  0  0  0  0  0  0  0  0  0
   -2.4854   -1.3304    5.7740 H   0  0  0  0  0  0  0  0  0  0  0  0
   -2.0768   -1.0392    8.1627 H   0  0  0  0  0  0  0  0  0  0  0  0
    1.1143   -2.3585   10.9358 H   0  0  0  0  0  0  0  0  0  0  0  0
    1.7327   -2.3640    9.2385 H   0  0  0  0  0  0  0  0  0  0  0  0
    0.0197   -2.8522    9.5863 H   0  0  0  0  0  0  0  0  0  0  0  0
    2.0529   -0.1609    7.3847 H   0  0  0  0  0  0  0  0  0  0  0  0
    1.6956   -0.4685    4.9996 H   0  0  0  0  0  0  0  0  0  0  0  0
   -1.8795   -3.5534    4.1685 H   0  0  0  0  0  0  0  0  0  0  0  0
   -4.0420   -4.2712    3.2173 H   0  0  0  0  0  0  0  0  0  0  0  0
   -5.9688   -3.9502   -0.7459 H   0  0  0  0  0  0  0  0  0  0  0  0
   -4.3915   -4.2515    0.0846 H   0  0  0  0  0  0  0  0  0  0  0  0
   -4.7482   -2.6303   -0.6423 H   0  0  0  0  0  0  0  0  0  0  0  0
   -4.4465   -0.4613    1.2609 H   0  0  0  0  0  0  0  0  0  0  0  0
   -2.2913    0.2576    2.2037 H   0  0  0  0  0  0  0  0  0  0  0  0
    3.2022    3.8169   -2.1707 H   0  0  0  0  0  0  0  0  0  0  0  0
    2.0217    4.3020   -4.2696 H   0  0  0  0  0  0  0  0  0  0  0  0
    0.5834    1.9184   -7.6088 H   0  0  0  0  0  0  0  0  0  0  0  0
    1.0950    1.0276   -6.1218 H   0  0  0  0  0  0  0  0  0  0  0  0
    1.9394    2.5568   -6.6034 H   0  0  0  0  0  0  0  0  0  0  0  0
   -0.6927    1.0494   -3.5089 H   0  0  0  0  0  0  0  0  0  0  0  0
    0.4822    0.5557   -1.4038 H   0  0  0  0  0  0  0  0  0  0  0  0
    4.3754    1.2487   -2.4218 H   0  0  0  0  0  0  0  0  0  0  0  0
    6.8280    1.3425   -2.3329 H   0  0  0  0  0  0  0  0  0  0  0  0
    8.4226    0.1117    1.2751 H   0  0  0  0  0  0  0  0  0  0  0  0
    8.5445   -0.3916   -0.4645 H   0  0  0  0  0  0  0  0  0  0  0  0
   10.0233    0.1099    0.4390 H   0  0  0  0  0  0  0  0  0  0  0  0
    6.6622    2.3864    1.8325 H   0  0  0  0  0  0  0  0  0  0  0  0
    4.2091    2.3056    1.7669 H   0  0  0  0  0  0  0  0  0  0  0  0
    2.2668    7.5274   -1.4055 H   0  0  0  0  0  0  0  0  0  0  0  0
    4.9069    7.7799   -0.8411 H   0  0  0  0  0  0  0  0  0  0  0  0
    5.5657    6.7882    0.5104 H   0  0  0  0  0  0  0  0  0  0  0  0
    4.2686    8.1882    2.1589 H   0  0  0  0  0  0  0  0  0  0  0  0
    3.6775    9.2244    0.7927 H   0  0  0  0  0  0  0  0  0  0  0  0
    5.4311    9.1528    1.1931 H   0  0  0  0  0  0  0  0  0  0  0  0
    0.5533    6.4336   -2.9481 H   0  0  0  0  0  0  0  0  0  0  0  0
   -5.0136    3.8015   -1.8894 H   0  0  0  0  0  0  0  0  0  0  0  0
   -3.1261    4.3960   -6.5931 H   0  0  0  0  0  0  0  0  0  0  0  0
   -6.3060    2.9056   -6.5926 H   0  0  0  0  0  0  0  0  0  0  0  0
   -4.8125    0.9311   -7.3186 H   0  0  0  0  0  0  0  0  0  0  0  0
   -2.7532    0.6656   -5.6435 H   0  0  0  0  0  0  0  0  0  0  0  0
   -3.6945    0.3285   -3.2438 H   0  0  0  0  0  0  0  0  0  0  0  0
   -6.3556    0.3722   -3.3730 H   0  0  0  0  0  0  0  0  0  0  0  0
   -5.7374   -0.8821   -5.6095 H   0  0  0  0  0  0  0  0  0  0  0  0
   -7.0411    0.3465   -5.9521 H   0  0  0  0  0  0  0  0  0  0  0  0
   -7.1761    2.5936   -4.4300 H   0  0  0  0  0  0  0  0  0  0  0  0
  1  2  2  3
  2  3  1  0
  3  4  2  0
  3  5  1  0
  5  6  2  0
  6  7  1  0
  6  8  1  0
  8  9  1  0
  8 10  2  0
 10 11  1  0
 10 12  1  0
 12 13  1  0
 12 14  2  0
 14 15  1  0
 15 16  2  3
 16 17  1  0
 17 18  3  0
 16 19  1  0
 19 20  3  0
  1 21  1  0
 21 22  1  0
 22 23  1  0
 23 24  2  0
 24 25  1  0
 25 26  2  0
 26 27  1  0
 27 28  1  0
 26 29  1  0
 29 30  1  0
 23 31  1  0
 31 32  2  0
 32 33  1  0
 33 34  1  0
 34 35  2  0
 35 36  1  0
 36 37  2  0
 37 38  1  0
 38 39  1  0
 37 40  1  0
 40 41  2  0
 33 42  1  0
 42 43  2  0
 43 44  1  0
 44 45  2  0
 45 46  1  0
 46 47  1  0
 45 48  1  0
 48 49  2  0
 32 50  1  0
 50 51  1  0
 51 52  1  0
 52 53  2  0
 53 54  1  0
 54 55  1  0
 55 56  2  0
 56 57  1  0
 57 58  2  0
 58 59  1  0
 59 60  1  0
 58 61  1  0
 61 62  2  0
 54 63  1  0
 63 64  2  0
 64 65  1  0
 65 66  2  0
 66 67  1  0
 67 68  1  0
 66 69  1  0
 69 70  2  0
 53 71  1  0
 71 72  1  0
 52 73  1  0
 73 74  1  0
 74 75  1  0
 75 76  2  0
 76 77  1  0
 77 78  2  0
 78 79  1  0
 79 80  1  0
 78 81  1  0
 81 82  1  0
 75 83  1  0
 83 84  2  3
 84 85  1  0
 85 86  2  0
 85 87  1  0
 87 88  2  0
 88 89  1  0
 89 90  2  0
 90 91  1  0
 91 92  2  0
 92 93  1  0
 93 94  2  3
 94 95  1  0
 95 96  3  0
 94 97  1  0
 97 98  3  0
 90 99  1  0
 99100  1  0
100101  1  0
101102  2  0
102103  1  0
103104  1  0
103105  1  0
 15  2  1  0
 30 21  2  0
 72 31  1  0
 82 73  2  0
 93 84  1  0
105 99  1  0
 14  5  1  0
 30 24  1  0
 41 34  1  0
 49 42  1  0
 71 50  2  0
 82 76  1  0
 92 87  1  0
104100  1  0
 62 55  1  0
 70 63  1  0
105 89  1  0
  1106  1  0
 25107  1  0
 27108  1  0
 27109  1  0
 28110  1  0
 28111  1  0
 28112  1  0
 35113  1  0
 36114  1  0
 39115  1  0
 39116  1  0
 39117  1  0
 40118  1  0
 41119  1  0
 43120  1  0
 44121  1  0
 47122  1  0
 47123  1  0
 47124  1  0
 48125  1  0
 49126  1  0
 56127  1  0
 57128  1  0
 60129  1  0
 60130  1  0
 60131  1  0
 61132  1  0
 62133  1  0
 64134  1  0
 65135  1  0
 68136  1  0
 68137  1  0
 68138  1  0
 69139  1  0
 70140  1  0
 77141  1  0
 79142  1  0
 79143  1  0
 80144  1  0
 80145  1  0
 80146  1  0
 83147  1  0
 88148  1  0
 91149  1  0
 99150  1  0
100151  1  0
101152  1  0
102153  1  0
103154  1  0
104155  1  0
104156  1  0
105157  1  0
M  END

