
     RDKit          3D

132147  0  0  0  0  0  0  0  0999 V2000
   -4.3818   -2.1462    5.0937 C   0  0  0  0  0  0  0  0  0  0  0  0
   -4.0980   -3.3206    5.6901 C   0  0  0  0  0  0  0  0  0  0  0  0
   -3.5825   -4.5240    5.0442 C   0  0  0  0  0  0  0  0  0  0  0  0
   -3.1702   -4.6120    3.8585 O   0  0  0  0  0  0  0  0  0  0  0  0
   -3.7422   -5.6372    5.9673 C   0  0  0  0  0  0  0  0  0  0  0  0
   -3.4637   -6.9931    5.7626 C   0  0  0  0  0  0  0  0  0  0  0  0
   -2.6546   -7.5373    4.2937 Cl  0  0  0  0  0  0  0  0  0  0  0  0
   -3.8271   -7.9145    6.7701 C   0  0  0  0  0  0  0  0  0  0  0  0
   -3.4460   -9.6259    6.5840 Cl  0  0  0  0  0  0  0  0  0  0  0  0
   -4.5458   -7.4677    7.9008 C   0  0  0  0  0  0  0  0  0  0  0  0
   -5.0909   -8.6275    9.1149 Cl  0  0  0  0  0  0  0  0  0  0  0  0
   -4.8555   -6.0973    8.0627 C   0  0  0  0  0  0  0  0  0  0  0  0
   -6.0738   -5.6080    9.2502 Cl  0  0  0  0  0  0  0  0  0  0  0  0
   -4.3415   -5.1772    7.1280 C   0  0  0  0  0  0  0  0  0  0  0  0
   -4.4145   -3.6886    7.0960 C   0  0  0  0  0  0  0  0  0  0  0  0
   -4.1854   -2.8715    8.1597 C   0  0  0  0  0  0  0  0  0  0  0  0
   -3.7450   -1.5134    7.9765 C   0  0  0  0  0  0  0  0  0  0  0  0
   -3.3538   -0.4400    7.8381 N   0  0  0  0  0  0  0  0  0  0  0  0
   -4.0320   -3.3761    9.5037 C   0  0  0  0  0  0  0  0  0  0  0  0
   -3.9094   -3.7753   10.5818 N   0  0  0  0  0  0  0  0  0  0  0  0
   -3.8959   -1.7634    3.7524 C   0  0  0  0  0  0  0  0  0  0  0  0
   -2.5217   -1.7090    3.4837 C   0  0  0  0  0  0  0  0  0  0  0  0
   -2.0286   -1.2376    2.2427 C   0  0  0  0  0  0  0  0  0  0  0  0
   -0.6058   -1.1439    2.1629 N   0  0  0  0  0  0  0  0  0  0  0  0
   -0.1946   -1.6572    3.6121 S   0  0  0  0  0  4  0  0  0  0  0  0
   -1.5021   -2.0152    4.4462 N   0  0  0  0  0  0  0  0  0  0  0  0
   -2.9012   -0.8285    1.2173 C   0  0  0  0  0  0  0  0  0  0  0  0
   -4.2820   -0.8456    1.4850 C   0  0  0  0  0  0  0  0  0  0  0  0
   -5.2119   -0.4573    0.5738 N   0  0  0  0  0  0  0  0  0  0  0  0
   -6.5937   -0.7127    1.4404 S   0  0  0  0  0  0  0  0  0  0  0  0
   -6.1236   -1.3014    2.9101 N   0  0  0  0  0  0  0  0  0  0  0  0
   -4.7748   -1.3089    2.7531 C   0  0  0  0  0  0  0  0  0  0  0  0
   -2.3585   -0.3069   -0.0571 C   0  0  0  0  0  0  0  0  0  0  0  0
   -1.3042   -0.8771   -0.7982 C   0  0  0  0  0  0  0  0  0  0  0  0
   -0.9044   -2.2607   -0.7041 N   0  0  0  0  0  0  0  0  0  0  0  0
   -1.9326   -3.2522   -0.5385 C   0  0  0  0  0  0  0  0  0  0  0  0
   -1.8542   -4.1854    0.5059 C   0  0  0  0  0  0  0  0  0  0  0  0
   -2.9397   -5.0300    0.7739 C   0  0  0  0  0  0  0  0  0  0  0  0
   -4.1082   -4.9386    0.0126 C   0  0  0  0  0  0  0  0  0  0  0  0
   -5.5632   -5.8860    0.4607 S   0  0  0  0  0  0  0  0  0  0  0  0
   -6.2830   -4.5369    1.4426 C   0  0  0  0  0  0  0  0  0  0  0  0
   -4.1660   -4.0576   -1.0708 C   0  0  0  0  0  0  0  0  0  0  0  0
   -3.0829   -3.2188   -1.3442 C   0  0  0  0  0  0  0  0  0  0  0  0
    0.4446   -2.6606   -0.9999 C   0  0  0  0  0  0  0  0  0  0  0  0
    1.5203   -2.0699   -0.3187 C   0  0  0  0  0  0  0  0  0  0  0  0
    2.8347   -2.3935   -0.6649 C   0  0  0  0  0  0  0  0  0  0  0  0
    3.0887   -3.2790   -1.7176 C   0  0  0  0  0  0  0  0  0  0  0  0
    4.7756   -3.6591   -2.1843 S   0  0  0  0  0  0  0  0  0  0  0  0
    4.8715   -2.3026   -3.3952 C   0  0  0  0  0  0  0  0  0  0  0  0
    2.0200   -3.8771   -2.3912 C   0  0  0  0  0  0  0  0  0  0  0  0
    0.7044   -3.5732   -2.0356 C   0  0  0  0  0  0  0  0  0  0  0  0
   -0.8032    0.0284   -1.7334 C   0  0  0  0  0  0  0  0  0  0  0  0
    0.5003    0.0402   -2.7812 S   0  0  0  0  0  0  0  0  0  0  0  0
    0.2741    1.6482   -3.3120 C   0  0  0  0  0  0  0  0  0  0  0  0
   -0.8889    2.1610   -2.6841 C   0  0  0  0  0  0  0  0  0  0  0  0
   -1.5266    3.4085   -3.0334 N   0  0  0  0  0  0  0  0  0  0  0  0
   -2.1793    4.1928   -2.0092 C   0  0  0  0  0  0  0  0  0  0  0  0
   -1.5673    4.3775   -0.7562 C   0  0  0  0  0  0  0  0  0  0  0  0
   -2.2190    5.0876    0.2532 C   0  0  0  0  0  0  0  0  0  0  0  0
   -3.4960    5.6189    0.0292 C   0  0  0  0  0  0  0  0  0  0  0  0
   -4.3694    6.4725    1.3413 S   0  0  0  0  0  0  0  0  0  0  0  0
   -5.1422    4.9528    1.9758 C   0  0  0  0  0  0  0  0  0  0  0  0
   -4.1104    5.4457   -1.2128 C   0  0  0  0  0  0  0  0  0  0  0  0
   -3.4594    4.7380   -2.2260 C   0  0  0  0  0  0  0  0  0  0  0  0
   -1.7020    3.7393   -4.4259 C   0  0  0  0  0  0  0  0  0  0  0  0
   -1.6166    5.0738   -4.8645 C   0  0  0  0  0  0  0  0  0  0  0  0
   -1.8954    5.3984   -6.1975 C   0  0  0  0  0  0  0  0  0  0  0  0
   -2.2372    4.3975   -7.1095 C   0  0  0  0  0  0  0  0  0  0  0  0
   -2.6248    4.8202   -8.8042 S   0  0  0  0  0  0  0  0  0  0  0  0
   -4.4040    5.0221   -8.4778 C   0  0  0  0  0  0  0  0  0  0  0  0
   -2.2835    3.0620   -6.6904 C   0  0  0  0  0  0  0  0  0  0  0  0
   -2.0180    2.7341   -5.3602 C   0  0  0  0  0  0  0  0  0  0  0  0
   -1.4369    1.2279   -1.7935 C   0  0  0  0  0  0  0  0  0  0  0  0
   -2.6712    1.2637   -0.6517 S   0  0  0  0  0  0  0  0  0  0  0  0
    1.3933    2.4261   -3.9112 C   0  0  0  0  0  0  0  0  0  0  0  0
    2.2846    1.7875   -4.8017 C   0  0  0  0  0  0  0  0  0  0  0  0
    3.6000    2.2728   -5.0061 C   0  0  0  0  0  0  0  0  0  0  0  0
    4.4232    1.4471   -5.8418 N   0  0  0  0  0  0  0  0  0  0  0  0
    3.3782    0.3068   -6.2257 S   0  0  0  0  0  4  0  0  0  0  0  0
    1.9756    0.5892   -5.5163 N   0  0  0  0  0  0  0  0  0  0  0  0
    4.0646    3.4035   -4.3294 C   0  0  0  0  0  0  0  0  0  0  0  0
    3.1477    4.1285   -3.5492 C   0  0  0  0  0  0  0  0  0  0  0  0
    3.4910    5.2660   -2.8951 N   0  0  0  0  0  0  0  0  0  0  0  0
    2.0931    5.5874   -2.0801 S   0  0  0  0  0  0  0  0  0  0  0  0
    1.0565    4.3748   -2.4944 N   0  0  0  0  0  0  0  0  0  0  0  0
    1.8182    3.6436   -3.3393 C   0  0  0  0  0  0  0  0  0  0  0  0
    5.4967    3.7630   -4.3315 C   0  0  0  0  0  0  0  0  0  0  0  0
    6.2274    3.7757   -3.2049 C   0  0  0  0  0  0  0  0  0  0  0  0
    5.8285    3.3339   -1.8534 C   0  0  0  0  0  0  0  0  0  0  0  0
    4.7790    2.7071   -1.5418 O   0  0  0  0  0  0  0  0  0  0  0  0
    6.8965    3.7051   -0.9260 C   0  0  0  0  0  0  0  0  0  0  0  0
    6.9243    3.6003    0.4605 C   0  0  0  0  0  0  0  0  0  0  0  0
    8.0264    4.1349    1.1510 C   0  0  0  0  0  0  0  0  0  0  0  0
    8.0600    4.0149    2.9091 Cl  0  0  0  0  0  0  0  0  0  0  0  0
    9.0697    4.7778    0.4359 C   0  0  0  0  0  0  0  0  0  0  0  0
   10.4403    5.4853    1.2797 Cl  0  0  0  0  0  0  0  0  0  0  0  0
    9.0124    4.8672   -0.9693 C   0  0  0  0  0  0  0  0  0  0  0  0
    7.9252    4.3033   -1.6263 C   0  0  0  0  0  0  0  0  0  0  0  0
    7.5703    4.3564   -3.0437 C   0  0  0  0  0  0  0  0  0  0  0  0
    8.2587    4.8826   -3.9579 O   0  0  0  0  0  0  0  0  0  0  0  0
   -4.9449   -1.3934    5.6349 H   0  0  0  0  0  0  0  0  0  0  0  0
   -0.9855   -4.2138    1.1499 H   0  0  0  0  0  0  0  0  0  0  0  0
   -2.8875   -5.7285    1.5930 H   0  0  0  0  0  0  0  0  0  0  0  0
   -5.7164   -4.4226    2.3955 H   0  0  0  0  0  0  0  0  0  0  0  0
   -7.3410   -4.7630    1.6634 H   0  0  0  0  0  0  0  0  0  0  0  0
   -6.2320   -3.5812    0.8779 H   0  0  0  0  0  0  0  0  0  0  0  0
   -5.0670   -3.9764   -1.6638 H   0  0  0  0  0  0  0  0  0  0  0  0
   -3.1634   -2.5101   -2.1546 H   0  0  0  0  0  0  0  0  0  0  0  0
    1.3432   -1.3662    0.4783 H   0  0  0  0  0  0  0  0  0  0  0  0
    3.6615   -1.9350   -0.1263 H   0  0  0  0  0  0  0  0  0  0  0  0
    4.1618   -2.4798   -4.2287 H   0  0  0  0  0  0  0  0  0  0  0  0
    5.8991   -2.2600   -3.8049 H   0  0  0  0  0  0  0  0  0  0  0  0
    4.6379   -1.3378   -2.9043 H   0  0  0  0  0  0  0  0  0  0  0  0
    2.2015   -4.5706   -3.2002 H   0  0  0  0  0  0  0  0  0  0  0  0
   -0.1127   -4.0270   -2.5830 H   0  0  0  0  0  0  0  0  0  0  0  0
   -0.6040    3.9409   -0.5462 H   0  0  0  0  0  0  0  0  0  0  0  0
   -1.7440    5.1898    1.2168 H   0  0  0  0  0  0  0  0  0  0  0  0
   -4.3623    4.1835    2.1805 H   0  0  0  0  0  0  0  0  0  0  0  0
   -5.8658    4.5627    1.2352 H   0  0  0  0  0  0  0  0  0  0  0  0
   -5.6799    5.1780    2.9183 H   0  0  0  0  0  0  0  0  0  0  0  0
   -5.1043    5.8406   -1.3902 H   0  0  0  0  0  0  0  0  0  0  0  0
   -3.9681    4.5767   -3.1652 H   0  0  0  0  0  0  0  0  0  0  0  0
   -1.3610    5.8562   -4.1650 H   0  0  0  0  0  0  0  0  0  0  0  0
   -1.8526    6.4359   -6.5133 H   0  0  0  0  0  0  0  0  0  0  0  0
   -4.5906    5.9711   -7.9383 H   0  0  0  0  0  0  0  0  0  0  0  0
   -4.7996    4.1658   -7.8840 H   0  0  0  0  0  0  0  0  0  0  0  0
   -4.9357    5.0374   -9.4510 H   0  0  0  0  0  0  0  0  0  0  0  0
   -2.5489    2.2826   -7.3954 H   0  0  0  0  0  0  0  0  0  0  0  0
   -2.1024    1.6915   -5.0534 H   0  0  0  0  0  0  0  0  0  0  0  0
    5.9368    4.0867   -5.2670 H   0  0  0  0  0  0  0  0  0  0  0  0
    6.1023    3.1369    0.9959 H   0  0  0  0  0  0  0  0  0  0  0  0
    9.7970    5.3708   -1.5194 H   0  0  0  0  0  0  0  0  0  0  0  0
  1  2  2  3
  2  3  1  0
  3  4  2  0
  3  5  1  0
  5  6  2  0
  6  7  1  0
  6  8  1  0
  8  9  1  0
  8 10  2  0
 10 11  1  0
 10 12  1  0
 12 13  1  0
 12 14  2  0
 14 15  1  0
 15 16  2  3
 16 17  1  0
 17 18  3  0
 16 19  1  0
 19 20  3  0
  1 21  1  0
 21 22  2  0
 22 23  1  0
 23 24  1  0
 24 25  2  0
 25 26  2  0
 23 27  2  0
 27 28  1  0
 28 29  2  0
 29 30  1  0
 30 31  1  0
 31 32  2  0
 27 33  1  0
 33 34  2  0
 34 35  1  0
 35 36  1  0
 36 37  2  0
 37 38  1  0
 38 39  2  0
 39 40  1  0
 40 41  1  0
 39 42  1  0
 42 43  2  0
 35 44  1  0
 44 45  2  0
 45 46  1  0
 46 47  2  0
 47 48  1  0
 48 49  1  0
 47 50  1  0
 50 51  2  0
 34 52  1  0
 52 53  1  0
 53 54  1  0
 54 55  2  0
 55 56  1  0
 56 57  1  0
 57 58  2  0
 58 59  1  0
 59 60  2  0
 60 61  1  0
 61 62  1  0
 60 63  1  0
 63 64  2  0
 56 65  1  0
 65 66  2  0
 66 67  1  0
 67 68  2  0
 68 69  1  0
 69 70  1  0
 68 71  1  0
 71 72  2  0
 55 73  1  0
 73 74  1  0
 54 75  1  0
 75 76  2  0
 76 77  1  0
 77 78  1  0
 78 79  2  0
 79 80  2  0
 77 81  2  0
 81 82  1  0
 82 83  2  0
 83 84  1  0
 84 85  1  0
 85 86  2  0
 81 87  1  0
 87 88  2  3
 88 89  1  0
 89 90  2  0
 89 91  1  0
 91 92  2  0
 92 93  1  0
 93 94  1  0
 93 95  2  0
 95 96  1  0
 95 97  1  0
 97 98  2  0
 98 99  1  0
 99100  2  0
 15  2  1  0
 32 21  1  0
 74 33  1  0
 86 75  1  0
 99 88  1  0
 14  5  1  0
 26 22  1  0
 32 28  1  0
 43 36  1  0
 51 44  1  0
 73 52  2  0
 80 76  1  0
 86 82  1  0
 98 91  1  0
 64 57  1  0
 72 65  1  0
  1101  1  0
 37102  1  0
 38103  1  0
 41104  1  0
 41105  1  0
 41106  1  0
 42107  1  0
 43108  1  0
 45109  1  0
 46110  1  0
 49111  1  0
 49112  1  0
 49113  1  0
 50114  1  0
 51115  1  0
 58116  1  0
 59117  1  0
 62118  1  0
 62119  1  0
 62120  1  0
 63121  1  0
 64122  1  0
 66123  1  0
 67124  1  0
 70125  1  0
 70126  1  0
 70127  1  0
 71128  1  0
 72129  1  0
 87130  1  0
 92131  1  0
 97132  1  0
M  END

