
     RDKit          3D

248269  0  0  0  0  0  0  0  0999 V2000
    6.7836   -2.2314    1.9976 C   0  0  0  0  0  0  0  0  0  0  0  0
    6.1366   -2.7409    3.0680 C   0  0  0  0  0  0  0  0  0  0  0  0
    4.7261   -3.1588    3.0623 C   0  0  0  0  0  0  0  0  0  0  0  0
    3.8333   -2.6997    2.3009 O   0  0  0  0  0  0  0  0  0  0  0  0
    4.4648   -3.9605    4.2394 C   0  0  0  0  0  0  0  0  0  0  0  0
    3.2720   -4.5967    4.6065 C   0  0  0  0  0  0  0  0  0  0  0  0
    1.9043   -4.6459    3.4967 Cl  0  0  0  0  0  0  0  0  0  0  0  0
    3.2005   -5.1971    5.8770 C   0  0  0  0  0  0  0  0  0  0  0  0
    1.7313   -6.0529    6.3564 Cl  0  0  0  0  0  0  0  0  0  0  0  0
    4.2794   -5.0661    6.7786 C   0  0  0  0  0  0  0  0  0  0  0  0
    4.1316   -5.7215    8.4163 Cl  0  0  0  0  0  0  0  0  0  0  0  0
    5.4583   -4.3840    6.3981 C   0  0  0  0  0  0  0  0  0  0  0  0
    6.6099   -3.9137    7.6474 Cl  0  0  0  0  0  0  0  0  0  0  0  0
    5.5821   -3.9482    5.0586 C   0  0  0  0  0  0  0  0  0  0  0  0
    6.7053   -3.2380    4.3662 C   0  0  0  0  0  0  0  0  0  0  0  0
    8.0229   -3.3644    4.6527 C   0  0  0  0  0  0  0  0  0  0  0  0
    9.0232   -2.4703    4.1310 C   0  0  0  0  0  0  0  0  0  0  0  0
    9.8351   -1.7506    3.7214 N   0  0  0  0  0  0  0  0  0  0  0  0
    8.5301   -4.4842    5.4061 C   0  0  0  0  0  0  0  0  0  0  0  0
    8.9451   -5.3895    5.9981 N   0  0  0  0  0  0  0  0  0  0  0  0
    6.1286   -2.1264    0.6870 C   0  0  0  0  0  0  0  0  0  0  0  0
    5.5262   -0.9741    0.1430 C   0  0  0  0  0  0  0  0  0  0  0  0
    5.7273    0.3746    0.6105 N   0  0  0  0  0  0  0  0  0  0  0  0
    5.8131    0.6387    2.0190 C   0  0  0  0  0  0  0  0  0  0  0  0
    7.0376    1.0321    2.5833 C   0  0  0  0  0  0  0  0  0  0  0  0
    7.1460    1.2146    3.9647 C   0  0  0  0  0  0  0  0  0  0  0  0
    6.0321    1.0172    4.7898 C   0  0  0  0  0  0  0  0  0  0  0  0
    6.1908    1.2124    6.5666 S   0  0  0  0  0  0  0  0  0  0  0  0
    5.7767    2.9833    6.5479 C   0  0  0  0  0  0  0  0  0  0  0  0
    4.8056    0.6387    4.2284 C   0  0  0  0  0  0  0  0  0  0  0  0
    4.6917    0.4582    2.8457 C   0  0  0  0  0  0  0  0  0  0  0  0
    6.0516    1.4156   -0.3326 C   0  0  0  0  0  0  0  0  0  0  0  0
    5.5655    2.7230   -0.1484 C   0  0  0  0  0  0  0  0  0  0  0  0
    5.8906    3.7337   -1.0593 C   0  0  0  0  0  0  0  0  0  0  0  0
    6.7168    3.4514   -2.1551 C   0  0  0  0  0  0  0  0  0  0  0  0
    7.1471    4.7518   -3.3137 S   0  0  0  0  0  0  0  0  0  0  0  0
    8.5794    5.3071   -2.3363 C   0  0  0  0  0  0  0  0  0  0  0  0
    7.2076    2.1549   -2.3430 C   0  0  0  0  0  0  0  0  0  0  0  0
    6.8763    1.1426   -1.4406 C   0  0  0  0  0  0  0  0  0  0  0  0
    4.6719   -1.3077   -0.9105 C   0  0  0  0  0  0  0  0  0  0  0  0
    3.3727   -0.5369   -1.6223 S   0  0  0  0  0  0  0  0  0  0  0  0
    2.6341   -1.9430   -2.2663 C   0  0  0  0  0  0  0  0  0  0  0  0
    3.5055   -3.0146   -1.9685 C   0  0  0  0  0  0  0  0  0  0  0  0
    3.4907   -4.2758   -2.6489 N   0  0  0  0  0  0  0  0  0  0  0  0
    2.9979   -5.4781   -2.0133 C   0  0  0  0  0  0  0  0  0  0  0  0
    2.5356   -5.4689   -0.6803 C   0  0  0  0  0  0  0  0  0  0  0  0
    2.0957   -6.6490   -0.0727 C   0  0  0  0  0  0  0  0  0  0  0  0
    2.0912   -7.8502   -0.7835 C   0  0  0  0  0  0  0  0  0  0  0  0
    1.5118   -9.3595   -0.0093 S   0  0  0  0  0  0  0  0  0  0  0  0
    3.1845   -9.9462    0.4192 C   0  0  0  0  0  0  0  0  0  0  0  0
    2.5175   -7.8667   -2.1146 C   0  0  0  0  0  0  0  0  0  0  0  0
    2.9773   -6.6972   -2.7209 C   0  0  0  0  0  0  0  0  0  0  0  0
    4.3324   -4.3514   -3.8156 C   0  0  0  0  0  0  0  0  0  0  0  0
    5.7101   -4.6037   -3.6969 C   0  0  0  0  0  0  0  0  0  0  0  0
    6.5343   -4.5502   -4.8261 C   0  0  0  0  0  0  0  0  0  0  0  0
    5.9868   -4.2416   -6.0790 C   0  0  0  0  0  0  0  0  0  0  0  0
    7.0481   -4.0707   -7.5140 S   0  0  0  0  0  0  0  0  0  0  0  0
    7.2036   -2.2692   -7.3135 C   0  0  0  0  0  0  0  0  0  0  0  0
    4.6102   -4.0360   -6.2039 C   0  0  0  0  0  0  0  0  0  0  0  0
    3.7936   -4.0768   -5.0721 C   0  0  0  0  0  0  0  0  0  0  0  0
    4.5937   -2.6236   -1.1996 C   0  0  0  0  0  0  0  0  0  0  0  0
    5.5886   -3.4929   -0.1728 S   0  0  0  0  0  0  0  0  0  0  0  0
    1.1916   -2.0708   -2.0021 C   0  0  0  0  0  0  0  0  0  0  0  0
    0.1572   -1.5132   -2.7934 C   0  0  0  0  0  0  0  0  0  0  0  0
    0.0395   -1.6854   -4.2213 N   0  0  0  0  0  0  0  0  0  0  0  0
    0.1977   -3.0104   -4.7965 C   0  0  0  0  0  0  0  0  0  0  0  0
   -0.0436   -4.1773   -4.0336 C   0  0  0  0  0  0  0  0  0  0  0  0
    0.0095   -5.4412   -4.6303 C   0  0  0  0  0  0  0  0  0  0  0  0
    0.2959   -5.5651   -5.9911 C   0  0  0  0  0  0  0  0  0  0  0  0
    0.2722   -7.1783   -6.7793 S   0  0  0  0  0  0  0  0  0  0  0  0
    1.9942   -7.5695   -6.3587 C   0  0  0  0  0  0  0  0  0  0  0  0
    0.5509   -4.4247   -6.7569 C   0  0  0  0  0  0  0  0  0  0  0  0
    0.5199   -3.1579   -6.1643 C   0  0  0  0  0  0  0  0  0  0  0  0
   -0.5377   -0.6329   -5.0335 C   0  0  0  0  0  0  0  0  0  0  0  0
   -1.5524   -0.9287   -5.9680 C   0  0  0  0  0  0  0  0  0  0  0  0
   -1.9335    0.0111   -6.9211 C   0  0  0  0  0  0  0  0  0  0  0  0
   -1.3713    1.2918   -6.9107 C   0  0  0  0  0  0  0  0  0  0  0  0
   -1.7181    2.4378   -8.2541 S   0  0  0  0  0  0  0  0  0  0  0  0
   -3.4761    2.6679   -7.8486 C   0  0  0  0  0  0  0  0  0  0  0  0
   -0.4470    1.6314   -5.9117 C   0  0  0  0  0  0  0  0  0  0  0  0
   -0.0244    0.6742   -4.9813 C   0  0  0  0  0  0  0  0  0  0  0  0
   -0.9195   -1.1193   -1.9916 C   0  0  0  0  0  0  0  0  0  0  0  0
   -2.2667   -0.1521   -2.2270 S   0  0  0  0  0  0  0  0  0  0  0  0
   -2.6785   -0.0337   -0.5708 C   0  0  0  0  0  0  0  0  0  0  0  0
   -1.7343   -0.7748    0.1631 C   0  0  0  0  0  0  0  0  0  0  0  0
   -1.6376   -0.8224    1.5933 N   0  0  0  0  0  0  0  0  0  0  0  0
   -2.0674   -2.0278    2.2657 C   0  0  0  0  0  0  0  0  0  0  0  0
   -3.2113   -2.7202    1.8216 C   0  0  0  0  0  0  0  0  0  0  0  0
   -3.6159   -3.8992    2.4509 C   0  0  0  0  0  0  0  0  0  0  0  0
   -2.8893   -4.4015    3.5342 C   0  0  0  0  0  0  0  0  0  0  0  0
   -3.4151   -5.9120    4.3448 S   0  0  0  0  0  0  0  0  0  0  0  0
   -2.3605   -6.9793    3.3144 C   0  0  0  0  0  0  0  0  0  0  0  0
   -1.7527   -3.7218    3.9852 C   0  0  0  0  0  0  0  0  0  0  0  0
   -1.3343   -2.5518    3.3461 C   0  0  0  0  0  0  0  0  0  0  0  0
   -1.0042    0.2665    2.3099 C   0  0  0  0  0  0  0  0  0  0  0  0
    0.0299    1.0172    1.7193 C   0  0  0  0  0  0  0  0  0  0  0  0
    0.6675    2.0354    2.4337 C   0  0  0  0  0  0  0  0  0  0  0  0
    0.2662    2.3340    3.7400 C   0  0  0  0  0  0  0  0  0  0  0  0
    1.1086    3.6098    4.6772 S   0  0  0  0  0  0  0  0  0  0  0  0
    0.0263    4.9418    4.0758 C   0  0  0  0  0  0  0  0  0  0  0  0
   -0.7788    1.6173    4.3258 C   0  0  0  0  0  0  0  0  0  0  0  0
   -1.4138    0.5941    3.6200 C   0  0  0  0  0  0  0  0  0  0  0  0
   -0.7851   -1.3595   -0.6677 C   0  0  0  0  0  0  0  0  0  0  0  0
    0.6826   -2.0806   -0.3678 S   0  0  0  0  0  0  0  0  0  0  0  0
   -3.7205    0.8630   -0.0047 C   0  0  0  0  0  0  0  0  0  0  0  0
   -4.3220    1.9569   -0.6550 C   0  0  0  0  0  0  0  0  0  0  0  0
   -4.2259    2.2473   -2.0534 N   0  0  0  0  0  0  0  0  0  0  0  0
   -5.3621    1.8477   -2.8485 C   0  0  0  0  0  0  0  0  0  0  0  0
   -5.6879    0.4880   -2.9783 C   0  0  0  0  0  0  0  0  0  0  0  0
   -6.8369    0.0979   -3.6678 C   0  0  0  0  0  0  0  0  0  0  0  0
   -7.6916    1.0639   -4.2239 C   0  0  0  0  0  0  0  0  0  0  0  0
   -8.9442    0.6547   -4.9375 C   0  0  0  0  0  0  0  0  0  0  0  0
   -7.3818    2.4228   -4.0711 C   0  0  0  0  0  0  0  0  0  0  0  0
   -6.2299    2.8136   -3.3829 C   0  0  0  0  0  0  0  0  0  0  0  0
   -3.2062    3.1494   -2.5503 C   0  0  0  0  0  0  0  0  0  0  0  0
   -3.1106    3.4275   -3.9230 C   0  0  0  0  0  0  0  0  0  0  0  0
   -2.1086    4.2671   -4.4219 C   0  0  0  0  0  0  0  0  0  0  0  0
   -1.1810    4.8501   -3.5505 C   0  0  0  0  0  0  0  0  0  0  0  0
   -0.0627    5.6902   -4.0890 C   0  0  0  0  0  0  0  0  0  0  0  0
   -1.2572    4.5787   -2.1772 C   0  0  0  0  0  0  0  0  0  0  0  0
   -2.2642    3.7399   -1.6795 C   0  0  0  0  0  0  0  0  0  0  0  0
   -5.0450    2.7508    0.2156 C   0  0  0  0  0  0  0  0  0  0  0  0
   -5.8270    4.2287    0.0555 S   0  0  0  0  0  0  0  0  0  0  0  0
   -6.1852    4.3225    1.7296 C   0  0  0  0  0  0  0  0  0  0  0  0
   -5.7607    3.1554    2.3749 C   0  0  0  0  0  0  0  0  0  0  0  0
   -6.1539    2.7842    3.7014 N   0  0  0  0  0  0  0  0  0  0  0  0
   -7.5420    2.4615    3.9443 C   0  0  0  0  0  0  0  0  0  0  0  0
   -8.1869    2.9188    5.1038 C   0  0  0  0  0  0  0  0  0  0  0  0
   -9.5524    2.6839    5.2922 C   0  0  0  0  0  0  0  0  0  0  0  0
  -10.2873    1.9724    4.3308 C   0  0  0  0  0  0  0  0  0  0  0  0
  -11.7695    1.7819    4.4949 C   0  0  0  0  0  0  0  0  0  0  0  0
   -9.6451    1.5135    3.1732 C   0  0  0  0  0  0  0  0  0  0  0  0
   -8.2831    1.7510    2.9805 C   0  0  0  0  0  0  0  0  0  0  0  0
   -5.1827    2.7974    4.7614 C   0  0  0  0  0  0  0  0  0  0  0  0
   -5.1060    1.7229    5.6613 C   0  0  0  0  0  0  0  0  0  0  0  0
   -4.1674    1.7344    6.6950 C   0  0  0  0  0  0  0  0  0  0  0  0
   -3.3091    2.8290    6.8614 C   0  0  0  0  0  0  0  0  0  0  0  0
   -2.2945    2.8326    7.9682 C   0  0  0  0  0  0  0  0  0  0  0  0
   -3.3823    3.9062    5.9603 C   0  0  0  0  0  0  0  0  0  0  0  0
   -4.3149    3.8904    4.9209 C   0  0  0  0  0  0  0  0  0  0  0  0
   -5.0850    2.3178    1.4980 C   0  0  0  0  0  0  0  0  0  0  0  0
   -4.2065    0.9032    1.6398 S   0  0  0  0  0  0  0  0  0  0  0  0
   -6.8960    5.4171    2.3961 C   0  0  0  0  0  0  0  0  0  0  0  0
   -6.5035    6.7055    2.4659 C   0  0  0  0  0  0  0  0  0  0  0  0
   -7.3987    7.7441    2.9797 C   0  0  0  0  0  0  0  0  0  0  0  0
   -8.5424    7.5331    3.4602 O   0  0  0  0  0  0  0  0  0  0  0  0
   -6.7672    9.0410    2.8284 C   0  0  0  0  0  0  0  0  0  0  0  0
   -7.2236   10.2761    3.2908 C   0  0  0  0  0  0  0  0  0  0  0  0
   -8.8425   10.4414    3.9712 Cl  0  0  0  0  0  0  0  0  0  0  0  0
   -6.3496   11.3742    3.2463 C   0  0  0  0  0  0  0  0  0  0  0  0
   -6.8726   12.9382    3.8652 Cl  0  0  0  0  0  0  0  0  0  0  0  0
   -5.0197   11.2050    2.7921 C   0  0  0  0  0  0  0  0  0  0  0  0
   -3.8979   12.5686    2.8588 Cl  0  0  0  0  0  0  0  0  0  0  0  0
   -4.5731    9.9388    2.3422 C   0  0  0  0  0  0  0  0  0  0  0  0
   -2.8405    9.6804    2.1632 Cl  0  0  0  0  0  0  0  0  0  0  0  0
   -5.5021    8.8740    2.2846 C   0  0  0  0  0  0  0  0  0  0  0  0
   -5.2770    7.4268    1.9898 C   0  0  0  0  0  0  0  0  0  0  0  0
   -4.2799    6.9278    1.2352 C   0  0  0  0  0  0  0  0  0  0  0  0
   -3.5587    5.7537    1.6430 C   0  0  0  0  0  0  0  0  0  0  0  0
   -2.9542    4.8185    1.9587 N   0  0  0  0  0  0  0  0  0  0  0  0
   -3.7226    7.6638    0.1289 C   0  0  0  0  0  0  0  0  0  0  0  0
   -3.2776    8.2530   -0.7630 N   0  0  0  0  0  0  0  0  0  0  0  0
    7.8215   -1.9667    2.0287 H   0  0  0  0  0  0  0  0  0  0  0  0
    7.9105    1.1603    1.9550 H   0  0  0  0  0  0  0  0  0  0  0  0
    8.0994    1.4964    4.3930 H   0  0  0  0  0  0  0  0  0  0  0  0
    4.7789    3.1358    6.0890 H   0  0  0  0  0  0  0  0  0  0  0  0
    6.5432    3.5518    5.9798 H   0  0  0  0  0  0  0  0  0  0  0  0
    5.7504    3.3592    7.5916 H   0  0  0  0  0  0  0  0  0  0  0  0
    3.9445    0.4835    4.8616 H   0  0  0  0  0  0  0  0  0  0  0  0
    3.7438    0.1620    2.4182 H   0  0  0  0  0  0  0  0  0  0  0  0
    4.9303    2.9576    0.6953 H   0  0  0  0  0  0  0  0  0  0  0  0
    5.5094    4.7368   -0.9087 H   0  0  0  0  0  0  0  0  0  0  0  0
    8.2659    5.5763   -1.3058 H   0  0  0  0  0  0  0  0  0  0  0  0
    9.3487    4.5085   -2.2950 H   0  0  0  0  0  0  0  0  0  0  0  0
    9.0147    6.2011   -2.8220 H   0  0  0  0  0  0  0  0  0  0  0  0
    7.8491    1.9304   -3.1836 H   0  0  0  0  0  0  0  0  0  0  0  0
    7.2768    0.1489   -1.5933 H   0  0  0  0  0  0  0  0  0  0  0  0
    2.5364   -4.5583   -0.1003 H   0  0  0  0  0  0  0  0  0  0  0  0
    1.7600   -6.6255    0.9585 H   0  0  0  0  0  0  0  0  0  0  0  0
    3.1004  -10.8985    0.9824 H   0  0  0  0  0  0  0  0  0  0  0  0
    3.7732  -10.1327   -0.5046 H   0  0  0  0  0  0  0  0  0  0  0  0
    3.7088   -9.1999    1.0528 H   0  0  0  0  0  0  0  0  0  0  0  0
    2.5120   -8.7913   -2.6793 H   0  0  0  0  0  0  0  0  0  0  0  0
    3.3337   -6.7452   -3.7405 H   0  0  0  0  0  0  0  0  0  0  0  0
    6.1423   -4.8222   -2.7298 H   0  0  0  0  0  0  0  0  0  0  0  0
    7.5986   -4.7108   -4.7230 H   0  0  0  0  0  0  0  0  0  0  0  0
    7.9375   -1.8833   -8.0487 H   0  0  0  0  0  0  0  0  0  0  0  0
    6.2204   -1.7879   -7.4945 H   0  0  0  0  0  0  0  0  0  0  0  0
    7.5541   -2.0267   -6.2887 H   0  0  0  0  0  0  0  0  0  0  0  0
    4.1785   -3.7978   -7.1674 H   0  0  0  0  0  0  0  0  0  0  0  0
    2.7464   -3.8793   -5.1618 H   0  0  0  0  0  0  0  0  0  0  0  0
   -0.3155   -4.1187   -2.9886 H   0  0  0  0  0  0  0  0  0  0  0  0
   -0.1850   -6.3196   -4.0313 H   0  0  0  0  0  0  0  0  0  0  0  0
    2.0396   -7.8915   -5.3017 H   0  0  0  0  0  0  0  0  0  0  0  0
    2.6510   -6.6909   -6.5207 H   0  0  0  0  0  0  0  0  0  0  0  0
    2.3405   -8.4049   -7.0003 H   0  0  0  0  0  0  0  0  0  0  0  0
    0.7915   -4.5175   -7.8079 H   0  0  0  0  0  0  0  0  0  0  0  0
    0.7413   -2.2919   -6.7743 H   0  0  0  0  0  0  0  0  0  0  0  0
   -1.9941   -1.9175   -6.0047 H   0  0  0  0  0  0  0  0  0  0  0  0
   -2.6453   -0.2663   -7.6863 H   0  0  0  0  0  0  0  0  0  0  0  0
   -3.8751    3.5348   -8.4156 H   0  0  0  0  0  0  0  0  0  0  0  0
   -4.0529    1.7602   -8.1301 H   0  0  0  0  0  0  0  0  0  0  0  0
   -3.6062    2.8639   -6.7725 H   0  0  0  0  0  0  0  0  0  0  0  0
   -0.0021    2.6168   -5.9033 H   0  0  0  0  0  0  0  0  0  0  0  0
    0.7452    0.9291   -4.2613 H   0  0  0  0  0  0  0  0  0  0  0  0
   -3.7963   -2.3439    0.9898 H   0  0  0  0  0  0  0  0  0  0  0  0
   -4.4915   -4.4261    2.0937 H   0  0  0  0  0  0  0  0  0  0  0  0
   -2.5390   -8.0380    3.5943 H   0  0  0  0  0  0  0  0  0  0  0  0
   -1.2917   -6.7324    3.4912 H   0  0  0  0  0  0  0  0  0  0  0  0
   -2.6089   -6.8427    2.2401 H   0  0  0  0  0  0  0  0  0  0  0  0
   -1.1830   -4.1065    4.8217 H   0  0  0  0  0  0  0  0  0  0  0  0
   -0.4328   -2.0582    3.6847 H   0  0  0  0  0  0  0  0  0  0  0  0
    0.3719    0.8015    0.7138 H   0  0  0  0  0  0  0  0  0  0  0  0
    1.4802    2.5827    1.9757 H   0  0  0  0  0  0  0  0  0  0  0  0
   -1.0385    4.6806    4.2310 H   0  0  0  0  0  0  0  0  0  0  0  0
    0.2091    5.1164    2.9975 H   0  0  0  0  0  0  0  0  0  0  0  0
    0.2490    5.8718    4.6347 H   0  0  0  0  0  0  0  0  0  0  0  0
   -1.0926    1.8418    5.3340 H   0  0  0  0  0  0  0  0  0  0  0  0
   -2.2238    0.0553    4.0946 H   0  0  0  0  0  0  0  0  0  0  0  0
   -5.0606   -0.2706   -2.5326 H   0  0  0  0  0  0  0  0  0  0  0  0
   -7.0642   -0.9578   -3.7604 H   0  0  0  0  0  0  0  0  0  0  0  0
   -9.0075    1.1830   -5.9112 H   0  0  0  0  0  0  0  0  0  0  0  0
   -8.9639   -0.4387   -5.1279 H   0  0  0  0  0  0  0  0  0  0  0  0
   -9.8229    0.9269   -4.3165 H   0  0  0  0  0  0  0  0  0  0  0  0
   -8.0463    3.1818   -4.4686 H   0  0  0  0  0  0  0  0  0  0  0  0
   -6.0168    3.8663   -3.2485 H   0  0  0  0  0  0  0  0  0  0  0  0
   -3.8053    2.9859   -4.6102 H   0  0  0  0  0  0  0  0  0  0  0  0
   -2.0571    4.4571   -5.4870 H   0  0  0  0  0  0  0  0  0  0  0  0
    0.8273    5.0512   -4.2723 H   0  0  0  0  0  0  0  0  0  0  0  0
    0.2067    6.4890   -3.3625 H   0  0  0  0  0  0  0  0  0  0  0  0
   -0.3597    6.1781   -5.0401 H   0  0  0  0  0  0  0  0  0  0  0  0
   -0.5374    5.0072   -1.4916 H   0  0  0  0  0  0  0  0  0  0  0  0
   -2.2909    3.5481   -0.6172 H   0  0  0  0  0  0  0  0  0  0  0  0
   -7.6422    3.4934    5.8438 H   0  0  0  0  0  0  0  0  0  0  0  0
  -10.0397    3.0687    6.1767 H   0  0  0  0  0  0  0  0  0  0  0  0
  -12.3025    2.6562    4.0633 H   0  0  0  0  0  0  0  0  0  0  0  0
  -12.1093    0.8609    3.9729 H   0  0  0  0  0  0  0  0  0  0  0  0
  -12.0377    1.6865    5.5696 H   0  0  0  0  0  0  0  0  0  0  0  0
  -10.2020    0.9805    2.4111 H   0  0  0  0  0  0  0  0  0  0  0  0
   -7.8133    1.3924    2.0768 H   0  0  0  0  0  0  0  0  0  0  0  0
   -5.7663    0.8741    5.5492 H   0  0  0  0  0  0  0  0  0  0  0  0
   -4.1108    0.8900    7.3696 H   0  0  0  0  0  0  0  0  0  0  0  0
   -2.7537    2.4501    8.9078 H   0  0  0  0  0  0  0  0  0  0  0  0
   -1.9057    3.8523    8.1632 H   0  0  0  0  0  0  0  0  0  0  0  0
   -1.4481    2.1723    7.6906 H   0  0  0  0  0  0  0  0  0  0  0  0
   -2.7243    4.7606    6.0660 H   0  0  0  0  0  0  0  0  0  0  0  0
   -4.3827    4.7415    4.2563 H   0  0  0  0  0  0  0  0  0  0  0  0
   -7.8396    5.1497    2.8567 H   0  0  0  0  0  0  0  0  0  0  0  0
  1  2  2  3
  2  3  1  0
  3  4  2  0
  3  5  1  0
  5  6  2  0
  6  7  1  0
  6  8  1  0
  8  9  1  0
  8 10  2  0
 10 11  1  0
 10 12  1  0
 12 13  1  0
 12 14  2  0
 14 15  1  0
 15 16  2  3
 16 17  1  0
 17 18  3  0
 16 19  1  0
 19 20  3  0
  1 21  1  0
 21 22  2  0
 22 23  1  0
 23 24  1  0
 24 25  2  0
 25 26  1  0
 26 27  2  0
 27 28  1  0
 28 29  1  0
 27 30  1  0
 30 31  2  0
 23 32  1  0
 32 33  2  0
 33 34  1  0
 34 35  2  0
 35 36  1  0
 36 37  1  0
 35 38  1  0
 38 39  2  0
 22 40  1  0
 40 41  1  0
 41 42  1  0
 42 43  2  0
 43 44  1  0
 44 45  1  0
 45 46  2  0
 46 47  1  0
 47 48  2  0
 48 49  1  0
 49 50  1  0
 48 51  1  0
 51 52  2  0
 44 53  1  0
 53 54  2  0
 54 55  1  0
 55 56  2  0
 56 57  1  0
 57 58  1  0
 56 59  1  0
 59 60  2  0
 43 61  1  0
 61 62  1  0
 42 63  1  0
 63 64  2  0
 64 65  1  0
 65 66  1  0
 66 67  2  0
 67 68  1  0
 68 69  2  0
 69 70  1  0
 70 71  1  0
 69 72  1  0
 72 73  2  0
 65 74  1  0
 74 75  2  0
 75 76  1  0
 76 77  2  0
 77 78  1  0
 78 79  1  0
 77 80  1  0
 80 81  2  0
 64 82  1  0
 82 83  1  0
 83 84  1  0
 84 85  2  0
 85 86  1  0
 86 87  1  0
 87 88  2  0
 88 89  1  0
 89 90  2  0
 90 91  1  0
 91 92  1  0
 90 93  1  0
 93 94  2  0
 86 95  1  0
 95 96  2  0
 96 97  1  0
 97 98  2  0
 98 99  1  0
 99100  1  0
 98101  1  0
101102  2  0
 85103  1  0
103104  1  0
 84105  1  0
105106  2  0
106107  1  0
107108  1  0
108109  2  0
109110  1  0
110111  2  0
111112  1  0
111113  1  0
113114  2  0
107115  1  0
115116  2  0
116117  1  0
117118  2  0
118119  1  0
118120  1  0
120121  2  0
106122  1  0
122123  1  0
123124  1  0
124125  2  0
125126  1  0
126127  1  0
127128  2  0
128129  1  0
129130  2  0
130131  1  0
130132  1  0
132133  2  0
126134  1  0
134135  2  0
135136  1  0
136137  2  0
137138  1  0
137139  1  0
139140  2  0
125141  1  0
141142  1  0
124143  1  0
143144  2  3
144145  1  0
145146  2  0
145147  1  0
147148  2  0
148149  1  0
148150  1  0
150151  1  0
150152  2  0
152153  1  0
152154  1  0
154155  1  0
154156  2  0
156157  1  0
157158  2  3
158159  1  0
159160  3  0
158161  1  0
161162  3  0
 15  2  1  0
 62 21  1  0
104 63  1  0
142105  1  0
157144  1  0
 14  5  1  0
 31 24  1  0
 39 32  1  0
 61 40  2  0
 73 66  1  0
 81 74  1  0
103 82  2  0
114108  1  0
121115  1  0
141122  2  0
156147  1  0
 52 45  1  0
 60 53  1  0
 94 87  1  0
102 95  1  0
133127  1  0
140134  1  0
  1163  1  0
 25164  1  0
 26165  1  0
 29166  1  0
 29167  1  0
 29168  1  0
 30169  1  0
 31170  1  0
 33171  1  0
 34172  1  0
 37173  1  0
 37174  1  0
 37175  1  0
 38176  1  0
 39177  1  0
 46178  1  0
 47179  1  0
 50180  1  0
 50181  1  0
 50182  1  0
 51183  1  0
 52184  1  0
 54185  1  0
 55186  1  0
 58187  1  0
 58188  1  0
 58189  1  0
 59190  1  0
 60191  1  0
 67192  1  0
 68193  1  0
 71194  1  0
 71195  1  0
 71196  1  0
 72197  1  0
 73198  1  0
 75199  1  0
 76200  1  0
 79201  1  0
 79202  1  0
 79203  1  0
 80204  1  0
 81205  1  0
 88206  1  0
 89207  1  0
 92208  1  0
 92209  1  0
 92210  1  0
 93211  1  0
 94212  1  0
 96213  1  0
 97214  1  0
100215  1  0
100216  1  0
100217  1  0
101218  1  0
102219  1  0
109220  1  0
110221  1  0
112222  1  0
112223  1  0
112224  1  0
113225  1  0
114226  1  0
116227  1  0
117228  1  0
119229  1  0
119230  1  0
119231  1  0
120232  1  0
121233  1  0
128234  1  0
129235  1  0
131236  1  0
131237  1  0
131238  1  0
132239  1  0
133240  1  0
135241  1  0
136242  1  0
138243  1  0
138244  1  0
138245  1  0
139246  1  0
140247  1  0
143248  1  0
M  END

