
     RDKit          3D

144159  0  0  0  0  0  0  0  0999 V2000
    2.9371   -0.7736    9.5519 C   0  0  0  0  0  0  0  0  0  0  0  0
    2.9664    0.2174   10.4672 C   0  0  0  0  0  0  0  0  0  0  0  0
    3.9332    1.3220   10.4956 C   0  0  0  0  0  0  0  0  0  0  0  0
    5.0900    1.2953    9.9995 O   0  0  0  0  0  0  0  0  0  0  0  0
    3.4110    2.3722   11.3411 C   0  0  0  0  0  0  0  0  0  0  0  0
    3.8948    3.6700   11.5199 C   0  0  0  0  0  0  0  0  0  0  0  0
    5.2622    4.2615   10.5794 Cl  0  0  0  0  0  0  0  0  0  0  0  0
    3.2375    4.5020   12.4438 C   0  0  0  0  0  0  0  0  0  0  0  0
    3.7307    6.1858   12.6152 Cl  0  0  0  0  0  0  0  0  0  0  0  0
    2.1968    3.9828   13.2475 C   0  0  0  0  0  0  0  0  0  0  0  0
    1.4608    4.9974   14.4906 Cl  0  0  0  0  0  0  0  0  0  0  0  0
    1.7412    2.6588   13.0580 C   0  0  0  0  0  0  0  0  0  0  0  0
    0.7114    1.9138   14.2769 Cl  0  0  0  0  0  0  0  0  0  0  0  0
    2.2852    1.9118   11.9954 C   0  0  0  0  0  0  0  0  0  0  0  0
    1.8838    0.5796   11.4414 C   0  0  0  0  0  0  0  0  0  0  0  0
    0.6179    0.0956   11.4389 C   0  0  0  0  0  0  0  0  0  0  0  0
   -0.5179    0.9519   11.6684 C   0  0  0  0  0  0  0  0  0  0  0  0
   -1.4428    1.6313   11.8386 N   0  0  0  0  0  0  0  0  0  0  0  0
    0.2994   -1.2604   11.0811 C   0  0  0  0  0  0  0  0  0  0  0  0
    0.0236   -2.3509   10.7954 N   0  0  0  0  0  0  0  0  0  0  0  0
    3.6303   -0.7597    8.2326 C   0  0  0  0  0  0  0  0  0  0  0  0
    3.7402   -1.9839    7.5276 C   0  0  0  0  0  0  0  0  0  0  0  0
    4.0812   -1.9568    6.1738 C   0  0  0  0  0  0  0  0  0  0  0  0
    3.7478   -2.9529    5.1584 C   0  0  0  0  0  0  0  0  0  0  0  0
    3.3826   -4.1404    5.3649 O   0  0  0  0  0  0  0  0  0  0  0  0
    3.7954   -2.2748    3.8656 C   0  0  0  0  0  0  0  0  0  0  0  0
    4.2339   -0.9784    4.0818 C   0  0  0  0  0  0  0  0  0  0  0  0
    4.3685   -0.7664    5.5245 C   0  0  0  0  0  0  0  0  0  0  0  0
    4.2775    0.4496    6.1936 C   0  0  0  0  0  0  0  0  0  0  0  0
    3.8646    0.4515    7.5313 C   0  0  0  0  0  0  0  0  0  0  0  0
    4.1366   -0.0081    3.0867 C   0  0  0  0  0  0  0  0  0  0  0  0
    3.5023   -0.3468    1.8856 C   0  0  0  0  0  0  0  0  0  0  0  0
    2.9190   -1.6242    1.7157 C   0  0  0  0  0  0  0  0  0  0  0  0
    3.1055   -2.6140    2.6972 C   0  0  0  0  0  0  0  0  0  0  0  0
    1.7993   -1.7327    0.7822 C   0  0  0  0  0  0  0  0  0  0  0  0
    1.8805   -1.8921   -0.6077 C   0  0  0  0  0  0  0  0  0  0  0  0
    3.0575   -2.2840   -1.3322 N   0  0  0  0  0  0  0  0  0  0  0  0
    3.0866   -3.6642   -1.7329 C   0  0  0  0  0  0  0  0  0  0  0  0
    2.8586   -4.0127   -3.0763 C   0  0  0  0  0  0  0  0  0  0  0  0
    2.8183   -5.3538   -3.4567 C   0  0  0  0  0  0  0  0  0  0  0  0
    2.9791   -6.3630   -2.5004 C   0  0  0  0  0  0  0  0  0  0  0  0
    2.8842   -8.0859   -2.9907 S   0  0  0  0  0  0  0  0  0  0  0  0
    1.0672   -8.1337   -2.8790 C   0  0  0  0  0  0  0  0  0  0  0  0
    3.1911   -6.0212   -1.1608 C   0  0  0  0  0  0  0  0  0  0  0  0
    3.2418   -4.6768   -0.7761 C   0  0  0  0  0  0  0  0  0  0  0  0
    3.9035   -1.3022   -1.9900 C   0  0  0  0  0  0  0  0  0  0  0  0
    3.6150    0.0758   -1.9259 C   0  0  0  0  0  0  0  0  0  0  0  0
    4.3442    0.9966   -2.6884 C   0  0  0  0  0  0  0  0  0  0  0  0
    5.3825    0.5536   -3.5136 C   0  0  0  0  0  0  0  0  0  0  0  0
    6.1767    1.7024   -4.6469 S   0  0  0  0  0  0  0  0  0  0  0  0
    7.6374    1.9736   -3.5908 C   0  0  0  0  0  0  0  0  0  0  0  0
    5.7363   -0.7952   -3.5245 C   0  0  0  0  0  0  0  0  0  0  0  0
    5.0233   -1.7119   -2.7470 C   0  0  0  0  0  0  0  0  0  0  0  0
    0.6772   -1.5560   -1.2220 C   0  0  0  0  0  0  0  0  0  0  0  0
    0.2495   -1.2424   -2.8110 S   0  0  0  0  0  0  0  0  0  0  0  0
   -1.2359   -0.5150   -2.3975 C   0  0  0  0  0  0  0  0  0  0  0  0
   -1.3986   -0.5229   -1.0028 C   0  0  0  0  0  0  0  0  0  0  0  0
   -2.3753    0.2470   -0.2834 N   0  0  0  0  0  0  0  0  0  0  0  0
   -2.3440    1.6897   -0.3631 C   0  0  0  0  0  0  0  0  0  0  0  0
   -1.1192    2.3762   -0.4631 C   0  0  0  0  0  0  0  0  0  0  0  0
   -1.0887    3.7732   -0.4775 C   0  0  0  0  0  0  0  0  0  0  0  0
   -2.2755    4.5055   -0.3798 C   0  0  0  0  0  0  0  0  0  0  0  0
   -2.2218    6.2971   -0.3783 S   0  0  0  0  0  0  0  0  0  0  0  0
   -2.0087    6.4096    1.4296 C   0  0  0  0  0  0  0  0  0  0  0  0
   -3.5023    3.8299   -0.2918 C   0  0  0  0  0  0  0  0  0  0  0  0
   -3.5336    2.4300   -0.2813 C   0  0  0  0  0  0  0  0  0  0  0  0
   -3.1650   -0.4142    0.7218 C   0  0  0  0  0  0  0  0  0  0  0  0
   -3.2548    0.1126    2.0251 C   0  0  0  0  0  0  0  0  0  0  0  0
   -3.9864   -0.5576    3.0112 C   0  0  0  0  0  0  0  0  0  0  0  0
   -4.6297   -1.7636    2.7108 C   0  0  0  0  0  0  0  0  0  0  0  0
   -5.5907   -2.6148    3.9689 S   0  0  0  0  0  0  0  0  0  0  0  0
   -4.1754   -3.5873    4.5784 C   0  0  0  0  0  0  0  0  0  0  0  0
   -4.5421   -2.2959    1.4196 C   0  0  0  0  0  0  0  0  0  0  0  0
   -3.8090   -1.6275    0.4324 C   0  0  0  0  0  0  0  0  0  0  0  0
   -0.3060   -1.1257   -0.3850 C   0  0  0  0  0  0  0  0  0  0  0  0
    0.2576   -1.1268    1.1912 S   0  0  0  0  0  0  0  0  0  0  0  0
   -2.0957    0.1504   -3.3823 C   0  0  0  0  0  0  0  0  0  0  0  0
   -3.2430   -0.4844   -3.8779 C   0  0  0  0  0  0  0  0  0  0  0  0
   -3.8823   -0.0295   -5.0612 C   0  0  0  0  0  0  0  0  0  0  0  0
   -4.9492   -0.8622   -5.5220 N   0  0  0  0  0  0  0  0  0  0  0  0
   -4.9237   -2.0106   -4.4082 S   0  0  0  0  0  4  0  0  0  0  0  0
   -3.7683   -1.7086   -3.3498 N   0  0  0  0  0  0  0  0  0  0  0  0
   -3.3860    1.0756   -5.7669 C   0  0  0  0  0  0  0  0  0  0  0  0
   -2.3199    1.7983   -5.2007 C   0  0  0  0  0  0  0  0  0  0  0  0
   -1.7891    2.9045   -5.7848 N   0  0  0  0  0  0  0  0  0  0  0  0
   -0.5245    3.2098   -4.7677 S   0  0  0  0  0  0  0  0  0  0  0  0
   -0.5708    2.0241   -3.6206 N   0  0  0  0  0  0  0  0  0  0  0  0
   -1.6603    1.3201   -4.0250 C   0  0  0  0  0  0  0  0  0  0  0  0
   -3.7955    1.3162   -7.1639 C   0  0  0  0  0  0  0  0  0  0  0  0
   -2.9828    0.9958   -8.2000 C   0  0  0  0  0  0  0  0  0  0  0  0
   -1.7365    0.2146   -8.0895 C   0  0  0  0  0  0  0  0  0  0  0  0
   -1.1911   -0.1953   -7.0305 O   0  0  0  0  0  0  0  0  0  0  0  0
   -1.2766   -0.1102   -9.4166 C   0  0  0  0  0  0  0  0  0  0  0  0
   -0.1970   -0.9231   -9.7659 C   0  0  0  0  0  0  0  0  0  0  0  0
    0.0292   -1.1892  -11.1239 C   0  0  0  0  0  0  0  0  0  0  0  0
    1.3791   -2.2165  -11.5910 Cl  0  0  0  0  0  0  0  0  0  0  0  0
   -0.8491   -0.6747  -12.0945 C   0  0  0  0  0  0  0  0  0  0  0  0
   -0.6681   -0.9755  -13.4045 F   0  0  0  0  0  0  0  0  0  0  0  0
   -1.9434    0.1245  -11.7157 C   0  0  0  0  0  0  0  0  0  0  0  0
   -2.1376    0.4290  -10.3556 C   0  0  0  0  0  0  0  0  0  0  0  0
   -3.2126    1.2080   -9.6708 C   0  0  0  0  0  0  0  0  0  0  0  0
   -4.0689    2.0895  -10.2577 C   0  0  0  0  0  0  0  0  0  0  0  0
   -5.0012    2.8942   -9.5043 C   0  0  0  0  0  0  0  0  0  0  0  0
   -5.7692    3.5289   -8.9140 N   0  0  0  0  0  0  0  0  0  0  0  0
   -4.0512    2.3701  -11.6685 C   0  0  0  0  0  0  0  0  0  0  0  0
   -4.0597    2.6074  -12.8036 N   0  0  0  0  0  0  0  0  0  0  0  0
    2.2848   -1.6138    9.6978 H   0  0  0  0  0  0  0  0  0  0  0  0
    3.4191   -2.9150    7.9815 H   0  0  0  0  0  0  0  0  0  0  0  0
    4.3567    1.3861    5.6562 H   0  0  0  0  0  0  0  0  0  0  0  0
    3.6210    1.4127    7.9632 H   0  0  0  0  0  0  0  0  0  0  0  0
    4.4328    1.0114    3.2755 H   0  0  0  0  0  0  0  0  0  0  0  0
    3.3245    0.4263    1.1532 H   0  0  0  0  0  0  0  0  0  0  0  0
    2.5874   -3.5567    2.6290 H   0  0  0  0  0  0  0  0  0  0  0  0
    2.7001   -3.2398   -3.8195 H   0  0  0  0  0  0  0  0  0  0  0  0
    2.6398   -5.6102   -4.4975 H   0  0  0  0  0  0  0  0  0  0  0  0
    0.7149   -9.1583   -3.1246 H   0  0  0  0  0  0  0  0  0  0  0  0
    0.6188   -7.4218   -3.6078 H   0  0  0  0  0  0  0  0  0  0  0  0
    0.7341   -7.8778   -1.8517 H   0  0  0  0  0  0  0  0  0  0  0  0
    3.3091   -6.7949   -0.4124 H   0  0  0  0  0  0  0  0  0  0  0  0
    3.3942   -4.4243    0.2628 H   0  0  0  0  0  0  0  0  0  0  0  0
    2.7939    0.4463   -1.3310 H   0  0  0  0  0  0  0  0  0  0  0  0
    4.0731    2.0430   -2.6751 H   0  0  0  0  0  0  0  0  0  0  0  0
    8.2604    1.0540   -3.6039 H   0  0  0  0  0  0  0  0  0  0  0  0
    7.3463    2.2370   -2.5539 H   0  0  0  0  0  0  0  0  0  0  0  0
    8.2333    2.8086   -4.0228 H   0  0  0  0  0  0  0  0  0  0  0  0
    6.5532   -1.1378   -4.1472 H   0  0  0  0  0  0  0  0  0  0  0  0
    5.3233   -2.7501   -2.7781 H   0  0  0  0  0  0  0  0  0  0  0  0
   -0.1835    1.8365   -0.5056 H   0  0  0  0  0  0  0  0  0  0  0  0
   -0.1396    4.2846   -0.5439 H   0  0  0  0  0  0  0  0  0  0  0  0
   -1.9456    7.4806    1.7188 H   0  0  0  0  0  0  0  0  0  0  0  0
   -2.8813    5.9479    1.9404 H   0  0  0  0  0  0  0  0  0  0  0  0
   -1.0718    5.8991    1.7432 H   0  0  0  0  0  0  0  0  0  0  0  0
   -4.4293    4.3885   -0.2166 H   0  0  0  0  0  0  0  0  0  0  0  0
   -4.4898    1.9239   -0.1991 H   0  0  0  0  0  0  0  0  0  0  0  0
   -2.7446    1.0341    2.2781 H   0  0  0  0  0  0  0  0  0  0  0  0
   -4.0459   -0.1451    4.0092 H   0  0  0  0  0  0  0  0  0  0  0  0
   -3.7367   -4.1918    3.7586 H   0  0  0  0  0  0  0  0  0  0  0  0
   -3.4055   -2.9166    5.0071 H   0  0  0  0  0  0  0  0  0  0  0  0
   -4.5292   -4.2738    5.3737 H   0  0  0  0  0  0  0  0  0  0  0  0
   -5.0434   -3.2237    1.1806 H   0  0  0  0  0  0  0  0  0  0  0  0
   -3.7419   -2.0560   -0.5578 H   0  0  0  0  0  0  0  0  0  0  0  0
   -4.8037    1.6475   -7.3313 H   0  0  0  0  0  0  0  0  0  0  0  0
    0.4352   -1.3639   -9.0001 H   0  0  0  0  0  0  0  0  0  0  0  0
   -2.6213    0.4560  -12.4806 H   0  0  0  0  0  0  0  0  0  0  0  0
  1  2  2  3
  2  3  1  0
  3  4  2  0
  3  5  1  0
  5  6  2  0
  6  7  1  0
  6  8  1  0
  8  9  1  0
  8 10  2  0
 10 11  1  0
 10 12  1  0
 12 13  1  0
 12 14  2  0
 14 15  1  0
 15 16  2  3
 16 17  1  0
 17 18  3  0
 16 19  1  0
 19 20  3  0
  1 21  1  0
 21 22  2  0
 22 23  1  0
 23 24  1  0
 24 25  2  0
 24 26  1  0
 26 27  2  0
 27 28  1  0
 28 29  1  0
 29 30  2  0
 27 31  1  0
 31 32  2  0
 32 33  1  0
 33 34  2  0
 33 35  1  0
 35 36  2  0
 36 37  1  0
 37 38  1  0
 38 39  2  0
 39 40  1  0
 40 41  2  0
 41 42  1  0
 42 43  1  0
 41 44  1  0
 44 45  2  0
 37 46  1  0
 46 47  2  0
 47 48  1  0
 48 49  2  0
 49 50  1  0
 50 51  1  0
 49 52  1  0
 52 53  2  0
 36 54  1  0
 54 55  1  0
 55 56  1  0
 56 57  2  0
 57 58  1  0
 58 59  1  0
 59 60  2  0
 60 61  1  0
 61 62  2  0
 62 63  1  0
 63 64  1  0
 62 65  1  0
 65 66  2  0
 58 67  1  0
 67 68  2  0
 68 69  1  0
 69 70  2  0
 70 71  1  0
 71 72  1  0
 70 73  1  0
 73 74  2  0
 57 75  1  0
 75 76  1  0
 56 77  1  0
 77 78  2  0
 78 79  1  0
 79 80  1  0
 80 81  2  0
 81 82  2  0
 79 83  2  0
 83 84  1  0
 84 85  2  0
 85 86  1  0
 86 87  1  0
 87 88  2  0
 83 89  1  0
 89 90  2  3
 90 91  1  0
 91 92  2  0
 91 93  1  0
 93 94  2  0
 94 95  1  0
 95 96  1  0
 95 97  2  0
 97 98  1  0
 97 99  1  0
 99100  2  0
100101  1  0
101102  2  3
102103  1  0
103104  3  0
102105  1  0
105106  3  0
 15  2  1  0
 30 21  1  0
 76 35  1  0
 88 77  1  0
101 90  1  0
 14  5  1  0
 28 23  2  0
 45 38  1  0
 53 46  1  0
 75 54  2  0
 82 78  1  0
 88 84  1  0
100 93  1  0
 34 26  1  0
 66 59  1  0
 74 67  1  0
  1107  1  0
 22108  1  0
 29109  1  0
 30110  1  0
 31111  1  0
 32112  1  0
 34113  1  0
 39114  1  0
 40115  1  0
 43116  1  0
 43117  1  0
 43118  1  0
 44119  1  0
 45120  1  0
 47121  1  0
 48122  1  0
 51123  1  0
 51124  1  0
 51125  1  0
 52126  1  0
 53127  1  0
 60128  1  0
 61129  1  0
 64130  1  0
 64131  1  0
 64132  1  0
 65133  1  0
 66134  1  0
 68135  1  0
 69136  1  0
 72137  1  0
 72138  1  0
 72139  1  0
 73140  1  0
 74141  1  0
 89142  1  0
 94143  1  0
 99144  1  0
M  END

