
     RDKit          3D

168185  0  0  0  0  0  0  0  0999 V2000
    1.4061    7.0921    5.0762 C   0  0  0  0  0  0  0  0  0  0  0  0
    0.5389    8.0653    5.3992 C   0  0  0  0  0  0  0  0  0  0  0  0
    0.9396    9.2829    6.0905 C   0  0  0  0  0  0  0  0  0  0  0  0
    2.1308    9.6328    6.3044 O   0  0  0  0  0  0  0  0  0  0  0  0
   -0.2456    9.9892    6.5475 C   0  0  0  0  0  0  0  0  0  0  0  0
   -0.3653   11.1989    7.2456 C   0  0  0  0  0  0  0  0  0  0  0  0
    1.0576   12.1629    7.5996 Cl  0  0  0  0  0  0  0  0  0  0  0  0
   -1.6621   11.6709    7.5520 C   0  0  0  0  0  0  0  0  0  0  0  0
   -1.8682   13.2016    8.4114 Cl  0  0  0  0  0  0  0  0  0  0  0  0
   -2.7991   10.9095    7.1724 C   0  0  0  0  0  0  0  0  0  0  0  0
   -4.4092   11.4921    7.5903 Cl  0  0  0  0  0  0  0  0  0  0  0  0
   -2.6498    9.7038    6.4643 C   0  0  0  0  0  0  0  0  0  0  0  0
   -4.0450    8.6882    6.0946 Cl  0  0  0  0  0  0  0  0  0  0  0  0
   -1.3510    9.2902    6.1079 C   0  0  0  0  0  0  0  0  0  0  0  0
   -0.9545    8.1486    5.2363 C   0  0  0  0  0  0  0  0  0  0  0  0
   -1.5567    7.9768    4.0343 C   0  0  0  0  0  0  0  0  0  0  0  0
   -2.2946    9.0530    3.4103 C   0  0  0  0  0  0  0  0  0  0  0  0
   -2.8616    9.9245    2.8869 N   0  0  0  0  0  0  0  0  0  0  0  0
   -1.4472    6.7773    3.2529 C   0  0  0  0  0  0  0  0  0  0  0  0
   -1.4282    5.8281    2.5908 N   0  0  0  0  0  0  0  0  0  0  0  0
    1.0338    5.7401    4.6311 C   0  0  0  0  0  0  0  0  0  0  0  0
    1.3723    5.2942    3.3466 C   0  0  0  0  0  0  0  0  0  0  0  0
    1.0185    3.9974    2.9082 C   0  0  0  0  0  0  0  0  0  0  0  0
    1.3286    3.7311    1.5389 N   0  0  0  0  0  0  0  0  0  0  0  0
    2.0160    5.1066    1.1223 S   0  0  0  0  0  4  0  0  0  0  0  0
    2.0295    6.1028    2.3651 N   0  0  0  0  0  0  0  0  0  0  0  0
    0.4053    3.0675    3.7698 C   0  0  0  0  0  0  0  0  0  0  0  0
    0.2312    3.4536    5.1102 C   0  0  0  0  0  0  0  0  0  0  0  0
   -0.1710    2.5898    6.0773 N   0  0  0  0  0  0  0  0  0  0  0  0
   -0.1711    3.5867    7.3960 S   0  0  0  0  0  0  0  0  0  0  0  0
    0.3166    5.0742    6.8514 N   0  0  0  0  0  0  0  0  0  0  0  0
    0.5113    4.7971    5.5318 C   0  0  0  0  0  0  0  0  0  0  0  0
    0.0732    1.7061    3.2815 C   0  0  0  0  0  0  0  0  0  0  0  0
   -1.2159    1.2241    2.9416 C   0  0  0  0  0  0  0  0  0  0  0  0
   -2.4712    1.8882    3.2283 N   0  0  0  0  0  0  0  0  0  0  0  0
   -3.5535    1.8255    2.2908 C   0  0  0  0  0  0  0  0  0  0  0  0
   -4.7137    1.0950    2.6097 C   0  0  0  0  0  0  0  0  0  0  0  0
   -5.7645    1.0067    1.7005 C   0  0  0  0  0  0  0  0  0  0  0  0
   -5.6842    1.6782    0.4744 C   0  0  0  0  0  0  0  0  0  0  0  0
   -7.0749    1.6289   -0.6509 S   0  0  0  0  0  0  0  0  0  0  0  0
   -7.9644    2.9770    0.1893 C   0  0  0  0  0  0  0  0  0  0  0  0
   -4.5264    2.3821    0.1328 C   0  0  0  0  0  0  0  0  0  0  0  0
   -3.4592    2.4595    1.0441 C   0  0  0  0  0  0  0  0  0  0  0  0
   -2.7974    2.4082    4.5327 C   0  0  0  0  0  0  0  0  0  0  0  0
   -3.2452    3.7285    4.6478 C   0  0  0  0  0  0  0  0  0  0  0  0
   -3.7636    4.2009    5.8553 C   0  0  0  0  0  0  0  0  0  0  0  0
   -3.8618    3.3552    6.9611 C   0  0  0  0  0  0  0  0  0  0  0  0
   -4.6195    3.9569    8.4769 S   0  0  0  0  0  0  0  0  0  0  0  0
   -3.0656    4.5371    9.2196 C   0  0  0  0  0  0  0  0  0  0  0  0
   -3.4050    2.0305    6.8587 C   0  0  0  0  0  0  0  0  0  0  0  0
   -2.8883    1.5537    5.6407 C   0  0  0  0  0  0  0  0  0  0  0  0
   -1.1042    0.1338    2.0521 C   0  0  0  0  0  0  0  0  0  0  0  0
   -2.2003   -0.7368    1.1243 S   0  0  0  0  0  0  0  0  0  0  0  0
   -1.0327   -1.4893    0.1445 C   0  0  0  0  0  0  0  0  0  0  0  0
    0.2430   -1.0350    0.5387 C   0  0  0  0  0  0  0  0  0  0  0  0
    1.4634   -1.2645   -0.2015 N   0  0  0  0  0  0  0  0  0  0  0  0
    2.2044   -2.5071    0.0166 C   0  0  0  0  0  0  0  0  0  0  0  0
    3.3453   -2.8380   -0.7436 C   0  0  0  0  0  0  0  0  0  0  0  0
    3.9016   -4.1148   -0.6845 C   0  0  0  0  0  0  0  0  0  0  0  0
    3.3940   -5.0617    0.2063 C   0  0  0  0  0  0  0  0  0  0  0  0
    4.0950   -6.7115    0.2570 S   0  0  0  0  0  0  0  0  0  0  0  0
    2.9883   -7.3419   -1.0417 C   0  0  0  0  0  0  0  0  0  0  0  0
    2.3513   -4.7159    1.0604 C   0  0  0  0  0  0  0  0  0  0  0  0
    1.7695   -3.4447    0.9751 C   0  0  0  0  0  0  0  0  0  0  0  0
    1.7781   -0.3169   -1.2648 C   0  0  0  0  0  0  0  0  0  0  0  0
    2.0715   -0.7502   -2.5722 C   0  0  0  0  0  0  0  0  0  0  0  0
    2.3626    0.1635   -3.5811 C   0  0  0  0  0  0  0  0  0  0  0  0
    2.3068    1.5340   -3.3311 C   0  0  0  0  0  0  0  0  0  0  0  0
    2.6111    2.7052   -4.6534 S   0  0  0  0  0  0  0  0  0  0  0  0
    0.8782    2.7115   -5.2037 C   0  0  0  0  0  0  0  0  0  0  0  0
    1.9716    1.9840   -2.0533 C   0  0  0  0  0  0  0  0  0  0  0  0
    1.7098    1.0710   -1.0319 C   0  0  0  0  0  0  0  0  0  0  0  0
    0.1531   -0.1838    1.6484 C   0  0  0  0  0  0  0  0  0  0  0  0
    1.2496    0.7714    2.4745 S   0  0  0  0  0  0  0  0  0  0  0  0
   -1.3904   -2.3969   -0.9644 C   0  0  0  0  0  0  0  0  0  0  0  0
   -2.6231   -3.0090   -1.1452 C   0  0  0  0  0  0  0  0  0  0  0  0
   -2.6799   -3.8614   -2.2645 C   0  0  0  0  0  0  0  0  0  0  0  0
   -3.8960   -4.6443   -2.5907 C   0  0  0  0  0  0  0  0  0  0  0  0
   -4.6364   -4.3391   -3.7429 C   0  0  0  0  0  0  0  0  0  0  0  0
   -4.1865   -3.3490   -4.6190 O   0  0  0  0  0  0  0  0  0  0  0  0
   -4.8710   -2.1167   -4.8020 C   0  0  0  0  0  0  0  0  0  0  0  0
   -4.7530   -1.2598   -3.5434 C   0  0  0  0  0  0  0  0  0  0  0  0
   -5.8356   -5.0145   -3.9958 C   0  0  0  0  0  0  0  0  0  0  0  0
   -6.2906   -5.9750   -3.0935 C   0  0  0  0  0  0  0  0  0  0  0  0
   -5.5657   -6.2784   -1.9406 C   0  0  0  0  0  0  0  0  0  0  0  0
   -4.3722   -5.5888   -1.6588 C   0  0  0  0  0  0  0  0  0  0  0  0
   -3.6424   -5.7895   -0.4816 O   0  0  0  0  0  0  0  0  0  0  0  0
   -3.8575   -6.8266    0.4686 C   0  0  0  0  0  0  0  0  0  0  0  0
   -3.3365   -8.1579   -0.0700 C   0  0  0  0  0  0  0  0  0  0  0  0
   -1.4977   -3.8814   -3.0029 C   0  0  0  0  0  0  0  0  0  0  0  0
   -0.3824   -2.9248   -2.1915 S   0  0  0  0  0  0  0  0  0  0  0  0
   -1.1270   -4.7796   -4.1080 C   0  0  0  0  0  0  0  0  0  0  0  0
   -0.4153   -4.3428   -5.1670 C   0  0  0  0  0  0  0  0  0  0  0  0
   -0.1872   -2.9346   -5.5026 C   0  0  0  0  0  0  0  0  0  0  0  0
   -0.9513   -1.9720   -5.2171 O   0  0  0  0  0  0  0  0  0  0  0  0
    1.0523   -2.8180   -6.2319 C   0  0  0  0  0  0  0  0  0  0  0  0
    1.7264   -1.6312   -6.5717 C   0  0  0  0  0  0  0  0  0  0  0  0
    3.0258   -1.8182   -6.9919 C   0  0  0  0  0  0  0  0  0  0  0  0
    3.6337   -3.1106   -7.0946 C   0  0  0  0  0  0  0  0  0  0  0  0
    2.9617   -4.2878   -6.8095 C   0  0  0  0  0  0  0  0  0  0  0  0
    1.6157   -4.1109   -6.3838 C   0  0  0  0  0  0  0  0  0  0  0  0
    0.6364   -5.1195   -5.8946 C   0  0  0  0  0  0  0  0  0  0  0  0
    0.5951   -6.4354   -6.2132 C   0  0  0  0  0  0  0  0  0  0  0  0
   -0.5504   -7.2628   -5.9199 C   0  0  0  0  0  0  0  0  0  0  0  0
   -1.4739   -7.9188   -5.6914 N   0  0  0  0  0  0  0  0  0  0  0  0
    1.6372   -7.0679   -6.9865 C   0  0  0  0  0  0  0  0  0  0  0  0
    2.4662   -7.5961   -7.5974 N   0  0  0  0  0  0  0  0  0  0  0  0
    4.9415   -2.4769   -7.4668 C   0  0  0  0  0  0  0  0  0  0  0  0
    6.0402   -2.4453   -6.3566 C   0  0  0  0  0  0  0  0  0  0  0  0
    7.0681   -1.4400   -6.8215 C   0  0  0  0  0  0  0  0  0  0  0  0
    6.4934   -0.2350   -6.7218 C   0  0  0  0  0  0  0  0  0  0  0  0
    5.0968   -0.4718   -6.2005 C   0  0  0  0  0  0  0  0  0  0  0  0
    5.3924   -1.6196   -5.2557 C   0  0  0  0  0  0  0  0  0  0  0  0
    4.3157   -1.1569   -7.3596 C   0  0  0  0  0  0  0  0  0  0  0  0
    2.4588    7.2613    5.2603 H   0  0  0  0  0  0  0  0  0  0  0  0
   -4.7782    0.5724    3.5562 H   0  0  0  0  0  0  0  0  0  0  0  0
   -6.6501    0.4387    1.9507 H   0  0  0  0  0  0  0  0  0  0  0  0
   -8.9190    3.1721   -0.3469 H   0  0  0  0  0  0  0  0  0  0  0  0
   -8.1952    2.6816    1.2350 H   0  0  0  0  0  0  0  0  0  0  0  0
   -7.3445    3.8997    0.1887 H   0  0  0  0  0  0  0  0  0  0  0  0
   -4.4432    2.8778   -0.8295 H   0  0  0  0  0  0  0  0  0  0  0  0
   -2.5571    2.9991    0.7752 H   0  0  0  0  0  0  0  0  0  0  0  0
   -3.2534    4.3816    3.7852 H   0  0  0  0  0  0  0  0  0  0  0  0
   -4.1473    5.2128    5.9213 H   0  0  0  0  0  0  0  0  0  0  0  0
   -2.5621    3.6852    9.7165 H   0  0  0  0  0  0  0  0  0  0  0  0
   -2.4040    4.9854    8.4533 H   0  0  0  0  0  0  0  0  0  0  0  0
   -3.2931    5.3161    9.9723 H   0  0  0  0  0  0  0  0  0  0  0  0
   -3.4886    1.3592    7.7002 H   0  0  0  0  0  0  0  0  0  0  0  0
   -2.5964    0.5196    5.5531 H   0  0  0  0  0  0  0  0  0  0  0  0
    3.8284   -2.1251   -1.4033 H   0  0  0  0  0  0  0  0  0  0  0  0
    4.7450   -4.3650   -1.3166 H   0  0  0  0  0  0  0  0  0  0  0  0
    3.1349   -8.4360   -1.1538 H   0  0  0  0  0  0  0  0  0  0  0  0
    1.9291   -7.1507   -0.7670 H   0  0  0  0  0  0  0  0  0  0  0  0
    3.2161   -6.8417   -2.0069 H   0  0  0  0  0  0  0  0  0  0  0  0
    1.9746   -5.4306    1.7801 H   0  0  0  0  0  0  0  0  0  0  0  0
    0.9569   -3.2284    1.6502 H   0  0  0  0  0  0  0  0  0  0  0  0
    2.0777   -1.8032   -2.8330 H   0  0  0  0  0  0  0  0  0  0  0  0
    2.6348   -0.1938   -4.5603 H   0  0  0  0  0  0  0  0  0  0  0  0
    0.2135    3.0154   -4.3655 H   0  0  0  0  0  0  0  0  0  0  0  0
    0.5842    1.7016   -5.5697 H   0  0  0  0  0  0  0  0  0  0  0  0
    0.7647    3.4394   -6.0323 H   0  0  0  0  0  0  0  0  0  0  0  0
    1.9141    3.0460   -1.8529 H   0  0  0  0  0  0  0  0  0  0  0  0
    1.4567    1.4656   -0.0672 H   0  0  0  0  0  0  0  0  0  0  0  0
   -3.4556   -2.8543   -0.4741 H   0  0  0  0  0  0  0  0  0  0  0  0
   -5.9419   -2.2948   -5.0512 H   0  0  0  0  0  0  0  0  0  0  0  0
   -4.4029   -1.5677   -5.6443 H   0  0  0  0  0  0  0  0  0  0  0  0
   -5.2060   -0.2551   -3.7113 H   0  0  0  0  0  0  0  0  0  0  0  0
   -5.2812   -1.7473   -2.6967 H   0  0  0  0  0  0  0  0  0  0  0  0
   -3.6795   -1.1117   -3.2795 H   0  0  0  0  0  0  0  0  0  0  0  0
   -6.4081   -4.7884   -4.8867 H   0  0  0  0  0  0  0  0  0  0  0  0
   -7.2172   -6.5023   -3.2886 H   0  0  0  0  0  0  0  0  0  0  0  0
   -5.9626   -7.0135   -1.2596 H   0  0  0  0  0  0  0  0  0  0  0  0
   -4.9260   -6.9034    0.7632 H   0  0  0  0  0  0  0  0  0  0  0  0
   -3.2774   -6.5542    1.3749 H   0  0  0  0  0  0  0  0  0  0  0  0
   -3.9583   -8.5100   -0.9224 H   0  0  0  0  0  0  0  0  0  0  0  0
   -3.3746   -8.9079    0.7388 H   0  0  0  0  0  0  0  0  0  0  0  0
   -2.2824   -8.0373   -0.4090 H   0  0  0  0  0  0  0  0  0  0  0  0
   -1.2190   -5.8276   -3.9005 H   0  0  0  0  0  0  0  0  0  0  0  0
    1.2947   -0.6495   -6.4293 H   0  0  0  0  0  0  0  0  0  0  0  0
    3.4702   -5.2374   -6.8231 H   0  0  0  0  0  0  0  0  0  0  0  0
    5.2979   -2.7444   -8.4820 H   0  0  0  0  0  0  0  0  0  0  0  0
    6.4460   -3.4299   -6.0556 H   0  0  0  0  0  0  0  0  0  0  0  0
    8.1053   -1.6293   -7.0718 H   0  0  0  0  0  0  0  0  0  0  0  0
    6.9827    0.7190   -6.8831 H   0  0  0  0  0  0  0  0  0  0  0  0
    4.6137    0.4197   -5.7502 H   0  0  0  0  0  0  0  0  0  0  0  0
    6.0968   -1.3532   -4.4327 H   0  0  0  0  0  0  0  0  0  0  0  0
    4.4896   -2.0915   -4.8034 H   0  0  0  0  0  0  0  0  0  0  0  0
    4.2779   -0.5908   -8.3135 H   0  0  0  0  0  0  0  0  0  0  0  0
  1  2  2  3
  2  3  1  0
  3  4  2  0
  3  5  1  0
  5  6  2  0
  6  7  1  0
  6  8  1  0
  8  9  1  0
  8 10  2  0
 10 11  1  0
 10 12  1  0
 12 13  1  0
 12 14  2  0
 14 15  1  0
 15 16  2  3
 16 17  1  0
 17 18  3  0
 16 19  1  0
 19 20  3  0
  1 21  1  0
 21 22  2  0
 22 23  1  0
 23 24  1  0
 24 25  2  0
 25 26  2  0
 23 27  2  0
 27 28  1  0
 28 29  2  0
 29 30  1  0
 30 31  1  0
 31 32  2  0
 27 33  1  0
 33 34  2  0
 34 35  1  0
 35 36  1  0
 36 37  2  0
 37 38  1  0
 38 39  2  0
 39 40  1  0
 40 41  1  0
 39 42  1  0
 42 43  2  0
 35 44  1  0
 44 45  2  0
 45 46  1  0
 46 47  2  0
 47 48  1  0
 48 49  1  0
 47 50  1  0
 50 51  2  0
 34 52  1  0
 52 53  1  0
 53 54  1  0
 54 55  2  0
 55 56  1  0
 56 57  1  0
 57 58  2  0
 58 59  1  0
 59 60  2  0
 60 61  1  0
 61 62  1  0
 60 63  1  0
 63 64  2  0
 56 65  1  0
 65 66  2  0
 66 67  1  0
 67 68  2  0
 68 69  1  0
 69 70  1  0
 68 71  1  0
 71 72  2  0
 55 73  1  0
 73 74  1  0
 54 75  1  0
 75 76  2  0
 76 77  1  0
 77 78  1  0
 78 79  2  0
 79 80  1  0
 80 81  1  0
 81 82  1  0
 79 83  1  0
 83 84  2  0
 84 85  1  0
 85 86  2  0
 86 87  1  0
 87 88  1  0
 88 89  1  0
 77 90  2  0
 90 91  1  0
 90 92  1  0
 92 93  2  3
 93 94  1  0
 94 95  2  0
 94 96  1  0
 96 97  2  0
 97 98  1  0
 98 99  2  0
 99100  1  0
100101  2  0
101102  1  0
102103  2  3
103104  1  0
104105  3  0
103106  1  0
106107  3  0
 99108  1  0
108109  1  0
109110  1  0
110111  2  0
111112  1  0
112113  1  0
112114  1  0
 15  2  1  0
 32 21  1  0
 74 33  1  0
 91 75  1  0
102 93  1  0
114108  1  0
 14  5  1  0
 26 22  1  0
 32 28  1  0
 43 36  1  0
 51 44  1  0
 73 52  2  0
 86 78  1  0
101 96  1  0
113109  1  0
 64 57  1  0
 72 65  1  0
114 98  1  0
  1115  1  0
 37116  1  0
 38117  1  0
 41118  1  0
 41119  1  0
 41120  1  0
 42121  1  0
 43122  1  0
 45123  1  0
 46124  1  0
 49125  1  0
 49126  1  0
 49127  1  0
 50128  1  0
 51129  1  0
 58130  1  0
 59131  1  0
 62132  1  0
 62133  1  0
 62134  1  0
 63135  1  0
 64136  1  0
 66137  1  0
 67138  1  0
 70139  1  0
 70140  1  0
 70141  1  0
 71142  1  0
 72143  1  0
 76144  1  0
 81145  1  0
 81146  1  0
 82147  1  0
 82148  1  0
 82149  1  0
 83150  1  0
 84151  1  0
 85152  1  0
 88153  1  0
 88154  1  0
 89155  1  0
 89156  1  0
 89157  1  0
 92158  1  0
 97159  1  0
100160  1  0
108161  1  0
109162  1  0
110163  1  0
111164  1  0
112165  1  0
113166  1  0
113167  1  0
114168  1  0
M  END

