
     RDKit          3D

144155  0  0  0  0  0  0  0  0999 V2000
    3.9430   -2.9442    5.5582 C   0  0  0  0  0  0  0  0  0  0  0  0
    3.1058   -3.0257    6.6043 C   0  0  0  0  0  0  0  0  0  0  0  0
    2.9906   -4.2096    7.4536 C   0  0  0  0  0  0  0  0  0  0  0  0
    3.8410   -5.1351    7.5405 O   0  0  0  0  0  0  0  0  0  0  0  0
    1.6659   -4.1989    8.0636 C   0  0  0  0  0  0  0  0  0  0  0  0
    0.9980   -5.2424    8.7111 C   0  0  0  0  0  0  0  0  0  0  0  0
    1.8522   -6.7212    9.1441 Cl  0  0  0  0  0  0  0  0  0  0  0  0
   -0.3737   -5.0910    8.9873 C   0  0  0  0  0  0  0  0  0  0  0  0
   -1.2490   -6.3855    9.8020 Cl  0  0  0  0  0  0  0  0  0  0  0  0
   -1.0714   -3.9412    8.5409 C   0  0  0  0  0  0  0  0  0  0  0  0
   -2.8149   -3.8185    8.7854 Cl  0  0  0  0  0  0  0  0  0  0  0  0
   -0.3852   -2.9216    7.8467 C   0  0  0  0  0  0  0  0  0  0  0  0
   -1.3048   -1.6815    6.9864 Cl  0  0  0  0  0  0  0  0  0  0  0  0
    1.0104   -3.0312    7.6883 C   0  0  0  0  0  0  0  0  0  0  0  0
    1.9535   -2.1528    6.9454 C   0  0  0  0  0  0  0  0  0  0  0  0
    2.0419   -0.7999    7.0794 C   0  0  0  0  0  0  0  0  0  0  0  0
    3.2062   -0.0729    6.6426 C   0  0  0  0  0  0  0  0  0  0  0  0
    4.1455    0.5119    6.2999 N   0  0  0  0  0  0  0  0  0  0  0  0
    1.1380   -0.0594    7.9241 C   0  0  0  0  0  0  0  0  0  0  0  0
    0.4214    0.5409    8.6050 N   0  0  0  0  0  0  0  0  0  0  0  0
    3.7279   -2.0550    4.4055 C   0  0  0  0  0  0  0  0  0  0  0  0
    4.7376   -1.5350    3.6019 C   0  0  0  0  0  0  0  0  0  0  0  0
    4.2504   -0.8383    2.4892 C   0  0  0  0  0  0  0  0  0  0  0  0
    5.1458   -0.2966    1.4558 C   0  0  0  0  0  0  0  0  0  0  0  0
    5.7280    0.9756    1.6263 C   0  0  0  0  0  0  0  0  0  0  0  0
    5.4677    1.6917    2.8094 O   0  0  0  0  0  0  0  0  0  0  0  0
    5.8742    3.0403    3.0409 C   0  0  0  0  0  0  0  0  0  0  0  0
    5.3764    3.5003    4.4047 C   0  0  0  0  0  0  0  0  0  0  0  0
    6.5265    1.5054    0.6002 C   0  0  0  0  0  0  0  0  0  0  0  0
    6.7769    0.7590   -0.5524 C   0  0  0  0  0  0  0  0  0  0  0  0
    6.2460   -0.5244   -0.6950 C   0  0  0  0  0  0  0  0  0  0  0  0
    5.4138   -1.0605    0.3041 C   0  0  0  0  0  0  0  0  0  0  0  0
    4.8518   -2.3474    0.2040 O   0  0  0  0  0  0  0  0  0  0  0  0
    5.2981   -3.3836   -0.6717 C   0  0  0  0  0  0  0  0  0  0  0  0
    6.6484   -3.9235   -0.2068 C   0  0  0  0  0  0  0  0  0  0  0  0
    2.8554   -0.8227    2.3997 C   0  0  0  0  0  0  0  0  0  0  0  0
    2.2398   -1.6789    3.7163 S   0  0  0  0  0  0  0  0  0  0  0  0
    2.0466   -0.2448    1.2988 C   0  0  0  0  0  0  0  0  0  0  0  0
    2.1852    1.1161    0.9703 C   0  0  0  0  0  0  0  0  0  0  0  0
    2.9639    1.9304    1.7203 F   0  0  0  0  0  0  0  0  0  0  0  0
    1.4674    1.6659   -0.0925 C   0  0  0  0  0  0  0  0  0  0  0  0
    1.6505    2.9902   -0.3688 F   0  0  0  0  0  0  0  0  0  0  0  0
    0.5410    0.8920   -0.8194 C   0  0  0  0  0  0  0  0  0  0  0  0
    0.3659   -0.4682   -0.4595 C   0  0  0  0  0  0  0  0  0  0  0  0
   -0.5170   -1.2613   -1.1170 N   0  0  0  0  0  0  0  0  0  0  0  0
   -0.6928   -2.5763   -0.8179 C   0  0  0  0  0  0  0  0  0  0  0  0
   -1.7011   -3.3244   -1.6027 C   0  0  0  0  0  0  0  0  0  0  0  0
   -3.1123   -2.6326   -2.2043 S   0  0  0  0  0  0  0  0  0  0  0  0
   -3.6986   -4.0240   -2.9549 C   0  0  0  0  0  0  0  0  0  0  0  0
   -5.0688   -4.1642   -3.5595 C   0  0  0  0  0  0  0  0  0  0  0  0
   -6.0625   -4.6958   -2.5292 C   0  0  0  0  0  0  0  0  0  0  0  0
   -2.7984   -5.0489   -2.7179 C   0  0  0  0  0  0  0  0  0  0  0  0
   -1.6519   -4.6548   -2.0168 C   0  0  0  0  0  0  0  0  0  0  0  0
   -2.9808   -6.3195   -3.1810 F   0  0  0  0  0  0  0  0  0  0  0  0
    0.0967   -3.1430    0.2128 C   0  0  0  0  0  0  0  0  0  0  0  0
    0.9915   -2.3542    0.8597 N   0  0  0  0  0  0  0  0  0  0  0  0
    1.1406   -1.0347    0.5724 C   0  0  0  0  0  0  0  0  0  0  0  0
   -0.0012   -4.5476    0.6437 C   0  0  0  0  0  0  0  0  0  0  0  0
    1.0906   -5.3941    0.8160 C   0  0  0  0  0  0  0  0  0  0  0  0
    0.7321   -6.6722    1.2625 C   0  0  0  0  0  0  0  0  0  0  0  0
    1.6391   -7.6581    1.4783 F   0  0  0  0  0  0  0  0  0  0  0  0
   -0.6382   -6.8323    1.4556 C   0  0  0  0  0  0  0  0  0  0  0  0
   -1.3219   -8.0818    1.9216 C   0  0  0  0  0  0  0  0  0  0  0  0
   -1.4054   -8.1313    3.4439 C   0  0  0  0  0  0  0  0  0  0  0  0
   -1.4038   -5.3695    1.1151 S   0  0  0  0  0  0  0  0  0  0  0  0
   -0.2647    1.5240   -1.9014 C   0  0  0  0  0  0  0  0  0  0  0  0
   -1.6179    1.3023   -2.1443 C   0  0  0  0  0  0  0  0  0  0  0  0
   -2.1760    2.1865   -3.0834 C   0  0  0  0  0  0  0  0  0  0  0  0
   -3.6263    2.2553   -3.3179 C   0  0  0  0  0  0  0  0  0  0  0  0
   -4.1477    1.9287   -4.5832 C   0  0  0  0  0  0  0  0  0  0  0  0
   -3.2581    1.4769   -5.5735 O   0  0  0  0  0  0  0  0  0  0  0  0
   -3.5745    1.2924   -6.9550 C   0  0  0  0  0  0  0  0  0  0  0  0
   -3.6414    2.6342   -7.6723 C   0  0  0  0  0  0  0  0  0  0  0  0
   -5.5318    2.0512   -4.8055 C   0  0  0  0  0  0  0  0  0  0  0  0
   -6.3722    2.4967   -3.7816 C   0  0  0  0  0  0  0  0  0  0  0  0
   -5.8529    2.8121   -2.5252 C   0  0  0  0  0  0  0  0  0  0  0  0
   -4.4744    2.7102   -2.2882 C   0  0  0  0  0  0  0  0  0  0  0  0
   -3.9021    3.0656   -1.0590 O   0  0  0  0  0  0  0  0  0  0  0  0
   -4.5948    3.6732    0.0262 C   0  0  0  0  0  0  0  0  0  0  0  0
   -3.6026    3.9932    1.1375 C   0  0  0  0  0  0  0  0  0  0  0  0
   -1.2722    3.1119   -3.6064 C   0  0  0  0  0  0  0  0  0  0  0  0
    0.2112    2.8348   -2.8616 S   0  0  0  0  0  0  0  0  0  0  0  0
   -1.6680    4.3801   -4.2524 C   0  0  0  0  0  0  0  0  0  0  0  0
   -0.8311    5.2230   -4.8803 C   0  0  0  0  0  0  0  0  0  0  0  0
    0.3662    4.8509   -5.6167 C   0  0  0  0  0  0  0  0  0  0  0  0
    0.8253    3.6805   -5.7284 O   0  0  0  0  0  0  0  0  0  0  0  0
    0.8291    6.0155   -6.3616 C   0  0  0  0  0  0  0  0  0  0  0  0
    1.9799    6.1113   -7.1497 C   0  0  0  0  0  0  0  0  0  0  0  0
    3.0184    4.7091   -7.4094 Cl  0  0  0  0  0  0  0  0  0  0  0  0
    2.3157    7.3607   -7.7010 C   0  0  0  0  0  0  0  0  0  0  0  0
    3.7782    7.5190   -8.6778 Cl  0  0  0  0  0  0  0  0  0  0  0  0
    1.5003    8.4839   -7.4654 C   0  0  0  0  0  0  0  0  0  0  0  0
    1.9574   10.0455   -8.1645 Cl  0  0  0  0  0  0  0  0  0  0  0  0
    0.3261    8.3680   -6.6845 C   0  0  0  0  0  0  0  0  0  0  0  0
   -0.6042    9.8320   -6.4345 Cl  0  0  0  0  0  0  0  0  0  0  0  0
   -0.0220    7.0998   -6.1400 C   0  0  0  0  0  0  0  0  0  0  0  0
   -1.1096    6.6557   -5.1933 C   0  0  0  0  0  0  0  0  0  0  0  0
   -1.9162    7.4321   -4.4202 C   0  0  0  0  0  0  0  0  0  0  0  0
   -2.7352    8.4876   -4.9522 C   0  0  0  0  0  0  0  0  0  0  0  0
   -3.4161    9.3399   -5.3493 N   0  0  0  0  0  0  0  0  0  0  0  0
   -2.2239    7.0539   -3.0598 C   0  0  0  0  0  0  0  0  0  0  0  0
   -2.4588    6.7400   -1.9673 N   0  0  0  0  0  0  0  0  0  0  0  0
    4.7619   -3.6534    5.4789 H   0  0  0  0  0  0  0  0  0  0  0  0
    5.7971   -1.6692    3.8116 H   0  0  0  0  0  0  0  0  0  0  0  0
    6.9808    3.1019    3.0139 H   0  0  0  0  0  0  0  0  0  0  0  0
    5.4461    3.7024    2.2548 H   0  0  0  0  0  0  0  0  0  0  0  0
    5.7377    2.8077    5.1960 H   0  0  0  0  0  0  0  0  0  0  0  0
    4.2667    3.5225    4.4258 H   0  0  0  0  0  0  0  0  0  0  0  0
    5.7680    4.5144    4.6173 H   0  0  0  0  0  0  0  0  0  0  0  0
    6.9689    2.4869    0.6838 H   0  0  0  0  0  0  0  0  0  0  0  0
    7.4028    1.1699   -1.3333 H   0  0  0  0  0  0  0  0  0  0  0  0
    6.4847   -1.0847   -1.5918 H   0  0  0  0  0  0  0  0  0  0  0  0
    4.5637   -4.2154   -0.6381 H   0  0  0  0  0  0  0  0  0  0  0  0
    5.3458   -3.0263   -1.7200 H   0  0  0  0  0  0  0  0  0  0  0  0
    7.4005   -3.1042   -0.1649 H   0  0  0  0  0  0  0  0  0  0  0  0
    7.0049   -4.6970   -0.9192 H   0  0  0  0  0  0  0  0  0  0  0  0
    6.5465   -4.3733    0.8018 H   0  0  0  0  0  0  0  0  0  0  0  0
   -5.0263   -4.8661   -4.4233 H   0  0  0  0  0  0  0  0  0  0  0  0
   -5.4092   -3.1728   -3.9360 H   0  0  0  0  0  0  0  0  0  0  0  0
   -6.0151   -4.1098   -1.5891 H   0  0  0  0  0  0  0  0  0  0  0  0
   -7.0961   -4.6215   -2.9408 H   0  0  0  0  0  0  0  0  0  0  0  0
   -5.8513   -5.7631   -2.3202 H   0  0  0  0  0  0  0  0  0  0  0  0
   -0.8460   -5.3303   -1.7887 H   0  0  0  0  0  0  0  0  0  0  0  0
    2.1119   -5.0979    0.6143 H   0  0  0  0  0  0  0  0  0  0  0  0
   -0.7574   -8.9670    1.5627 H   0  0  0  0  0  0  0  0  0  0  0  0
   -2.3436   -8.1327    1.4878 H   0  0  0  0  0  0  0  0  0  0  0  0
   -2.0437   -7.3064    3.8190 H   0  0  0  0  0  0  0  0  0  0  0  0
   -1.8575   -9.0959    3.7566 H   0  0  0  0  0  0  0  0  0  0  0  0
   -0.3907   -8.0611    3.8945 H   0  0  0  0  0  0  0  0  0  0  0  0
   -2.2203    0.5839   -1.6040 H   0  0  0  0  0  0  0  0  0  0  0  0
   -4.5174    0.7180   -7.0859 H   0  0  0  0  0  0  0  0  0  0  0  0
   -2.7661    0.6951   -7.4236 H   0  0  0  0  0  0  0  0  0  0  0  0
   -4.5084    3.2275   -7.3097 H   0  0  0  0  0  0  0  0  0  0  0  0
   -2.7133    3.2119   -7.4816 H   0  0  0  0  0  0  0  0  0  0  0  0
   -3.7506    2.4719   -8.7680 H   0  0  0  0  0  0  0  0  0  0  0  0
   -5.9769    1.8025   -5.7593 H   0  0  0  0  0  0  0  0  0  0  0  0
   -7.4387    2.5841   -3.9594 H   0  0  0  0  0  0  0  0  0  0  0  0
   -6.5322    3.1445   -1.7511 H   0  0  0  0  0  0  0  0  0  0  0  0
   -5.3694    2.9741    0.4162 H   0  0  0  0  0  0  0  0  0  0  0  0
   -5.0782    4.6139   -0.3126 H   0  0  0  0  0  0  0  0  0  0  0  0
   -3.1289    3.0557    1.4966 H   0  0  0  0  0  0  0  0  0  0  0  0
   -4.1341    4.4841    1.9826 H   0  0  0  0  0  0  0  0  0  0  0  0
   -2.8146    4.6776    0.7505 H   0  0  0  0  0  0  0  0  0  0  0  0
   -2.6820    4.7101   -4.0738 H   0  0  0  0  0  0  0  0  0  0  0  0
  1  2  2  3
  2  3  1  0
  3  4  2  0
  3  5  1  0
  5  6  2  0
  6  7  1  0
  6  8  1  0
  8  9  1  0
  8 10  2  0
 10 11  1  0
 10 12  1  0
 12 13  1  0
 12 14  2  0
 14 15  1  0
 15 16  2  3
 16 17  1  0
 17 18  3  0
 16 19  1  0
 19 20  3  0
  1 21  1  0
 21 22  2  0
 22 23  1  0
 23 24  1  0
 24 25  2  0
 25 26  1  0
 26 27  1  0
 27 28  1  0
 25 29  1  0
 29 30  2  0
 30 31  1  0
 31 32  2  0
 32 33  1  0
 33 34  1  0
 34 35  1  0
 23 36  2  0
 36 37  1  0
 36 38  1  0
 38 39  2  0
 39 40  1  0
 39 41  1  0
 41 42  1  0
 41 43  2  0
 43 44  1  0
 44 45  2  0
 45 46  1  0
 46 47  1  0
 47 48  1  0
 48 49  1  0
 49 50  1  0
 50 51  1  0
 49 52  2  0
 52 53  1  0
 52 54  1  0
 46 55  2  0
 55 56  1  0
 56 57  2  0
 55 58  1  0
 58 59  2  0
 59 60  1  0
 60 61  1  0
 60 62  2  0
 62 63  1  0
 63 64  1  0
 62 65  1  0
 43 66  1  0
 66 67  2  0
 67 68  1  0
 68 69  1  0
 69 70  2  0
 70 71  1  0
 71 72  1  0
 72 73  1  0
 70 74  1  0
 74 75  2  0
 75 76  1  0
 76 77  2  0
 77 78  1  0
 78 79  1  0
 79 80  1  0
 68 81  2  0
 81 82  1  0
 81 83  1  0
 83 84  2  3
 84 85  1  0
 85 86  2  0
 85 87  1  0
 87 88  2  0
 88 89  1  0
 88 90  1  0
 90 91  1  0
 90 92  2  0
 92 93  1  0
 92 94  1  0
 94 95  1  0
 94 96  2  0
 96 97  1  0
 97 98  2  3
 98 99  1  0
 99100  3  0
 98101  1  0
101102  3  0
 15  2  1  0
 37 21  1  0
 57 38  1  0
 65 58  1  0
 82 66  1  0
 97 84  1  0
 14  5  1  0
 32 24  1  0
 57 44  1  0
 77 69  1  0
 96 87  1  0
 53 47  2  0
  1103  1  0
 22104  1  0
 27105  1  0
 27106  1  0
 28107  1  0
 28108  1  0
 28109  1  0
 29110  1  0
 30111  1  0
 31112  1  0
 34113  1  0
 34114  1  0
 35115  1  0
 35116  1  0
 35117  1  0
 50118  1  0
 50119  1  0
 51120  1  0
 51121  1  0
 51122  1  0
 53123  1  0
 59124  1  0
 63125  1  0
 63126  1  0
 64127  1  0
 64128  1  0
 64129  1  0
 67130  1  0
 72131  1  0
 72132  1  0
 73133  1  0
 73134  1  0
 73135  1  0
 74136  1  0
 75137  1  0
 76138  1  0
 79139  1  0
 79140  1  0
 80141  1  0
 80142  1  0
 80143  1  0
 83144  1  0
M  END

