
     RDKit          3D

196215  0  0  0  0  0  0  0  0999 V2000
   -2.3674    3.0195   -9.3973 C   0  0  0  0  0  0  0  0  0  0  0  0
   -3.5491    3.6023   -9.1018 C   0  0  0  0  0  0  0  0  0  0  0  0
   -4.6578    2.8962   -8.4867 C   0  0  0  0  0  0  0  0  0  0  0  0
   -4.7740    1.6364   -8.4315 O   0  0  0  0  0  0  0  0  0  0  0  0
   -5.6084    3.8545   -7.9671 C   0  0  0  0  0  0  0  0  0  0  0  0
   -6.7622    3.5951   -7.2222 C   0  0  0  0  0  0  0  0  0  0  0  0
   -7.2568    1.9367   -6.8449 Cl  0  0  0  0  0  0  0  0  0  0  0  0
   -7.5053    4.6918   -6.7504 C   0  0  0  0  0  0  0  0  0  0  0  0
   -8.9136    4.4220   -5.7255 Cl  0  0  0  0  0  0  0  0  0  0  0  0
   -7.1568    6.0087   -7.1423 C   0  0  0  0  0  0  0  0  0  0  0  0
   -8.1558    7.3737   -6.6120 Cl  0  0  0  0  0  0  0  0  0  0  0  0
   -6.0380    6.2427   -7.9679 C   0  0  0  0  0  0  0  0  0  0  0  0
   -5.8884    7.8331   -8.7431 Cl  0  0  0  0  0  0  0  0  0  0  0  0
   -5.1885    5.1503   -8.2848 C   0  0  0  0  0  0  0  0  0  0  0  0
   -3.7919    5.0642   -8.8695 C   0  0  0  0  0  0  0  0  0  0  0  0
   -2.7805    5.9528   -8.6255 C   0  0  0  0  0  0  0  0  0  0  0  0
   -2.9440    7.3634   -8.4055 C   0  0  0  0  0  0  0  0  0  0  0  0
   -3.0122    8.5264   -8.2893 N   0  0  0  0  0  0  0  0  0  0  0  0
   -1.3968    5.5616   -8.5981 C   0  0  0  0  0  0  0  0  0  0  0  0
   -0.2785    5.2569   -8.5468 N   0  0  0  0  0  0  0  0  0  0  0  0
   -1.7137    2.1635   -8.3807 C   0  0  0  0  0  0  0  0  0  0  0  0
   -1.9497    2.3102   -7.0157 C   0  0  0  0  0  0  0  0  0  0  0  0
   -0.9958    1.7073   -6.2087 C   0  0  0  0  0  0  0  0  0  0  0  0
   -0.9228    1.8427   -4.8076 C   0  0  0  0  0  0  0  0  0  0  0  0
   -1.9862    2.5288   -4.0217 C   0  0  0  0  0  0  0  0  0  0  0  0
   -1.7919    3.4968   -3.0422 C   0  0  0  0  0  0  0  0  0  0  0  0
   -2.9920    4.0114   -2.5176 C   0  0  0  0  0  0  0  0  0  0  0  0
   -4.1340    3.4349   -3.0590 C   0  0  0  0  0  0  0  0  0  0  0  0
   -5.5313    3.9521   -2.8408 C   0  0  0  0  0  0  0  0  0  0  0  0
   -6.6045    2.8971   -3.0848 C   0  0  0  0  0  0  0  0  0  0  0  0
   -3.6496    2.3080   -4.2124 S   0  0  0  0  0  0  0  0  0  0  0  0
    0.2376    1.3603   -4.1877 C   0  0  0  0  0  0  0  0  0  0  0  0
    1.2566    0.7003   -4.8814 C   0  0  0  0  0  0  0  0  0  0  0  0
    1.1541    0.5164   -6.2842 C   0  0  0  0  0  0  0  0  0  0  0  0
    2.1430   -0.2584   -7.0583 C   0  0  0  0  0  0  0  0  0  0  0  0
    3.5299   -0.1292   -7.0114 C   0  0  0  0  0  0  0  0  0  0  0  0
    4.2042   -1.0836   -7.7840 C   0  0  0  0  0  0  0  0  0  0  0  0
    3.3574   -1.9878   -8.4138 C   0  0  0  0  0  0  0  0  0  0  0  0
    3.7536   -3.1186   -9.3232 C   0  0  0  0  0  0  0  0  0  0  0  0
    5.1220   -3.6981   -8.9743 C   0  0  0  0  0  0  0  0  0  0  0  0
    1.7670   -1.5723   -8.0486 S   0  0  0  0  0  0  0  0  0  0  0  0
    0.0252    1.0796   -6.9214 C   0  0  0  0  0  0  0  0  0  0  0  0
   -0.2808    1.2938   -8.5754 S   0  0  0  0  0  0  0  0  0  0  0  0
    2.3123    0.2625   -4.0402 C   0  0  0  0  0  0  0  0  0  0  0  0
    2.1259    0.6596   -2.7225 C   0  0  0  0  0  0  0  0  0  0  0  0
    0.6328    1.4340   -2.5729 S   0  0  0  0  0  0  0  0  0  0  0  0
    2.9918    0.4073   -1.5657 C   0  0  0  0  0  0  0  0  0  0  0  0
    2.9954    1.2651   -0.4472 C   0  0  0  0  0  0  0  0  0  0  0  0
    2.7720    2.6979   -0.5317 N   0  0  0  0  0  0  0  0  0  0  0  0
    2.3763    3.4738    0.6204 C   0  0  0  0  0  0  0  0  0  0  0  0
    1.1322    3.2562    1.2328 C   0  0  0  0  0  0  0  0  0  0  0  0
    0.7850    3.9795    2.3797 C   0  0  0  0  0  0  0  0  0  0  0  0
    1.6438    4.9727    2.8810 C   0  0  0  0  0  0  0  0  0  0  0  0
    1.1550    5.9861    4.2822 S   0  0  0  0  0  0  0  0  0  0  0  0
    2.0848    5.0312    5.5025 C   0  0  0  0  0  0  0  0  0  0  0  0
    2.8569    5.2323    2.2293 C   0  0  0  0  0  0  0  0  0  0  0  0
    3.2365    4.4754    1.1236 C   0  0  0  0  0  0  0  0  0  0  0  0
    3.2617    3.4258   -1.6825 C   0  0  0  0  0  0  0  0  0  0  0  0
    4.5010    3.0960   -2.2771 C   0  0  0  0  0  0  0  0  0  0  0  0
    5.0211    3.8857   -3.3075 C   0  0  0  0  0  0  0  0  0  0  0  0
    4.3146    5.0062   -3.7568 C   0  0  0  0  0  0  0  0  0  0  0  0
    5.0273    6.0741   -5.0119 S   0  0  0  0  0  0  0  0  0  0  0  0
    6.0581    7.0155   -3.8431 C   0  0  0  0  0  0  0  0  0  0  0  0
    3.0764    5.3340   -3.1871 C   0  0  0  0  0  0  0  0  0  0  0  0
    2.5479    4.5386   -2.1757 C   0  0  0  0  0  0  0  0  0  0  0  0
    3.2636    0.5563    0.7375 C   0  0  0  0  0  0  0  0  0  0  0  0
    2.6819    0.7679    2.2906 S   0  0  0  0  0  0  0  0  0  0  0  0
    2.7986   -0.8530    2.7563 C   0  0  0  0  0  0  0  0  0  0  0  0
    3.3953   -1.5695    1.7036 C   0  0  0  0  0  0  0  0  0  0  0  0
    4.0572   -2.8441    1.8864 N   0  0  0  0  0  0  0  0  0  0  0  0
    4.1077   -3.8259    0.8382 C   0  0  0  0  0  0  0  0  0  0  0  0
    5.1397   -3.7775   -0.1111 C   0  0  0  0  0  0  0  0  0  0  0  0
    5.2149   -4.7393   -1.1189 C   0  0  0  0  0  0  0  0  0  0  0  0
    4.2972   -5.8018   -1.1474 C   0  0  0  0  0  0  0  0  0  0  0  0
    4.4780   -7.1020   -2.3681 S   0  0  0  0  0  0  0  0  0  0  0  0
    3.3346   -6.3660   -3.5993 C   0  0  0  0  0  0  0  0  0  0  0  0
    3.2823   -5.8776   -0.1774 C   0  0  0  0  0  0  0  0  0  0  0  0
    3.1774   -4.8862    0.8051 C   0  0  0  0  0  0  0  0  0  0  0  0
    4.8413   -3.0561    3.0819 C   0  0  0  0  0  0  0  0  0  0  0  0
    5.6110   -2.0070    3.6229 C   0  0  0  0  0  0  0  0  0  0  0  0
    6.2424   -2.1486    4.8634 C   0  0  0  0  0  0  0  0  0  0  0  0
    6.1074   -3.3447    5.5798 C   0  0  0  0  0  0  0  0  0  0  0  0
    6.8482   -3.5118    7.2087 S   0  0  0  0  0  0  0  0  0  0  0  0
    5.4413   -2.7505    8.0742 C   0  0  0  0  0  0  0  0  0  0  0  0
    5.3851   -4.4148    5.0377 C   0  0  0  0  0  0  0  0  0  0  0  0
    4.7607   -4.2706    3.7902 C   0  0  0  0  0  0  0  0  0  0  0  0
    3.5724   -0.7652    0.5692 C   0  0  0  0  0  0  0  0  0  0  0  0
    3.3941   -1.1637   -1.0587 S   0  0  0  0  0  0  0  0  0  0  0  0
    1.8227   -1.4534    3.6937 C   0  0  0  0  0  0  0  0  0  0  0  0
    0.6686   -0.8090    4.1448 C   0  0  0  0  0  0  0  0  0  0  0  0
   -0.3341   -1.7059    4.5732 C   0  0  0  0  0  0  0  0  0  0  0  0
   -1.6736   -1.3826    4.9111 C   0  0  0  0  0  0  0  0  0  0  0  0
   -2.2205   -0.0066    4.8102 C   0  0  0  0  0  0  0  0  0  0  0  0
   -3.0584    0.6061    5.7395 C   0  0  0  0  0  0  0  0  0  0  0  0
   -3.4581    1.9020    5.3684 C   0  0  0  0  0  0  0  0  0  0  0  0
   -2.9356    2.3149    4.1475 C   0  0  0  0  0  0  0  0  0  0  0  0
   -3.0372    3.7044    3.5898 C   0  0  0  0  0  0  0  0  0  0  0  0
   -3.1388    3.7154    2.0663 C   0  0  0  0  0  0  0  0  0  0  0  0
   -1.9769    1.0716    3.5369 S   0  0  0  0  0  0  0  0  0  0  0  0
   -2.5126   -2.4606    5.2595 C   0  0  0  0  0  0  0  0  0  0  0  0
   -2.0764   -3.7934    5.2769 C   0  0  0  0  0  0  0  0  0  0  0  0
   -0.7642   -4.1209    4.8873 C   0  0  0  0  0  0  0  0  0  0  0  0
   -0.3172   -5.5235    4.6684 C   0  0  0  0  0  0  0  0  0  0  0  0
   -1.0219   -6.5196    3.9820 C   0  0  0  0  0  0  0  0  0  0  0  0
   -0.2984   -7.7092    3.8256 C   0  0  0  0  0  0  0  0  0  0  0  0
    0.9838   -7.6447    4.3589 C   0  0  0  0  0  0  0  0  0  0  0  0
    2.0526   -8.6741    4.1944 C   0  0  0  0  0  0  0  0  0  0  0  0
    2.9067   -8.3837    2.9609 C   0  0  0  0  0  0  0  0  0  0  0  0
    1.2138   -6.1285    5.0414 S   0  0  0  0  0  0  0  0  0  0  0  0
    0.0823   -3.0424    4.5601 C   0  0  0  0  0  0  0  0  0  0  0  0
    1.6171   -3.1105    3.8948 S   0  0  0  0  0  0  0  0  0  0  0  0
   -3.0890   -4.7016    5.6246 C   0  0  0  0  0  0  0  0  0  0  0  0
   -4.3455   -4.1075    5.8035 C   0  0  0  0  0  0  0  0  0  0  0  0
   -4.1641   -2.4448    5.5902 S   0  0  0  0  0  0  0  0  0  0  0  0
   -5.5649   -4.9291    5.9906 C   0  0  0  0  0  0  0  0  0  0  0  0
   -6.8647   -4.5486    5.9968 C   0  0  0  0  0  0  0  0  0  0  0  0
   -7.4068   -3.1984    5.8295 C   0  0  0  0  0  0  0  0  0  0  0  0
   -6.9114   -2.1427    6.3026 O   0  0  0  0  0  0  0  0  0  0  0  0
   -8.7323   -3.2966    5.2422 C   0  0  0  0  0  0  0  0  0  0  0  0
   -9.0762   -4.6355    5.1388 C   0  0  0  0  0  0  0  0  0  0  0  0
  -10.2927   -4.9973    4.5305 C   0  0  0  0  0  0  0  0  0  0  0  0
  -11.1526   -3.9845    4.0726 C   0  0  0  0  0  0  0  0  0  0  0  0
  -10.7950   -2.6251    4.2027 C   0  0  0  0  0  0  0  0  0  0  0  0
  -12.0150   -1.2870    3.5151 Br  0  0  0  0  0  0  0  0  0  0  0  0
   -9.5728   -2.2680    4.7896 C   0  0  0  0  0  0  0  0  0  0  0  0
   -9.0847   -0.5850    4.9118 Cl  0  0  0  0  0  0  0  0  0  0  0  0
   -7.9944   -5.4790    5.7275 C   0  0  0  0  0  0  0  0  0  0  0  0
   -8.0393   -6.8088    6.0478 C   0  0  0  0  0  0  0  0  0  0  0  0
   -9.1403   -7.6602    5.7197 C   0  0  0  0  0  0  0  0  0  0  0  0
  -10.0155   -8.3724    5.4843 N   0  0  0  0  0  0  0  0  0  0  0  0
   -7.1389   -7.3460    7.0404 C   0  0  0  0  0  0  0  0  0  0  0  0
   -6.4388   -7.7701    7.8561 N   0  0  0  0  0  0  0  0  0  0  0  0
   -1.6879    3.5078  -10.0789 H   0  0  0  0  0  0  0  0  0  0  0  0
   -2.7113    2.9617   -6.6205 H   0  0  0  0  0  0  0  0  0  0  0  0
   -0.8111    3.8340   -2.7308 H   0  0  0  0  0  0  0  0  0  0  0  0
   -2.9976    4.7776   -1.7339 H   0  0  0  0  0  0  0  0  0  0  0  0
   -5.6160    4.3344   -1.8017 H   0  0  0  0  0  0  0  0  0  0  0  0
   -5.6763    4.8090   -3.5253 H   0  0  0  0  0  0  0  0  0  0  0  0
   -7.5928    3.3756   -3.0896 H   0  0  0  0  0  0  0  0  0  0  0  0
   -6.5511    2.0990   -2.3047 H   0  0  0  0  0  0  0  0  0  0  0  0
   -6.4508    2.4387   -4.0780 H   0  0  0  0  0  0  0  0  0  0  0  0
    4.0351    0.6395   -6.4498 H   0  0  0  0  0  0  0  0  0  0  0  0
    5.2896   -1.1215   -7.8492 H   0  0  0  0  0  0  0  0  0  0  0  0
    3.7574   -2.7506  -10.3717 H   0  0  0  0  0  0  0  0  0  0  0  0
    2.9962   -3.9272   -9.2428 H   0  0  0  0  0  0  0  0  0  0  0  0
    5.9290   -2.9915   -9.2771 H   0  0  0  0  0  0  0  0  0  0  0  0
    5.1869   -3.8944   -7.8821 H   0  0  0  0  0  0  0  0  0  0  0  0
    5.2716   -4.6598   -9.5142 H   0  0  0  0  0  0  0  0  0  0  0  0
    3.1734   -0.2883   -4.3603 H   0  0  0  0  0  0  0  0  0  0  0  0
    0.4599    2.4964    0.8423 H   0  0  0  0  0  0  0  0  0  0  0  0
   -0.1522    3.7677    2.8705 H   0  0  0  0  0  0  0  0  0  0  0  0
    1.4861    4.1514    5.8362 H   0  0  0  0  0  0  0  0  0  0  0  0
    3.0696    4.7269    5.0707 H   0  0  0  0  0  0  0  0  0  0  0  0
    2.2552    5.6988    6.3876 H   0  0  0  0  0  0  0  0  0  0  0  0
    3.5197    6.0037    2.5975 H   0  0  0  0  0  0  0  0  0  0  0  0
    4.1941    4.6694    0.6511 H   0  0  0  0  0  0  0  0  0  0  0  0
    5.0863    2.2606   -1.9092 H   0  0  0  0  0  0  0  0  0  0  0  0
    5.9844    3.6354   -3.7474 H   0  0  0  0  0  0  0  0  0  0  0  0
    5.5337    7.1591   -2.8805 H   0  0  0  0  0  0  0  0  0  0  0  0
    7.0177    6.4741   -3.6802 H   0  0  0  0  0  0  0  0  0  0  0  0
    6.2739    8.0103   -4.2795 H   0  0  0  0  0  0  0  0  0  0  0  0
    2.5200    6.2019   -3.5380 H   0  0  0  0  0  0  0  0  0  0  0  0
    1.5911    4.8057   -1.7384 H   0  0  0  0  0  0  0  0  0  0  0  0
    5.8800   -2.9837   -0.0655 H   0  0  0  0  0  0  0  0  0  0  0  0
    6.0074   -4.6829   -1.8587 H   0  0  0  0  0  0  0  0  0  0  0  0
    3.8162   -6.4285   -4.6033 H   0  0  0  0  0  0  0  0  0  0  0  0
    2.4029   -6.9726   -3.6253 H   0  0  0  0  0  0  0  0  0  0  0  0
    3.0822   -5.3029   -3.3732 H   0  0  0  0  0  0  0  0  0  0  0  0
    2.5881   -6.7066   -0.1756 H   0  0  0  0  0  0  0  0  0  0  0  0
    2.4029   -4.9510    1.5565 H   0  0  0  0  0  0  0  0  0  0  0  0
    5.7073   -1.0569    3.1057 H   0  0  0  0  0  0  0  0  0  0  0  0
    6.8135   -1.3158    5.2757 H   0  0  0  0  0  0  0  0  0  0  0  0
    5.4489   -3.0652    9.1370 H   0  0  0  0  0  0  0  0  0  0  0  0
    5.5413   -1.6496    8.0277 H   0  0  0  0  0  0  0  0  0  0  0  0
    4.4767   -3.0598    7.6187 H   0  0  0  0  0  0  0  0  0  0  0  0
    5.2889   -5.3466    5.5823 H   0  0  0  0  0  0  0  0  0  0  0  0
    4.1670   -5.1003    3.4150 H   0  0  0  0  0  0  0  0  0  0  0  0
    0.5288    0.2561    4.0671 H   0  0  0  0  0  0  0  0  0  0  0  0
   -3.3822    0.1420    6.6682 H   0  0  0  0  0  0  0  0  0  0  0  0
   -4.0673    2.5357    5.9910 H   0  0  0  0  0  0  0  0  0  0  0  0
   -3.9367    4.2049    4.0131 H   0  0  0  0  0  0  0  0  0  0  0  0
   -2.1530    4.2926    3.9122 H   0  0  0  0  0  0  0  0  0  0  0  0
   -3.2153    4.7712    1.7255 H   0  0  0  0  0  0  0  0  0  0  0  0
   -4.0370    3.1522    1.7237 H   0  0  0  0  0  0  0  0  0  0  0  0
   -2.2328    3.2832    1.6002 H   0  0  0  0  0  0  0  0  0  0  0  0
   -2.0248   -6.3982    3.5816 H   0  0  0  0  0  0  0  0  0  0  0  0
   -0.7022   -8.5697    3.3019 H   0  0  0  0  0  0  0  0  0  0  0  0
    1.5822   -9.6695    4.0830 H   0  0  0  0  0  0  0  0  0  0  0  0
    2.7014   -8.6805    5.0983 H   0  0  0  0  0  0  0  0  0  0  0  0
    3.3077   -7.3447    2.9953 H   0  0  0  0  0  0  0  0  0  0  0  0
    2.3158   -8.5194    2.0264 H   0  0  0  0  0  0  0  0  0  0  0  0
    3.7608   -9.0900    2.9328 H   0  0  0  0  0  0  0  0  0  0  0  0
   -2.9601   -5.7705    5.6992 H   0  0  0  0  0  0  0  0  0  0  0  0
   -5.3589   -5.9885    5.9550 H   0  0  0  0  0  0  0  0  0  0  0  0
  -10.6033   -6.0202    4.4118 H   0  0  0  0  0  0  0  0  0  0  0  0
  -12.0846   -4.2562    3.6099 H   0  0  0  0  0  0  0  0  0  0  0  0
  1  2  2  3
  2  3  1  0
  3  4  2  0
  3  5  1  0
  5  6  2  0
  6  7  1  0
  6  8  1  0
  8  9  1  0
  8 10  2  0
 10 11  1  0
 10 12  1  0
 12 13  1  0
 12 14  2  0
 14 15  1  0
 15 16  2  3
 16 17  1  0
 17 18  3  0
 16 19  1  0
 19 20  3  0
  1 21  1  0
 21 22  2  0
 22 23  1  0
 23 24  2  0
 24 25  1  0
 25 26  2  0
 26 27  1  0
 27 28  2  0
 28 29  1  0
 29 30  1  0
 28 31  1  0
 24 32  1  0
 32 33  2  0
 33 34  1  0
 34 35  1  0
 35 36  2  0
 36 37  1  0
 37 38  2  0
 38 39  1  0
 39 40  1  0
 38 41  1  0
 34 42  2  0
 42 43  1  0
 33 44  1  0
 44 45  2  0
 45 46  1  0
 45 47  1  0
 47 48  2  0
 48 49  1  0
 49 50  1  0
 50 51  2  0
 51 52  1  0
 52 53  2  0
 53 54  1  0
 54 55  1  0
 53 56  1  0
 56 57  2  0
 49 58  1  0
 58 59  2  0
 59 60  1  0
 60 61  2  0
 61 62  1  0
 62 63  1  0
 61 64  1  0
 64 65  2  0
 48 66  1  0
 66 67  1  0
 67 68  1  0
 68 69  2  0
 69 70  1  0
 70 71  1  0
 71 72  2  0
 72 73  1  0
 73 74  2  0
 74 75  1  0
 75 76  1  0
 74 77  1  0
 77 78  2  0
 70 79  1  0
 79 80  2  0
 80 81  1  0
 81 82  2  0
 82 83  1  0
 83 84  1  0
 82 85  1  0
 85 86  2  0
 69 87  1  0
 87 88  1  0
 68 89  1  0
 89 90  2  0
 90 91  1  0
 91 92  2  0
 92 93  1  0
 93 94  2  0
 94 95  1  0
 95 96  2  0
 96 97  1  0
 97 98  1  0
 96 99  1  0
 92100  1  0
100101  2  0
101102  1  0
102103  1  0
103104  2  0
104105  1  0
105106  2  0
106107  1  0
107108  1  0
106109  1  0
102110  2  0
110111  1  0
101112  1  0
112113  2  0
113114  1  0
113115  1  0
115116  2  3
116117  1  0
117118  2  0
117119  1  0
119120  2  0
120121  1  0
121122  2  0
122123  1  0
123124  1  0
123125  2  0
125126  1  0
120127  1  0
127128  2  3
128129  1  0
129130  3  0
128131  1  0
131132  3  0
 15  2  1  0
 43 21  1  0
 88 47  1  0
111 89  1  0
127116  1  0
 14  5  1  0
 42 23  1  0
 57 50  1  0
 65 58  1  0
 87 66  2  0
110 91  1  0
125119  1  0
 31 25  1  0
 46 32  1  0
 78 71  1  0
 86 79  1  0
 99 93  1  0
114100  1  0
 41 35  1  0
109103  1  0
  1133  1  0
 22134  1  0
 26135  1  0
 27136  1  0
 29137  1  0
 29138  1  0
 30139  1  0
 30140  1  0
 30141  1  0
 36142  1  0
 37143  1  0
 39144  1  0
 39145  1  0
 40146  1  0
 40147  1  0
 40148  1  0
 44149  1  0
 51150  1  0
 52151  1  0
 55152  1  0
 55153  1  0
 55154  1  0
 56155  1  0
 57156  1  0
 59157  1  0
 60158  1  0
 63159  1  0
 63160  1  0
 63161  1  0
 64162  1  0
 65163  1  0
 72164  1  0
 73165  1  0
 76166  1  0
 76167  1  0
 76168  1  0
 77169  1  0
 78170  1  0
 80171  1  0
 81172  1  0
 84173  1  0
 84174  1  0
 84175  1  0
 85176  1  0
 86177  1  0
 90178  1  0
 94179  1  0
 95180  1  0
 97181  1  0
 97182  1  0
 98183  1  0
 98184  1  0
 98185  1  0
104186  1  0
105187  1  0
107188  1  0
107189  1  0
108190  1  0
108191  1  0
108192  1  0
112193  1  0
115194  1  0
121195  1  0
122196  1  0
M  END

