
     RDKit          3D

157172  0  0  0  0  0  0  0  0999 V2000
   -2.8776   -7.8731    3.1934 C   0  0  0  0  0  0  0  0  0  0  0  0
   -3.6684   -8.1196    2.1298 C   0  0  0  0  0  0  0  0  0  0  0  0
   -3.7180   -7.3325    0.8927 C   0  0  0  0  0  0  0  0  0  0  0  0
   -3.3189   -6.1443    0.7527 O   0  0  0  0  0  0  0  0  0  0  0  0
   -4.3003   -8.1544   -0.1556 C   0  0  0  0  0  0  0  0  0  0  0  0
   -4.3905   -7.8951   -1.5292 C   0  0  0  0  0  0  0  0  0  0  0  0
   -3.9496   -6.3173   -2.1782 Cl  0  0  0  0  0  0  0  0  0  0  0  0
   -4.8223   -8.9337   -2.3775 C   0  0  0  0  0  0  0  0  0  0  0  0
   -4.9878   -8.6383   -4.1078 Cl  0  0  0  0  0  0  0  0  0  0  0  0
   -5.0531  -10.2240   -1.8561 C   0  0  0  0  0  0  0  0  0  0  0  0
   -5.4395  -11.5526   -2.9524 Cl  0  0  0  0  0  0  0  0  0  0  0  0
   -4.9279  -10.4643   -0.4705 C   0  0  0  0  0  0  0  0  0  0  0  0
   -4.9062  -12.1257    0.1242 Cl  0  0  0  0  0  0  0  0  0  0  0  0
   -4.6476   -9.3815    0.3815 C   0  0  0  0  0  0  0  0  0  0  0  0
   -4.4649   -9.3438    1.8626 C   0  0  0  0  0  0  0  0  0  0  0  0
   -5.2690   -9.9590    2.7692 C   0  0  0  0  0  0  0  0  0  0  0  0
   -6.4377  -10.6995    2.3581 C   0  0  0  0  0  0  0  0  0  0  0  0
   -7.3867  -11.2799    2.0336 N   0  0  0  0  0  0  0  0  0  0  0  0
   -5.1759   -9.7025    4.1841 C   0  0  0  0  0  0  0  0  0  0  0  0
   -5.1193   -9.5028    5.3264 N   0  0  0  0  0  0  0  0  0  0  0  0
   -1.9461   -6.7290    3.1956 C   0  0  0  0  0  0  0  0  0  0  0  0
   -2.3509   -5.4887    3.7008 C   0  0  0  0  0  0  0  0  0  0  0  0
   -1.6597   -4.3011    3.3633 C   0  0  0  0  0  0  0  0  0  0  0  0
   -2.2506   -3.1000    3.8761 N   0  0  0  0  0  0  0  0  0  0  0  0
   -3.5211   -3.7001    4.6310 S   0  0  0  0  0  4  0  0  0  0  0  0
   -3.5401   -5.2881    4.4718 N   0  0  0  0  0  0  0  0  0  0  0  0
   -0.5343   -4.3241    2.5224 C   0  0  0  0  0  0  0  0  0  0  0  0
   -0.0658   -5.5796    2.0952 C   0  0  0  0  0  0  0  0  0  0  0  0
    1.0051   -5.7246    1.2741 N   0  0  0  0  0  0  0  0  0  0  0  0
    1.0025   -7.3588    1.0393 S   0  0  0  0  0  0  0  0  0  0  0  0
   -0.2869   -7.9329    1.8999 N   0  0  0  0  0  0  0  0  0  0  0  0
   -0.7691   -6.7775    2.4320 C   0  0  0  0  0  0  0  0  0  0  0  0
   -0.0454   -3.0831    1.8844 C   0  0  0  0  0  0  0  0  0  0  0  0
    1.2814   -2.6098    1.8359 C   0  0  0  0  0  0  0  0  0  0  0  0
    2.3064   -3.0152    2.7590 N   0  0  0  0  0  0  0  0  0  0  0  0
    3.6737   -3.1111    2.3285 C   0  0  0  0  0  0  0  0  0  0  0  0
    4.0222   -3.9518    1.2600 C   0  0  0  0  0  0  0  0  0  0  0  0
    5.3474   -4.0332    0.8190 C   0  0  0  0  0  0  0  0  0  0  0  0
    6.3248   -3.2177    1.4032 C   0  0  0  0  0  0  0  0  0  0  0  0
    8.0244   -3.2903    0.8161 S   0  0  0  0  0  0  0  0  0  0  0  0
    7.7565   -2.0516   -0.4905 C   0  0  0  0  0  0  0  0  0  0  0  0
    5.9824   -2.3634    2.4615 C   0  0  0  0  0  0  0  0  0  0  0  0
    4.6700   -2.3304    2.9401 C   0  0  0  0  0  0  0  0  0  0  0  0
    1.9730   -3.0304    4.1602 C   0  0  0  0  0  0  0  0  0  0  0  0
    2.2518   -4.1624    4.9436 C   0  0  0  0  0  0  0  0  0  0  0  0
    1.7636   -4.2391    6.2566 C   0  0  0  0  0  0  0  0  0  0  0  0
    1.0116   -3.1860    6.7947 C   0  0  0  0  0  0  0  0  0  0  0  0
    0.2757   -3.3478    8.4218 S   0  0  0  0  0  0  0  0  0  0  0  0
   -1.2895   -3.9995    7.7545 C   0  0  0  0  0  0  0  0  0  0  0  0
    0.7845   -2.0322    6.0385 C   0  0  0  0  0  0  0  0  0  0  0  0
    1.2559   -1.9550    4.7251 C   0  0  0  0  0  0  0  0  0  0  0  0
    1.3633   -1.4554    1.0599 C   0  0  0  0  0  0  0  0  0  0  0  0
    2.5787   -0.3466    0.7104 S   0  0  0  0  0  0  0  0  0  0  0  0
    1.5370    0.7132   -0.1313 C   0  0  0  0  0  0  0  0  0  0  0  0
    0.2299    0.1994   -0.1096 C   0  0  0  0  0  0  0  0  0  0  0  0
   -0.9346    0.9741   -0.4344 N   0  0  0  0  0  0  0  0  0  0  0  0
   -1.8092    0.5363   -1.4813 C   0  0  0  0  0  0  0  0  0  0  0  0
   -3.0126   -0.1084   -1.1551 C   0  0  0  0  0  0  0  0  0  0  0  0
   -3.9590   -0.3685   -2.1497 C   0  0  0  0  0  0  0  0  0  0  0  0
   -3.7237    0.0385   -3.4663 C   0  0  0  0  0  0  0  0  0  0  0  0
   -5.0094   -0.1561   -4.7013 S   0  0  0  0  0  0  0  0  0  0  0  0
   -5.7720    1.4545   -4.3188 C   0  0  0  0  0  0  0  0  0  0  0  0
   -2.5167    0.6657   -3.7983 C   0  0  0  0  0  0  0  0  0  0  0  0
   -1.5672    0.9234   -2.8034 C   0  0  0  0  0  0  0  0  0  0  0  0
   -1.3705    2.0396    0.4387 C   0  0  0  0  0  0  0  0  0  0  0  0
   -1.0974    1.9952    1.8203 C   0  0  0  0  0  0  0  0  0  0  0  0
   -1.5929    2.9814    2.6731 C   0  0  0  0  0  0  0  0  0  0  0  0
   -2.3703    4.0283    2.1581 C   0  0  0  0  0  0  0  0  0  0  0  0
   -3.0722    5.2500    3.2625 S   0  0  0  0  0  0  0  0  0  0  0  0
   -4.6408    4.3497    3.4551 C   0  0  0  0  0  0  0  0  0  0  0  0
   -2.6266    4.0970    0.7840 C   0  0  0  0  0  0  0  0  0  0  0  0
   -2.1324    3.1082   -0.0678 C   0  0  0  0  0  0  0  0  0  0  0  0
    0.1821   -1.0209    0.5461 C   0  0  0  0  0  0  0  0  0  0  0  0
   -1.0572   -2.0441    1.0017 S   0  0  0  0  0  0  0  0  0  0  0  0
    1.9581    1.8093   -1.0310 C   0  0  0  0  0  0  0  0  0  0  0  0
    2.0397    3.1193   -0.5247 C   0  0  0  0  0  0  0  0  0  0  0  0
    2.1310    3.3831    1.2665 S   0  0  0  0  0  0  0  0  0  0  0  0
    3.9176    3.7835    1.2955 C   0  0  0  0  0  0  0  0  0  0  0  0
    4.7830    2.5555    1.0543 C   0  0  0  0  0  0  0  0  0  0  0  0
    1.9309    4.2141   -1.4024 C   0  0  0  0  0  0  0  0  0  0  0  0
    1.8980    5.9030   -0.7493 S   0  0  0  0  0  0  0  0  0  0  0  0
    0.0984    5.9251   -0.4591 C   0  0  0  0  0  0  0  0  0  0  0  0
   -0.4405    7.3275   -0.6907 C   0  0  0  0  0  0  0  0  0  0  0  0
    1.7717    3.9951   -2.7886 C   0  0  0  0  0  0  0  0  0  0  0  0
    1.8380    2.6848   -3.3195 C   0  0  0  0  0  0  0  0  0  0  0  0
    1.9635    1.5810   -2.4315 C   0  0  0  0  0  0  0  0  0  0  0  0
    1.9797    0.1881   -2.9921 C   0  0  0  0  0  0  0  0  0  0  0  0
    2.3606   -0.7994   -2.3085 O   0  0  0  0  0  0  0  0  0  0  0  0
    1.5908   -0.0291   -4.3850 C   0  0  0  0  0  0  0  0  0  0  0  0
    1.4387    1.0495   -5.2541 C   0  0  0  0  0  0  0  0  0  0  0  0
    1.6712    2.4248   -4.7910 C   0  0  0  0  0  0  0  0  0  0  0  0
    1.7606    3.3455   -5.6472 O   0  0  0  0  0  0  0  0  0  0  0  0
    1.0595    0.6857   -6.5447 C   0  0  0  0  0  0  0  0  0  0  0  0
    0.9259   -0.9906   -6.5761 S   0  0  0  0  0  0  0  0  0  0  0  0
    1.3465   -1.2666   -4.9694 C   0  0  0  0  0  0  0  0  0  0  0  0
    1.2363    5.0943   -3.6247 C   0  0  0  0  0  0  0  0  0  0  0  0
    1.9789    6.0820   -4.1571 C   0  0  0  0  0  0  0  0  0  0  0  0
    3.3990    6.3284   -3.8954 C   0  0  0  0  0  0  0  0  0  0  0  0
    4.2101    5.5280   -3.3592 O   0  0  0  0  0  0  0  0  0  0  0  0
    3.7113    7.6735   -4.3359 C   0  0  0  0  0  0  0  0  0  0  0  0
    4.9099    8.3722   -4.2091 C   0  0  0  0  0  0  0  0  0  0  0  0
    4.9496    9.7136   -4.6157 C   0  0  0  0  0  0  0  0  0  0  0  0
    6.4245   10.6506   -4.3958 Cl  0  0  0  0  0  0  0  0  0  0  0  0
    3.7898   10.3306   -5.1281 C   0  0  0  0  0  0  0  0  0  0  0  0
    3.8034   11.6477   -5.4614 F   0  0  0  0  0  0  0  0  0  0  0  0
    2.5963    9.6029   -5.2597 C   0  0  0  0  0  0  0  0  0  0  0  0
    2.5793    8.2493   -4.8850 C   0  0  0  0  0  0  0  0  0  0  0  0
    1.4751    7.2525   -4.9274 C   0  0  0  0  0  0  0  0  0  0  0  0
    0.3671    7.2978   -5.7095 C   0  0  0  0  0  0  0  0  0  0  0  0
    0.0163    8.4446   -6.5092 C   0  0  0  0  0  0  0  0  0  0  0  0
   -0.2725    9.3559   -7.1628 N   0  0  0  0  0  0  0  0  0  0  0  0
   -0.4456    6.1306   -5.9571 C   0  0  0  0  0  0  0  0  0  0  0  0
   -1.1041    5.1980   -6.1613 N   0  0  0  0  0  0  0  0  0  0  0  0
   -2.8116   -8.5859    4.0056 H   0  0  0  0  0  0  0  0  0  0  0  0
    3.2690   -4.5556    0.7724 H   0  0  0  0  0  0  0  0  0  0  0  0
    5.6075   -4.7102    0.0210 H   0  0  0  0  0  0  0  0  0  0  0  0
    8.6917   -1.9298   -1.0720 H   0  0  0  0  0  0  0  0  0  0  0  0
    7.4788   -1.0763   -0.0409 H   0  0  0  0  0  0  0  0  0  0  0  0
    6.9508   -2.3915   -1.1776 H   0  0  0  0  0  0  0  0  0  0  0  0
    6.7438   -1.7368    2.9113 H   0  0  0  0  0  0  0  0  0  0  0  0
    4.4276   -1.6672    3.7567 H   0  0  0  0  0  0  0  0  0  0  0  0
    2.7972   -4.9950    4.5219 H   0  0  0  0  0  0  0  0  0  0  0  0
    1.9451   -5.1330    6.8402 H   0  0  0  0  0  0  0  0  0  0  0  0
   -1.9823   -4.2273    8.5967 H   0  0  0  0  0  0  0  0  0  0  0  0
   -1.7625   -3.2349    7.0936 H   0  0  0  0  0  0  0  0  0  0  0  0
   -1.1049   -4.9287    7.1702 H   0  0  0  0  0  0  0  0  0  0  0  0
    0.1949   -1.2166    6.4422 H   0  0  0  0  0  0  0  0  0  0  0  0
    1.0314   -1.0742    4.1320 H   0  0  0  0  0  0  0  0  0  0  0  0
   -3.2384   -0.3627   -0.1269 H   0  0  0  0  0  0  0  0  0  0  0  0
   -4.9039   -0.8306   -1.8771 H   0  0  0  0  0  0  0  0  0  0  0  0
   -6.6088    1.6402   -5.0233 H   0  0  0  0  0  0  0  0  0  0  0  0
   -5.0214    2.2681   -4.4268 H   0  0  0  0  0  0  0  0  0  0  0  0
   -6.1729    1.4494   -3.2827 H   0  0  0  0  0  0  0  0  0  0  0  0
   -2.3426    1.0206   -4.8053 H   0  0  0  0  0  0  0  0  0  0  0  0
   -0.6980    1.5036   -3.0458 H   0  0  0  0  0  0  0  0  0  0  0  0
   -0.5210    1.1807    2.2499 H   0  0  0  0  0  0  0  0  0  0  0  0
   -1.3995    2.9138    3.7340 H   0  0  0  0  0  0  0  0  0  0  0  0
   -5.1708    4.7373    4.3496 H   0  0  0  0  0  0  0  0  0  0  0  0
   -4.4601    3.2638    3.5841 H   0  0  0  0  0  0  0  0  0  0  0  0
   -5.2742    4.5267    2.5615 H   0  0  0  0  0  0  0  0  0  0  0  0
   -3.2150    4.9069    0.3757 H   0  0  0  0  0  0  0  0  0  0  0  0
   -2.3478    3.1717   -1.1313 H   0  0  0  0  0  0  0  0  0  0  0  0
    4.1588    4.1999    2.2936 H   0  0  0  0  0  0  0  0  0  0  0  0
    4.1550    4.5638    0.5437 H   0  0  0  0  0  0  0  0  0  0  0  0
    4.5432    1.7745    1.8109 H   0  0  0  0  0  0  0  0  0  0  0  0
    5.8584    2.8315    1.1527 H   0  0  0  0  0  0  0  0  0  0  0  0
    4.6134    2.1521    0.0329 H   0  0  0  0  0  0  0  0  0  0  0  0
   -0.0957    5.6210    0.5888 H   0  0  0  0  0  0  0  0  0  0  0  0
   -0.4229    5.2160   -1.1397 H   0  0  0  0  0  0  0  0  0  0  0  0
    0.0758    8.0504   -0.0235 H   0  0  0  0  0  0  0  0  0  0  0  0
   -0.2886    7.6184   -1.7547 H   0  0  0  0  0  0  0  0  0  0  0  0
   -1.5297    7.3444   -0.4658 H   0  0  0  0  0  0  0  0  0  0  0  0
    0.8768    1.3555   -7.3689 H   0  0  0  0  0  0  0  0  0  0  0  0
    1.4096   -2.2285   -4.4838 H   0  0  0  0  0  0  0  0  0  0  0  0
    0.1659    5.0814   -3.7708 H   0  0  0  0  0  0  0  0  0  0  0  0
    5.7781    7.9008   -3.7733 H   0  0  0  0  0  0  0  0  0  0  0  0
    1.7129   10.1185   -5.5982 H   0  0  0  0  0  0  0  0  0  0  0  0
  1  2  2  3
  2  3  1  0
  3  4  2  0
  3  5  1  0
  5  6  2  0
  6  7  1  0
  6  8  1  0
  8  9  1  0
  8 10  2  0
 10 11  1  0
 10 12  1  0
 12 13  1  0
 12 14  2  0
 14 15  1  0
 15 16  2  3
 16 17  1  0
 17 18  3  0
 16 19  1  0
 19 20  3  0
  1 21  1  0
 21 22  2  0
 22 23  1  0
 23 24  1  0
 24 25  2  0
 25 26  2  0
 23 27  2  0
 27 28  1  0
 28 29  2  0
 29 30  1  0
 30 31  1  0
 31 32  2  0
 27 33  1  0
 33 34  2  0
 34 35  1  0
 35 36  1  0
 36 37  2  0
 37 38  1  0
 38 39  2  0
 39 40  1  0
 40 41  1  0
 39 42  1  0
 42 43  2  0
 35 44  1  0
 44 45  2  0
 45 46  1  0
 46 47  2  0
 47 48  1  0
 48 49  1  0
 47 50  1  0
 50 51  2  0
 34 52  1  0
 52 53  1  0
 53 54  1  0
 54 55  2  0
 55 56  1  0
 56 57  1  0
 57 58  2  0
 58 59  1  0
 59 60  2  0
 60 61  1  0
 61 62  1  0
 60 63  1  0
 63 64  2  0
 56 65  1  0
 65 66  2  0
 66 67  1  0
 67 68  2  0
 68 69  1  0
 69 70  1  0
 68 71  1  0
 71 72  2  0
 55 73  1  0
 73 74  1  0
 54 75  1  0
 75 76  2  0
 76 77  1  0
 77 78  1  0
 78 79  1  0
 76 80  1  0
 80 81  1  0
 81 82  1  0
 82 83  1  0
 80 84  2  0
 84 85  1  0
 85 86  2  0
 86 87  1  0
 87 88  2  0
 87 89  1  0
 89 90  1  0
 90 91  1  0
 91 92  2  0
 90 93  2  0
 93 94  1  0
 94 95  1  0
 84 96  1  0
 96 97  2  3
 97 98  1  0
 98 99  2  0
 98100  1  0
100101  2  0
101102  1  0
102103  1  0
102104  2  0
104105  1  0
104106  1  0
106107  2  0
107108  1  0
108109  2  3
109110  1  0
110111  3  0
109112  1  0
112113  3  0
 15  2  1  0
 32 21  1  0
 74 33  1  0
 86 75  1  0
 95 89  2  0
108 97  1  0
 14  5  1  0
 26 22  1  0
 32 28  1  0
 43 36  1  0
 51 44  1  0
 73 52  2  0
 91 85  1  0
107100  1  0
 64 57  1  0
 72 65  1  0
  1114  1  0
 37115  1  0
 38116  1  0
 41117  1  0
 41118  1  0
 41119  1  0
 42120  1  0
 43121  1  0
 45122  1  0
 46123  1  0
 49124  1  0
 49125  1  0
 49126  1  0
 50127  1  0
 51128  1  0
 58129  1  0
 59130  1  0
 62131  1  0
 62132  1  0
 62133  1  0
 63134  1  0
 64135  1  0
 66136  1  0
 67137  1  0
 70138  1  0
 70139  1  0
 70140  1  0
 71141  1  0
 72142  1  0
 78143  1  0
 78144  1  0
 79145  1  0
 79146  1  0
 79147  1  0
 82148  1  0
 82149  1  0
 83150  1  0
 83151  1  0
 83152  1  0
 93153  1  0
 95154  1  0
 96155  1  0
101156  1  0
106157  1  0
M  END

