
     RDKit          3D

160171  0  0  0  0  0  0  0  0999 V2000
    0.3243    5.2271    6.1048 C   0  0  0  0  0  0  0  0  0  0  0  0
    1.1382    5.7447    7.0445 C   0  0  0  0  0  0  0  0  0  0  0  0
    0.7341    6.9054    7.8363 C   0  0  0  0  0  0  0  0  0  0  0  0
   -0.3899    7.4748    7.7710 O   0  0  0  0  0  0  0  0  0  0  0  0
    1.8390    7.3248    8.6753 C   0  0  0  0  0  0  0  0  0  0  0  0
    1.9424    8.4645    9.4836 C   0  0  0  0  0  0  0  0  0  0  0  0
    0.5572    9.5343    9.7256 Cl  0  0  0  0  0  0  0  0  0  0  0  0
    3.1870    8.7492   10.0720 C   0  0  0  0  0  0  0  0  0  0  0  0
    3.3567   10.1683   11.1081 Cl  0  0  0  0  0  0  0  0  0  0  0  0
    4.3096    7.9327    9.7946 C   0  0  0  0  0  0  0  0  0  0  0  0
    5.8837    8.3611   10.4659 Cl  0  0  0  0  0  0  0  0  0  0  0  0
    4.1842    6.8046    8.9531 C   0  0  0  0  0  0  0  0  0  0  0  0
    5.6351    5.9753    8.3866 Cl  0  0  0  0  0  0  0  0  0  0  0  0
    2.9062    6.4663    8.4642 C   0  0  0  0  0  0  0  0  0  0  0  0
    2.5223    5.3897    7.5028 C   0  0  0  0  0  0  0  0  0  0  0  0
    3.0534    4.1493    7.5083 C   0  0  0  0  0  0  0  0  0  0  0  0
    3.2664    3.4130    6.2906 C   0  0  0  0  0  0  0  0  0  0  0  0
    3.4618    2.8135    5.3211 N   0  0  0  0  0  0  0  0  0  0  0  0
    3.6914    3.6157    8.6881 C   0  0  0  0  0  0  0  0  0  0  0  0
    4.1977    3.1864    9.6357 N   0  0  0  0  0  0  0  0  0  0  0  0
    0.5824    4.0880    5.2141 C   0  0  0  0  0  0  0  0  0  0  0  0
    0.3228    2.7876    5.6772 C   0  0  0  0  0  0  0  0  0  0  0  0
    0.1105    2.5596    6.9970 F   0  0  0  0  0  0  0  0  0  0  0  0
    0.2607    1.7233    4.7809 C   0  0  0  0  0  0  0  0  0  0  0  0
    0.0657    0.4635    5.2509 F   0  0  0  0  0  0  0  0  0  0  0  0
    0.3175    1.9619    3.4015 C   0  0  0  0  0  0  0  0  0  0  0  0
    0.5145    3.2683    2.9088 C   0  0  0  0  0  0  0  0  0  0  0  0
    0.4557    3.4602    1.5156 O   0  0  0  0  0  0  0  0  0  0  0  0
    0.4404    4.7143    0.8331 C   0  0  0  0  0  0  0  0  0  0  0  0
    0.2047    4.5037   -0.6551 C   0  0  0  0  0  0  0  0  0  0  0  0
    0.7350    4.3231    3.8295 C   0  0  0  0  0  0  0  0  0  0  0  0
    1.0814    5.6055    3.3722 O   0  0  0  0  0  0  0  0  0  0  0  0
    2.3207    6.2396    3.6977 C   0  0  0  0  0  0  0  0  0  0  0  0
    3.4830    5.5872    2.9608 C   0  0  0  0  0  0  0  0  0  0  0  0
    0.1646    0.8441    2.4592 C   0  0  0  0  0  0  0  0  0  0  0  0
   -0.8920    0.6640    1.5424 C   0  0  0  0  0  0  0  0  0  0  0  0
   -2.1961    1.2949    1.6541 N   0  0  0  0  0  0  0  0  0  0  0  0
   -3.1582    1.2453    0.5828 C   0  0  0  0  0  0  0  0  0  0  0  0
   -4.4044    0.6198    0.7748 C   0  0  0  0  0  0  0  0  0  0  0  0
   -5.3169    0.5257   -0.2795 C   0  0  0  0  0  0  0  0  0  0  0  0
   -4.9908    1.0460   -1.5379 C   0  0  0  0  0  0  0  0  0  0  0  0
   -6.1506    0.8774   -2.8962 S   0  0  0  0  0  0  0  0  0  0  0  0
   -5.5115   -0.7511   -3.4072 C   0  0  0  0  0  0  0  0  0  0  0  0
   -3.7631    1.6921   -1.7302 C   0  0  0  0  0  0  0  0  0  0  0  0
   -2.8544    1.7992   -0.6720 C   0  0  0  0  0  0  0  0  0  0  0  0
   -2.6598    1.7259    2.9428 C   0  0  0  0  0  0  0  0  0  0  0  0
   -2.8293    3.0896    3.2049 C   0  0  0  0  0  0  0  0  0  0  0  0
   -3.2104    3.5167    4.4828 C   0  0  0  0  0  0  0  0  0  0  0  0
   -3.4440    2.5734    5.4946 C   0  0  0  0  0  0  0  0  0  0  0  0
   -3.9236    3.1157    7.1340 S   0  0  0  0  0  0  0  0  0  0  0  0
   -5.7057    3.0926    6.7451 C   0  0  0  0  0  0  0  0  0  0  0  0
   -3.2912    1.2103    5.2267 C   0  0  0  0  0  0  0  0  0  0  0  0
   -2.8921    0.7867    3.9559 C   0  0  0  0  0  0  0  0  0  0  0  0
   -0.5362   -0.2962    0.5846 C   0  0  0  0  0  0  0  0  0  0  0  0
   -1.2340   -0.8865   -0.8174 S   0  0  0  0  0  0  0  0  0  0  0  0
    0.0804   -1.8863   -1.2430 C   0  0  0  0  0  0  0  0  0  0  0  0
    1.0659   -1.7930   -0.2400 C   0  0  0  0  0  0  0  0  0  0  0  0
    2.2125   -2.6678   -0.1321 N   0  0  0  0  0  0  0  0  0  0  0  0
    2.0823   -4.0742   -0.4343 C   0  0  0  0  0  0  0  0  0  0  0  0
    0.8996   -4.7652   -0.1192 C   0  0  0  0  0  0  0  0  0  0  0  0
    0.7557   -6.1138   -0.4571 C   0  0  0  0  0  0  0  0  0  0  0  0
    1.8119   -6.7985   -1.0692 C   0  0  0  0  0  0  0  0  0  0  0  0
    1.6169   -8.5187   -1.5325 S   0  0  0  0  0  0  0  0  0  0  0  0
    1.9125   -9.1507    0.1539 C   0  0  0  0  0  0  0  0  0  0  0  0
    2.9942   -6.1195   -1.3840 C   0  0  0  0  0  0  0  0  0  0  0  0
    3.1223   -4.7615   -1.0803 C   0  0  0  0  0  0  0  0  0  0  0  0
    3.3986   -2.1996    0.5374 C   0  0  0  0  0  0  0  0  0  0  0  0
    3.8289   -2.8133    1.7251 C   0  0  0  0  0  0  0  0  0  0  0  0
    4.9072   -2.2895    2.4408 C   0  0  0  0  0  0  0  0  0  0  0  0
    5.5692   -1.1453    1.9755 C   0  0  0  0  0  0  0  0  0  0  0  0
    6.9329   -0.4521    2.9148 S   0  0  0  0  0  0  0  0  0  0  0  0
    5.8653    0.7108    3.8259 C   0  0  0  0  0  0  0  0  0  0  0  0
    5.1627   -0.5475    0.7757 C   0  0  0  0  0  0  0  0  0  0  0  0
    4.0832   -1.0685    0.0597 C   0  0  0  0  0  0  0  0  0  0  0  0
    0.6886   -0.8697    0.7424 C   0  0  0  0  0  0  0  0  0  0  0  0
    1.4412   -0.2105    2.0877 S   0  0  0  0  0  0  0  0  0  0  0  0
    0.2097   -2.5079   -2.5830 C   0  0  0  0  0  0  0  0  0  0  0  0
    1.3980   -2.3563   -3.3205 C   0  0  0  0  0  0  0  0  0  0  0  0
    2.4772   -1.7327   -2.7844 F   0  0  0  0  0  0  0  0  0  0  0  0
    1.4557   -2.7509   -4.6568 C   0  0  0  0  0  0  0  0  0  0  0  0
    2.6038   -2.5535   -5.3567 F   0  0  0  0  0  0  0  0  0  0  0  0
    0.3132   -3.2411   -5.2989 C   0  0  0  0  0  0  0  0  0  0  0  0
   -0.8787   -3.4069   -4.5773 C   0  0  0  0  0  0  0  0  0  0  0  0
   -2.0263   -3.8157   -5.2649 O   0  0  0  0  0  0  0  0  0  0  0  0
   -3.1883   -2.9989   -5.3604 C   0  0  0  0  0  0  0  0  0  0  0  0
   -4.1291   -3.5679   -6.4095 C   0  0  0  0  0  0  0  0  0  0  0  0
   -0.9138   -3.0935   -3.2006 C   0  0  0  0  0  0  0  0  0  0  0  0
   -2.0568   -3.3339   -2.4304 O   0  0  0  0  0  0  0  0  0  0  0  0
   -2.6259   -4.6316   -2.2792 C   0  0  0  0  0  0  0  0  0  0  0  0
   -3.7267   -4.5776   -1.2352 C   0  0  0  0  0  0  0  0  0  0  0  0
    0.3183   -3.4196   -6.7572 C   0  0  0  0  0  0  0  0  0  0  0  0
   -0.0330   -2.4315   -7.6034 C   0  0  0  0  0  0  0  0  0  0  0  0
   -0.3419   -1.0458   -7.2382 C   0  0  0  0  0  0  0  0  0  0  0  0
   -0.5300   -0.6092   -6.0724 O   0  0  0  0  0  0  0  0  0  0  0  0
   -0.3153   -0.2381   -8.4503 C   0  0  0  0  0  0  0  0  0  0  0  0
   -0.4310    1.1484   -8.5773 C   0  0  0  0  0  0  0  0  0  0  0  0
   -0.8546    2.1505   -7.1859 Cl  0  0  0  0  0  0  0  0  0  0  0  0
   -0.1743    1.7281   -9.8311 C   0  0  0  0  0  0  0  0  0  0  0  0
   -0.3587    3.4695  -10.0460 Cl  0  0  0  0  0  0  0  0  0  0  0  0
    0.2794    0.9267  -10.9035 C   0  0  0  0  0  0  0  0  0  0  0  0
    0.7090    1.6812  -12.4419 Cl  0  0  0  0  0  0  0  0  0  0  0  0
    0.4073   -0.4724  -10.7458 C   0  0  0  0  0  0  0  0  0  0  0  0
    1.2857   -1.4057  -11.9614 Cl  0  0  0  0  0  0  0  0  0  0  0  0
   -0.0092   -1.0517   -9.5301 C   0  0  0  0  0  0  0  0  0  0  0  0
   -0.0168   -2.4774   -9.0923 C   0  0  0  0  0  0  0  0  0  0  0  0
   -0.4365   -3.5325   -9.8369 C   0  0  0  0  0  0  0  0  0  0  0  0
   -0.7068   -4.8227   -9.2576 C   0  0  0  0  0  0  0  0  0  0  0  0
   -0.9252   -5.8627   -8.7953 N   0  0  0  0  0  0  0  0  0  0  0  0
   -0.8923   -3.3765  -11.1904 C   0  0  0  0  0  0  0  0  0  0  0  0
   -1.2776   -3.2561  -12.2756 N   0  0  0  0  0  0  0  0  0  0  0  0
   -0.6271    5.7209    5.9306 H   0  0  0  0  0  0  0  0  0  0  0  0
   -0.3675    5.3634    1.2424 H   0  0  0  0  0  0  0  0  0  0  0  0
    1.4165    5.2167    0.9565 H   0  0  0  0  0  0  0  0  0  0  0  0
    0.8350    3.6667   -1.0354 H   0  0  0  0  0  0  0  0  0  0  0  0
   -0.8606    4.2767   -0.8487 H   0  0  0  0  0  0  0  0  0  0  0  0
    0.4643    5.4293   -1.2069 H   0  0  0  0  0  0  0  0  0  0  0  0
    2.5111    6.1998    4.7823 H   0  0  0  0  0  0  0  0  0  0  0  0
    2.2614    7.3055    3.4025 H   0  0  0  0  0  0  0  0  0  0  0  0
    3.4257    5.8096    1.8750 H   0  0  0  0  0  0  0  0  0  0  0  0
    3.4828    4.4872    3.1087 H   0  0  0  0  0  0  0  0  0  0  0  0
    4.4412    5.9943    3.3453 H   0  0  0  0  0  0  0  0  0  0  0  0
   -4.6552    0.1805    1.7316 H   0  0  0  0  0  0  0  0  0  0  0  0
   -6.2634    0.0239   -0.1218 H   0  0  0  0  0  0  0  0  0  0  0  0
   -6.1553   -1.1559   -4.2162 H   0  0  0  0  0  0  0  0  0  0  0  0
   -4.4762   -0.6439   -3.7927 H   0  0  0  0  0  0  0  0  0  0  0  0
   -5.5181   -1.4623   -2.5526 H   0  0  0  0  0  0  0  0  0  0  0  0
   -3.5090    2.0931   -2.7011 H   0  0  0  0  0  0  0  0  0  0  0  0
   -1.8969    2.2623   -0.8397 H   0  0  0  0  0  0  0  0  0  0  0  0
   -2.6447    3.8240    2.4265 H   0  0  0  0  0  0  0  0  0  0  0  0
   -3.3196    4.5763    4.6861 H   0  0  0  0  0  0  0  0  0  0  0  0
   -6.0195    2.0713    6.4419 H   0  0  0  0  0  0  0  0  0  0  0  0
   -6.2753    3.3927    7.6484 H   0  0  0  0  0  0  0  0  0  0  0  0
   -5.9251    3.8085    5.9235 H   0  0  0  0  0  0  0  0  0  0  0  0
   -3.4738    0.4792    6.0030 H   0  0  0  0  0  0  0  0  0  0  0  0
   -2.7646   -0.2716    3.7596 H   0  0  0  0  0  0  0  0  0  0  0  0
    0.0800   -4.2610    0.3847 H   0  0  0  0  0  0  0  0  0  0  0  0
   -0.1646   -6.6290   -0.2189 H   0  0  0  0  0  0  0  0  0  0  0  0
    2.8935   -8.7904    0.5373 H   0  0  0  0  0  0  0  0  0  0  0  0
    1.0934   -8.8109    0.8266 H   0  0  0  0  0  0  0  0  0  0  0  0
    1.9189  -10.2601    0.1256 H   0  0  0  0  0  0  0  0  0  0  0  0
    3.7946   -6.6371   -1.8895 H   0  0  0  0  0  0  0  0  0  0  0  0
    4.0374   -4.2430   -1.3376 H   0  0  0  0  0  0  0  0  0  0  0  0
    3.3019   -3.6761    2.1156 H   0  0  0  0  0  0  0  0  0  0  0  0
    5.2215   -2.7579    3.3664 H   0  0  0  0  0  0  0  0  0  0  0  0
    6.4924    1.3131    4.5154 H   0  0  0  0  0  0  0  0  0  0  0  0
    5.1067    0.1572    4.4215 H   0  0  0  0  0  0  0  0  0  0  0  0
    5.3527    1.3964    3.1158 H   0  0  0  0  0  0  0  0  0  0  0  0
    5.6668    0.3388    0.4089 H   0  0  0  0  0  0  0  0  0  0  0  0
    3.7597   -0.5857   -0.8519 H   0  0  0  0  0  0  0  0  0  0  0  0
   -3.7101   -2.9489   -4.3828 H   0  0  0  0  0  0  0  0  0  0  0  0
   -2.9004   -1.9697   -5.6674 H   0  0  0  0  0  0  0  0  0  0  0  0
   -4.4879   -4.5744   -6.0952 H   0  0  0  0  0  0  0  0  0  0  0  0
   -5.0014   -2.8999   -6.5305 H   0  0  0  0  0  0  0  0  0  0  0  0
   -3.6007   -3.6576   -7.3820 H   0  0  0  0  0  0  0  0  0  0  0  0
   -3.0529   -4.9863   -3.2378 H   0  0  0  0  0  0  0  0  0  0  0  0
   -1.8412   -5.3431   -1.9499 H   0  0  0  0  0  0  0  0  0  0  0  0
   -4.5203   -3.8677   -1.5598 H   0  0  0  0  0  0  0  0  0  0  0  0
   -4.1727   -5.5832   -1.1051 H   0  0  0  0  0  0  0  0  0  0  0  0
   -3.3110   -4.2414   -0.2595 H   0  0  0  0  0  0  0  0  0  0  0  0
    0.6832   -4.3656   -7.1366 H   0  0  0  0  0  0  0  0  0  0  0  0
  1  2  2  3
  2  3  1  0
  3  4  2  0
  3  5  1  0
  5  6  2  0
  6  7  1  0
  6  8  1  0
  8  9  1  0
  8 10  2  0
 10 11  1  0
 10 12  1  0
 12 13  1  0
 12 14  2  0
 14 15  1  0
 15 16  2  3
 16 17  1  0
 17 18  3  0
 16 19  1  0
 19 20  3  0
  1 21  1  0
 21 22  2  0
 22 23  1  0
 22 24  1  0
 24 25  1  0
 24 26  2  0
 26 27  1  0
 27 28  1  0
 28 29  1  0
 29 30  1  0
 27 31  2  0
 31 32  1  0
 32 33  1  0
 33 34  1  0
 26 35  1  0
 35 36  2  0
 36 37  1  0
 37 38  1  0
 38 39  2  0
 39 40  1  0
 40 41  2  0
 41 42  1  0
 42 43  1  0
 41 44  1  0
 44 45  2  0
 37 46  1  0
 46 47  2  0
 47 48  1  0
 48 49  2  0
 49 50  1  0
 50 51  1  0
 49 52  1  0
 52 53  2  0
 36 54  1  0
 54 55  1  0
 55 56  1  0
 56 57  2  0
 57 58  1  0
 58 59  1  0
 59 60  2  0
 60 61  1  0
 61 62  2  0
 62 63  1  0
 63 64  1  0
 62 65  1  0
 65 66  2  0
 58 67  1  0
 67 68  2  0
 68 69  1  0
 69 70  2  0
 70 71  1  0
 71 72  1  0
 70 73  1  0
 73 74  2  0
 57 75  1  0
 75 76  1  0
 56 77  1  0
 77 78  2  0
 78 79  1  0
 78 80  1  0
 80 81  1  0
 80 82  2  0
 82 83  1  0
 83 84  1  0
 84 85  1  0
 85 86  1  0
 83 87  2  0
 87 88  1  0
 88 89  1  0
 89 90  1  0
 82 91  1  0
 91 92  2  3
 92 93  1  0
 93 94  2  0
 93 95  1  0
 95 96  2  0
 96 97  1  0
 96 98  1  0
 98 99  1  0
 98100  2  0
100101  1  0
100102  1  0
102103  1  0
102104  2  0
104105  1  0
105106  2  3
106107  1  0
107108  3  0
106109  1  0
109110  3  0
 15  2  1  0
 31 21  1  0
 76 35  1  0
 87 77  1  0
105 92  1  0
 14  5  1  0
 45 38  1  0
 53 46  1  0
 75 54  2  0
104 95  1  0
 66 59  1  0
 74 67  1  0
  1111  1  0
 29112  1  0
 29113  1  0
 30114  1  0
 30115  1  0
 30116  1  0
 33117  1  0
 33118  1  0
 34119  1  0
 34120  1  0
 34121  1  0
 39122  1  0
 40123  1  0
 43124  1  0
 43125  1  0
 43126  1  0
 44127  1  0
 45128  1  0
 47129  1  0
 48130  1  0
 51131  1  0
 51132  1  0
 51133  1  0
 52134  1  0
 53135  1  0
 60136  1  0
 61137  1  0
 64138  1  0
 64139  1  0
 64140  1  0
 65141  1  0
 66142  1  0
 68143  1  0
 69144  1  0
 72145  1  0
 72146  1  0
 72147  1  0
 73148  1  0
 74149  1  0
 85150  1  0
 85151  1  0
 86152  1  0
 86153  1  0
 86154  1  0
 89155  1  0
 89156  1  0
 90157  1  0
 90158  1  0
 90159  1  0
 91160  1  0
M  END

