
     RDKit          3D

135149  0  0  0  0  0  0  0  0999 V2000
   -0.7868    7.0717    1.5378 C   0  0  0  0  0  0  0  0  0  0  0  0
   -1.5905    7.9573    2.1470 C   0  0  0  0  0  0  0  0  0  0  0  0
   -2.5382    7.6973    3.2312 C   0  0  0  0  0  0  0  0  0  0  0  0
   -2.4099    6.8321    4.1392 O   0  0  0  0  0  0  0  0  0  0  0  0
   -3.6466    8.6317    3.0838 C   0  0  0  0  0  0  0  0  0  0  0  0
   -4.9017    8.5929    3.7006 C   0  0  0  0  0  0  0  0  0  0  0  0
   -5.2342    7.4504    5.0020 Cl  0  0  0  0  0  0  0  0  0  0  0  0
   -5.9112    9.4432    3.2171 C   0  0  0  0  0  0  0  0  0  0  0  0
   -7.5030    9.4269    3.9791 Cl  0  0  0  0  0  0  0  0  0  0  0  0
   -5.6745   10.2595    2.0834 C   0  0  0  0  0  0  0  0  0  0  0  0
   -6.9848   11.2261    1.4054 Cl  0  0  0  0  0  0  0  0  0  0  0  0
   -4.4106   10.2533    1.4555 C   0  0  0  0  0  0  0  0  0  0  0  0
   -4.2303   10.9846   -0.1364 Cl  0  0  0  0  0  0  0  0  0  0  0  0
   -3.3692    9.5032    2.0385 C   0  0  0  0  0  0  0  0  0  0  0  0
   -1.9749    9.2669    1.5698 C   0  0  0  0  0  0  0  0  0  0  0  0
   -1.0956   10.2023    1.1392 C   0  0  0  0  0  0  0  0  0  0  0  0
   -1.4708   11.5808    0.9715 C   0  0  0  0  0  0  0  0  0  0  0  0
   -1.7666   12.6903    0.8257 N   0  0  0  0  0  0  0  0  0  0  0  0
    0.3284    9.9391    1.1065 C   0  0  0  0  0  0  0  0  0  0  0  0
    1.4638    9.7413    1.1477 N   0  0  0  0  0  0  0  0  0  0  0  0
   -0.6615    5.6414    1.8884 C   0  0  0  0  0  0  0  0  0  0  0  0
    0.6063    5.0464    1.8872 C   0  0  0  0  0  0  0  0  0  0  0  0
    0.7741    3.6477    2.0515 C   0  0  0  0  0  0  0  0  0  0  0  0
    2.1190    3.1869    1.8835 N   0  0  0  0  0  0  0  0  0  0  0  0
    2.8637    4.5611    1.5752 S   0  0  0  0  0  4  0  0  0  0  0  0
    1.8148    5.7601    1.5997 N   0  0  0  0  0  0  0  0  0  0  0  0
   -0.3307    2.7980    2.1956 C   0  0  0  0  0  0  0  0  0  0  0  0
   -1.6123    3.3784    2.1888 C   0  0  0  0  0  0  0  0  0  0  0  0
   -2.7532    2.6379    2.2469 N   0  0  0  0  0  0  0  0  0  0  0  0
   -3.8945    3.8079    2.0374 S   0  0  0  0  0  0  0  0  0  0  0  0
   -3.0613    5.2196    1.8616 N   0  0  0  0  0  0  0  0  0  0  0  0
   -1.7804    4.7857    2.0009 C   0  0  0  0  0  0  0  0  0  0  0  0
   -0.1695    1.3382    2.0213 C   0  0  0  0  0  0  0  0  0  0  0  0
   -0.7014    0.6145    0.9407 C   0  0  0  0  0  0  0  0  0  0  0  0
   -1.4029    1.2050   -0.1709 N   0  0  0  0  0  0  0  0  0  0  0  0
   -2.6728    0.6529   -0.5943 C   0  0  0  0  0  0  0  0  0  0  0  0
   -3.5227    0.0190    0.3354 C   0  0  0  0  0  0  0  0  0  0  0  0
   -4.7497   -0.5137   -0.0731 C   0  0  0  0  0  0  0  0  0  0  0  0
   -5.1439   -0.4297   -1.4120 C   0  0  0  0  0  0  0  0  0  0  0  0
   -6.7110   -1.1286   -1.9332 S   0  0  0  0  0  0  0  0  0  0  0  0
   -7.6552    0.3834   -1.5532 C   0  0  0  0  0  0  0  0  0  0  0  0
   -4.3072    0.1901   -2.3425 C   0  0  0  0  0  0  0  0  0  0  0  0
   -3.0787    0.7219   -1.9415 C   0  0  0  0  0  0  0  0  0  0  0  0
   -0.7628    2.2869   -0.8887 C   0  0  0  0  0  0  0  0  0  0  0  0
    0.6235    2.2542   -1.1294 C   0  0  0  0  0  0  0  0  0  0  0  0
    1.2605    3.3333   -1.7464 C   0  0  0  0  0  0  0  0  0  0  0  0
    0.5172    4.4419   -2.1593 C   0  0  0  0  0  0  0  0  0  0  0  0
    1.3491    5.8398   -2.9082 S   0  0  0  0  0  0  0  0  0  0  0  0
    1.3287    5.1244   -4.5793 C   0  0  0  0  0  0  0  0  0  0  0  0
   -0.8648    4.4771   -1.9444 C   0  0  0  0  0  0  0  0  0  0  0  0
   -1.5001    3.4107   -1.2985 C   0  0  0  0  0  0  0  0  0  0  0  0
   -0.1946   -0.6750    0.9073 C   0  0  0  0  0  0  0  0  0  0  0  0
   -0.1935   -1.8416   -0.2843 S   0  0  0  0  0  0  0  0  0  0  0  0
    0.9868   -2.7950    0.4776 C   0  0  0  0  0  0  0  0  0  0  0  0
    1.3891   -2.1859    1.6821 C   0  0  0  0  0  0  0  0  0  0  0  0
    2.4187   -2.6797    2.5579 N   0  0  0  0  0  0  0  0  0  0  0  0
    3.7217   -2.9721    2.0248 C   0  0  0  0  0  0  0  0  0  0  0  0
    4.4225   -1.9980    1.2932 C   0  0  0  0  0  0  0  0  0  0  0  0
    5.7126   -2.2619    0.8267 C   0  0  0  0  0  0  0  0  0  0  0  0
    6.3134   -3.4997    1.0855 C   0  0  0  0  0  0  0  0  0  0  0  0
    7.9742   -3.8379    0.4957 S   0  0  0  0  0  0  0  0  0  0  0  0
    8.7719   -3.1975    2.0042 C   0  0  0  0  0  0  0  0  0  0  0  0
    5.6112   -4.4789    1.8044 C   0  0  0  0  0  0  0  0  0  0  0  0
    4.3242   -4.2150    2.2777 C   0  0  0  0  0  0  0  0  0  0  0  0
    2.1702   -2.7759    3.9785 C   0  0  0  0  0  0  0  0  0  0  0  0
    3.1880   -2.4943    4.9073 C   0  0  0  0  0  0  0  0  0  0  0  0
    2.9378   -2.5627    6.2797 C   0  0  0  0  0  0  0  0  0  0  0  0
    1.6617   -2.9080    6.7434 C   0  0  0  0  0  0  0  0  0  0  0  0
    1.3300   -2.9858    8.5065 S   0  0  0  0  0  0  0  0  0  0  0  0
    0.7760   -1.2550    8.6015 C   0  0  0  0  0  0  0  0  0  0  0  0
    0.6405   -3.1996    5.8286 C   0  0  0  0  0  0  0  0  0  0  0  0
    0.8938   -3.1314    4.4543 C   0  0  0  0  0  0  0  0  0  0  0  0
    0.7018   -0.9857    1.8797 C   0  0  0  0  0  0  0  0  0  0  0  0
    0.9352    0.3479    2.8757 S   0  0  0  0  0  0  0  0  0  0  0  0
    1.5214   -3.9919   -0.1717 C   0  0  0  0  0  0  0  0  0  0  0  0
    0.8637   -5.2194   -0.0088 C   0  0  0  0  0  0  0  0  0  0  0  0
    0.9527   -6.2319   -0.9980 C   0  0  0  0  0  0  0  0  0  0  0  0
    0.0799   -7.3483   -0.7862 N   0  0  0  0  0  0  0  0  0  0  0  0
   -0.6358   -6.9035    0.5685 S   0  0  0  0  0  4  0  0  0  0  0  0
   -0.0783   -5.4794    1.0337 N   0  0  0  0  0  0  0  0  0  0  0  0
    1.7214   -6.0497   -2.1560 C   0  0  0  0  0  0  0  0  0  0  0  0
    2.4972   -4.8845   -2.2499 C   0  0  0  0  0  0  0  0  0  0  0  0
    3.3201   -4.6322   -3.3040 N   0  0  0  0  0  0  0  0  0  0  0  0
    3.8119   -3.0976   -2.9474 S   0  0  0  0  0  0  0  0  0  0  0  0
    3.0645   -2.7032   -1.5255 N   0  0  0  0  0  0  0  0  0  0  0  0
    2.3876   -3.8492   -1.2699 C   0  0  0  0  0  0  0  0  0  0  0  0
    1.5038   -6.9045   -3.3436 C   0  0  0  0  0  0  0  0  0  0  0  0
    2.0961   -8.0734   -3.5674 C   0  0  0  0  0  0  0  0  0  0  0  0
    3.0418   -8.6973   -2.6766 C   0  0  0  0  0  0  0  0  0  0  0  0
    3.8024   -9.1923   -1.9587 N   0  0  0  0  0  0  0  0  0  0  0  0
    1.5663   -8.6076   -4.8273 C   0  0  0  0  0  0  0  0  0  0  0  0
    1.9086   -9.7279   -5.4815 C   0  0  0  0  0  0  0  0  0  0  0  0
    2.9384  -10.6162   -5.0073 C   0  0  0  0  0  0  0  0  0  0  0  0
    3.7669  -11.3322   -4.6306 N   0  0  0  0  0  0  0  0  0  0  0  0
    1.2631  -10.0504   -6.7245 C   0  0  0  0  0  0  0  0  0  0  0  0
    0.7414  -10.3069   -7.7287 N   0  0  0  0  0  0  0  0  0  0  0  0
    0.6084   -7.7217   -5.3040 O   0  0  0  0  0  0  0  0  0  0  0  0
    0.4987   -6.5940   -4.4416 C   0  0  0  0  0  0  0  0  0  0  0  0
    0.8627   -5.3195   -5.2205 C   0  0  0  0  0  0  0  0  0  0  0  0
   -0.9305   -6.5052   -3.8852 C   0  0  0  0  0  0  0  0  0  0  0  0
   -0.1979    7.3987    0.6880 H   0  0  0  0  0  0  0  0  0  0  0  0
   -3.2513   -0.0513    1.3807 H   0  0  0  0  0  0  0  0  0  0  0  0
   -5.3942   -0.9988    0.6548 H   0  0  0  0  0  0  0  0  0  0  0  0
   -7.5011    0.6720   -0.4860 H   0  0  0  0  0  0  0  0  0  0  0  0
   -7.3289    1.2169   -2.2194 H   0  0  0  0  0  0  0  0  0  0  0  0
   -8.7419    0.1883   -1.7145 H   0  0  0  0  0  0  0  0  0  0  0  0
   -4.6073    0.2697   -3.3810 H   0  0  0  0  0  0  0  0  0  0  0  0
   -2.4414    1.1806   -2.6877 H   0  0  0  0  0  0  0  0  0  0  0  0
    1.2164    1.4003   -0.8200 H   0  0  0  0  0  0  0  0  0  0  0  0
    2.3320    3.3071   -1.8942 H   0  0  0  0  0  0  0  0  0  0  0  0
    0.2846    5.0571   -4.9503 H   0  0  0  0  0  0  0  0  0  0  0  0
    1.9143    5.7795   -5.2550 H   0  0  0  0  0  0  0  0  0  0  0  0
    1.7908    4.1155   -4.5739 H   0  0  0  0  0  0  0  0  0  0  0  0
   -1.4421    5.3407   -2.2394 H   0  0  0  0  0  0  0  0  0  0  0  0
   -2.5617    3.4745   -1.0933 H   0  0  0  0  0  0  0  0  0  0  0  0
    3.9761   -1.0286    1.1061 H   0  0  0  0  0  0  0  0  0  0  0  0
    6.2505   -1.4986    0.2724 H   0  0  0  0  0  0  0  0  0  0  0  0
    8.5654   -2.1143    2.1164 H   0  0  0  0  0  0  0  0  0  0  0  0
    9.8676   -3.3489    1.9275 H   0  0  0  0  0  0  0  0  0  0  0  0
    8.4024   -3.7486    2.8981 H   0  0  0  0  0  0  0  0  0  0  0  0
    6.0672   -5.4375    2.0043 H   0  0  0  0  0  0  0  0  0  0  0  0
    3.7927   -4.9678    2.8425 H   0  0  0  0  0  0  0  0  0  0  0  0
    4.1732   -2.1939    4.5747 H   0  0  0  0  0  0  0  0  0  0  0  0
    3.7275   -2.3329    6.9861 H   0  0  0  0  0  0  0  0  0  0  0  0
    1.5802   -0.5702    8.2432 H   0  0  0  0  0  0  0  0  0  0  0  0
    0.5421   -1.0112    9.6609 H   0  0  0  0  0  0  0  0  0  0  0  0
   -0.1375   -1.1168    7.9882 H   0  0  0  0  0  0  0  0  0  0  0  0
   -0.3465   -3.4776    6.1795 H   0  0  0  0  0  0  0  0  0  0  0  0
    0.0929   -3.3622    3.7604 H   0  0  0  0  0  0  0  0  0  0  0  0
    0.1027   -5.1116   -6.0069 H   0  0  0  0  0  0  0  0  0  0  0  0
    1.8429   -5.4495   -5.7252 H   0  0  0  0  0  0  0  0  0  0  0  0
    0.9095   -4.4380   -4.5500 H   0  0  0  0  0  0  0  0  0  0  0  0
   -1.6573   -6.3755   -4.7183 H   0  0  0  0  0  0  0  0  0  0  0  0
   -1.1880   -7.4312   -3.3328 H   0  0  0  0  0  0  0  0  0  0  0  0
   -1.0342   -5.6380   -3.1935 H   0  0  0  0  0  0  0  0  0  0  0  0
  1  2  2  3
  2  3  1  0
  3  4  2  0
  3  5  1  0
  5  6  2  0
  6  7  1  0
  6  8  1  0
  8  9  1  0
  8 10  2  0
 10 11  1  0
 10 12  1  0
 12 13  1  0
 12 14  2  0
 14 15  1  0
 15 16  2  3
 16 17  1  0
 17 18  3  0
 16 19  1  0
 19 20  3  0
  1 21  1  0
 21 22  2  0
 22 23  1  0
 23 24  1  0
 24 25  2  0
 25 26  2  0
 23 27  2  0
 27 28  1  0
 28 29  2  0
 29 30  1  0
 30 31  1  0
 31 32  2  0
 27 33  1  0
 33 34  2  0
 34 35  1  0
 35 36  1  0
 36 37  2  0
 37 38  1  0
 38 39  2  0
 39 40  1  0
 40 41  1  0
 39 42  1  0
 42 43  2  0
 35 44  1  0
 44 45  2  0
 45 46  1  0
 46 47  2  0
 47 48  1  0
 48 49  1  0
 47 50  1  0
 50 51  2  0
 34 52  1  0
 52 53  1  0
 53 54  1  0
 54 55  2  0
 55 56  1  0
 56 57  1  0
 57 58  2  0
 58 59  1  0
 59 60  2  0
 60 61  1  0
 61 62  1  0
 60 63  1  0
 63 64  2  0
 56 65  1  0
 65 66  2  0
 66 67  1  0
 67 68  2  0
 68 69  1  0
 69 70  1  0
 68 71  1  0
 71 72  2  0
 55 73  1  0
 73 74  1  0
 54 75  1  0
 75 76  2  0
 76 77  1  0
 77 78  1  0
 78 79  2  0
 79 80  2  0
 77 81  2  0
 81 82  1  0
 82 83  2  0
 83 84  1  0
 84 85  1  0
 85 86  2  0
 81 87  1  0
 87 88  2  0
 88 89  1  0
 89 90  3  0
 88 91  1  0
 91 92  2  3
 92 93  1  0
 93 94  3  0
 92 95  1  0
 95 96  3  0
 91 97  1  0
 97 98  1  0
 98 99  1  0
 98100  1  0
 15  2  1  0
 32 21  1  0
 74 33  1  0
 86 75  1  0
 98 87  1  0
 14  5  1  0
 26 22  1  0
 32 28  1  0
 43 36  1  0
 51 44  1  0
 73 52  2  0
 80 76  1  0
 86 82  1  0
 64 57  1  0
 72 65  1  0
  1101  1  0
 37102  1  0
 38103  1  0
 41104  1  0
 41105  1  0
 41106  1  0
 42107  1  0
 43108  1  0
 45109  1  0
 46110  1  0
 49111  1  0
 49112  1  0
 49113  1  0
 50114  1  0
 51115  1  0
 58116  1  0
 59117  1  0
 62118  1  0
 62119  1  0
 62120  1  0
 63121  1  0
 64122  1  0
 66123  1  0
 67124  1  0
 70125  1  0
 70126  1  0
 70127  1  0
 71128  1  0
 72129  1  0
 99130  1  0
 99131  1  0
 99132  1  0
100133  1  0
100134  1  0
100135  1  0
M  END

