
     RDKit          3D

140154  0  0  0  0  0  0  0  0999 V2000
   -8.5416   -1.0036   -0.0530 C   0  0  0  0  0  0  0  0  0  0  0  0
   -9.2925   -0.6930   -1.1312 C   0  0  0  0  0  0  0  0  0  0  0  0
   -8.7966   -0.4465   -2.4931 C   0  0  0  0  0  0  0  0  0  0  0  0
   -7.5945   -0.4922   -2.8658 O   0  0  0  0  0  0  0  0  0  0  0  0
   -9.8992    0.0229   -3.3192 C   0  0  0  0  0  0  0  0  0  0  0  0
   -9.8627    0.4852   -4.6424 C   0  0  0  0  0  0  0  0  0  0  0  0
   -8.4176    0.2888   -5.6319 Cl  0  0  0  0  0  0  0  0  0  0  0  0
  -11.0112    1.1152   -5.1605 C   0  0  0  0  0  0  0  0  0  0  0  0
  -11.0213    1.6842   -6.8302 Cl  0  0  0  0  0  0  0  0  0  0  0  0
  -12.1281    1.3506   -4.3238 C   0  0  0  0  0  0  0  0  0  0  0  0
  -13.5020    2.2710   -4.9385 Cl  0  0  0  0  0  0  0  0  0  0  0  0
  -12.1270    0.8938   -2.9848 C   0  0  0  0  0  0  0  0  0  0  0  0
  -13.3512    1.4965   -1.8643 Cl  0  0  0  0  0  0  0  0  0  0  0  0
  -11.0322    0.1257   -2.5331 C   0  0  0  0  0  0  0  0  0  0  0  0
  -10.7651   -0.4439   -1.1809 C   0  0  0  0  0  0  0  0  0  0  0  0
  -11.6947   -1.0099   -0.3754 C   0  0  0  0  0  0  0  0  0  0  0  0
  -13.0017   -1.3543   -0.8778 C   0  0  0  0  0  0  0  0  0  0  0  0
  -14.0478   -1.6462   -1.2835 N   0  0  0  0  0  0  0  0  0  0  0  0
  -11.4275   -1.4289    0.9754 C   0  0  0  0  0  0  0  0  0  0  0  0
  -11.2429   -1.7357    2.0791 N   0  0  0  0  0  0  0  0  0  0  0  0
   -7.0833   -1.2463   -0.1120 C   0  0  0  0  0  0  0  0  0  0  0  0
   -6.2112   -0.4184    0.6044 C   0  0  0  0  0  0  0  0  0  0  0  0
   -4.8077   -0.5405    0.4713 C   0  0  0  0  0  0  0  0  0  0  0  0
   -4.0519    0.4154    1.2234 N   0  0  0  0  0  0  0  0  0  0  0  0
   -5.2291    1.2411    1.9141 S   0  0  0  0  0  4  0  0  0  0  0  0
   -6.6390    0.6460    1.4623 N   0  0  0  0  0  0  0  0  0  0  0  0
   -4.2344   -1.5006   -0.3781 C   0  0  0  0  0  0  0  0  0  0  0  0
   -5.0973   -2.3744   -1.0591 C   0  0  0  0  0  0  0  0  0  0  0  0
   -4.6542   -3.3314   -1.9159 N   0  0  0  0  0  0  0  0  0  0  0  0
   -6.0893   -3.9988   -2.3875 S   0  0  0  0  0  0  0  0  0  0  0  0
   -7.2694   -3.1525   -1.6053 N   0  0  0  0  0  0  0  0  0  0  0  0
   -6.5185   -2.2647   -0.9035 C   0  0  0  0  0  0  0  0  0  0  0  0
   -2.7810   -1.5005   -0.6041 C   0  0  0  0  0  0  0  0  0  0  0  0
   -1.8509   -2.2934    0.0830 C   0  0  0  0  0  0  0  0  0  0  0  0
   -2.1803   -3.4388    0.8832 N   0  0  0  0  0  0  0  0  0  0  0  0
   -2.6835   -4.6227    0.2302 C   0  0  0  0  0  0  0  0  0  0  0  0
   -2.1632   -5.0253   -1.0133 C   0  0  0  0  0  0  0  0  0  0  0  0
   -2.6620   -6.1628   -1.6548 C   0  0  0  0  0  0  0  0  0  0  0  0
   -3.6891   -6.9084   -1.0663 C   0  0  0  0  0  0  0  0  0  0  0  0
   -4.2963   -8.3908   -1.8806 S   0  0  0  0  0  0  0  0  0  0  0  0
   -5.5675   -7.5101   -2.8373 C   0  0  0  0  0  0  0  0  0  0  0  0
   -4.2097   -6.5187    0.1722 C   0  0  0  0  0  0  0  0  0  0  0  0
   -3.7114   -5.3792    0.8178 C   0  0  0  0  0  0  0  0  0  0  0  0
   -1.8397   -3.4378    2.2861 C   0  0  0  0  0  0  0  0  0  0  0  0
   -1.9869   -2.2671    3.0502 C   0  0  0  0  0  0  0  0  0  0  0  0
   -1.6024   -2.2425    4.3923 C   0  0  0  0  0  0  0  0  0  0  0  0
   -1.0653   -3.3850    4.9905 C   0  0  0  0  0  0  0  0  0  0  0  0
   -0.5299   -3.3356    6.7037 S   0  0  0  0  0  0  0  0  0  0  0  0
   -2.1450   -3.8627    7.3606 C   0  0  0  0  0  0  0  0  0  0  0  0
   -0.9231   -4.5587    4.2431 C   0  0  0  0  0  0  0  0  0  0  0  0
   -1.3098   -4.5875    2.8992 C   0  0  0  0  0  0  0  0  0  0  0  0
   -0.5583   -1.7928   -0.0619 C   0  0  0  0  0  0  0  0  0  0  0  0
    0.9457   -2.1878    0.5722 S   0  0  0  0  0  0  0  0  0  0  0  0
    1.7472   -0.8659   -0.1575 C   0  0  0  0  0  0  0  0  0  0  0  0
    0.8183   -0.1294   -0.9123 C   0  0  0  0  0  0  0  0  0  0  0  0
    1.1153    1.0795   -1.6300 N   0  0  0  0  0  0  0  0  0  0  0  0
    1.3452    2.2691   -0.8558 C   0  0  0  0  0  0  0  0  0  0  0  0
    2.6087    2.8800   -0.8513 C   0  0  0  0  0  0  0  0  0  0  0  0
    2.8075    4.0762   -0.1529 C   0  0  0  0  0  0  0  0  0  0  0  0
    1.7417    4.6698    0.5363 C   0  0  0  0  0  0  0  0  0  0  0  0
    1.9714    6.2371    1.3794 S   0  0  0  0  0  0  0  0  0  0  0  0
    2.2706    5.4777    3.0075 C   0  0  0  0  0  0  0  0  0  0  0  0
    0.4794    4.0630    0.5259 C   0  0  0  0  0  0  0  0  0  0  0  0
    0.2835    2.8654   -0.1616 C   0  0  0  0  0  0  0  0  0  0  0  0
    0.9539    1.1406   -3.0727 C   0  0  0  0  0  0  0  0  0  0  0  0
    0.7873   -0.0400   -3.8321 C   0  0  0  0  0  0  0  0  0  0  0  0
    0.6265    0.0203   -5.2196 C   0  0  0  0  0  0  0  0  0  0  0  0
    0.6220    1.2530   -5.8731 C   0  0  0  0  0  0  0  0  0  0  0  0
    0.3895    1.3309   -7.6515 S   0  0  0  0  0  0  0  0  0  0  0  0
    2.1595    1.1123   -8.0170 C   0  0  0  0  0  0  0  0  0  0  0  0
    0.7876    2.4309   -5.1382 C   0  0  0  0  0  0  0  0  0  0  0  0
    0.9487    2.3795   -3.7514 C   0  0  0  0  0  0  0  0  0  0  0  0
   -0.4570   -0.6788   -0.8251 C   0  0  0  0  0  0  0  0  0  0  0  0
   -1.9700   -0.2047   -1.3613 S   0  0  0  0  0  0  0  0  0  0  0  0
    3.1884   -0.5476   -0.0074 C   0  0  0  0  0  0  0  0  0  0  0  0
    3.7820   -0.3711    1.2684 C   0  0  0  0  0  0  0  0  0  0  0  0
    2.9930   -0.5621    2.4715 C   0  0  0  0  0  0  0  0  0  0  0  0
    2.3637   -0.7074    3.4307 N   0  0  0  0  0  0  0  0  0  0  0  0
    5.1345    0.0419    1.3789 C   0  0  0  0  0  0  0  0  0  0  0  0
    5.7661    0.1110    2.6854 C   0  0  0  0  0  0  0  0  0  0  0  0
    6.2746    0.1608    3.7252 N   0  0  0  0  0  0  0  0  0  0  0  0
    5.8788    0.3764    0.2194 C   0  0  0  0  0  0  0  0  0  0  0  0
    5.3157    0.1177   -1.0351 C   0  0  0  0  0  0  0  0  0  0  0  0
    3.9833   -0.3616   -1.1476 C   0  0  0  0  0  0  0  0  0  0  0  0
    3.5366   -0.6072   -2.4043 N   0  0  0  0  0  0  0  0  0  0  0  0
    4.8552   -0.1713   -3.2939 S   0  0  0  0  0  0  0  0  0  0  0  0
    5.9899    0.3136   -2.1998 N   0  0  0  0  0  0  0  0  0  0  0  0
    7.2490    0.9433    0.2964 C   0  0  0  0  0  0  0  0  0  0  0  0
    7.5465    2.0963    0.9315 C   0  0  0  0  0  0  0  0  0  0  0  0
    6.5680    3.0661    1.4416 C   0  0  0  0  0  0  0  0  0  0  0  0
    5.3169    2.9198    1.4895 O   0  0  0  0  0  0  0  0  0  0  0  0
    7.2588    4.2888    1.7717 C   0  0  0  0  0  0  0  0  0  0  0  0
    6.7097    5.4826    2.2376 C   0  0  0  0  0  0  0  0  0  0  0  0
    7.5547    6.5851    2.4345 C   0  0  0  0  0  0  0  0  0  0  0  0
    6.9998    7.8767    2.9634 C   0  0  0  0  0  0  0  0  0  0  0  0
    8.9357    6.4608    2.1647 C   0  0  0  0  0  0  0  0  0  0  0  0
    9.7696    7.5175    2.3573 F   0  0  0  0  0  0  0  0  0  0  0  0
    9.4637    5.2485    1.6874 C   0  0  0  0  0  0  0  0  0  0  0  0
    8.6097    4.1475    1.5114 C   0  0  0  0  0  0  0  0  0  0  0  0
    8.8887    2.7547    1.0444 C   0  0  0  0  0  0  0  0  0  0  0  0
   10.1045    2.1585    0.9305 C   0  0  0  0  0  0  0  0  0  0  0  0
   10.2555    0.7436    0.6947 C   0  0  0  0  0  0  0  0  0  0  0  0
   10.3904   -0.3910    0.5091 N   0  0  0  0  0  0  0  0  0  0  0  0
   11.3433    2.8558    1.1536 C   0  0  0  0  0  0  0  0  0  0  0  0
   12.3497    3.4001    1.3322 N   0  0  0  0  0  0  0  0  0  0  0  0
   -8.9709   -0.9630    0.9340 H   0  0  0  0  0  0  0  0  0  0  0  0
   -1.3688   -4.4624   -1.4855 H   0  0  0  0  0  0  0  0  0  0  0  0
   -2.2516   -6.4621   -2.6088 H   0  0  0  0  0  0  0  0  0  0  0  0
   -6.3333   -7.0861   -2.1525 H   0  0  0  0  0  0  0  0  0  0  0  0
   -5.1029   -6.6987   -3.4330 H   0  0  0  0  0  0  0  0  0  0  0  0
   -6.0605   -8.2176   -3.5358 H   0  0  0  0  0  0  0  0  0  0  0  0
   -4.9984   -7.0954    0.6374 H   0  0  0  0  0  0  0  0  0  0  0  0
   -4.1295   -5.0820    1.7702 H   0  0  0  0  0  0  0  0  0  0  0  0
   -2.3969   -1.3711    2.6043 H   0  0  0  0  0  0  0  0  0  0  0  0
   -1.7161   -1.3305    4.9624 H   0  0  0  0  0  0  0  0  0  0  0  0
   -2.4127   -4.8615    6.9552 H   0  0  0  0  0  0  0  0  0  0  0  0
   -2.0823   -3.9272    8.4645 H   0  0  0  0  0  0  0  0  0  0  0  0
   -2.9280   -3.1249    7.0882 H   0  0  0  0  0  0  0  0  0  0  0  0
   -0.4993   -5.4456    4.7008 H   0  0  0  0  0  0  0  0  0  0  0  0
   -1.1651   -5.4986    2.3315 H   0  0  0  0  0  0  0  0  0  0  0  0
    3.4297    2.4394   -1.4013 H   0  0  0  0  0  0  0  0  0  0  0  0
    3.7802    4.5544   -0.1693 H   0  0  0  0  0  0  0  0  0  0  0  0
    2.1180    6.2425    3.7904 H   0  0  0  0  0  0  0  0  0  0  0  0
    1.5683    4.6422    3.1986 H   0  0  0  0  0  0  0  0  0  0  0  0
    3.3118    5.1020    3.0649 H   0  0  0  0  0  0  0  0  0  0  0  0
   -0.3488    4.5276    1.0429 H   0  0  0  0  0  0  0  0  0  0  0  0
   -0.7002    2.4128   -0.1718 H   0  0  0  0  0  0  0  0  0  0  0  0
    0.7918   -1.0131   -3.3630 H   0  0  0  0  0  0  0  0  0  0  0  0
    0.5019   -0.8971   -5.7842 H   0  0  0  0  0  0  0  0  0  0  0  0
    2.3287    1.2661   -9.1011 H   0  0  0  0  0  0  0  0  0  0  0  0
    2.7623    1.8560   -7.4526 H   0  0  0  0  0  0  0  0  0  0  0  0
    2.4735    0.0849   -7.7422 H   0  0  0  0  0  0  0  0  0  0  0  0
    0.7777    3.3904   -5.6377 H   0  0  0  0  0  0  0  0  0  0  0  0
    1.0545    3.3125   -3.2171 H   0  0  0  0  0  0  0  0  0  0  0  0
    7.9908    0.4554   -0.3092 H   0  0  0  0  0  0  0  0  0  0  0  0
    5.6443    5.5541    2.4225 H   0  0  0  0  0  0  0  0  0  0  0  0
    7.3044    8.0043    4.0250 H   0  0  0  0  0  0  0  0  0  0  0  0
    5.8909    7.8880    2.9082 H   0  0  0  0  0  0  0  0  0  0  0  0
    7.3852    8.7309    2.3700 H   0  0  0  0  0  0  0  0  0  0  0  0
   10.5173    5.2090    1.4649 H   0  0  0  0  0  0  0  0  0  0  0  0
  1  2  2  3
  2  3  1  0
  3  4  2  0
  3  5  1  0
  5  6  2  0
  6  7  1  0
  6  8  1  0
  8  9  1  0
  8 10  2  0
 10 11  1  0
 10 12  1  0
 12 13  1  0
 12 14  2  0
 14 15  1  0
 15 16  2  3
 16 17  1  0
 17 18  3  0
 16 19  1  0
 19 20  3  0
  1 21  1  0
 21 22  2  0
 22 23  1  0
 23 24  1  0
 24 25  2  0
 25 26  2  0
 23 27  2  0
 27 28  1  0
 28 29  2  0
 29 30  1  0
 30 31  1  0
 31 32  2  0
 27 33  1  0
 33 34  2  0
 34 35  1  0
 35 36  1  0
 36 37  2  0
 37 38  1  0
 38 39  2  0
 39 40  1  0
 40 41  1  0
 39 42  1  0
 42 43  2  0
 35 44  1  0
 44 45  2  0
 45 46  1  0
 46 47  2  0
 47 48  1  0
 48 49  1  0
 47 50  1  0
 50 51  2  0
 34 52  1  0
 52 53  1  0
 53 54  1  0
 54 55  2  0
 55 56  1  0
 56 57  1  0
 57 58  2  0
 58 59  1  0
 59 60  2  0
 60 61  1  0
 61 62  1  0
 60 63  1  0
 63 64  2  0
 56 65  1  0
 65 66  2  0
 66 67  1  0
 67 68  2  0
 68 69  1  0
 69 70  1  0
 68 71  1  0
 71 72  2  0
 55 73  1  0
 73 74  1  0
 54 75  1  0
 75 76  2  0
 76 77  1  0
 77 78  3  0
 76 79  1  0
 79 80  1  0
 80 81  3  0
 79 82  2  0
 82 83  1  0
 83 84  1  0
 84 85  2  0
 85 86  1  0
 86 87  1  0
 82 88  1  0
 88 89  2  3
 89 90  1  0
 90 91  2  0
 90 92  1  0
 92 93  2  0
 93 94  1  0
 94 95  1  0
 94 96  2  0
 96 97  1  0
 96 98  1  0
 98 99  2  0
 99100  1  0
100101  2  3
101102  1  0
102103  3  0
101104  1  0
104105  3  0
 15  2  1  0
 32 21  1  0
 74 33  1  0
 84 75  1  0
100 89  1  0
 14  5  1  0
 26 22  1  0
 32 28  1  0
 43 36  1  0
 51 44  1  0
 73 52  2  0
 87 83  2  0
 99 92  1  0
 64 57  1  0
 72 65  1  0
  1106  1  0
 37107  1  0
 38108  1  0
 41109  1  0
 41110  1  0
 41111  1  0
 42112  1  0
 43113  1  0
 45114  1  0
 46115  1  0
 49116  1  0
 49117  1  0
 49118  1  0
 50119  1  0
 51120  1  0
 58121  1  0
 59122  1  0
 62123  1  0
 62124  1  0
 62125  1  0
 63126  1  0
 64127  1  0
 66128  1  0
 67129  1  0
 70130  1  0
 70131  1  0
 70132  1  0
 71133  1  0
 72134  1  0
 88135  1  0
 93136  1  0
 95137  1  0
 95138  1  0
 95139  1  0
 98140  1  0
M  END

