
     RDKit          3D

168185  0  0  0  0  0  0  0  0999 V2000
    3.7023   -6.2724    3.5455 C   0  0  0  0  0  0  0  0  0  0  0  0
    5.0049   -5.9355    3.5113 C   0  0  0  0  0  0  0  0  0  0  0  0
    5.5802   -4.6373    3.8790 C   0  0  0  0  0  0  0  0  0  0  0  0
    4.9570   -3.5470    3.9735 O   0  0  0  0  0  0  0  0  0  0  0  0
    7.0060   -4.8252    4.1072 C   0  0  0  0  0  0  0  0  0  0  0  0
    7.9196   -3.9394    4.6884 C   0  0  0  0  0  0  0  0  0  0  0  0
    7.4444   -2.2832    5.0741 Cl  0  0  0  0  0  0  0  0  0  0  0  0
    9.2029   -4.4189    5.0054 C   0  0  0  0  0  0  0  0  0  0  0  0
   10.3960   -3.3256    5.7103 Cl  0  0  0  0  0  0  0  0  0  0  0  0
    9.5183   -5.7853    4.8082 C   0  0  0  0  0  0  0  0  0  0  0  0
   11.0739   -6.4144    5.3564 Cl  0  0  0  0  0  0  0  0  0  0  0  0
    8.5728   -6.6652    4.2391 C   0  0  0  0  0  0  0  0  0  0  0  0
    8.8414   -8.4077    4.3116 Cl  0  0  0  0  0  0  0  0  0  0  0  0
    7.3406   -6.1390    3.8057 C   0  0  0  0  0  0  0  0  0  0  0  0
    6.1539   -6.8365    3.2333 C   0  0  0  0  0  0  0  0  0  0  0  0
    6.1884   -7.7676    2.2463 C   0  0  0  0  0  0  0  0  0  0  0  0
    7.4251   -8.1798    1.6311 C   0  0  0  0  0  0  0  0  0  0  0  0
    8.4122   -8.5045    1.1209 N   0  0  0  0  0  0  0  0  0  0  0  0
    4.9949   -8.2315    1.5842 C   0  0  0  0  0  0  0  0  0  0  0  0
    4.0469   -8.6112    1.0384 N   0  0  0  0  0  0  0  0  0  0  0  0
    2.6396   -5.2706    3.7291 C   0  0  0  0  0  0  0  0  0  0  0  0
    2.3677   -4.6957    4.9802 C   0  0  0  0  0  0  0  0  0  0  0  0
    1.4313   -3.6389    5.1172 C   0  0  0  0  0  0  0  0  0  0  0  0
    1.3097   -3.1122    6.4420 N   0  0  0  0  0  0  0  0  0  0  0  0
    2.3620   -4.0361    7.2134 S   0  0  0  0  0  4  0  0  0  0  0  0
    3.0318   -5.0630    6.1926 N   0  0  0  0  0  0  0  0  0  0  0  0
    0.7335   -3.1408    4.0061 C   0  0  0  0  0  0  0  0  0  0  0  0
    0.9844   -3.7315    2.7534 C   0  0  0  0  0  0  0  0  0  0  0  0
    0.4088   -3.2941    1.6044 N   0  0  0  0  0  0  0  0  0  0  0  0
    1.1053   -4.3036    0.4995 S   0  0  0  0  0  0  0  0  0  0  0  0
    2.1279   -5.2729    1.3615 N   0  0  0  0  0  0  0  0  0  0  0  0
    1.9243   -4.7990    2.6186 C   0  0  0  0  0  0  0  0  0  0  0  0
   -0.0721   -1.9112    4.0885 C   0  0  0  0  0  0  0  0  0  0  0  0
   -1.4252   -1.8531    3.7103 C   0  0  0  0  0  0  0  0  0  0  0  0
   -2.3454   -2.9573    3.8634 N   0  0  0  0  0  0  0  0  0  0  0  0
   -2.3214   -3.7075    5.0979 C   0  0  0  0  0  0  0  0  0  0  0  0
   -2.1797   -3.0441    6.3311 C   0  0  0  0  0  0  0  0  0  0  0  0
   -2.2182   -3.7603    7.5295 C   0  0  0  0  0  0  0  0  0  0  0  0
   -2.4003   -5.1478    7.5115 C   0  0  0  0  0  0  0  0  0  0  0  0
   -2.4923   -6.0572    9.0542 S   0  0  0  0  0  0  0  0  0  0  0  0
   -4.2992   -5.8709    9.1909 C   0  0  0  0  0  0  0  0  0  0  0  0
   -2.5156   -5.8188    6.2876 C   0  0  0  0  0  0  0  0  0  0  0  0
   -2.4772   -5.1041    5.0872 C   0  0  0  0  0  0  0  0  0  0  0  0
   -3.3866   -3.2097    2.8954 C   0  0  0  0  0  0  0  0  0  0  0  0
   -4.7059   -3.4670    3.3178 C   0  0  0  0  0  0  0  0  0  0  0  0
   -5.7166   -3.7007    2.3798 C   0  0  0  0  0  0  0  0  0  0  0  0
   -5.4217   -3.6746    1.0115 C   0  0  0  0  0  0  0  0  0  0  0  0
   -6.7204   -3.9597   -0.1931 S   0  0  0  0  0  0  0  0  0  0  0  0
   -6.4518   -5.7589   -0.2305 C   0  0  0  0  0  0  0  0  0  0  0  0
   -4.1146   -3.4238    0.5857 C   0  0  0  0  0  0  0  0  0  0  0  0
   -3.1002   -3.2029    1.5189 C   0  0  0  0  0  0  0  0  0  0  0  0
   -1.7583   -0.5925    3.2076 C   0  0  0  0  0  0  0  0  0  0  0  0
   -2.9766   -0.0469    2.1961 S   0  0  0  0  0  0  0  0  0  0  0  0
   -2.1650    1.3718    1.7069 C   0  0  0  0  0  0  0  0  0  0  0  0
   -0.9453    1.4415    2.4066 C   0  0  0  0  0  0  0  0  0  0  0  0
    0.0333    2.4856    2.2552 N   0  0  0  0  0  0  0  0  0  0  0  0
    1.3718    2.1277    1.8614 C   0  0  0  0  0  0  0  0  0  0  0  0
    2.4647    2.4611    2.6766 C   0  0  0  0  0  0  0  0  0  0  0  0
    3.7561    2.0541    2.3240 C   0  0  0  0  0  0  0  0  0  0  0  0
    3.9646    1.3162    1.1518 C   0  0  0  0  0  0  0  0  0  0  0  0
    5.6187    0.7933    0.7026 S   0  0  0  0  0  0  0  0  0  0  0  0
    5.9980    2.3254   -0.2041 C   0  0  0  0  0  0  0  0  0  0  0  0
    2.8769    0.9841    0.3343 C   0  0  0  0  0  0  0  0  0  0  0  0
    1.5845    1.3791    0.6903 C   0  0  0  0  0  0  0  0  0  0  0  0
   -0.2715    3.8292    2.7043 C   0  0  0  0  0  0  0  0  0  0  0  0
   -1.2598    4.0571    3.6846 C   0  0  0  0  0  0  0  0  0  0  0  0
   -1.5475    5.3535    4.1132 C   0  0  0  0  0  0  0  0  0  0  0  0
   -0.8595    6.4432    3.5708 C   0  0  0  0  0  0  0  0  0  0  0  0
   -1.2238    8.1051    4.1317 S   0  0  0  0  0  0  0  0  0  0  0  0
   -0.0165    8.0379    5.4924 C   0  0  0  0  0  0  0  0  0  0  0  0
    0.1149    6.2314    2.5922 C   0  0  0  0  0  0  0  0  0  0  0  0
    0.4083    4.9358    2.1581 C   0  0  0  0  0  0  0  0  0  0  0  0
   -0.7443    0.3142    3.2012 C   0  0  0  0  0  0  0  0  0  0  0  0
    0.6452   -0.3975    3.8049 S   0  0  0  0  0  0  0  0  0  0  0  0
   -2.3976    1.9764    0.3810 C   0  0  0  0  0  0  0  0  0  0  0  0
   -2.9290    1.2729   -0.6967 C   0  0  0  0  0  0  0  0  0  0  0  0
   -2.7316    1.8987   -1.9336 C   0  0  0  0  0  0  0  0  0  0  0  0
   -3.0320    1.3521   -3.2025 C   0  0  0  0  0  0  0  0  0  0  0  0
   -3.5257   -0.0343   -3.3699 C   0  0  0  0  0  0  0  0  0  0  0  0
   -4.5705   -0.4342   -4.2011 C   0  0  0  0  0  0  0  0  0  0  0  0
   -4.7566   -1.8209   -4.2359 C   0  0  0  0  0  0  0  0  0  0  0  0
   -3.8589   -2.5105   -3.4380 C   0  0  0  0  0  0  0  0  0  0  0  0
   -3.8377   -4.2891   -3.2016 S   0  0  0  0  0  0  0  0  0  0  0  0
   -2.6401   -4.6219   -4.5395 C   0  0  0  0  0  0  0  0  0  0  0  0
   -1.2108   -4.4940   -4.0267 C   0  0  0  0  0  0  0  0  0  0  0  0
   -2.8308   -1.4143   -2.6898 S   0  0  0  0  0  0  0  0  0  0  0  0
   -2.7618    2.1713   -4.3143 C   0  0  0  0  0  0  0  0  0  0  0  0
   -2.1979    3.4463   -4.2025 C   0  0  0  0  0  0  0  0  0  0  0  0
   -1.7909    3.9445   -2.9449 C   0  0  0  0  0  0  0  0  0  0  0  0
   -0.9532    5.1618   -2.8182 C   0  0  0  0  0  0  0  0  0  0  0  0
    0.1404    5.4739   -3.6263 C   0  0  0  0  0  0  0  0  0  0  0  0
    0.7951    6.6498   -3.2508 C   0  0  0  0  0  0  0  0  0  0  0  0
    0.2411    7.2481   -2.1311 C   0  0  0  0  0  0  0  0  0  0  0  0
    0.8335    8.7431   -1.3347 S   0  0  0  0  0  0  0  0  0  0  0  0
    2.0756    7.8954   -0.2954 C   0  0  0  0  0  0  0  0  0  0  0  0
    3.4462    7.9314   -0.9572 C   0  0  0  0  0  0  0  0  0  0  0  0
   -1.0727    6.3402   -1.6151 S   0  0  0  0  0  0  0  0  0  0  0  0
   -2.1075    3.1486   -1.8231 C   0  0  0  0  0  0  0  0  0  0  0  0
   -1.7137    3.4048   -0.2057 S   0  0  0  0  0  0  0  0  0  0  0  0
   -2.0636    4.0967   -5.4455 C   0  0  0  0  0  0  0  0  0  0  0  0
   -2.4490    3.3150   -6.5331 C   0  0  0  0  0  0  0  0  0  0  0  0
   -2.9678    1.8194   -5.9441 S   0  0  0  0  0  0  0  0  0  0  0  0
   -2.3439    3.7771   -7.9339 C   0  0  0  0  0  0  0  0  0  0  0  0
   -2.1863    2.9998   -9.0190 C   0  0  0  0  0  0  0  0  0  0  0  0
   -1.4161    3.4549  -10.1769 C   0  0  0  0  0  0  0  0  0  0  0  0
   -1.3304    4.6475  -10.5764 O   0  0  0  0  0  0  0  0  0  0  0  0
   -0.6870    2.3159  -10.7168 C   0  0  0  0  0  0  0  0  0  0  0  0
    0.3754    2.2948  -11.6264 C   0  0  0  0  0  0  0  0  0  0  0  0
    0.8320    3.7522  -12.5086 Cl  0  0  0  0  0  0  0  0  0  0  0  0
    1.0888    1.0899  -11.7971 C   0  0  0  0  0  0  0  0  0  0  0  0
    2.4435    1.0263  -12.9218 Cl  0  0  0  0  0  0  0  0  0  0  0  0
    0.7684   -0.0449  -11.0114 C   0  0  0  0  0  0  0  0  0  0  0  0
    1.7386   -1.5163  -11.1499 Cl  0  0  0  0  0  0  0  0  0  0  0  0
   -0.2939    0.0093  -10.0836 C   0  0  0  0  0  0  0  0  0  0  0  0
   -0.5230   -1.2928   -8.9166 Cl  0  0  0  0  0  0  0  0  0  0  0  0
   -1.0593    1.1869  -10.0047 C   0  0  0  0  0  0  0  0  0  0  0  0
   -2.1901    1.5202   -9.1071 C   0  0  0  0  0  0  0  0  0  0  0  0
   -3.3338    0.7866   -9.0368 C   0  0  0  0  0  0  0  0  0  0  0  0
   -3.4458   -0.5080   -9.6580 C   0  0  0  0  0  0  0  0  0  0  0  0
   -3.5496   -1.5415  -10.1698 N   0  0  0  0  0  0  0  0  0  0  0  0
   -4.5736    1.3789   -8.6019 C   0  0  0  0  0  0  0  0  0  0  0  0
   -5.5750    1.8489   -8.2557 N   0  0  0  0  0  0  0  0  0  0  0  0
    3.3868   -7.2839    3.3314 H   0  0  0  0  0  0  0  0  0  0  0  0
   -2.0638   -1.9675    6.3660 H   0  0  0  0  0  0  0  0  0  0  0  0
   -2.1256   -3.2318    8.4719 H   0  0  0  0  0  0  0  0  0  0  0  0
   -4.5815   -4.7970    9.1930 H   0  0  0  0  0  0  0  0  0  0  0  0
   -4.8005   -6.3897    8.3475 H   0  0  0  0  0  0  0  0  0  0  0  0
   -4.6378   -6.3306   10.1416 H   0  0  0  0  0  0  0  0  0  0  0  0
   -2.6495   -6.8928    6.2666 H   0  0  0  0  0  0  0  0  0  0  0  0
   -2.5760   -5.6340    4.1461 H   0  0  0  0  0  0  0  0  0  0  0  0
   -4.9570   -3.4768    4.3708 H   0  0  0  0  0  0  0  0  0  0  0  0
   -6.7261   -3.8974    2.7158 H   0  0  0  0  0  0  0  0  0  0  0  0
   -5.4183   -5.9827   -0.5674 H   0  0  0  0  0  0  0  0  0  0  0  0
   -6.6203   -6.1905    0.7806 H   0  0  0  0  0  0  0  0  0  0  0  0
   -7.1721   -6.2163   -0.9401 H   0  0  0  0  0  0  0  0  0  0  0  0
   -3.8798   -3.3968   -0.4667 H   0  0  0  0  0  0  0  0  0  0  0  0
   -2.0977   -3.0086    1.1701 H   0  0  0  0  0  0  0  0  0  0  0  0
    2.3163    3.0175    3.5949 H   0  0  0  0  0  0  0  0  0  0  0  0
    4.5920    2.3082    2.9670 H   0  0  0  0  0  0  0  0  0  0  0  0
    6.9415    2.1845   -0.7711 H   0  0  0  0  0  0  0  0  0  0  0  0
    6.1398    3.1517    0.5191 H   0  0  0  0  0  0  0  0  0  0  0  0
    5.1840    2.5816   -0.9175 H   0  0  0  0  0  0  0  0  0  0  0  0
    3.0287    0.4135   -0.5754 H   0  0  0  0  0  0  0  0  0  0  0  0
    0.7449    1.1097    0.0569 H   0  0  0  0  0  0  0  0  0  0  0  0
   -1.8011    3.2311    4.1294 H   0  0  0  0  0  0  0  0  0  0  0  0
   -2.3035    5.5105    4.8741 H   0  0  0  0  0  0  0  0  0  0  0  0
   -0.2938    7.2390    6.2091 H   0  0  0  0  0  0  0  0  0  0  0  0
    1.0052    7.8496    5.0992 H   0  0  0  0  0  0  0  0  0  0  0  0
   -0.0179    9.0097    6.0270 H   0  0  0  0  0  0  0  0  0  0  0  0
    0.6443    7.0746    2.1649 H   0  0  0  0  0  0  0  0  0  0  0  0
    1.1582    4.7941    1.3907 H   0  0  0  0  0  0  0  0  0  0  0  0
   -3.3883    0.3008   -0.5888 H   0  0  0  0  0  0  0  0  0  0  0  0
   -5.1860    0.2561   -4.7692 H   0  0  0  0  0  0  0  0  0  0  0  0
   -5.5250   -2.3027   -4.8269 H   0  0  0  0  0  0  0  0  0  0  0  0
   -2.7985   -3.9361   -5.3993 H   0  0  0  0  0  0  0  0  0  0  0  0
   -2.8006   -5.6593   -4.8966 H   0  0  0  0  0  0  0  0  0  0  0  0
   -0.9837   -3.4401   -3.7716 H   0  0  0  0  0  0  0  0  0  0  0  0
   -1.0667   -5.1264   -3.1261 H   0  0  0  0  0  0  0  0  0  0  0  0
   -0.4985   -4.8274   -4.8120 H   0  0  0  0  0  0  0  0  0  0  0  0
    0.4745    4.8563   -4.4498 H   0  0  0  0  0  0  0  0  0  0  0  0
    1.6616    7.0374   -3.7697 H   0  0  0  0  0  0  0  0  0  0  0  0
    2.1316    8.4330    0.6734 H   0  0  0  0  0  0  0  0  0  0  0  0
    1.7820    6.8452   -0.0833 H   0  0  0  0  0  0  0  0  0  0  0  0
    4.1937    7.4403   -0.2966 H   0  0  0  0  0  0  0  0  0  0  0  0
    3.4221    7.3930   -1.9255 H   0  0  0  0  0  0  0  0  0  0  0  0
    3.7605    8.9828   -1.1245 H   0  0  0  0  0  0  0  0  0  0  0  0
   -1.6907    5.1060   -5.5633 H   0  0  0  0  0  0  0  0  0  0  0  0
   -2.1520    4.8395   -8.0572 H   0  0  0  0  0  0  0  0  0  0  0  0
  1  2  2  3
  2  3  1  0
  3  4  2  0
  3  5  1  0
  5  6  2  0
  6  7  1  0
  6  8  1  0
  8  9  1  0
  8 10  2  0
 10 11  1  0
 10 12  1  0
 12 13  1  0
 12 14  2  0
 14 15  1  0
 15 16  2  3
 16 17  1  0
 17 18  3  0
 16 19  1  0
 19 20  3  0
  1 21  1  0
 21 22  2  0
 22 23  1  0
 23 24  1  0
 24 25  2  0
 25 26  2  0
 23 27  2  0
 27 28  1  0
 28 29  2  0
 29 30  1  0
 30 31  1  0
 31 32  2  0
 27 33  1  0
 33 34  2  0
 34 35  1  0
 35 36  1  0
 36 37  2  0
 37 38  1  0
 38 39  2  0
 39 40  1  0
 40 41  1  0
 39 42  1  0
 42 43  2  0
 35 44  1  0
 44 45  2  0
 45 46  1  0
 46 47  2  0
 47 48  1  0
 48 49  1  0
 47 50  1  0
 50 51  2  0
 34 52  1  0
 52 53  1  0
 53 54  1  0
 54 55  2  0
 55 56  1  0
 56 57  1  0
 57 58  2  0
 58 59  1  0
 59 60  2  0
 60 61  1  0
 61 62  1  0
 60 63  1  0
 63 64  2  0
 56 65  1  0
 65 66  2  0
 66 67  1  0
 67 68  2  0
 68 69  1  0
 69 70  1  0
 68 71  1  0
 71 72  2  0
 55 73  1  0
 73 74  1  0
 54 75  1  0
 75 76  2  0
 76 77  1  0
 77 78  2  0
 78 79  1  0
 79 80  2  0
 80 81  1  0
 81 82  2  0
 82 83  1  0
 83 84  1  0
 84 85  1  0
 82 86  1  0
 78 87  1  0
 87 88  2  0
 88 89  1  0
 89 90  1  0
 90 91  2  0
 91 92  1  0
 92 93  2  0
 93 94  1  0
 94 95  1  0
 95 96  1  0
 93 97  1  0
 89 98  2  0
 98 99  1  0
 88100  1  0
100101  2  0
101102  1  0
101103  1  0
103104  2  3
104105  1  0
105106  2  0
105107  1  0
107108  2  0
108109  1  0
108110  1  0
110111  1  0
110112  2  0
112113  1  0
112114  1  0
114115  1  0
114116  2  0
116117  1  0
117118  2  3
118119  1  0
119120  3  0
118121  1  0
121122  3  0
 15  2  1  0
 32 21  1  0
 74 33  1  0
 99 75  1  0
117104  1  0
 14  5  1  0
 26 22  1  0
 32 28  1  0
 43 36  1  0
 51 44  1  0
 73 52  2  0
 98 77  1  0
116107  1  0
 64 57  1  0
 72 65  1  0
 86 79  1  0
102 87  1  0
 97 90  1  0
  1123  1  0
 37124  1  0
 38125  1  0
 41126  1  0
 41127  1  0
 41128  1  0
 42129  1  0
 43130  1  0
 45131  1  0
 46132  1  0
 49133  1  0
 49134  1  0
 49135  1  0
 50136  1  0
 51137  1  0
 58138  1  0
 59139  1  0
 62140  1  0
 62141  1  0
 62142  1  0
 63143  1  0
 64144  1  0
 66145  1  0
 67146  1  0
 70147  1  0
 70148  1  0
 70149  1  0
 71150  1  0
 72151  1  0
 76152  1  0
 80153  1  0
 81154  1  0
 84155  1  0
 84156  1  0
 85157  1  0
 85158  1  0
 85159  1  0
 91160  1  0
 92161  1  0
 95162  1  0
 95163  1  0
 96164  1  0
 96165  1  0
 96166  1  0
100167  1  0
103168  1  0
M  END

