
     RDKit          3D

143157  0  0  0  0  0  0  0  0999 V2000
   -3.7063    6.6501    3.8407 C   0  0  0  0  0  0  0  0  0  0  0  0
   -4.6906    7.3686    3.2682 C   0  0  0  0  0  0  0  0  0  0  0  0
   -5.5105    6.9502    2.1267 C   0  0  0  0  0  0  0  0  0  0  0  0
   -5.3526    5.8990    1.4471 O   0  0  0  0  0  0  0  0  0  0  0  0
   -6.6220    7.8777    1.9996 C   0  0  0  0  0  0  0  0  0  0  0  0
   -7.7255    7.8127    1.1442 C   0  0  0  0  0  0  0  0  0  0  0  0
   -7.8132    6.5888   -0.1211 Cl  0  0  0  0  0  0  0  0  0  0  0  0
   -8.7659    8.7476    1.3217 C   0  0  0  0  0  0  0  0  0  0  0  0
  -10.1574    8.7275    0.2384 Cl  0  0  0  0  0  0  0  0  0  0  0  0
   -8.7171    9.6664    2.3968 C   0  0  0  0  0  0  0  0  0  0  0  0
  -10.0734   10.7646    2.6769 Cl  0  0  0  0  0  0  0  0  0  0  0  0
   -7.6010    9.6956    3.2612 C   0  0  0  0  0  0  0  0  0  0  0  0
   -7.6860   10.6126    4.7672 Cl  0  0  0  0  0  0  0  0  0  0  0  0
   -6.5049    8.8551    2.9789 C   0  0  0  0  0  0  0  0  0  0  0  0
   -5.2080    8.6979    3.6927 C   0  0  0  0  0  0  0  0  0  0  0  0
   -4.4290    9.7292    4.1174 C   0  0  0  0  0  0  0  0  0  0  0  0
   -3.0671    9.5415    4.5525 C   0  0  0  0  0  0  0  0  0  0  0  0
   -1.9712    9.4004    4.9019 N   0  0  0  0  0  0  0  0  0  0  0  0
   -4.8043   11.1058    3.8983 C   0  0  0  0  0  0  0  0  0  0  0  0
   -5.0956   12.2113    3.7113 N   0  0  0  0  0  0  0  0  0  0  0  0
   -3.1394    5.4692    3.1808 C   0  0  0  0  0  0  0  0  0  0  0  0
   -2.0706    5.6302    2.2975 C   0  0  0  0  0  0  0  0  0  0  0  0
   -1.6278    4.5379    1.5564 C   0  0  0  0  0  0  0  0  0  0  0  0
   -2.2579    3.2935    1.6872 C   0  0  0  0  0  0  0  0  0  0  0  0
   -3.2802    3.1577    2.6386 C   0  0  0  0  0  0  0  0  0  0  0  0
   -3.7085    4.2420    3.3441 N   0  0  0  0  0  0  0  0  0  0  0  0
   -1.8561    2.1681    0.8215 C   0  0  0  0  0  0  0  0  0  0  0  0
   -1.5075    2.2620   -0.5397 C   0  0  0  0  0  0  0  0  0  0  0  0
   -1.8298    3.3726   -1.3915 N   0  0  0  0  0  0  0  0  0  0  0  0
   -3.1381    3.3700   -1.9849 C   0  0  0  0  0  0  0  0  0  0  0  0
   -4.2722    3.6477   -1.2065 C   0  0  0  0  0  0  0  0  0  0  0  0
   -5.5510    3.5736   -1.7658 C   0  0  0  0  0  0  0  0  0  0  0  0
   -5.7056    3.2178   -3.1113 C   0  0  0  0  0  0  0  0  0  0  0  0
   -7.3530    3.0687   -3.8138 S   0  0  0  0  0  0  0  0  0  0  0  0
   -7.5103    1.3065   -3.3782 C   0  0  0  0  0  0  0  0  0  0  0  0
   -4.5762    2.9586   -3.8981 C   0  0  0  0  0  0  0  0  0  0  0  0
   -3.2965    3.0403   -3.3384 C   0  0  0  0  0  0  0  0  0  0  0  0
   -0.8402    4.3550   -1.7769 C   0  0  0  0  0  0  0  0  0  0  0  0
    0.5374    4.1104   -1.5980 C   0  0  0  0  0  0  0  0  0  0  0  0
    1.4820    5.0824   -1.9421 C   0  0  0  0  0  0  0  0  0  0  0  0
    1.0672    6.3138   -2.4564 C   0  0  0  0  0  0  0  0  0  0  0  0
    2.2784    7.5646   -2.8912 S   0  0  0  0  0  0  0  0  0  0  0  0
    2.4048    7.0119   -4.6190 C   0  0  0  0  0  0  0  0  0  0  0  0
   -0.2942    6.5747   -2.6257 C   0  0  0  0  0  0  0  0  0  0  0  0
   -1.2414    5.6031   -2.2945 C   0  0  0  0  0  0  0  0  0  0  0  0
   -0.9877    1.0627   -1.0122 C   0  0  0  0  0  0  0  0  0  0  0  0
   -0.2029    0.6061   -2.4248 S   0  0  0  0  0  0  0  0  0  0  0  0
    0.1977   -0.9478   -1.8486 C   0  0  0  0  0  0  0  0  0  0  0  0
   -0.2934   -1.0952   -0.5391 C   0  0  0  0  0  0  0  0  0  0  0  0
   -0.2845   -2.3270    0.1970 N   0  0  0  0  0  0  0  0  0  0  0  0
   -1.4906   -3.1025    0.1741 C   0  0  0  0  0  0  0  0  0  0  0  0
   -1.8539   -3.8097   -0.9826 C   0  0  0  0  0  0  0  0  0  0  0  0
   -3.0476   -4.5355   -1.0140 C   0  0  0  0  0  0  0  0  0  0  0  0
   -3.8970   -4.5429    0.1019 C   0  0  0  0  0  0  0  0  0  0  0  0
   -5.4540   -5.4371    0.0487 S   0  0  0  0  0  0  0  0  0  0  0  0
   -4.7368   -6.9716    0.7189 C   0  0  0  0  0  0  0  0  0  0  0  0
   -3.5380   -3.8303    1.2546 C   0  0  0  0  0  0  0  0  0  0  0  0
   -2.3328   -3.1242    1.2947 C   0  0  0  0  0  0  0  0  0  0  0  0
    0.8685   -2.7714    0.9472 C   0  0  0  0  0  0  0  0  0  0  0  0
    1.8489   -1.8576    1.3658 C   0  0  0  0  0  0  0  0  0  0  0  0
    2.9906   -2.2979    2.0433 C   0  0  0  0  0  0  0  0  0  0  0  0
    3.1554   -3.6559    2.3337 C   0  0  0  0  0  0  0  0  0  0  0  0
    4.6173   -4.2105    3.2157 S   0  0  0  0  0  0  0  0  0  0  0  0
    3.8351   -4.0477    4.8535 C   0  0  0  0  0  0  0  0  0  0  0  0
    2.1773   -4.5730    1.9418 C   0  0  0  0  0  0  0  0  0  0  0  0
    1.0398   -4.1351    1.2580 C   0  0  0  0  0  0  0  0  0  0  0  0
   -0.9447    0.0540   -0.1077 C   0  0  0  0  0  0  0  0  0  0  0  0
   -1.5364    0.5841    1.3749 S   0  0  0  0  0  0  0  0  0  0  0  0
    1.2682   -1.7625   -2.4249 C   0  0  0  0  0  0  0  0  0  0  0  0
    2.5473   -1.7027   -1.8619 C   0  0  0  0  0  0  0  0  0  0  0  0
    3.5571   -2.5069   -2.3735 C   0  0  0  0  0  0  0  0  0  0  0  0
    3.2960   -3.3445   -3.4589 C   0  0  0  0  0  0  0  0  0  0  0  0
    2.0234   -3.3318   -4.0417 C   0  0  0  0  0  0  0  0  0  0  0  0
    1.0395   -2.5515   -3.5100 N   0  0  0  0  0  0  0  0  0  0  0  0
    4.3519   -4.2507   -3.9393 C   0  0  0  0  0  0  0  0  0  0  0  0
    4.7515   -5.3188   -3.2242 C   0  0  0  0  0  0  0  0  0  0  0  0
    4.1664   -5.7347   -1.9419 C   0  0  0  0  0  0  0  0  0  0  0  0
    3.0294   -5.4177   -1.4997 O   0  0  0  0  0  0  0  0  0  0  0  0
    5.1211   -6.5589   -1.2426 C   0  0  0  0  0  0  0  0  0  0  0  0
    5.0219   -7.0261    0.0868 C   0  0  0  0  0  0  0  0  0  0  0  0
    6.1631   -7.6566    0.5383 C   0  0  0  0  0  0  0  0  0  0  0  0
    7.3459   -7.8057   -0.2551 C   0  0  0  0  0  0  0  0  0  0  0  0
    7.4511   -7.3455   -1.5578 C   0  0  0  0  0  0  0  0  0  0  0  0
    6.2678   -6.7321   -2.0620 C   0  0  0  0  0  0  0  0  0  0  0  0
    6.0286   -6.0789   -3.3816 C   0  0  0  0  0  0  0  0  0  0  0  0
    6.7258   -6.2787   -4.5312 C   0  0  0  0  0  0  0  0  0  0  0  0
    6.2815   -5.7599   -5.7995 C   0  0  0  0  0  0  0  0  0  0  0  0
    5.9337   -5.3472   -6.8267 N   0  0  0  0  0  0  0  0  0  0  0  0
    7.8938   -7.1163   -4.5940 C   0  0  0  0  0  0  0  0  0  0  0  0
    8.8385   -7.7858   -4.6548 N   0  0  0  0  0  0  0  0  0  0  0  0
    8.0536   -8.4535    0.8953 C   0  0  0  0  0  0  0  0  0  0  0  0
    9.0960   -7.5801    1.6595 C   0  0  0  0  0  0  0  0  0  0  0  0
    9.3595   -8.2955    2.9640 C   0  0  0  0  0  0  0  0  0  0  0  0
    8.2428   -8.1734    3.6964 C   0  0  0  0  0  0  0  0  0  0  0  0
    7.2714   -7.3737    2.8642 C   0  0  0  0  0  0  0  0  0  0  0  0
    8.2580   -6.4308    2.1916 C   0  0  0  0  0  0  0  0  0  0  0  0
    6.8357   -8.3125    1.7017 C   0  0  0  0  0  0  0  0  0  0  0  0
   -3.2349    6.9843    4.7512 H   0  0  0  0  0  0  0  0  0  0  0  0
   -1.6032    6.5988    2.1604 H   0  0  0  0  0  0  0  0  0  0  0  0
   -0.7916    4.6687    0.8837 H   0  0  0  0  0  0  0  0  0  0  0  0
   -3.7750    2.2044    2.7792 H   0  0  0  0  0  0  0  0  0  0  0  0
   -4.1684    3.9257   -0.1688 H   0  0  0  0  0  0  0  0  0  0  0  0
   -6.4183    3.7826   -1.1502 H   0  0  0  0  0  0  0  0  0  0  0  0
   -7.4155    1.1709   -2.2804 H   0  0  0  0  0  0  0  0  0  0  0  0
   -6.7268    0.7142   -3.8970 H   0  0  0  0  0  0  0  0  0  0  0  0
   -8.5061    0.9424   -3.6990 H   0  0  0  0  0  0  0  0  0  0  0  0
   -4.6904    2.6877   -4.9409 H   0  0  0  0  0  0  0  0  0  0  0  0
   -2.4304    2.8197   -3.9468 H   0  0  0  0  0  0  0  0  0  0  0  0
    0.8890    3.1756   -1.1868 H   0  0  0  0  0  0  0  0  0  0  0  0
    2.5366    4.8793   -1.8081 H   0  0  0  0  0  0  0  0  0  0  0  0
    3.1123    7.6709   -5.1621 H   0  0  0  0  0  0  0  0  0  0  0  0
    2.7821    5.9693   -4.6588 H   0  0  0  0  0  0  0  0  0  0  0  0
    1.4113    7.0670   -5.1112 H   0  0  0  0  0  0  0  0  0  0  0  0
   -0.6213    7.5308   -3.0114 H   0  0  0  0  0  0  0  0  0  0  0  0
   -2.2896    5.8355   -2.4237 H   0  0  0  0  0  0  0  0  0  0  0  0
   -1.2108   -3.7947   -1.8536 H   0  0  0  0  0  0  0  0  0  0  0  0
   -3.3208   -5.0786   -1.9095 H   0  0  0  0  0  0  0  0  0  0  0  0
   -5.5535   -7.6933    0.9201 H   0  0  0  0  0  0  0  0  0  0  0  0
   -4.0394   -7.4147   -0.0212 H   0  0  0  0  0  0  0  0  0  0  0  0
   -4.1998   -6.7684    1.6673 H   0  0  0  0  0  0  0  0  0  0  0  0
   -4.1978   -3.8232    2.1126 H   0  0  0  0  0  0  0  0  0  0  0  0
   -2.0626   -2.5778    2.1874 H   0  0  0  0  0  0  0  0  0  0  0  0
    1.7409   -0.8024    1.1588 H   0  0  0  0  0  0  0  0  0  0  0  0
    3.7456   -1.5811    2.3400 H   0  0  0  0  0  0  0  0  0  0  0  0
    4.6244   -4.0468    5.6310 H   0  0  0  0  0  0  0  0  0  0  0  0
    3.2694   -3.0949    4.9300 H   0  0  0  0  0  0  0  0  0  0  0  0
    3.1515   -4.8999    5.0382 H   0  0  0  0  0  0  0  0  0  0  0  0
    2.2947   -5.6242    2.1693 H   0  0  0  0  0  0  0  0  0  0  0  0
    0.3038   -4.8693    0.9546 H   0  0  0  0  0  0  0  0  0  0  0  0
    2.7687   -1.0240   -1.0469 H   0  0  0  0  0  0  0  0  0  0  0  0
    4.5333   -2.4960   -1.9096 H   0  0  0  0  0  0  0  0  0  0  0  0
    1.8066   -3.9619   -4.8945 H   0  0  0  0  0  0  0  0  0  0  0  0
    4.9177   -3.9042   -4.7908 H   0  0  0  0  0  0  0  0  0  0  0  0
    4.1492   -6.8694    0.7088 H   0  0  0  0  0  0  0  0  0  0  0  0
    8.3849   -7.4147   -2.0939 H   0  0  0  0  0  0  0  0  0  0  0  0
    8.3585   -9.5042    0.7028 H   0  0  0  0  0  0  0  0  0  0  0  0
   10.0021   -7.2936    1.0853 H   0  0  0  0  0  0  0  0  0  0  0  0
   10.2940   -8.7358    3.2970 H   0  0  0  0  0  0  0  0  0  0  0  0
    8.1080   -8.5128    4.7173 H   0  0  0  0  0  0  0  0  0  0  0  0
    6.4437   -6.8927    3.4278 H   0  0  0  0  0  0  0  0  0  0  0  0
    8.8070   -5.7799    2.9148 H   0  0  0  0  0  0  0  0  0  0  0  0
    7.8119   -5.7900    1.4008 H   0  0  0  0  0  0  0  0  0  0  0  0
    6.3654   -9.2735    2.0081 H   0  0  0  0  0  0  0  0  0  0  0  0
  1  2  2  3
  2  3  1  0
  3  4  2  0
  3  5  1  0
  5  6  2  0
  6  7  1  0
  6  8  1  0
  8  9  1  0
  8 10  2  0
 10 11  1  0
 10 12  1  0
 12 13  1  0
 12 14  2  0
 14 15  1  0
 15 16  2  3
 16 17  1  0
 17 18  3  0
 16 19  1  0
 19 20  3  0
  1 21  1  0
 21 22  2  0
 22 23  1  0
 23 24  2  0
 24 25  1  0
 25 26  2  0
 24 27  1  0
 27 28  2  0
 28 29  1  0
 29 30  1  0
 30 31  2  0
 31 32  1  0
 32 33  2  0
 33 34  1  0
 34 35  1  0
 33 36  1  0
 36 37  2  0
 29 38  1  0
 38 39  2  0
 39 40  1  0
 40 41  2  0
 41 42  1  0
 42 43  1  0
 41 44  1  0
 44 45  2  0
 28 46  1  0
 46 47  1  0
 47 48  1  0
 48 49  2  0
 49 50  1  0
 50 51  1  0
 51 52  2  0
 52 53  1  0
 53 54  2  0
 54 55  1  0
 55 56  1  0
 54 57  1  0
 57 58  2  0
 50 59  1  0
 59 60  2  0
 60 61  1  0
 61 62  2  0
 62 63  1  0
 63 64  1  0
 62 65  1  0
 65 66  2  0
 49 67  1  0
 67 68  1  0
 48 69  1  0
 69 70  2  0
 70 71  1  0
 71 72  2  0
 72 73  1  0
 73 74  2  0
 72 75  1  0
 75 76  2  3
 76 77  1  0
 77 78  2  0
 77 79  1  0
 79 80  2  0
 80 81  1  0
 81 82  2  0
 82 83  1  0
 83 84  2  0
 84 85  1  0
 85 86  2  3
 86 87  1  0
 87 88  3  0
 86 89  1  0
 89 90  3  0
 82 91  1  0
 91 92  1  0
 92 93  1  0
 93 94  2  0
 94 95  1  0
 95 96  1  0
 95 97  1  0
 15  2  1  0
 26 21  1  0
 68 27  1  0
 74 69  1  0
 85 76  1  0
 97 91  1  0
 14  5  1  0
 37 30  1  0
 45 38  1  0
 67 46  2  0
 84 79  1  0
 96 92  1  0
 58 51  1  0
 66 59  1  0
 97 81  1  0
  1 98  1  0
 22 99  1  0
 23100  1  0
 25101  1  0
 31102  1  0
 32103  1  0
 35104  1  0
 35105  1  0
 35106  1  0
 36107  1  0
 37108  1  0
 39109  1  0
 40110  1  0
 43111  1  0
 43112  1  0
 43113  1  0
 44114  1  0
 45115  1  0
 52116  1  0
 53117  1  0
 56118  1  0
 56119  1  0
 56120  1  0
 57121  1  0
 58122  1  0
 60123  1  0
 61124  1  0
 64125  1  0
 64126  1  0
 64127  1  0
 65128  1  0
 66129  1  0
 70130  1  0
 71131  1  0
 73132  1  0
 75133  1  0
 80134  1  0
 83135  1  0
 91136  1  0
 92137  1  0
 93138  1  0
 94139  1  0
 95140  1  0
 96141  1  0
 96142  1  0
 97143  1  0
M  END

