
     RDKit          3D

147161  0  0  0  0  0  0  0  0999 V2000
   -3.3581   -0.4066    6.4024 C   0  0  0  0  0  0  0  0  0  0  0  0
   -3.1115   -0.5468    7.7168 C   0  0  0  0  0  0  0  0  0  0  0  0
   -2.8399   -1.7974    8.4233 C   0  0  0  0  0  0  0  0  0  0  0  0
   -3.2433   -2.9410    8.0778 O   0  0  0  0  0  0  0  0  0  0  0  0
   -1.9810   -1.4998    9.5622 C   0  0  0  0  0  0  0  0  0  0  0  0
   -1.2835   -2.3911   10.3852 C   0  0  0  0  0  0  0  0  0  0  0  0
   -1.5954   -4.1278   10.3069 Cl  0  0  0  0  0  0  0  0  0  0  0  0
   -0.2902   -1.8773   11.2421 C   0  0  0  0  0  0  0  0  0  0  0  0
    0.5888   -2.9621   12.3180 Cl  0  0  0  0  0  0  0  0  0  0  0  0
    0.0488   -0.5042   11.1863 C   0  0  0  0  0  0  0  0  0  0  0  0
    1.3983    0.1034   12.1480 Cl  0  0  0  0  0  0  0  0  0  0  0  0
   -0.6530    0.3702   10.3257 C   0  0  0  0  0  0  0  0  0  0  0  0
    0.0319    1.9537    9.9723 Cl  0  0  0  0  0  0  0  0  0  0  0  0
   -1.7543   -0.1308    9.6045 C   0  0  0  0  0  0  0  0  0  0  0  0
   -2.6356    0.5409    8.6066 C   0  0  0  0  0  0  0  0  0  0  0  0
   -3.2006    1.7663    8.7160 C   0  0  0  0  0  0  0  0  0  0  0  0
   -4.2675    2.1882    7.8381 C   0  0  0  0  0  0  0  0  0  0  0  0
   -5.1445    2.5111    7.1556 N   0  0  0  0  0  0  0  0  0  0  0  0
   -2.9204    2.6480    9.8180 C   0  0  0  0  0  0  0  0  0  0  0  0
   -2.6855    3.3671   10.6894 N   0  0  0  0  0  0  0  0  0  0  0  0
   -3.1240   -1.4620    5.3859 C   0  0  0  0  0  0  0  0  0  0  0  0
   -1.8785   -2.1120    5.3083 C   0  0  0  0  0  0  0  0  0  0  0  0
   -1.4592   -2.7571    4.1219 C   0  0  0  0  0  0  0  0  0  0  0  0
   -0.1267   -3.2914    4.1646 N   0  0  0  0  0  0  0  0  0  0  0  0
    0.3244   -2.8398    5.6242 S   0  0  0  0  0  4  0  0  0  0  0  0
   -0.8687   -2.0523    6.3250 N   0  0  0  0  0  0  0  0  0  0  0  0
   -2.2381   -2.7187    2.9556 C   0  0  0  0  0  0  0  0  0  0  0  0
   -3.5337   -2.1857    3.0555 C   0  0  0  0  0  0  0  0  0  0  0  0
   -4.3840   -2.1262    1.9975 N   0  0  0  0  0  0  0  0  0  0  0  0
   -5.6433   -1.3034    2.6763 S   0  0  0  0  0  0  0  0  0  0  0  0
   -5.1958   -0.9696    4.2319 N   0  0  0  0  0  0  0  0  0  0  0  0
   -3.9714   -1.5574    4.2671 C   0  0  0  0  0  0  0  0  0  0  0  0
   -1.5553   -2.8056    1.6516 C   0  0  0  0  0  0  0  0  0  0  0  0
   -0.5650   -1.8919    1.2577 C   0  0  0  0  0  0  0  0  0  0  0  0
   -0.4577   -0.5808    1.8477 N   0  0  0  0  0  0  0  0  0  0  0  0
    0.7249   -0.1715    2.5858 C   0  0  0  0  0  0  0  0  0  0  0  0
    1.7479   -1.0976    2.8857 C   0  0  0  0  0  0  0  0  0  0  0  0
    2.8419   -0.7196    3.6700 C   0  0  0  0  0  0  0  0  0  0  0  0
    2.9327    0.5796    4.1760 C   0  0  0  0  0  0  0  0  0  0  0  0
    4.2938    1.0360    5.2556 S   0  0  0  0  0  0  0  0  0  0  0  0
    5.2127    1.8994    3.9437 C   0  0  0  0  0  0  0  0  0  0  0  0
    1.9524    1.5177    3.8568 C   0  0  0  0  0  0  0  0  0  0  0  0
    0.8787    1.1579    3.0405 C   0  0  0  0  0  0  0  0  0  0  0  0
   -1.5946    0.2992    1.6726 C   0  0  0  0  0  0  0  0  0  0  0  0
   -2.2183    0.8984    2.7836 C   0  0  0  0  0  0  0  0  0  0  0  0
   -3.3166    1.7464    2.6103 C   0  0  0  0  0  0  0  0  0  0  0  0
   -3.8236    1.9885    1.3304 C   0  0  0  0  0  0  0  0  0  0  0  0
   -5.1944    3.1232    1.0912 S   0  0  0  0  0  0  0  0  0  0  0  0
   -6.4649    1.8407    1.2842 C   0  0  0  0  0  0  0  0  0  0  0  0
   -3.2403    1.3613    0.2241 C   0  0  0  0  0  0  0  0  0  0  0  0
   -2.1372    0.5226    0.3929 C   0  0  0  0  0  0  0  0  0  0  0  0
   -0.1600   -2.1378   -0.0431 C   0  0  0  0  0  0  0  0  0  0  0  0
    0.7774   -1.2393   -1.1054 S   0  0  0  0  0  0  0  0  0  0  0  0
    0.2375   -2.0904   -2.4681 C   0  0  0  0  0  0  0  0  0  0  0  0
   -0.7003   -3.0657   -2.0975 C   0  0  0  0  0  0  0  0  0  0  0  0
   -1.5698   -3.7160   -3.0389 N   0  0  0  0  0  0  0  0  0  0  0  0
   -2.6426   -2.9245   -3.6001 C   0  0  0  0  0  0  0  0  0  0  0  0
   -2.8061   -2.8224   -4.9963 C   0  0  0  0  0  0  0  0  0  0  0  0
   -3.7644   -1.9645   -5.5385 C   0  0  0  0  0  0  0  0  0  0  0  0
   -4.5759   -1.1978   -4.6962 C   0  0  0  0  0  0  0  0  0  0  0  0
   -5.7727   -0.0555   -5.3954 S   0  0  0  0  0  0  0  0  0  0  0  0
   -4.5695    1.3086   -5.5053 C   0  0  0  0  0  0  0  0  0  0  0  0
   -4.4338   -1.2990   -3.3086 C   0  0  0  0  0  0  0  0  0  0  0  0
   -3.4701   -2.1502   -2.7633 C   0  0  0  0  0  0  0  0  0  0  0  0
   -1.1700   -4.9732   -3.6361 C   0  0  0  0  0  0  0  0  0  0  0  0
    0.1838   -5.3630   -3.6800 C   0  0  0  0  0  0  0  0  0  0  0  0
    0.5662   -6.5405   -4.3299 C   0  0  0  0  0  0  0  0  0  0  0  0
   -0.3967   -7.3550   -4.9289 C   0  0  0  0  0  0  0  0  0  0  0  0
    0.0991   -8.8469   -5.7929 S   0  0  0  0  0  0  0  0  0  0  0  0
    0.0530   -9.8703   -4.2904 C   0  0  0  0  0  0  0  0  0  0  0  0
   -1.7457   -6.9964   -4.8691 C   0  0  0  0  0  0  0  0  0  0  0  0
   -2.1313   -5.8204   -4.2195 C   0  0  0  0  0  0  0  0  0  0  0  0
   -0.8745   -3.0849   -0.7117 C   0  0  0  0  0  0  0  0  0  0  0  0
   -2.0106   -3.7734    0.3202 S   0  0  0  0  0  0  0  0  0  0  0  0
    0.6426   -1.7339   -3.8265 C   0  0  0  0  0  0  0  0  0  0  0  0
   -0.1806   -0.6062   -4.7914 S   0  0  0  0  0  0  0  0  0  0  0  0
    1.1101   -0.1780   -5.8034 C   0  0  0  0  0  0  0  0  0  0  0  0
    2.1970   -0.9020   -5.3468 C   0  0  0  0  0  0  0  0  0  0  0  0
    3.8521   -0.7686   -5.6140 S   0  0  0  0  0  0  0  0  0  0  0  0
    4.2725   -1.8223   -4.3443 C   0  0  0  0  0  0  0  0  0  0  0  0
    5.6447   -2.1205   -3.9185 C   0  0  0  0  0  0  0  0  0  0  0  0
    6.6178   -1.6510   -4.5662 O   0  0  0  0  0  0  0  0  0  0  0  0
    5.8572   -2.9011   -2.7794 O   0  0  0  0  0  0  0  0  0  0  0  0
    7.1466   -3.1451   -2.2372 C   0  0  0  0  0  0  0  0  0  0  0  0
    7.0133   -4.0154   -0.9965 C   0  0  0  0  0  0  0  0  0  0  0  0
    3.1147   -2.2630   -3.6974 C   0  0  0  0  0  0  0  0  0  0  0  0
    1.9571   -1.7301   -4.2716 C   0  0  0  0  0  0  0  0  0  0  0  0
    3.1108   -3.0491   -2.5891 F   0  0  0  0  0  0  0  0  0  0  0  0
    1.1830    1.0574   -6.5895 C   0  0  0  0  0  0  0  0  0  0  0  0
    1.7251    2.1925   -6.1015 C   0  0  0  0  0  0  0  0  0  0  0  0
    2.0219    2.4445   -4.6816 C   0  0  0  0  0  0  0  0  0  0  0  0
    1.9300    1.6214   -3.7350 O   0  0  0  0  0  0  0  0  0  0  0  0
    2.3182    3.8476   -4.5227 C   0  0  0  0  0  0  0  0  0  0  0  0
    2.6320    4.5225   -3.3416 C   0  0  0  0  0  0  0  0  0  0  0  0
    2.9168    5.8913   -3.3964 C   0  0  0  0  0  0  0  0  0  0  0  0
    3.2311    6.5520   -2.2022 O   0  0  0  0  0  0  0  0  0  0  0  0
    3.5243    7.9421   -2.1007 C   0  0  0  0  0  0  0  0  0  0  0  0
    2.8887    6.5535   -4.6458 C   0  0  0  0  0  0  0  0  0  0  0  0
    2.5547    5.8598   -5.8209 C   0  0  0  0  0  0  0  0  0  0  0  0
    2.2576    4.4880   -5.7482 C   0  0  0  0  0  0  0  0  0  0  0  0
    1.9263    3.4926   -6.8167 C   0  0  0  0  0  0  0  0  0  0  0  0
    1.9611    3.6874   -8.1628 C   0  0  0  0  0  0  0  0  0  0  0  0
    1.9792    2.5911   -9.0980 C   0  0  0  0  0  0  0  0  0  0  0  0
    2.0044    1.7174   -9.8551 N   0  0  0  0  0  0  0  0  0  0  0  0
    2.0611    4.9879   -8.7605 C   0  0  0  0  0  0  0  0  0  0  0  0
    2.1173    6.0347   -9.2593 N   0  0  0  0  0  0  0  0  0  0  0  0
   -3.4728    0.5833    5.9935 H   0  0  0  0  0  0  0  0  0  0  0  0
    1.6970   -2.1127    2.5270 H   0  0  0  0  0  0  0  0  0  0  0  0
    3.6000   -1.4545    3.9144 H   0  0  0  0  0  0  0  0  0  0  0  0
    6.1954    2.2198    4.3446 H   0  0  0  0  0  0  0  0  0  0  0  0
    4.6485    2.7999    3.6241 H   0  0  0  0  0  0  0  0  0  0  0  0
    5.3723    1.2260    3.0783 H   0  0  0  0  0  0  0  0  0  0  0  0
    2.0232    2.5301    4.2325 H   0  0  0  0  0  0  0  0  0  0  0  0
    0.1685    1.9311    2.7730 H   0  0  0  0  0  0  0  0  0  0  0  0
   -1.8425    0.7111    3.7808 H   0  0  0  0  0  0  0  0  0  0  0  0
   -3.7746    2.2108    3.4750 H   0  0  0  0  0  0  0  0  0  0  0  0
   -6.5033    1.5153    2.3428 H   0  0  0  0  0  0  0  0  0  0  0  0
   -7.4487    2.2635    1.0031 H   0  0  0  0  0  0  0  0  0  0  0  0
   -6.2471    0.9746    0.6249 H   0  0  0  0  0  0  0  0  0  0  0  0
   -3.6341    1.5319   -0.7717 H   0  0  0  0  0  0  0  0  0  0  0  0
   -1.7009    0.0656   -0.4827 H   0  0  0  0  0  0  0  0  0  0  0  0
   -2.1554   -3.3716   -5.6662 H   0  0  0  0  0  0  0  0  0  0  0  0
   -3.8589   -1.8801   -6.6116 H   0  0  0  0  0  0  0  0  0  0  0  0
   -3.7388    1.0242   -6.1842 H   0  0  0  0  0  0  0  0  0  0  0  0
   -4.1649    1.5444   -4.4988 H   0  0  0  0  0  0  0  0  0  0  0  0
   -5.0784    2.2050   -5.9119 H   0  0  0  0  0  0  0  0  0  0  0  0
   -5.0620   -0.7068   -2.6512 H   0  0  0  0  0  0  0  0  0  0  0  0
   -3.3647   -2.1959   -1.6890 H   0  0  0  0  0  0  0  0  0  0  0  0
    0.9575   -4.7518   -3.2362 H   0  0  0  0  0  0  0  0  0  0  0  0
    1.6119   -6.8154   -4.3636 H   0  0  0  0  0  0  0  0  0  0  0  0
   -0.9818   -9.9141   -3.8932 H   0  0  0  0  0  0  0  0  0  0  0  0
    0.3926  -10.8978   -4.5359 H   0  0  0  0  0  0  0  0  0  0  0  0
    0.7329   -9.4424   -3.5256 H   0  0  0  0  0  0  0  0  0  0  0  0
   -2.4980   -7.6240   -5.3275 H   0  0  0  0  0  0  0  0  0  0  0  0
   -3.1837   -5.5663   -4.1838 H   0  0  0  0  0  0  0  0  0  0  0  0
    7.7788   -3.6702   -2.9879 H   0  0  0  0  0  0  0  0  0  0  0  0
    7.6263   -2.1851   -1.9646 H   0  0  0  0  0  0  0  0  0  0  0  0
    6.5560   -4.9889   -1.2639 H   0  0  0  0  0  0  0  0  0  0  0  0
    8.0160   -4.1991   -0.5534 H   0  0  0  0  0  0  0  0  0  0  0  0
    6.3728   -3.5052   -0.2473 H   0  0  0  0  0  0  0  0  0  0  0  0
    0.7615    1.0108   -7.5844 H   0  0  0  0  0  0  0  0  0  0  0  0
    2.6455    3.9955   -2.3976 H   0  0  0  0  0  0  0  0  0  0  0  0
    4.4365    8.1822   -2.6841 H   0  0  0  0  0  0  0  0  0  0  0  0
    2.6656    8.5415   -2.4658 H   0  0  0  0  0  0  0  0  0  0  0  0
    3.7027    8.1965   -1.0369 H   0  0  0  0  0  0  0  0  0  0  0  0
    3.1258    7.6054   -4.7200 H   0  0  0  0  0  0  0  0  0  0  0  0
    2.5438    6.4071   -6.7452 H   0  0  0  0  0  0  0  0  0  0  0  0
  1  2  2  3
  2  3  1  0
  3  4  2  0
  3  5  1  0
  5  6  2  0
  6  7  1  0
  6  8  1  0
  8  9  1  0
  8 10  2  0
 10 11  1  0
 10 12  1  0
 12 13  1  0
 12 14  2  0
 14 15  1  0
 15 16  2  3
 16 17  1  0
 17 18  3  0
 16 19  1  0
 19 20  3  0
  1 21  1  0
 21 22  2  0
 22 23  1  0
 23 24  1  0
 24 25  2  0
 25 26  2  0
 23 27  2  0
 27 28  1  0
 28 29  2  0
 29 30  1  0
 30 31  1  0
 31 32  2  0
 27 33  1  0
 33 34  2  0
 34 35  1  0
 35 36  1  0
 36 37  2  0
 37 38  1  0
 38 39  2  0
 39 40  1  0
 40 41  1  0
 39 42  1  0
 42 43  2  0
 35 44  1  0
 44 45  2  0
 45 46  1  0
 46 47  2  0
 47 48  1  0
 48 49  1  0
 47 50  1  0
 50 51  2  0
 34 52  1  0
 52 53  1  0
 53 54  1  0
 54 55  2  0
 55 56  1  0
 56 57  1  0
 57 58  2  0
 58 59  1  0
 59 60  2  0
 60 61  1  0
 61 62  1  0
 60 63  1  0
 63 64  2  0
 56 65  1  0
 65 66  2  0
 66 67  1  0
 67 68  2  0
 68 69  1  0
 69 70  1  0
 68 71  1  0
 71 72  2  0
 55 73  1  0
 73 74  1  0
 54 75  1  0
 75 76  1  0
 76 77  1  0
 77 78  2  0
 78 79  1  0
 79 80  1  0
 80 81  1  0
 81 82  2  0
 81 83  1  0
 83 84  1  0
 84 85  1  0
 80 86  2  0
 86 87  1  0
 86 88  1  0
 77 89  1  0
 89 90  2  3
 90 91  1  0
 91 92  2  0
 91 93  1  0
 93 94  2  0
 94 95  1  0
 95 96  1  0
 96 97  1  0
 95 98  2  0
 98 99  1  0
 99100  2  0
100101  1  0
101102  2  3
102103  1  0
103104  3  0
102105  1  0
105106  3  0
 15  2  1  0
 32 21  1  0
 74 33  1  0
 87 75  2  0
101 90  1  0
 14  5  1  0
 26 22  1  0
 32 28  1  0
 43 36  1  0
 51 44  1  0
 73 52  2  0
 87 78  1  0
100 93  1  0
 64 57  1  0
 72 65  1  0
  1107  1  0
 37108  1  0
 38109  1  0
 41110  1  0
 41111  1  0
 41112  1  0
 42113  1  0
 43114  1  0
 45115  1  0
 46116  1  0
 49117  1  0
 49118  1  0
 49119  1  0
 50120  1  0
 51121  1  0
 58122  1  0
 59123  1  0
 62124  1  0
 62125  1  0
 62126  1  0
 63127  1  0
 64128  1  0
 66129  1  0
 67130  1  0
 70131  1  0
 70132  1  0
 70133  1  0
 71134  1  0
 72135  1  0
 84136  1  0
 84137  1  0
 85138  1  0
 85139  1  0
 85140  1  0
 89141  1  0
 94142  1  0
 97143  1  0
 97144  1  0
 97145  1  0
 98146  1  0
 99147  1  0
M  END

