
     RDKit          3D

156171  0  0  0  0  0  0  0  0999 V2000
    8.6314    1.4544   -1.1005 C   0  0  0  0  0  0  0  0  0  0  0  0
    7.7939    1.7451   -2.1187 C   0  0  0  0  0  0  0  0  0  0  0  0
    6.3264    1.6135   -2.0857 C   0  0  0  0  0  0  0  0  0  0  0  0
    5.6385    1.2014   -1.1102 O   0  0  0  0  0  0  0  0  0  0  0  0
    5.7763    2.2047   -3.2876 C   0  0  0  0  0  0  0  0  0  0  0  0
    4.4339    2.3320   -3.6592 C   0  0  0  0  0  0  0  0  0  0  0  0
    3.1600    1.5691   -2.7103 Cl  0  0  0  0  0  0  0  0  0  0  0  0
    4.1280    3.0866   -4.8055 C   0  0  0  0  0  0  0  0  0  0  0  0
    2.4505    3.2327   -5.3371 Cl  0  0  0  0  0  0  0  0  0  0  0  0
    5.1509    3.7725   -5.4921 C   0  0  0  0  0  0  0  0  0  0  0  0
    4.7415    4.8180   -6.8570 Cl  0  0  0  0  0  0  0  0  0  0  0  0
    6.4980    3.6566   -5.0737 C   0  0  0  0  0  0  0  0  0  0  0  0
    7.6879    4.8164   -5.6788 Cl  0  0  0  0  0  0  0  0  0  0  0  0
    6.8072    2.7581   -4.0309 C   0  0  0  0  0  0  0  0  0  0  0  0
    8.1213    2.3570   -3.4366 C   0  0  0  0  0  0  0  0  0  0  0  0
    9.2616    2.1091   -4.1397 C   0  0  0  0  0  0  0  0  0  0  0  0
   10.3759    1.4035   -3.5635 C   0  0  0  0  0  0  0  0  0  0  0  0
   11.2658    0.8203   -3.1117 N   0  0  0  0  0  0  0  0  0  0  0  0
    9.3424    2.2846   -5.5645 C   0  0  0  0  0  0  0  0  0  0  0  0
    9.4345    2.4243   -6.7158 N   0  0  0  0  0  0  0  0  0  0  0  0
    8.2270    0.6167    0.0471 C   0  0  0  0  0  0  0  0  0  0  0  0
    7.5787   -0.6102   -0.1969 C   0  0  0  0  0  0  0  0  0  0  0  0
    6.9171   -1.2268    0.8566 C   0  0  0  0  0  0  0  0  0  0  0  0
    5.7914   -2.1453    0.7583 C   0  0  0  0  0  0  0  0  0  0  0  0
    5.3937   -2.7362   -0.2805 O   0  0  0  0  0  0  0  0  0  0  0  0
    5.1219   -2.1103    2.0463 C   0  0  0  0  0  0  0  0  0  0  0  0
    5.8531   -1.3107    2.9050 C   0  0  0  0  0  0  0  0  0  0  0  0
    6.9635   -0.7186    2.1482 C   0  0  0  0  0  0  0  0  0  0  0  0
    7.6924    0.4432    2.4336 C   0  0  0  0  0  0  0  0  0  0  0  0
    8.3453    1.1067    1.3704 C   0  0  0  0  0  0  0  0  0  0  0  0
    5.3789   -1.0136    4.1830 C   0  0  0  0  0  0  0  0  0  0  0  0
    4.0893   -1.4573    4.5335 C   0  0  0  0  0  0  0  0  0  0  0  0
    3.2436   -2.0595    3.5670 C   0  0  0  0  0  0  0  0  0  0  0  0
    3.8107   -2.4687    2.3390 C   0  0  0  0  0  0  0  0  0  0  0  0
    1.7608   -2.1252    3.7374 C   0  0  0  0  0  0  0  0  0  0  0  0
    0.9491   -1.3027    4.5664 C   0  0  0  0  0  0  0  0  0  0  0  0
    1.4351   -0.2238    5.3873 N   0  0  0  0  0  0  0  0  0  0  0  0
    1.3457   -0.3352    6.8293 C   0  0  0  0  0  0  0  0  0  0  0  0
    1.2996   -1.6066    7.4435 C   0  0  0  0  0  0  0  0  0  0  0  0
    1.2126   -1.7244    8.8346 C   0  0  0  0  0  0  0  0  0  0  0  0
    1.2276   -0.5775    9.6373 C   0  0  0  0  0  0  0  0  0  0  0  0
    1.1545   -0.7399   11.4219 S   0  0  0  0  0  0  0  0  0  0  0  0
   -0.6589   -0.5211   11.4795 C   0  0  0  0  0  0  0  0  0  0  0  0
    1.2785    0.6896    9.0447 C   0  0  0  0  0  0  0  0  0  0  0  0
    1.2999    0.8120    7.6513 C   0  0  0  0  0  0  0  0  0  0  0  0
    2.0346    0.9266    4.7394 C   0  0  0  0  0  0  0  0  0  0  0  0
    3.2052    1.5254    5.2607 C   0  0  0  0  0  0  0  0  0  0  0  0
    3.8356    2.5672    4.5770 C   0  0  0  0  0  0  0  0  0  0  0  0
    3.3027    3.0465    3.3787 C   0  0  0  0  0  0  0  0  0  0  0  0
    4.1264    4.3787    2.4919 S   0  0  0  0  0  0  0  0  0  0  0  0
    3.2729    5.6910    3.4282 C   0  0  0  0  0  0  0  0  0  0  0  0
    2.1309    2.4854    2.8608 C   0  0  0  0  0  0  0  0  0  0  0  0
    1.5050    1.4274    3.5328 C   0  0  0  0  0  0  0  0  0  0  0  0
   -0.4102   -1.4442    4.2684 C   0  0  0  0  0  0  0  0  0  0  0  0
   -1.7381   -0.4575    4.5828 S   0  0  0  0  0  0  0  0  0  0  0  0
   -2.6823   -1.1044    3.3287 C   0  0  0  0  0  0  0  0  0  0  0  0
   -1.9301   -2.0481    2.6046 C   0  0  0  0  0  0  0  0  0  0  0  0
   -2.1499   -2.2993    1.1979 N   0  0  0  0  0  0  0  0  0  0  0  0
   -1.8485   -1.2877    0.1995 C   0  0  0  0  0  0  0  0  0  0  0  0
   -0.7794   -0.3824    0.3826 C   0  0  0  0  0  0  0  0  0  0  0  0
   -0.4319    0.5178   -0.6371 C   0  0  0  0  0  0  0  0  0  0  0  0
   -1.1455    0.5336   -1.8380 C   0  0  0  0  0  0  0  0  0  0  0  0
   -0.5965    1.5775   -3.1898 S   0  0  0  0  0  0  0  0  0  0  0  0
   -1.5905    3.0148   -2.6783 C   0  0  0  0  0  0  0  0  0  0  0  0
   -2.2423   -0.3209   -2.0044 C   0  0  0  0  0  0  0  0  0  0  0  0
   -2.6000   -1.2126   -0.9918 C   0  0  0  0  0  0  0  0  0  0  0  0
   -2.5724   -3.6069    0.7592 C   0  0  0  0  0  0  0  0  0  0  0  0
   -1.8882   -4.2486   -0.2960 C   0  0  0  0  0  0  0  0  0  0  0  0
   -2.4088   -5.4101   -0.8774 C   0  0  0  0  0  0  0  0  0  0  0  0
   -3.6250   -5.9338   -0.4176 C   0  0  0  0  0  0  0  0  0  0  0  0
   -4.3370   -7.3647   -1.2277 S   0  0  0  0  0  0  0  0  0  0  0  0
   -5.2187   -6.3776   -2.4800 C   0  0  0  0  0  0  0  0  0  0  0  0
   -4.2899   -5.3265    0.6533 C   0  0  0  0  0  0  0  0  0  0  0  0
   -3.7618   -4.1732    1.2467 C   0  0  0  0  0  0  0  0  0  0  0  0
   -0.6877   -2.2556    3.2087 C   0  0  0  0  0  0  0  0  0  0  0  0
    0.7354   -2.9061    2.6220 S   0  0  0  0  0  0  0  0  0  0  0  0
   -3.9359   -0.5197    2.8385 C   0  0  0  0  0  0  0  0  0  0  0  0
   -3.8578    0.5613    1.9427 C   0  0  0  0  0  0  0  0  0  0  0  0
   -4.9197    0.7689    1.0656 C   0  0  0  0  0  0  0  0  0  0  0  0
   -4.8299    1.3855   -0.2517 C   0  0  0  0  0  0  0  0  0  0  0  0
   -3.9262    2.1630   -0.6473 O   0  0  0  0  0  0  0  0  0  0  0  0
   -5.8814    0.7991   -1.0660 C   0  0  0  0  0  0  0  0  0  0  0  0
   -6.6471   -0.0241   -0.2548 C   0  0  0  0  0  0  0  0  0  0  0  0
   -6.0391   -0.0539    1.0831 C   0  0  0  0  0  0  0  0  0  0  0  0
   -6.1835   -1.0456    2.0575 C   0  0  0  0  0  0  0  0  0  0  0  0
   -5.1295   -1.2625    2.9527 C   0  0  0  0  0  0  0  0  0  0  0  0
   -7.5447   -0.9376   -0.8023 C   0  0  0  0  0  0  0  0  0  0  0  0
   -7.6201   -1.0466   -2.2012 C   0  0  0  0  0  0  0  0  0  0  0  0
   -6.7786   -0.2737   -3.0355 C   0  0  0  0  0  0  0  0  0  0  0  0
   -5.9031    0.6692   -2.4513 C   0  0  0  0  0  0  0  0  0  0  0  0
   -6.6069   -0.6974   -4.4362 C   0  0  0  0  0  0  0  0  0  0  0  0
   -6.3370    0.1164   -5.4740 C   0  0  0  0  0  0  0  0  0  0  0  0
   -6.2970    1.5829   -5.4424 C   0  0  0  0  0  0  0  0  0  0  0  0
   -6.9193    2.3343   -4.6408 O   0  0  0  0  0  0  0  0  0  0  0  0
   -5.4554    2.0316   -6.5312 C   0  0  0  0  0  0  0  0  0  0  0  0
   -4.9606    3.3179   -6.7542 C   0  0  0  0  0  0  0  0  0  0  0  0
   -3.9704    3.4879   -7.7287 C   0  0  0  0  0  0  0  0  0  0  0  0
   -3.4601    2.3816   -8.4232 C   0  0  0  0  0  0  0  0  0  0  0  0
   -3.9554    1.0797   -8.1761 C   0  0  0  0  0  0  0  0  0  0  0  0
   -3.3612   -0.0482   -8.7464 O   0  0  0  0  0  0  0  0  0  0  0  0
   -2.3615   -0.0076   -9.7635 C   0  0  0  0  0  0  0  0  0  0  0  0
   -5.0292    0.9362   -7.2704 C   0  0  0  0  0  0  0  0  0  0  0  0
   -5.7176   -0.2864   -6.7704 C   0  0  0  0  0  0  0  0  0  0  0  0
   -6.0047   -1.4133   -7.4824 C   0  0  0  0  0  0  0  0  0  0  0  0
   -6.8803   -2.4365   -6.9770 C   0  0  0  0  0  0  0  0  0  0  0  0
   -7.5832   -3.2670   -6.5774 N   0  0  0  0  0  0  0  0  0  0  0  0
   -5.6504   -1.5591   -8.8665 C   0  0  0  0  0  0  0  0  0  0  0  0
   -5.3711   -1.6985   -9.9810 N   0  0  0  0  0  0  0  0  0  0  0  0
    9.6567    1.8084   -1.1128 H   0  0  0  0  0  0  0  0  0  0  0  0
    7.4387   -0.9741   -1.2059 H   0  0  0  0  0  0  0  0  0  0  0  0
    7.6720    0.8788    3.4230 H   0  0  0  0  0  0  0  0  0  0  0  0
    8.8439    2.0496    1.5596 H   0  0  0  0  0  0  0  0  0  0  0  0
    5.9619   -0.4050    4.8711 H   0  0  0  0  0  0  0  0  0  0  0  0
    3.7314   -1.2455    5.5319 H   0  0  0  0  0  0  0  0  0  0  0  0
    3.2243   -2.9436    1.5669 H   0  0  0  0  0  0  0  0  0  0  0  0
    1.3393   -2.5156    6.8568 H   0  0  0  0  0  0  0  0  0  0  0  0
    1.1708   -2.7065    9.2948 H   0  0  0  0  0  0  0  0  0  0  0  0
   -1.0090   -0.6495   12.5253 H   0  0  0  0  0  0  0  0  0  0  0  0
   -0.9378    0.4989   11.1338 H   0  0  0  0  0  0  0  0  0  0  0  0
   -1.1654   -1.2792   10.8419 H   0  0  0  0  0  0  0  0  0  0  0  0
    1.2759    1.5825    9.6640 H   0  0  0  0  0  0  0  0  0  0  0  0
    1.2726    1.8002    7.2188 H   0  0  0  0  0  0  0  0  0  0  0  0
    3.6511    1.1588    6.1747 H   0  0  0  0  0  0  0  0  0  0  0  0
    4.7505    2.9950    4.9755 H   0  0  0  0  0  0  0  0  0  0  0  0
    3.4981    5.5913    4.5159 H   0  0  0  0  0  0  0  0  0  0  0  0
    3.6317    6.6822    3.0752 H   0  0  0  0  0  0  0  0  0  0  0  0
    2.1832    5.6175    3.2564 H   0  0  0  0  0  0  0  0  0  0  0  0
    1.7087    2.8600    1.9338 H   0  0  0  0  0  0  0  0  0  0  0  0
    0.6160    0.9991    3.1080 H   0  0  0  0  0  0  0  0  0  0  0  0
   -0.1895   -0.3966    1.2823 H   0  0  0  0  0  0  0  0  0  0  0  0
    0.4154    1.1777   -0.4897 H   0  0  0  0  0  0  0  0  0  0  0  0
   -2.6671    2.8150   -2.8521 H   0  0  0  0  0  0  0  0  0  0  0  0
   -1.2955    3.8920   -3.2911 H   0  0  0  0  0  0  0  0  0  0  0  0
   -1.4120    3.2538   -1.6068 H   0  0  0  0  0  0  0  0  0  0  0  0
   -2.8087   -0.3047   -2.9224 H   0  0  0  0  0  0  0  0  0  0  0  0
   -3.4568   -1.8572   -1.1402 H   0  0  0  0  0  0  0  0  0  0  0  0
   -0.9659   -3.8303   -0.6777 H   0  0  0  0  0  0  0  0  0  0  0  0
   -1.8898   -5.8732   -1.7056 H   0  0  0  0  0  0  0  0  0  0  0  0
   -4.4979   -5.7682   -3.0641 H   0  0  0  0  0  0  0  0  0  0  0  0
   -5.7485   -7.0641   -3.1753 H   0  0  0  0  0  0  0  0  0  0  0  0
   -5.9650   -5.7116   -1.9935 H   0  0  0  0  0  0  0  0  0  0  0  0
   -5.2254   -5.7326    1.0096 H   0  0  0  0  0  0  0  0  0  0  0  0
   -4.3034   -3.6999    2.0459 H   0  0  0  0  0  0  0  0  0  0  0  0
   -2.9181    1.0867    1.7788 H   0  0  0  0  0  0  0  0  0  0  0  0
   -7.0279   -1.7275    2.0364 H   0  0  0  0  0  0  0  0  0  0  0  0
   -5.1809   -2.1004    3.6315 H   0  0  0  0  0  0  0  0  0  0  0  0
   -8.0994   -1.6243   -0.1712 H   0  0  0  0  0  0  0  0  0  0  0  0
   -8.2666   -1.8010   -2.6315 H   0  0  0  0  0  0  0  0  0  0  0  0
   -5.1484    1.1720   -3.0391 H   0  0  0  0  0  0  0  0  0  0  0  0
   -6.5376   -1.7653   -4.5773 H   0  0  0  0  0  0  0  0  0  0  0  0
   -5.3122    4.1582   -6.1667 H   0  0  0  0  0  0  0  0  0  0  0  0
   -3.5706    4.4737   -7.9156 H   0  0  0  0  0  0  0  0  0  0  0  0
   -2.6528    2.5446   -9.1234 H   0  0  0  0  0  0  0  0  0  0  0  0
   -2.1439   -1.0404  -10.1003 H   0  0  0  0  0  0  0  0  0  0  0  0
   -2.7240    0.5778  -10.6318 H   0  0  0  0  0  0  0  0  0  0  0  0
   -1.4258    0.4442   -9.3659 H   0  0  0  0  0  0  0  0  0  0  0  0
  1  2  2  3
  2  3  1  0
  3  4  2  0
  3  5  1  0
  5  6  2  0
  6  7  1  0
  6  8  1  0
  8  9  1  0
  8 10  2  0
 10 11  1  0
 10 12  1  0
 12 13  1  0
 12 14  2  0
 14 15  1  0
 15 16  2  3
 16 17  1  0
 17 18  3  0
 16 19  1  0
 19 20  3  0
  1 21  1  0
 21 22  2  0
 22 23  1  0
 23 24  1  0
 24 25  2  0
 24 26  1  0
 26 27  2  0
 27 28  1  0
 28 29  1  0
 29 30  2  0
 27 31  1  0
 31 32  2  0
 32 33  1  0
 33 34  2  0
 33 35  1  0
 35 36  2  0
 36 37  1  0
 37 38  1  0
 38 39  2  0
 39 40  1  0
 40 41  2  0
 41 42  1  0
 42 43  1  0
 41 44  1  0
 44 45  2  0
 37 46  1  0
 46 47  2  0
 47 48  1  0
 48 49  2  0
 49 50  1  0
 50 51  1  0
 49 52  1  0
 52 53  2  0
 36 54  1  0
 54 55  1  0
 55 56  1  0
 56 57  2  0
 57 58  1  0
 58 59  1  0
 59 60  2  0
 60 61  1  0
 61 62  2  0
 62 63  1  0
 63 64  1  0
 62 65  1  0
 65 66  2  0
 58 67  1  0
 67 68  2  0
 68 69  1  0
 69 70  2  0
 70 71  1  0
 71 72  1  0
 70 73  1  0
 73 74  2  0
 57 75  1  0
 75 76  1  0
 56 77  1  0
 77 78  2  0
 78 79  1  0
 79 80  1  0
 80 81  2  0
 80 82  1  0
 82 83  2  0
 83 84  1  0
 84 85  1  0
 85 86  2  0
 83 87  1  0
 87 88  2  0
 88 89  1  0
 89 90  2  0
 89 91  1  0
 91 92  2  3
 92 93  1  0
 93 94  2  0
 93 95  1  0
 95 96  2  0
 96 97  1  0
 97 98  2  0
 98 99  1  0
 99100  1  0
100101  1  0
 99102  2  0
102103  1  0
103104  2  3
104105  1  0
105106  3  0
104107  1  0
107108  3  0
 15  2  1  0
 30 21  1  0
 76 35  1  0
 86 77  1  0
103 92  1  0
 14  5  1  0
 28 23  2  0
 45 38  1  0
 53 46  1  0
 75 54  2  0
 84 79  2  0
102 95  1  0
 34 26  1  0
 66 59  1  0
 74 67  1  0
 90 82  1  0
  1109  1  0
 22110  1  0
 29111  1  0
 30112  1  0
 31113  1  0
 32114  1  0
 34115  1  0
 39116  1  0
 40117  1  0
 43118  1  0
 43119  1  0
 43120  1  0
 44121  1  0
 45122  1  0
 47123  1  0
 48124  1  0
 51125  1  0
 51126  1  0
 51127  1  0
 52128  1  0
 53129  1  0
 60130  1  0
 61131  1  0
 64132  1  0
 64133  1  0
 64134  1  0
 65135  1  0
 66136  1  0
 68137  1  0
 69138  1  0
 72139  1  0
 72140  1  0
 72141  1  0
 73142  1  0
 74143  1  0
 78144  1  0
 85145  1  0
 86146  1  0
 87147  1  0
 88148  1  0
 90149  1  0
 91150  1  0
 96151  1  0
 97152  1  0
 98153  1  0
101154  1  0
101155  1  0
101156  1  0
M  END

