
     RDKit          3D

152167  0  0  0  0  0  0  0  0999 V2000
    6.3701   -6.4642    1.0045 C   0  0  0  0  0  0  0  0  0  0  0  0
    5.2840   -6.8773    1.6848 C   0  0  0  0  0  0  0  0  0  0  0  0
    4.1241   -6.0460    2.0288 C   0  0  0  0  0  0  0  0  0  0  0  0
    4.0889   -4.7904    2.0412 O   0  0  0  0  0  0  0  0  0  0  0  0
    3.0007   -6.9225    2.3235 C   0  0  0  0  0  0  0  0  0  0  0  0
    1.6534   -6.5860    2.5033 C   0  0  0  0  0  0  0  0  0  0  0  0
    1.1555   -4.8987    2.6267 Cl  0  0  0  0  0  0  0  0  0  0  0  0
    0.7044   -7.6281    2.5466 C   0  0  0  0  0  0  0  0  0  0  0  0
   -1.0000   -7.2479    2.7901 Cl  0  0  0  0  0  0  0  0  0  0  0  0
    1.1126   -8.9636    2.3298 C   0  0  0  0  0  0  0  0  0  0  0  0
   -0.0972  -10.2513    2.2785 Cl  0  0  0  0  0  0  0  0  0  0  0  0
    2.4765   -9.2716    2.1308 C   0  0  0  0  0  0  0  0  0  0  0  0
    2.9332  -10.8882    1.5844 Cl  0  0  0  0  0  0  0  0  0  0  0  0
    3.4255   -8.2354    2.2272 C   0  0  0  0  0  0  0  0  0  0  0  0
    4.8998   -8.2739    2.0110 C   0  0  0  0  0  0  0  0  0  0  0  0
    5.7410   -9.2042    2.5174 C   0  0  0  0  0  0  0  0  0  0  0  0
    5.2812  -10.2230    3.4260 C   0  0  0  0  0  0  0  0  0  0  0  0
    4.9181  -11.0356    4.1658 N   0  0  0  0  0  0  0  0  0  0  0  0
    7.1661   -9.1436    2.2975 C   0  0  0  0  0  0  0  0  0  0  0  0
    8.3123   -9.1130    2.1149 N   0  0  0  0  0  0  0  0  0  0  0  0
    6.5083   -5.0737    0.5501 C   0  0  0  0  0  0  0  0  0  0  0  0
    5.9087   -4.6998   -0.6677 C   0  0  0  0  0  0  0  0  0  0  0  0
    5.8067   -3.3471   -0.9646 C   0  0  0  0  0  0  0  0  0  0  0  0
    4.9793   -2.7041   -1.9731 C   0  0  0  0  0  0  0  0  0  0  0  0
    4.3429   -3.2774   -2.8982 O   0  0  0  0  0  0  0  0  0  0  0  0
    4.9528   -1.2871   -1.6427 C   0  0  0  0  0  0  0  0  0  0  0  0
    5.7486   -1.0738   -0.5354 C   0  0  0  0  0  0  0  0  0  0  0  0
    6.2810   -2.3729   -0.1015 C   0  0  0  0  0  0  0  0  0  0  0  0
    6.9202   -2.7196    1.0896 C   0  0  0  0  0  0  0  0  0  0  0  0
    7.0414   -4.0846    1.4112 C   0  0  0  0  0  0  0  0  0  0  0  0
    5.7854    0.1728    0.0900 C   0  0  0  0  0  0  0  0  0  0  0  0
    4.9429    1.1914   -0.3967 C   0  0  0  0  0  0  0  0  0  0  0  0
    4.0368    0.9453   -1.4623 C   0  0  0  0  0  0  0  0  0  0  0  0
    4.0949   -0.3086   -2.1198 C   0  0  0  0  0  0  0  0  0  0  0  0
    2.9156    1.8748   -1.7941 C   0  0  0  0  0  0  0  0  0  0  0  0
    2.3276    2.8646   -0.9693 C   0  0  0  0  0  0  0  0  0  0  0  0
    2.9092    3.4384    0.2082 N   0  0  0  0  0  0  0  0  0  0  0  0
    3.3652    4.7993    0.0642 C   0  0  0  0  0  0  0  0  0  0  0  0
    4.2539    5.1366   -0.9736 C   0  0  0  0  0  0  0  0  0  0  0  0
    4.5673    6.4736   -1.2367 C   0  0  0  0  0  0  0  0  0  0  0  0
    3.9967    7.4886   -0.4618 C   0  0  0  0  0  0  0  0  0  0  0  0
    4.3195    9.2069   -0.8607 S   0  0  0  0  0  0  0  0  0  0  0  0
    2.8811    9.3358   -1.9710 C   0  0  0  0  0  0  0  0  0  0  0  0
    3.1378    7.1629    0.5948 C   0  0  0  0  0  0  0  0  0  0  0  0
    2.8151    5.8275    0.8527 C   0  0  0  0  0  0  0  0  0  0  0  0
    2.6631    2.8574    1.5127 C   0  0  0  0  0  0  0  0  0  0  0  0
    3.4246    3.2632    2.6279 C   0  0  0  0  0  0  0  0  0  0  0  0
    3.1066    2.8057    3.9100 C   0  0  0  0  0  0  0  0  0  0  0  0
    2.0501    1.9114    4.0955 C   0  0  0  0  0  0  0  0  0  0  0  0
    1.5686    1.4200    5.7521 S   0  0  0  0  0  0  0  0  0  0  0  0
    0.2787    2.7023    5.8700 C   0  0  0  0  0  0  0  0  0  0  0  0
    1.3405    1.4353    2.9885 C   0  0  0  0  0  0  0  0  0  0  0  0
    1.6400    1.9028    1.7072 C   0  0  0  0  0  0  0  0  0  0  0  0
    1.0732    3.2567   -1.4386 C   0  0  0  0  0  0  0  0  0  0  0  0
   -0.2131    4.0819   -0.7562 S   0  0  0  0  0  0  0  0  0  0  0  0
   -1.3606    3.6476   -1.9543 C   0  0  0  0  0  0  0  0  0  0  0  0
   -0.6768    2.8503   -2.9096 C   0  0  0  0  0  0  0  0  0  0  0  0
   -1.2349    2.3300   -4.1263 N   0  0  0  0  0  0  0  0  0  0  0  0
   -1.2142    0.9032   -4.3376 C   0  0  0  0  0  0  0  0  0  0  0  0
   -0.7406    0.3650   -5.5485 C   0  0  0  0  0  0  0  0  0  0  0  0
   -0.6983   -1.0197   -5.7359 C   0  0  0  0  0  0  0  0  0  0  0  0
   -1.1360   -1.8815   -4.7246 C   0  0  0  0  0  0  0  0  0  0  0  0
   -1.1035   -3.6568   -4.9823 S   0  0  0  0  0  0  0  0  0  0  0  0
    0.4994   -3.8673   -4.1494 C   0  0  0  0  0  0  0  0  0  0  0  0
   -1.6045   -1.3572   -3.5167 C   0  0  0  0  0  0  0  0  0  0  0  0
   -1.6185    0.0245   -3.3134 C   0  0  0  0  0  0  0  0  0  0  0  0
   -1.5866    3.2472   -5.1890 C   0  0  0  0  0  0  0  0  0  0  0  0
   -0.9090    4.4755   -5.3273 C   0  0  0  0  0  0  0  0  0  0  0  0
   -1.1999    5.3341   -6.3906 C   0  0  0  0  0  0  0  0  0  0  0  0
   -2.1616    4.9730   -7.3398 C   0  0  0  0  0  0  0  0  0  0  0  0
   -2.4748    6.0437   -8.7465 S   0  0  0  0  0  0  0  0  0  0  0  0
   -1.2110    5.2457   -9.7861 C   0  0  0  0  0  0  0  0  0  0  0  0
   -2.8650    3.7714   -7.1943 C   0  0  0  0  0  0  0  0  0  0  0  0
   -2.5853    2.9165   -6.1239 C   0  0  0  0  0  0  0  0  0  0  0  0
    0.6588    2.6547   -2.5690 C   0  0  0  0  0  0  0  0  0  0  0  0
    1.8326    1.5897   -3.0927 S   0  0  0  0  0  0  0  0  0  0  0  0
   -2.8331    3.6978   -1.6987 C   0  0  0  0  0  0  0  0  0  0  0  0
   -3.7070    2.7642   -2.3042 C   0  0  0  0  0  0  0  0  0  0  0  0
   -4.9379    2.5089   -1.7132 C   0  0  0  0  0  0  0  0  0  0  0  0
   -5.7461    1.3033   -1.8551 C   0  0  0  0  0  0  0  0  0  0  0  0
   -5.6091    0.4108   -2.7343 O   0  0  0  0  0  0  0  0  0  0  0  0
   -6.6250    1.2479   -0.6975 C   0  0  0  0  0  0  0  0  0  0  0  0
   -6.4141    2.3871    0.0657 C   0  0  0  0  0  0  0  0  0  0  0  0
   -5.3491    3.1778   -0.5719 C   0  0  0  0  0  0  0  0  0  0  0  0
   -4.5734    4.1955   -0.0257 C   0  0  0  0  0  0  0  0  0  0  0  0
   -3.3229    4.4731   -0.6104 C   0  0  0  0  0  0  0  0  0  0  0  0
   -6.9166    2.4800    1.3632 C   0  0  0  0  0  0  0  0  0  0  0  0
   -7.6092    1.3750    1.8993 C   0  0  0  0  0  0  0  0  0  0  0  0
   -7.7778    0.1904    1.1392 C   0  0  0  0  0  0  0  0  0  0  0  0
   -7.2845    0.1367   -0.1793 C   0  0  0  0  0  0  0  0  0  0  0  0
   -8.1555   -1.0844    1.7832 C   0  0  0  0  0  0  0  0  0  0  0  0
   -9.2241   -1.2872    2.5755 C   0  0  0  0  0  0  0  0  0  0  0  0
  -10.2204   -0.2863    2.9647 C   0  0  0  0  0  0  0  0  0  0  0  0
  -10.4753    0.7907    2.3577 O   0  0  0  0  0  0  0  0  0  0  0  0
  -10.9372   -0.7895    4.1205 C   0  0  0  0  0  0  0  0  0  0  0  0
  -11.9482   -0.1580    4.8426 C   0  0  0  0  0  0  0  0  0  0  0  0
  -12.5143   -0.8282    5.9355 C   0  0  0  0  0  0  0  0  0  0  0  0
  -13.7936   -0.0464    6.8478 Cl  0  0  0  0  0  0  0  0  0  0  0  0
  -12.0597   -2.1238    6.2801 C   0  0  0  0  0  0  0  0  0  0  0  0
  -12.7659   -3.0060    7.6243 Cl  0  0  0  0  0  0  0  0  0  0  0  0
  -11.0450   -2.7406    5.5279 C   0  0  0  0  0  0  0  0  0  0  0  0
  -10.4855   -2.0592    4.4390 C   0  0  0  0  0  0  0  0  0  0  0  0
   -9.4672   -2.4902    3.4359 C   0  0  0  0  0  0  0  0  0  0  0  0
   -8.9892   -3.7501    3.2434 C   0  0  0  0  0  0  0  0  0  0  0  0
   -8.3331   -4.1452    2.0224 C   0  0  0  0  0  0  0  0  0  0  0  0
   -7.8112   -4.4738    1.0432 N   0  0  0  0  0  0  0  0  0  0  0  0
   -9.1016   -4.7922    4.2281 C   0  0  0  0  0  0  0  0  0  0  0  0
   -9.1400   -5.6368    5.0130 N   0  0  0  0  0  0  0  0  0  0  0  0
    7.0793   -7.1803    0.6175 H   0  0  0  0  0  0  0  0  0  0  0  0
    5.4307   -5.4359   -1.3051 H   0  0  0  0  0  0  0  0  0  0  0  0
    7.2447   -1.9586    1.7886 H   0  0  0  0  0  0  0  0  0  0  0  0
    7.4714   -4.3700    2.3617 H   0  0  0  0  0  0  0  0  0  0  0  0
    6.4100    0.3360    0.9610 H   0  0  0  0  0  0  0  0  0  0  0  0
    4.9836    2.1471    0.0980 H   0  0  0  0  0  0  0  0  0  0  0  0
    3.4149   -0.5669   -2.9199 H   0  0  0  0  0  0  0  0  0  0  0  0
    4.6707    4.3629   -1.6035 H   0  0  0  0  0  0  0  0  0  0  0  0
    5.2142    6.7202   -2.0663 H   0  0  0  0  0  0  0  0  0  0  0  0
    2.7939   10.3799   -2.3311 H   0  0  0  0  0  0  0  0  0  0  0  0
    1.9527    9.0629   -1.4307 H   0  0  0  0  0  0  0  0  0  0  0  0
    3.0182    8.6646   -2.8471 H   0  0  0  0  0  0  0  0  0  0  0  0
    2.6812    7.9502    1.1879 H   0  0  0  0  0  0  0  0  0  0  0  0
    2.0990    5.6004    1.6316 H   0  0  0  0  0  0  0  0  0  0  0  0
    4.2474    3.9571    2.5089 H   0  0  0  0  0  0  0  0  0  0  0  0
    3.6767    3.1619    4.7601 H   0  0  0  0  0  0  0  0  0  0  0  0
   -0.1911    2.6558    6.8735 H   0  0  0  0  0  0  0  0  0  0  0  0
    0.7232    3.7111    5.7295 H   0  0  0  0  0  0  0  0  0  0  0  0
   -0.5002    2.5307    5.1002 H   0  0  0  0  0  0  0  0  0  0  0  0
    0.5299    0.7314    3.1229 H   0  0  0  0  0  0  0  0  0  0  0  0
    1.0415    1.5480    0.8781 H   0  0  0  0  0  0  0  0  0  0  0  0
   -0.3833    1.0180   -6.3378 H   0  0  0  0  0  0  0  0  0  0  0  0
   -0.3248   -1.4228   -6.6681 H   0  0  0  0  0  0  0  0  0  0  0  0
    1.2709   -3.2256   -4.6231 H   0  0  0  0  0  0  0  0  0  0  0  0
    0.4000   -3.6056   -3.0725 H   0  0  0  0  0  0  0  0  0  0  0  0
    0.8097   -4.9291   -4.2309 H   0  0  0  0  0  0  0  0  0  0  0  0
   -1.9442   -2.0194   -2.7278 H   0  0  0  0  0  0  0  0  0  0  0  0
   -1.9499    0.4121   -2.3570 H   0  0  0  0  0  0  0  0  0  0  0  0
   -0.1255    4.7616   -4.6361 H   0  0  0  0  0  0  0  0  0  0  0  0
   -0.6529    6.2667   -6.4938 H   0  0  0  0  0  0  0  0  0  0  0  0
   -0.2169    5.3251   -9.2987 H   0  0  0  0  0  0  0  0  0  0  0  0
   -1.4693    4.1776   -9.9429 H   0  0  0  0  0  0  0  0  0  0  0  0
   -1.1766    5.7575  -10.7677 H   0  0  0  0  0  0  0  0  0  0  0  0
   -3.6155    3.4930   -7.9226 H   0  0  0  0  0  0  0  0  0  0  0  0
   -3.1363    1.9878   -6.0347 H   0  0  0  0  0  0  0  0  0  0  0  0
   -3.4078    2.1269   -3.1111 H   0  0  0  0  0  0  0  0  0  0  0  0
   -4.8749    4.6980    0.8840 H   0  0  0  0  0  0  0  0  0  0  0  0
   -2.6898    5.2080   -0.1316 H   0  0  0  0  0  0  0  0  0  0  0  0
   -6.6977    3.3382    1.9861 H   0  0  0  0  0  0  0  0  0  0  0  0
   -7.9164    1.4074    2.9389 H   0  0  0  0  0  0  0  0  0  0  0  0
   -7.3099   -0.7879   -0.7440 H   0  0  0  0  0  0  0  0  0  0  0  0
   -7.4360   -1.8695    1.6495 H   0  0  0  0  0  0  0  0  0  0  0  0
  -12.2871    0.8328    4.5692 H   0  0  0  0  0  0  0  0  0  0  0  0
  -10.7211   -3.7224    5.8162 H   0  0  0  0  0  0  0  0  0  0  0  0
  1  2  2  3
  2  3  1  0
  3  4  2  0
  3  5  1  0
  5  6  2  0
  6  7  1  0
  6  8  1  0
  8  9  1  0
  8 10  2  0
 10 11  1  0
 10 12  1  0
 12 13  1  0
 12 14  2  0
 14 15  1  0
 15 16  2  3
 16 17  1  0
 17 18  3  0
 16 19  1  0
 19 20  3  0
  1 21  1  0
 21 22  2  0
 22 23  1  0
 23 24  1  0
 24 25  2  0
 24 26  1  0
 26 27  2  0
 27 28  1  0
 28 29  1  0
 29 30  2  0
 27 31  1  0
 31 32  2  0
 32 33  1  0
 33 34  2  0
 33 35  1  0
 35 36  2  0
 36 37  1  0
 37 38  1  0
 38 39  2  0
 39 40  1  0
 40 41  2  0
 41 42  1  0
 42 43  1  0
 41 44  1  0
 44 45  2  0
 37 46  1  0
 46 47  2  0
 47 48  1  0
 48 49  2  0
 49 50  1  0
 50 51  1  0
 49 52  1  0
 52 53  2  0
 36 54  1  0
 54 55  1  0
 55 56  1  0
 56 57  2  0
 57 58  1  0
 58 59  1  0
 59 60  2  0
 60 61  1  0
 61 62  2  0
 62 63  1  0
 63 64  1  0
 62 65  1  0
 65 66  2  0
 58 67  1  0
 67 68  2  0
 68 69  1  0
 69 70  2  0
 70 71  1  0
 71 72  1  0
 70 73  1  0
 73 74  2  0
 57 75  1  0
 75 76  1  0
 56 77  1  0
 77 78  2  0
 78 79  1  0
 79 80  1  0
 80 81  2  0
 80 82  1  0
 82 83  2  0
 83 84  1  0
 84 85  1  0
 85 86  2  0
 83 87  1  0
 87 88  2  0
 88 89  1  0
 89 90  2  0
 89 91  1  0
 91 92  2  3
 92 93  1  0
 93 94  2  0
 93 95  1  0
 95 96  2  0
 96 97  1  0
 97 98  1  0
 97 99  2  0
 99100  1  0
 99101  1  0
101102  2  0
102103  1  0
103104  2  3
104105  1  0
105106  3  0
104107  1  0
107108  3  0
 15  2  1  0
 30 21  1  0
 76 35  1  0
 86 77  1  0
103 92  1  0
 14  5  1  0
 28 23  2  0
 45 38  1  0
 53 46  1  0
 75 54  2  0
 84 79  2  0
102 95  1  0
 34 26  1  0
 66 59  1  0
 74 67  1  0
 90 82  1  0
  1109  1  0
 22110  1  0
 29111  1  0
 30112  1  0
 31113  1  0
 32114  1  0
 34115  1  0
 39116  1  0
 40117  1  0
 43118  1  0
 43119  1  0
 43120  1  0
 44121  1  0
 45122  1  0
 47123  1  0
 48124  1  0
 51125  1  0
 51126  1  0
 51127  1  0
 52128  1  0
 53129  1  0
 60130  1  0
 61131  1  0
 64132  1  0
 64133  1  0
 64134  1  0
 65135  1  0
 66136  1  0
 68137  1  0
 69138  1  0
 72139  1  0
 72140  1  0
 72141  1  0
 73142  1  0
 74143  1  0
 78144  1  0
 85145  1  0
 86146  1  0
 87147  1  0
 88148  1  0
 90149  1  0
 91150  1  0
 96151  1  0
101152  1  0
M  END

