
     RDKit          3D

177195  0  0  0  0  0  0  0  0999 V2000
   -7.4114    5.7420    0.2561 C   0  0  0  0  0  0  0  0  0  0  0  0
   -6.6287    6.0944    1.2945 C   0  0  0  0  0  0  0  0  0  0  0  0
   -5.5130    5.3066    1.8361 C   0  0  0  0  0  0  0  0  0  0  0  0
   -5.2654    4.0949    1.5897 O   0  0  0  0  0  0  0  0  0  0  0  0
   -4.6944    6.1756    2.6625 C   0  0  0  0  0  0  0  0  0  0  0  0
   -3.4506    5.9130    3.2486 C   0  0  0  0  0  0  0  0  0  0  0  0
   -2.7405    4.3001    3.1710 Cl  0  0  0  0  0  0  0  0  0  0  0  0
   -2.7675    6.9748    3.8741 C   0  0  0  0  0  0  0  0  0  0  0  0
   -1.2089    6.6730    4.6484 Cl  0  0  0  0  0  0  0  0  0  0  0  0
   -3.2971    8.2878    3.8256 C   0  0  0  0  0  0  0  0  0  0  0  0
   -2.3643    9.6338    4.4763 Cl  0  0  0  0  0  0  0  0  0  0  0  0
   -4.5401    8.5277    3.2008 C   0  0  0  0  0  0  0  0  0  0  0  0
   -5.0464   10.1909    2.8778 Cl  0  0  0  0  0  0  0  0  0  0  0  0
   -5.2705    7.4329    2.6991 C   0  0  0  0  0  0  0  0  0  0  0  0
   -6.5928    7.3981    2.0104 C   0  0  0  0  0  0  0  0  0  0  0  0
   -7.6952    8.0981    2.3765 C   0  0  0  0  0  0  0  0  0  0  0  0
   -8.9844    7.8745    1.7692 C   0  0  0  0  0  0  0  0  0  0  0  0
  -10.0221    7.6989    1.2913 N   0  0  0  0  0  0  0  0  0  0  0  0
   -7.7145    8.8867    3.5818 C   0  0  0  0  0  0  0  0  0  0  0  0
   -7.7479    9.4975    4.5679 N   0  0  0  0  0  0  0  0  0  0  0  0
   -7.2875    4.4241   -0.3795 C   0  0  0  0  0  0  0  0  0  0  0  0
   -6.2760    4.2196   -1.3305 C   0  0  0  0  0  0  0  0  0  0  0  0
   -5.8739    2.9133   -1.6102 C   0  0  0  0  0  0  0  0  0  0  0  0
   -4.5990    2.4812   -2.2826 C   0  0  0  0  0  0  0  0  0  0  0  0
   -4.6710    2.5373   -3.7884 C   0  0  0  0  0  0  0  0  0  0  0  0
   -5.6142    1.9449   -4.6305 C   0  0  0  0  0  0  0  0  0  0  0  0
   -5.4734    2.1089   -6.0165 C   0  0  0  0  0  0  0  0  0  0  0  0
   -4.3955    2.8407   -6.5580 C   0  0  0  0  0  0  0  0  0  0  0  0
   -4.3083    2.9523   -7.9509 O   0  0  0  0  0  0  0  0  0  0  0  0
   -3.1044    3.2608   -8.6682 C   0  0  0  0  0  0  0  0  0  0  0  0
   -3.0934    4.7402   -9.0542 C   0  0  0  0  0  0  0  0  0  0  0  0
   -3.4630    3.4512   -5.6834 C   0  0  0  0  0  0  0  0  0  0  0  0
   -3.6319    3.2828   -4.3063 C   0  0  0  0  0  0  0  0  0  0  0  0
   -2.8285    3.7747   -3.2015 C   0  0  0  0  0  0  0  0  0  0  0  0
   -1.6080    4.4532   -3.2288 C   0  0  0  0  0  0  0  0  0  0  0  0
   -0.9409    4.6946   -2.0147 C   0  0  0  0  0  0  0  0  0  0  0  0
    0.3190    5.3160   -2.0673 O   0  0  0  0  0  0  0  0  0  0  0  0
    1.2167    5.4662   -0.9649 C   0  0  0  0  0  0  0  0  0  0  0  0
    1.8645    4.1290   -0.6084 C   0  0  0  0  0  0  0  0  0  0  0  0
   -1.5428    4.2919   -0.7942 C   0  0  0  0  0  0  0  0  0  0  0  0
   -2.7642    3.6011   -0.7953 C   0  0  0  0  0  0  0  0  0  0  0  0
   -3.3897    3.3435   -2.0154 C   0  0  0  0  0  0  0  0  0  0  0  0
   -4.4510    1.0778   -1.7617 C   0  0  0  0  0  0  0  0  0  0  0  0
   -5.5937    0.6870   -1.0873 C   0  0  0  0  0  0  0  0  0  0  0  0
   -6.4816    1.8335   -0.9827 C   0  0  0  0  0  0  0  0  0  0  0  0
   -7.5389    2.0160   -0.0902 C   0  0  0  0  0  0  0  0  0  0  0  0
   -7.9521    3.3235    0.2000 C   0  0  0  0  0  0  0  0  0  0  0  0
   -5.6240   -0.4958   -0.3381 C   0  0  0  0  0  0  0  0  0  0  0  0
   -4.4383   -1.2256   -0.1873 C   0  0  0  0  0  0  0  0  0  0  0  0
   -3.2381   -0.7573   -0.7617 C   0  0  0  0  0  0  0  0  0  0  0  0
   -3.2626    0.3668   -1.6084 C   0  0  0  0  0  0  0  0  0  0  0  0
   -1.9350   -1.2840   -0.3245 C   0  0  0  0  0  0  0  0  0  0  0  0
   -1.5308   -2.6276   -0.2752 C   0  0  0  0  0  0  0  0  0  0  0  0
   -2.3835   -3.7492   -0.5328 N   0  0  0  0  0  0  0  0  0  0  0  0
   -2.8807   -4.5201    0.5929 C   0  0  0  0  0  0  0  0  0  0  0  0
   -2.9965   -3.9317    1.8735 C   0  0  0  0  0  0  0  0  0  0  0  0
   -3.4822   -4.6622    2.9577 C   0  0  0  0  0  0  0  0  0  0  0  0
   -3.8547   -5.9956    2.7896 C   0  0  0  0  0  0  0  0  0  0  0  0
   -4.4897   -6.9319    4.1832 S   0  0  0  0  0  0  0  0  0  0  0  0
   -6.2201   -6.4600    3.8712 C   0  0  0  0  0  0  0  0  0  0  0  0
   -3.7209   -6.6057    1.5384 C   0  0  0  0  0  0  0  0  0  0  0  0
   -3.2266   -5.8786    0.4472 C   0  0  0  0  0  0  0  0  0  0  0  0
   -2.6660   -4.0934   -1.9049 C   0  0  0  0  0  0  0  0  0  0  0  0
   -1.6446   -4.0512   -2.8733 C   0  0  0  0  0  0  0  0  0  0  0  0
   -1.9070   -4.4133   -4.1958 C   0  0  0  0  0  0  0  0  0  0  0  0
   -3.1908   -4.8190   -4.5712 C   0  0  0  0  0  0  0  0  0  0  0  0
   -3.5120   -5.2953   -6.2719 S   0  0  0  0  0  0  0  0  0  0  0  0
   -2.9648   -7.0142   -6.0315 C   0  0  0  0  0  0  0  0  0  0  0  0
   -4.2215   -4.8470   -3.6189 C   0  0  0  0  0  0  0  0  0  0  0  0
   -3.9655   -4.4668   -2.2952 C   0  0  0  0  0  0  0  0  0  0  0  0
   -0.1956   -2.7404    0.1025 C   0  0  0  0  0  0  0  0  0  0  0  0
    0.9389   -3.9645   -0.0160 S   0  0  0  0  0  0  0  0  0  0  0  0
    2.2603   -2.9549    0.3646 C   0  0  0  0  0  0  0  0  0  0  0  0
    1.7899   -1.6540    0.5951 C   0  0  0  0  0  0  0  0  0  0  0  0
    2.5706   -0.5734    1.1208 N   0  0  0  0  0  0  0  0  0  0  0  0
    3.7352   -0.0977    0.4362 C   0  0  0  0  0  0  0  0  0  0  0  0
    3.6263    0.4327   -0.8577 C   0  0  0  0  0  0  0  0  0  0  0  0
    4.7332    1.0237   -1.4659 C   0  0  0  0  0  0  0  0  0  0  0  0
    5.9545    1.0948   -0.7815 C   0  0  0  0  0  0  0  0  0  0  0  0
    7.3366    1.9686   -1.5077 S   0  0  0  0  0  0  0  0  0  0  0  0
    6.8243    3.5674   -0.8078 C   0  0  0  0  0  0  0  0  0  0  0  0
    6.0763    0.5301    0.4923 C   0  0  0  0  0  0  0  0  0  0  0  0
    4.9693   -0.0606    1.1027 C   0  0  0  0  0  0  0  0  0  0  0  0
    2.1731    0.0462    2.3601 C   0  0  0  0  0  0  0  0  0  0  0  0
    1.8279   -0.7423    3.4714 C   0  0  0  0  0  0  0  0  0  0  0  0
    1.4699   -0.1394    4.6797 C   0  0  0  0  0  0  0  0  0  0  0  0
    1.4438    1.2555    4.7899 C   0  0  0  0  0  0  0  0  0  0  0  0
    1.0443    2.0308    6.3593 S   0  0  0  0  0  0  0  0  0  0  0  0
   -0.7448    2.0809    6.0330 C   0  0  0  0  0  0  0  0  0  0  0  0
    1.7782    2.0459    3.6854 C   0  0  0  0  0  0  0  0  0  0  0  0
    2.1500    1.4461    2.4776 C   0  0  0  0  0  0  0  0  0  0  0  0
    0.4184   -1.5726    0.4033 C   0  0  0  0  0  0  0  0  0  0  0  0
   -0.6333   -0.2853    0.1651 S   0  0  0  0  0  0  0  0  0  0  0  0
    3.6367   -3.3034   -0.0194 C   0  0  0  0  0  0  0  0  0  0  0  0
    4.0765   -3.0381   -1.3221 C   0  0  0  0  0  0  0  0  0  0  0  0
    5.3082   -3.5388   -1.8029 C   0  0  0  0  0  0  0  0  0  0  0  0
    5.5802   -3.2294   -3.1759 N   0  0  0  0  0  0  0  0  0  0  0  0
    4.2640   -2.4134   -3.5656 S   0  0  0  0  0  4  0  0  0  0  0  0
    3.3011   -2.3309   -2.2965 N   0  0  0  0  0  0  0  0  0  0  0  0
    6.1442   -4.3211   -0.9954 C   0  0  0  0  0  0  0  0  0  0  0  0
    5.7118   -4.5848    0.3213 C   0  0  0  0  0  0  0  0  0  0  0  0
    6.3994   -5.3806    1.1847 N   0  0  0  0  0  0  0  0  0  0  0  0
    5.4089   -5.3432    2.5073 S   0  0  0  0  0  0  0  0  0  0  0  0
    4.1197   -4.4085    2.0797 N   0  0  0  0  0  0  0  0  0  0  0  0
    4.4675   -4.0654    0.8109 C   0  0  0  0  0  0  0  0  0  0  0  0
    7.3213   -4.9852   -1.6082 C   0  0  0  0  0  0  0  0  0  0  0  0
    8.5317   -5.1070   -1.0321 C   0  0  0  0  0  0  0  0  0  0  0  0
    9.4804   -6.1542   -1.3952 C   0  0  0  0  0  0  0  0  0  0  0  0
    9.4736   -6.8117   -2.4718 O   0  0  0  0  0  0  0  0  0  0  0  0
   10.3159   -6.4146   -0.2297 C   0  0  0  0  0  0  0  0  0  0  0  0
   11.1859   -7.4846   -0.0018 C   0  0  0  0  0  0  0  0  0  0  0  0
   11.6347   -8.5736   -1.3079 Cl  0  0  0  0  0  0  0  0  0  0  0  0
   11.6755   -7.6838    1.3046 C   0  0  0  0  0  0  0  0  0  0  0  0
   12.7888   -9.0152    1.6299 Cl  0  0  0  0  0  0  0  0  0  0  0  0
   11.2286   -6.8580    2.3652 C   0  0  0  0  0  0  0  0  0  0  0  0
   11.7444   -7.1958    4.0190 Cl  0  0  0  0  0  0  0  0  0  0  0  0
   10.3282   -5.7970    2.1138 C   0  0  0  0  0  0  0  0  0  0  0  0
    9.5148   -5.0083    3.4634 Cl  0  0  0  0  0  0  0  0  0  0  0  0
    9.9597   -5.5351    0.7837 C   0  0  0  0  0  0  0  0  0  0  0  0
    9.0010   -4.5375    0.2459 C   0  0  0  0  0  0  0  0  0  0  0  0
    8.9944   -3.2102    0.5254 C   0  0  0  0  0  0  0  0  0  0  0  0
    9.8242   -2.6368    1.5512 C   0  0  0  0  0  0  0  0  0  0  0  0
   10.4854   -2.1665    2.3724 N   0  0  0  0  0  0  0  0  0  0  0  0
    8.3501   -2.2687   -0.3594 C   0  0  0  0  0  0  0  0  0  0  0  0
    7.8485   -1.5124   -1.0789 N   0  0  0  0  0  0  0  0  0  0  0  0
   -8.1046    6.4441   -0.1821 H   0  0  0  0  0  0  0  0  0  0  0  0
   -5.7118    5.0553   -1.7250 H   0  0  0  0  0  0  0  0  0  0  0  0
   -6.4432    1.3810   -4.2182 H   0  0  0  0  0  0  0  0  0  0  0  0
   -6.1992    1.6521   -6.6783 H   0  0  0  0  0  0  0  0  0  0  0  0
   -3.0761    2.6482   -9.5944 H   0  0  0  0  0  0  0  0  0  0  0  0
   -2.2022    2.9999   -8.0769 H   0  0  0  0  0  0  0  0  0  0  0  0
   -3.8997    4.9404   -9.7928 H   0  0  0  0  0  0  0  0  0  0  0  0
   -2.1162    5.0033   -9.5118 H   0  0  0  0  0  0  0  0  0  0  0  0
   -3.2687    5.3669   -8.1576 H   0  0  0  0  0  0  0  0  0  0  0  0
   -2.6377    4.0420   -6.0614 H   0  0  0  0  0  0  0  0  0  0  0  0
   -1.1582    4.7297   -4.1716 H   0  0  0  0  0  0  0  0  0  0  0  0
    2.0211    6.1640   -1.2663 H   0  0  0  0  0  0  0  0  0  0  0  0
    0.6961    5.9062   -0.0870 H   0  0  0  0  0  0  0  0  0  0  0  0
    1.1081    3.4222   -0.2127 H   0  0  0  0  0  0  0  0  0  0  0  0
    2.6360    4.2888    0.1712 H   0  0  0  0  0  0  0  0  0  0  0  0
    2.3461    3.6906   -1.5107 H   0  0  0  0  0  0  0  0  0  0  0  0
   -1.0666    4.4746    0.1584 H   0  0  0  0  0  0  0  0  0  0  0  0
   -3.1922    3.2386    0.1312 H   0  0  0  0  0  0  0  0  0  0  0  0
   -7.9555    1.1772    0.4538 H   0  0  0  0  0  0  0  0  0  0  0  0
   -8.6988    3.4774    0.9710 H   0  0  0  0  0  0  0  0  0  0  0  0
   -6.5157   -0.7910    0.2012 H   0  0  0  0  0  0  0  0  0  0  0  0
   -4.4427   -2.0945    0.4579 H   0  0  0  0  0  0  0  0  0  0  0  0
   -2.3436    0.7481   -2.0378 H   0  0  0  0  0  0  0  0  0  0  0  0
   -2.7176   -2.8982    2.0374 H   0  0  0  0  0  0  0  0  0  0  0  0
   -3.5716   -4.1881    3.9269 H   0  0  0  0  0  0  0  0  0  0  0  0
   -6.5094   -6.7348    2.8359 H   0  0  0  0  0  0  0  0  0  0  0  0
   -6.3453   -5.3673    4.0172 H   0  0  0  0  0  0  0  0  0  0  0  0
   -6.8742   -6.9999    4.5841 H   0  0  0  0  0  0  0  0  0  0  0  0
   -4.0031   -7.6404    1.4062 H   0  0  0  0  0  0  0  0  0  0  0  0
   -3.1175   -6.3821   -0.5027 H   0  0  0  0  0  0  0  0  0  0  0  0
   -0.6408   -3.7604   -2.6045 H   0  0  0  0  0  0  0  0  0  0  0  0
   -1.1129   -4.3887   -4.9283 H   0  0  0  0  0  0  0  0  0  0  0  0
   -3.0048   -7.5488   -7.0014 H   0  0  0  0  0  0  0  0  0  0  0  0
   -1.9196   -7.0366   -5.6556 H   0  0  0  0  0  0  0  0  0  0  0  0
   -3.6316   -7.5266   -5.3064 H   0  0  0  0  0  0  0  0  0  0  0  0
   -5.2156   -5.1689   -3.9076 H   0  0  0  0  0  0  0  0  0  0  0  0
   -4.7762   -4.4838   -1.5767 H   0  0  0  0  0  0  0  0  0  0  0  0
    2.6735    0.4193   -1.3694 H   0  0  0  0  0  0  0  0  0  0  0  0
    4.6315    1.4676   -2.4469 H   0  0  0  0  0  0  0  0  0  0  0  0
    7.5686    4.3421   -1.0820 H   0  0  0  0  0  0  0  0  0  0  0  0
    6.7642    3.5003    0.2997 H   0  0  0  0  0  0  0  0  0  0  0  0
    5.8326    3.8589   -1.2169 H   0  0  0  0  0  0  0  0  0  0  0  0
    7.0182    0.5739    1.0276 H   0  0  0  0  0  0  0  0  0  0  0  0
    5.0595   -0.4725    2.0986 H   0  0  0  0  0  0  0  0  0  0  0  0
    1.8575   -1.8233    3.4037 H   0  0  0  0  0  0  0  0  0  0  0  0
    1.2198   -0.7562    5.5340 H   0  0  0  0  0  0  0  0  0  0  0  0
   -1.1625    1.0539    6.0582 H   0  0  0  0  0  0  0  0  0  0  0  0
   -0.9455    2.5424    5.0448 H   0  0  0  0  0  0  0  0  0  0  0  0
   -1.2344    2.6900    6.8181 H   0  0  0  0  0  0  0  0  0  0  0  0
    1.7617    3.1263    3.7616 H   0  0  0  0  0  0  0  0  0  0  0  0
    2.4033    2.0692    1.6319 H   0  0  0  0  0  0  0  0  0  0  0  0
    7.1444   -5.4965   -2.5474 H   0  0  0  0  0  0  0  0  0  0  0  0
  1  2  2  3
  2  3  1  0
  3  4  2  0
  3  5  1  0
  5  6  2  0
  6  7  1  0
  6  8  1  0
  8  9  1  0
  8 10  2  0
 10 11  1  0
 10 12  1  0
 12 13  1  0
 12 14  2  0
 14 15  1  0
 15 16  2  3
 16 17  1  0
 17 18  3  0
 16 19  1  0
 19 20  3  0
  1 21  1  0
 21 22  2  0
 22 23  1  0
 23 24  1  0
 24 25  1  0
 25 26  2  0
 26 27  1  0
 27 28  2  0
 28 29  1  0
 29 30  1  0
 30 31  1  0
 28 32  1  0
 32 33  2  0
 33 34  1  0
 34 35  2  0
 35 36  1  0
 36 37  1  0
 37 38  1  0
 38 39  1  0
 36 40  2  0
 40 41  1  0
 41 42  2  0
 24 43  1  0
 43 44  2  0
 44 45  1  0
 45 46  1  0
 46 47  2  0
 44 48  1  0
 48 49  2  0
 49 50  1  0
 50 51  2  0
 50 52  1  0
 52 53  2  0
 53 54  1  0
 54 55  1  0
 55 56  2  0
 56 57  1  0
 57 58  2  0
 58 59  1  0
 59 60  1  0
 58 61  1  0
 61 62  2  0
 54 63  1  0
 63 64  2  0
 64 65  1  0
 65 66  2  0
 66 67  1  0
 67 68  1  0
 66 69  1  0
 69 70  2  0
 53 71  1  0
 71 72  1  0
 72 73  1  0
 73 74  2  0
 74 75  1  0
 75 76  1  0
 76 77  2  0
 77 78  1  0
 78 79  2  0
 79 80  1  0
 80 81  1  0
 79 82  1  0
 82 83  2  0
 75 84  1  0
 84 85  2  0
 85 86  1  0
 86 87  2  0
 87 88  1  0
 88 89  1  0
 87 90  1  0
 90 91  2  0
 74 92  1  0
 92 93  1  0
 73 94  1  0
 94 95  2  0
 95 96  1  0
 96 97  1  0
 97 98  2  0
 98 99  2  0
 96100  2  0
100101  1  0
101102  2  0
102103  1  0
103104  1  0
104105  2  0
100106  1  0
106107  2  3
107108  1  0
108109  2  0
108110  1  0
110111  2  0
111112  1  0
111113  1  0
113114  1  0
113115  2  0
115116  1  0
115117  1  0
117118  1  0
117119  2  0
119120  1  0
120121  2  3
121122  1  0
122123  3  0
121124  1  0
124125  3  0
 15  2  1  0
 47 21  1  0
 93 52  1  0
105 94  1  0
120107  1  0
 14  5  1  0
 45 23  2  0
 62 55  1  0
 70 63  1  0
 92 71  2  0
 99 95  1  0
105101  1  0
119110  1  0
 42 24  1  0
 51 43  1  0
 83 76  1  0
 91 84  1  0
 33 25  1  0
 42 34  1  0
  1126  1  0
 22127  1  0
 26128  1  0
 27129  1  0
 30130  1  0
 30131  1  0
 31132  1  0
 31133  1  0
 31134  1  0
 32135  1  0
 35136  1  0
 38137  1  0
 38138  1  0
 39139  1  0
 39140  1  0
 39141  1  0
 40142  1  0
 41143  1  0
 46144  1  0
 47145  1  0
 48146  1  0
 49147  1  0
 51148  1  0
 56149  1  0
 57150  1  0
 60151  1  0
 60152  1  0
 60153  1  0
 61154  1  0
 62155  1  0
 64156  1  0
 65157  1  0
 68158  1  0
 68159  1  0
 68160  1  0
 69161  1  0
 70162  1  0
 77163  1  0
 78164  1  0
 81165  1  0
 81166  1  0
 81167  1  0
 82168  1  0
 83169  1  0
 85170  1  0
 86171  1  0
 89172  1  0
 89173  1  0
 89174  1  0
 90175  1  0
 91176  1  0
106177  1  0
M  END

