
     RDKit          3D

140152  0  0  0  0  0  0  0  0999 V2000
    0.0088    5.4541   -7.0489 C   0  0  0  0  0  0  0  0  0  0  0  0
    0.9748    4.6902   -7.6046 C   0  0  0  0  0  0  0  0  0  0  0  0
    2.2403    5.2165   -8.2119 C   0  0  0  0  0  0  0  0  0  0  0  0
    2.3487    6.3108   -8.8471 O   0  0  0  0  0  0  0  0  0  0  0  0
    3.2754    4.1923   -8.1801 C   0  0  0  0  0  0  0  0  0  0  0  0
    4.6050    4.1061   -8.6221 C   0  0  0  0  0  0  0  0  0  0  0  0
    5.2093    5.3537   -9.6546 Cl  0  0  0  0  0  0  0  0  0  0  0  0
    5.4030    3.0327   -8.2530 C   0  0  0  0  0  0  0  0  0  0  0  0
    7.0644    2.9355   -8.8354 Cl  0  0  0  0  0  0  0  0  0  0  0  0
    4.9033    2.0616   -7.3688 C   0  0  0  0  0  0  0  0  0  0  0  0
    5.9610    0.7650   -6.9082 Cl  0  0  0  0  0  0  0  0  0  0  0  0
    3.5894    2.1126   -6.9652 C   0  0  0  0  0  0  0  0  0  0  0  0
    3.1702    1.1959   -5.5511 Cl  0  0  0  0  0  0  0  0  0  0  0  0
    2.7237    3.1021   -7.4725 C   0  0  0  0  0  0  0  0  0  0  0  0
    1.2930    3.2714   -7.0922 C   0  0  0  0  0  0  0  0  0  0  0  0
    0.2711    2.4048   -7.1233 C   0  0  0  0  0  0  0  0  0  0  0  0
    0.4487    1.1491   -6.6416 C   0  0  0  0  0  0  0  0  0  0  0  0
    0.5054    0.0969   -6.1093 N   0  0  0  0  0  0  0  0  0  0  0  0
   -1.1087    2.8319   -7.5815 C   0  0  0  0  0  0  0  0  0  0  0  0
   -2.2874    2.9582   -7.7930 N   0  0  0  0  0  0  0  0  0  0  0  0
   -0.6527    5.2192   -5.7164 C   0  0  0  0  0  0  0  0  0  0  0  0
    0.0422    4.7887   -4.6099 C   0  0  0  0  0  0  0  0  0  0  0  0
    1.3564    4.5251   -4.6608 N   0  0  0  0  0  0  0  0  0  0  0  0
    1.9407    3.8511   -3.6363 C   0  0  0  0  0  0  0  0  0  0  0  0
    1.1686    3.3265   -2.6199 C   0  0  0  0  0  0  0  0  0  0  0  0
    1.9181    2.5985   -1.7076 O   0  0  0  0  0  0  0  0  0  0  0  0
    1.5182    1.8939   -0.5530 C   0  0  0  0  0  0  0  0  0  0  0  0
    2.7394    1.2274    0.1107 C   0  0  0  0  0  0  0  0  0  0  0  0
   -0.1579    3.5411   -2.5538 N   0  0  0  0  0  0  0  0  0  0  0  0
   -0.7110    4.3849   -3.5026 C   0  0  0  0  0  0  0  0  0  0  0  0
   -2.1271    4.5328   -3.4200 C   0  0  0  0  0  0  0  0  0  0  0  0
   -2.8049    5.0947   -4.4824 C   0  0  0  0  0  0  0  0  0  0  0  0
   -2.0301    5.4922   -5.5871 C   0  0  0  0  0  0  0  0  0  0  0  0
   -2.8194    3.8908   -2.2693 C   0  0  0  0  0  0  0  0  0  0  0  0
   -3.0502    2.5028   -2.3685 C   0  0  0  0  0  0  0  0  0  0  0  0
   -2.7772    1.7655   -1.1886 C   0  0  0  0  0  0  0  0  0  0  0  0
   -2.7829    0.3540   -0.9911 C   0  0  0  0  0  0  0  0  0  0  0  0
   -3.2677   -0.5957   -2.0094 C   0  0  0  0  0  0  0  0  0  0  0  0
   -4.3044   -0.2221   -2.8700 C   0  0  0  0  0  0  0  0  0  0  0  0
   -4.4484   -0.8936   -4.0675 C   0  0  0  0  0  0  0  0  0  0  0  0
   -3.7315   -2.0545   -4.3410 C   0  0  0  0  0  0  0  0  0  0  0  0
   -3.8977   -2.7137   -5.5830 O   0  0  0  0  0  0  0  0  0  0  0  0
   -4.6928   -2.1886   -6.6507 C   0  0  0  0  0  0  0  0  0  0  0  0
   -4.6685   -3.0990   -7.8703 C   0  0  0  0  0  0  0  0  0  0  0  0
   -2.8315   -2.5457   -3.3857 C   0  0  0  0  0  0  0  0  0  0  0  0
   -2.2190   -3.9420   -3.5706 C   0  0  0  0  0  0  0  0  0  0  0  0
   -3.2037   -4.9126   -3.7362 F   0  0  0  0  0  0  0  0  0  0  0  0
   -1.3588   -3.9762   -4.6645 F   0  0  0  0  0  0  0  0  0  0  0  0
   -1.5274   -4.2853   -2.4254 F   0  0  0  0  0  0  0  0  0  0  0  0
   -2.5386   -1.7683   -2.2855 C   0  0  0  0  0  0  0  0  0  0  0  0
   -2.2607   -0.1310    0.2408 C   0  0  0  0  0  0  0  0  0  0  0  0
   -1.7131    0.7048    1.2280 C   0  0  0  0  0  0  0  0  0  0  0  0
   -1.7908    2.0825    1.0395 C   0  0  0  0  0  0  0  0  0  0  0  0
   -1.6074    2.9314    2.1942 C   0  0  0  0  0  0  0  0  0  0  0  0
   -0.3827    3.0825    2.8694 C   0  0  0  0  0  0  0  0  0  0  0  0
   -0.3994    3.8131    4.0326 C   0  0  0  0  0  0  0  0  0  0  0  0
   -1.5228    4.4191    4.5565 C   0  0  0  0  0  0  0  0  0  0  0  0
   -1.5369    5.1718    5.7604 O   0  0  0  0  0  0  0  0  0  0  0  0
   -0.4440    5.4785    6.6163 C   0  0  0  0  0  0  0  0  0  0  0  0
    0.4827    6.5030    5.9722 C   0  0  0  0  0  0  0  0  0  0  0  0
   -2.7148    4.2575    3.8646 C   0  0  0  0  0  0  0  0  0  0  0  0
   -2.6773    3.5355    2.7091 C   0  0  0  0  0  0  0  0  0  0  0  0
   -3.9857    4.8393    4.3915 C   0  0  0  0  0  0  0  0  0  0  0  0
   -5.1122    4.5493    3.6194 F   0  0  0  0  0  0  0  0  0  0  0  0
   -3.8625    6.2271    4.4465 F   0  0  0  0  0  0  0  0  0  0  0  0
   -4.2441    4.3918    5.7010 F   0  0  0  0  0  0  0  0  0  0  0  0
   -2.3517    2.5805   -0.1585 C   0  0  0  0  0  0  0  0  0  0  0  0
   -2.3794    4.1656   -0.6844 S   0  0  0  0  0  0  0  0  0  0  0  0
   -1.1859    0.0721    2.3346 C   0  0  0  0  0  0  0  0  0  0  0  0
   -1.2988   -1.3338    2.3270 C   0  0  0  0  0  0  0  0  0  0  0  0
   -2.0644   -1.6964    0.8473 S   0  0  0  0  0  0  0  0  0  0  0  0
   -0.6228   -2.1828    3.3380 C   0  0  0  0  0  0  0  0  0  0  0  0
    0.2707   -3.2340    2.9816 C   0  0  0  0  0  0  0  0  0  0  0  0
    0.3842   -3.7853    1.7463 N   0  0  0  0  0  0  0  0  0  0  0  0
    1.2721   -4.7620    1.4365 C   0  0  0  0  0  0  0  0  0  0  0  0
    2.1011   -5.2725    2.4786 C   0  0  0  0  0  0  0  0  0  0  0  0
    2.9078   -6.4172    2.3242 O   0  0  0  0  0  0  0  0  0  0  0  0
    3.5809   -6.9776    3.4659 C   0  0  0  0  0  0  0  0  0  0  0  0
    2.6302   -7.4424    4.5856 C   0  0  0  0  0  0  0  0  0  0  0  0
    2.0322   -4.6559    3.6684 N   0  0  0  0  0  0  0  0  0  0  0  0
    1.1576   -3.7128    3.9980 C   0  0  0  0  0  0  0  0  0  0  0  0
    1.0983   -3.1971    5.2623 C   0  0  0  0  0  0  0  0  0  0  0  0
    0.1686   -2.2269    5.6352 C   0  0  0  0  0  0  0  0  0  0  0  0
   -0.6701   -1.7357    4.6758 C   0  0  0  0  0  0  0  0  0  0  0  0
    2.2806   -3.4544    6.1437 C   0  0  0  0  0  0  0  0  0  0  0  0
    2.2005   -3.7472    7.4370 C   0  0  0  0  0  0  0  0  0  0  0  0
    1.1306   -4.4865    8.1222 C   0  0  0  0  0  0  0  0  0  0  0  0
    0.1522   -4.9635    7.5290 O   0  0  0  0  0  0  0  0  0  0  0  0
    1.3779   -4.5867    9.5336 C   0  0  0  0  0  0  0  0  0  0  0  0
    0.6130   -5.1445   10.5183 C   0  0  0  0  0  0  0  0  0  0  0  0
   -0.8756   -5.9178   10.0947 Cl  0  0  0  0  0  0  0  0  0  0  0  0
    0.9873   -5.0904   11.8489 C   0  0  0  0  0  0  0  0  0  0  0  0
    0.0026   -5.8229   13.0853 Cl  0  0  0  0  0  0  0  0  0  0  0  0
    2.2219   -4.4721   12.1797 C   0  0  0  0  0  0  0  0  0  0  0  0
    2.7404   -4.5049   13.8123 Cl  0  0  0  0  0  0  0  0  0  0  0  0
    3.0513   -3.9773   11.1410 C   0  0  0  0  0  0  0  0  0  0  0  0
    4.6874   -3.5137   11.6077 Cl  0  0  0  0  0  0  0  0  0  0  0  0
    2.5880   -3.9244    9.8137 C   0  0  0  0  0  0  0  0  0  0  0  0
    3.1477   -3.3231    8.5341 C   0  0  0  0  0  0  0  0  0  0  0  0
    4.0577   -2.2933    8.3996 C   0  0  0  0  0  0  0  0  0  0  0  0
    4.8821   -1.7045    9.4110 C   0  0  0  0  0  0  0  0  0  0  0  0
    5.6451   -1.0456   10.1165 N   0  0  0  0  0  0  0  0  0  0  0  0
    4.1974   -1.5145    7.1392 C   0  0  0  0  0  0  0  0  0  0  0  0
    4.3599   -0.8496    6.1316 N   0  0  0  0  0  0  0  0  0  0  0  0
   -0.4234    6.1259   -7.7760 H   0  0  0  0  0  0  0  0  0  0  0  0
    3.0402    3.6078   -3.8057 H   0  0  0  0  0  0  0  0  0  0  0  0
    0.8623    1.0460   -0.8584 H   0  0  0  0  0  0  0  0  0  0  0  0
    0.9892    2.4738    0.2058 H   0  0  0  0  0  0  0  0  0  0  0  0
    2.6041    0.5070    0.9661 H   0  0  0  0  0  0  0  0  0  0  0  0
    3.3223    0.7382   -0.6690 H   0  0  0  0  0  0  0  0  0  0  0  0
    3.3801    2.0640    0.4754 H   0  0  0  0  0  0  0  0  0  0  0  0
   -3.8745    5.0598   -4.5390 H   0  0  0  0  0  0  0  0  0  0  0  0
   -2.5731    5.7952   -6.4873 H   0  0  0  0  0  0  0  0  0  0  0  0
   -3.1539    1.9621   -3.3138 H   0  0  0  0  0  0  0  0  0  0  0  0
   -5.0701    0.5067   -2.6053 H   0  0  0  0  0  0  0  0  0  0  0  0
   -5.0581   -0.4382   -4.8381 H   0  0  0  0  0  0  0  0  0  0  0  0
   -5.7423   -2.0788   -6.3177 H   0  0  0  0  0  0  0  0  0  0  0  0
   -4.3164   -1.2008   -6.9369 H   0  0  0  0  0  0  0  0  0  0  0  0
   -3.7440   -3.6899   -7.8591 H   0  0  0  0  0  0  0  0  0  0  0  0
   -5.5369   -3.7925   -7.8450 H   0  0  0  0  0  0  0  0  0  0  0  0
   -4.7027   -2.4829   -8.8080 H   0  0  0  0  0  0  0  0  0  0  0  0
   -1.6870   -2.1023   -1.7248 H   0  0  0  0  0  0  0  0  0  0  0  0
    0.4948    2.5958    2.5965 H   0  0  0  0  0  0  0  0  0  0  0  0
    0.5310    3.9145    4.5797 H   0  0  0  0  0  0  0  0  0  0  0  0
   -0.8558    5.8828    7.5459 H   0  0  0  0  0  0  0  0  0  0  0  0
    0.0837    4.5292    6.8766 H   0  0  0  0  0  0  0  0  0  0  0  0
   -0.0743    7.1441    5.2831 H   0  0  0  0  0  0  0  0  0  0  0  0
    1.3381    6.0196    5.4219 H   0  0  0  0  0  0  0  0  0  0  0  0
    0.9239    7.1630    6.7837 H   0  0  0  0  0  0  0  0  0  0  0  0
   -3.6084    3.3865    2.2307 H   0  0  0  0  0  0  0  0  0  0  0  0
   -0.7162    0.5916    3.1862 H   0  0  0  0  0  0  0  0  0  0  0  0
    1.2925   -5.2035    0.4562 H   0  0  0  0  0  0  0  0  0  0  0  0
    4.2928   -6.2132    3.8885 H   0  0  0  0  0  0  0  0  0  0  0  0
    4.2100   -7.8089    3.1282 H   0  0  0  0  0  0  0  0  0  0  0  0
    2.9812   -7.0651    5.5676 H   0  0  0  0  0  0  0  0  0  0  0  0
    1.6188   -7.0765    4.4396 H   0  0  0  0  0  0  0  0  0  0  0  0
    2.6089   -8.5460    4.6391 H   0  0  0  0  0  0  0  0  0  0  0  0
    0.2371   -1.7955    6.5989 H   0  0  0  0  0  0  0  0  0  0  0  0
   -1.2656   -0.9003    4.9489 H   0  0  0  0  0  0  0  0  0  0  0  0
    3.2494   -3.2678    5.7316 H   0  0  0  0  0  0  0  0  0  0  0  0
  1  2  2  3
  2  3  1  0
  3  4  2  0
  3  5  1  0
  5  6  2  0
  6  7  1  0
  6  8  1  0
  8  9  1  0
  8 10  2  0
 10 11  1  0
 10 12  1  0
 12 13  1  0
 12 14  2  0
 14 15  1  0
 15 16  2  3
 16 17  1  0
 17 18  3  0
 16 19  1  0
 19 20  3  0
  1 21  1  0
 21 22  1  0
 22 23  2  0
 23 24  1  0
 24 25  2  0
 25 26  1  0
 26 27  1  0
 27 28  1  0
 25 29  1  0
 29 30  2  0
 30 31  1  0
 31 32  2  0
 32 33  1  0
 31 34  1  0
 34 35  2  0
 35 36  1  0
 36 37  2  0
 37 38  1  0
 38 39  2  0
 39 40  1  0
 40 41  2  0
 41 42  1  0
 42 43  1  0
 43 44  1  0
 41 45  1  0
 45 46  1  0
 46 47  1  0
 46 48  1  0
 46 49  1  0
 45 50  2  0
 37 51  1  0
 51 52  2  0
 52 53  1  0
 53 54  1  0
 54 55  2  0
 55 56  1  0
 56 57  2  0
 57 58  1  0
 58 59  1  0
 59 60  1  0
 57 61  1  0
 61 62  2  0
 61 63  1  0
 63 64  1  0
 63 65  1  0
 63 66  1  0
 53 67  2  0
 67 68  1  0
 52 69  1  0
 69 70  2  0
 70 71  1  0
 70 72  1  0
 72 73  1  0
 73 74  2  0
 74 75  1  0
 75 76  2  0
 76 77  1  0
 77 78  1  0
 78 79  1  0
 76 80  1  0
 80 81  2  0
 81 82  1  0
 82 83  2  0
 83 84  1  0
 82 85  1  0
 85 86  2  3
 86 87  1  0
 87 88  2  0
 87 89  1  0
 89 90  2  0
 90 91  1  0
 90 92  1  0
 92 93  1  0
 92 94  2  0
 94 95  1  0
 94 96  1  0
 96 97  1  0
 96 98  2  0
 98 99  1  0
 99100  2  3
100101  1  0
101102  3  0
100103  1  0
103104  3  0
 15  2  1  0
 33 21  2  0
 68 34  1  0
 84 72  2  0
 99 86  1  0
 14  5  1  0
 30 22  1  0
 67 36  1  0
 81 73  1  0
 98 89  1  0
 50 38  1  0
 71 51  1  0
 62 54  1  0
  1105  1  0
 24106  1  0
 27107  1  0
 27108  1  0
 28109  1  0
 28110  1  0
 28111  1  0
 32112  1  0
 33113  1  0
 35114  1  0
 39115  1  0
 40116  1  0
 43117  1  0
 43118  1  0
 44119  1  0
 44120  1  0
 44121  1  0
 50122  1  0
 55123  1  0
 56124  1  0
 59125  1  0
 59126  1  0
 60127  1  0
 60128  1  0
 60129  1  0
 62130  1  0
 69131  1  0
 75132  1  0
 78133  1  0
 78134  1  0
 79135  1  0
 79136  1  0
 79137  1  0
 83138  1  0
 84139  1  0
 85140  1  0
M  END

