
     RDKit          3D

157167  0  0  0  0  0  0  0  0999 V2000
   -5.9238    2.6554   -5.6184 C   0  0  0  0  0  0  0  0  0  0  0  0
   -6.2228    3.0797   -6.8610 C   0  0  0  0  0  0  0  0  0  0  0  0
   -5.3749    2.9732   -8.0511 C   0  0  0  0  0  0  0  0  0  0  0  0
   -4.4238    2.1629   -8.2125 O   0  0  0  0  0  0  0  0  0  0  0  0
   -5.8448    3.9425   -9.0321 C   0  0  0  0  0  0  0  0  0  0  0  0
   -5.2486    4.3378  -10.2341 C   0  0  0  0  0  0  0  0  0  0  0  0
   -3.8334    3.4906  -10.8578 Cl  0  0  0  0  0  0  0  0  0  0  0  0
   -5.7864    5.4446  -10.9188 C   0  0  0  0  0  0  0  0  0  0  0  0
   -5.0831    5.9543  -12.4555 Cl  0  0  0  0  0  0  0  0  0  0  0  0
   -6.8501    6.1822  -10.3450 C   0  0  0  0  0  0  0  0  0  0  0  0
   -7.4402    7.6414  -11.1459 Cl  0  0  0  0  0  0  0  0  0  0  0  0
   -7.4204    5.7766   -9.1179 C   0  0  0  0  0  0  0  0  0  0  0  0
   -8.4994    6.8702   -8.2578 Cl  0  0  0  0  0  0  0  0  0  0  0  0
   -6.9625    4.5856   -8.5256 C   0  0  0  0  0  0  0  0  0  0  0  0
   -7.3739    3.9353   -7.2525 C   0  0  0  0  0  0  0  0  0  0  0  0
   -8.6550    3.7522   -6.8393 C   0  0  0  0  0  0  0  0  0  0  0  0
   -9.7790    4.1730   -7.6369 C   0  0  0  0  0  0  0  0  0  0  0  0
  -10.6872    4.5036   -8.2760 N   0  0  0  0  0  0  0  0  0  0  0  0
   -8.9916    2.9330   -5.7013 C   0  0  0  0  0  0  0  0  0  0  0  0
   -9.2750    2.2788   -4.7894 N   0  0  0  0  0  0  0  0  0  0  0  0
   -4.6563    1.9934   -5.2350 C   0  0  0  0  0  0  0  0  0  0  0  0
   -3.4317    2.6399   -5.4353 C   0  0  0  0  0  0  0  0  0  0  0  0
   -3.3868    3.8575   -6.0344 F   0  0  0  0  0  0  0  0  0  0  0  0
   -2.2441    2.0801   -4.9656 C   0  0  0  0  0  0  0  0  0  0  0  0
   -1.0923    2.7542   -5.2141 F   0  0  0  0  0  0  0  0  0  0  0  0
   -2.2451    0.8637   -4.2442 C   0  0  0  0  0  0  0  0  0  0  0  0
   -3.4757    0.1677   -4.1122 C   0  0  0  0  0  0  0  0  0  0  0  0
   -3.5155   -1.1005   -3.5238 O   0  0  0  0  0  0  0  0  0  0  0  0
   -3.9407   -2.2564   -4.2473 C   0  0  0  0  0  0  0  0  0  0  0  0
   -3.7997   -3.4940   -3.3791 C   0  0  0  0  0  0  0  0  0  0  0  0
   -4.6787    0.7645   -4.5519 C   0  0  0  0  0  0  0  0  0  0  0  0
   -5.9012    0.1293   -4.3028 O   0  0  0  0  0  0  0  0  0  0  0  0
   -6.7076    0.4243   -3.1652 C   0  0  0  0  0  0  0  0  0  0  0  0
   -6.2006   -0.2947   -1.9281 C   0  0  0  0  0  0  0  0  0  0  0  0
   -0.9916    0.4337   -3.5343 C   0  0  0  0  0  0  0  0  0  0  0  0
   -0.7028   -0.7980   -2.9158 C   0  0  0  0  0  0  0  0  0  0  0  0
    0.4509   -0.7733   -2.0964 C   0  0  0  0  0  0  0  0  0  0  0  0
    0.8940   -1.7949   -1.2180 C   0  0  0  0  0  0  0  0  0  0  0  0
    0.0987   -3.0206   -0.9674 C   0  0  0  0  0  0  0  0  0  0  0  0
   -1.2390   -2.9145   -0.5600 C   0  0  0  0  0  0  0  0  0  0  0  0
   -1.9976   -4.0552   -0.2888 C   0  0  0  0  0  0  0  0  0  0  0  0
   -3.3410   -3.8765    0.0701 O   0  0  0  0  0  0  0  0  0  0  0  0
   -4.2747   -4.9356    0.2630 C   0  0  0  0  0  0  0  0  0  0  0  0
   -5.6435   -4.3455    0.5624 C   0  0  0  0  0  0  0  0  0  0  0  0
   -1.4000   -5.3251   -0.3982 C   0  0  0  0  0  0  0  0  0  0  0  0
   -0.0451   -5.4418   -0.7663 C   0  0  0  0  0  0  0  0  0  0  0  0
    0.6111   -6.6805   -0.8560 O   0  0  0  0  0  0  0  0  0  0  0  0
    0.0659   -7.9458   -0.4821 C   0  0  0  0  0  0  0  0  0  0  0  0
    0.0103   -8.0931    1.0357 C   0  0  0  0  0  0  0  0  0  0  0  0
    0.6900   -4.2876   -1.0634 C   0  0  0  0  0  0  0  0  0  0  0  0
    2.0257   -1.4986   -0.4223 C   0  0  0  0  0  0  0  0  0  0  0  0
    2.6787   -0.2610   -0.4726 C   0  0  0  0  0  0  0  0  0  0  0  0
    2.2212    0.7581   -1.3262 C   0  0  0  0  0  0  0  0  0  0  0  0
    2.6838    2.1549   -1.1715 C   0  0  0  0  0  0  0  0  0  0  0  0
    4.0029    2.5188   -1.4799 C   0  0  0  0  0  0  0  0  0  0  0  0
    4.4523    3.8242   -1.2485 C   0  0  0  0  0  0  0  0  0  0  0  0
    3.5600    4.7759   -0.7158 C   0  0  0  0  0  0  0  0  0  0  0  0
    2.2397    4.4279   -0.4082 C   0  0  0  0  0  0  0  0  0  0  0  0
    1.3971    5.4157    0.1285 O   0  0  0  0  0  0  0  0  0  0  0  0
    0.0737    5.1964    0.6262 C   0  0  0  0  0  0  0  0  0  0  0  0
    0.1107    4.4685    1.9690 C   0  0  0  0  0  0  0  0  0  0  0  0
    1.8061    3.1112   -0.6420 C   0  0  0  0  0  0  0  0  0  0  0  0
    5.7872    4.1357   -1.5482 O   0  0  0  0  0  0  0  0  0  0  0  0
    6.3989    5.3932   -1.2652 C   0  0  0  0  0  0  0  0  0  0  0  0
    7.8502    5.3722   -1.7259 C   0  0  0  0  0  0  0  0  0  0  0  0
    1.1089    0.4578   -2.1267 C   0  0  0  0  0  0  0  0  0  0  0  0
    0.2389    1.5079   -3.0961 S   0  0  0  0  0  0  0  0  0  0  0  0
    3.6542   -0.1091    0.5216 C   0  0  0  0  0  0  0  0  0  0  0  0
    3.7352   -1.1950    1.3918 C   0  0  0  0  0  0  0  0  0  0  0  0
    2.6274   -2.3708    0.8937 S   0  0  0  0  0  0  0  0  0  0  0  0
    4.4446   -1.1789    2.6905 C   0  0  0  0  0  0  0  0  0  0  0  0
    4.3787   -0.0175    3.4814 C   0  0  0  0  0  0  0  0  0  0  0  0
    3.6921    1.0806    3.0649 F   0  0  0  0  0  0  0  0  0  0  0  0
    4.9635    0.0142    4.7394 C   0  0  0  0  0  0  0  0  0  0  0  0
    4.8812    1.1519    5.4791 F   0  0  0  0  0  0  0  0  0  0  0  0
    5.5855   -1.1270    5.2594 C   0  0  0  0  0  0  0  0  0  0  0  0
    5.6780   -2.3030    4.4918 C   0  0  0  0  0  0  0  0  0  0  0  0
    6.3311   -3.4004    5.0848 O   0  0  0  0  0  0  0  0  0  0  0  0
    6.1727   -4.7806    4.7618 C   0  0  0  0  0  0  0  0  0  0  0  0
    4.7321   -5.2394    4.9875 C   0  0  0  0  0  0  0  0  0  0  0  0
    5.1290   -2.3187    3.1805 C   0  0  0  0  0  0  0  0  0  0  0  0
    5.2757   -3.4451    2.3668 O   0  0  0  0  0  0  0  0  0  0  0  0
    6.1024   -3.4460    1.2066 C   0  0  0  0  0  0  0  0  0  0  0  0
    5.8070   -4.6834    0.3684 C   0  0  0  0  0  0  0  0  0  0  0  0
    6.1018   -1.0631    6.6393 C   0  0  0  0  0  0  0  0  0  0  0  0
    5.2765   -1.0856    7.7064 C   0  0  0  0  0  0  0  0  0  0  0  0
    3.8300   -1.3298    7.6311 C   0  0  0  0  0  0  0  0  0  0  0  0
    3.2138   -1.9050    6.6919 O   0  0  0  0  0  0  0  0  0  0  0  0
    3.2157   -0.8118    8.8304 C   0  0  0  0  0  0  0  0  0  0  0  0
    1.8591   -0.7804    9.1467 C   0  0  0  0  0  0  0  0  0  0  0  0
    1.4714   -0.2107   10.3644 C   0  0  0  0  0  0  0  0  0  0  0  0
    2.4384    0.3141   11.2475 C   0  0  0  0  0  0  0  0  0  0  0  0
    1.9966    0.9192   12.5497 C   0  0  0  0  0  0  0  0  0  0  0  0
    3.8070    0.2521   10.9126 C   0  0  0  0  0  0  0  0  0  0  0  0
    4.1887   -0.3113    9.6811 C   0  0  0  0  0  0  0  0  0  0  0  0
    5.5407   -0.5190    9.0710 C   0  0  0  0  0  0  0  0  0  0  0  0
    6.7494   -0.2730    9.6391 C   0  0  0  0  0  0  0  0  0  0  0  0
    6.9010    0.4804   10.8540 C   0  0  0  0  0  0  0  0  0  0  0  0
    7.0298    1.1083   11.8204 N   0  0  0  0  0  0  0  0  0  0  0  0
    7.9818   -0.7847    9.0852 C   0  0  0  0  0  0  0  0  0  0  0  0
    8.9693   -1.2001    8.6449 N   0  0  0  0  0  0  0  0  0  0  0  0
   -6.5980    2.8894   -4.8139 H   0  0  0  0  0  0  0  0  0  0  0  0
   -3.3107   -2.3743   -5.1570 H   0  0  0  0  0  0  0  0  0  0  0  0
   -5.0038   -2.1547   -4.5594 H   0  0  0  0  0  0  0  0  0  0  0  0
   -4.0695   -4.3951   -3.9672 H   0  0  0  0  0  0  0  0  0  0  0  0
   -4.4710   -3.4202   -2.4993 H   0  0  0  0  0  0  0  0  0  0  0  0
   -2.7498   -3.6038   -3.0415 H   0  0  0  0  0  0  0  0  0  0  0  0
   -6.7304    1.5205   -2.9744 H   0  0  0  0  0  0  0  0  0  0  0  0
   -7.7466    0.0865   -3.3749 H   0  0  0  0  0  0  0  0  0  0  0  0
   -6.1703   -1.3945   -2.1019 H   0  0  0  0  0  0  0  0  0  0  0  0
   -5.1809    0.0629   -1.6635 H   0  0  0  0  0  0  0  0  0  0  0  0
   -6.8776   -0.0889   -1.0747 H   0  0  0  0  0  0  0  0  0  0  0  0
   -1.3041   -1.6807   -3.0256 H   0  0  0  0  0  0  0  0  0  0  0  0
   -1.6978   -1.9341   -0.4557 H   0  0  0  0  0  0  0  0  0  0  0  0
   -3.9533   -5.5693    1.1162 H   0  0  0  0  0  0  0  0  0  0  0  0
   -4.3392   -5.5546   -0.6584 H   0  0  0  0  0  0  0  0  0  0  0  0
   -5.9696   -3.6974   -0.2775 H   0  0  0  0  0  0  0  0  0  0  0  0
   -6.3853   -5.1619    0.6969 H   0  0  0  0  0  0  0  0  0  0  0  0
   -5.6003   -3.7400    1.4922 H   0  0  0  0  0  0  0  0  0  0  0  0
   -1.9880   -6.2056   -0.1911 H   0  0  0  0  0  0  0  0  0  0  0  0
    0.7365   -8.7386   -0.8805 H   0  0  0  0  0  0  0  0  0  0  0  0
   -0.9349   -8.0985   -0.9381 H   0  0  0  0  0  0  0  0  0  0  0  0
   -0.2226   -9.1472    1.2985 H   0  0  0  0  0  0  0  0  0  0  0  0
    0.9926   -7.8260    1.4801 H   0  0  0  0  0  0  0  0  0  0  0  0
   -0.7778   -7.4400    1.4633 H   0  0  0  0  0  0  0  0  0  0  0  0
    1.7310   -4.3794   -1.3533 H   0  0  0  0  0  0  0  0  0  0  0  0
    4.6913    1.7801   -1.8810 H   0  0  0  0  0  0  0  0  0  0  0  0
    3.8798    5.7912   -0.5268 H   0  0  0  0  0  0  0  0  0  0  0  0
   -0.4045    6.1894    0.7816 H   0  0  0  0  0  0  0  0  0  0  0  0
   -0.5470    4.6432   -0.1136 H   0  0  0  0  0  0  0  0  0  0  0  0
    0.3759    3.3979    1.8283 H   0  0  0  0  0  0  0  0  0  0  0  0
   -0.8846    4.5294    2.4565 H   0  0  0  0  0  0  0  0  0  0  0  0
    0.8718    4.9399    2.6281 H   0  0  0  0  0  0  0  0  0  0  0  0
    0.7969    2.8122   -0.4005 H   0  0  0  0  0  0  0  0  0  0  0  0
    5.8645    6.2042   -1.8053 H   0  0  0  0  0  0  0  0  0  0  0  0
    6.3640    5.5904   -0.1728 H   0  0  0  0  0  0  0  0  0  0  0  0
    7.8938    5.2553   -2.8264 H   0  0  0  0  0  0  0  0  0  0  0  0
    8.3890    4.5282   -1.2458 H   0  0  0  0  0  0  0  0  0  0  0  0
    8.3450    6.3242   -1.4445 H   0  0  0  0  0  0  0  0  0  0  0  0
    4.2300    0.7966    0.6568 H   0  0  0  0  0  0  0  0  0  0  0  0
    6.8286   -5.3615    5.4458 H   0  0  0  0  0  0  0  0  0  0  0  0
    6.5098   -4.9993    3.7314 H   0  0  0  0  0  0  0  0  0  0  0  0
    4.6903   -6.3477    5.0201 H   0  0  0  0  0  0  0  0  0  0  0  0
    4.3476   -4.8330    5.9461 H   0  0  0  0  0  0  0  0  0  0  0  0
    4.0790   -4.8938    4.1600 H   0  0  0  0  0  0  0  0  0  0  0  0
    7.1701   -3.4509    1.5183 H   0  0  0  0  0  0  0  0  0  0  0  0
    5.9189   -2.5412    0.5859 H   0  0  0  0  0  0  0  0  0  0  0  0
    6.4154   -4.6506   -0.5582 H   0  0  0  0  0  0  0  0  0  0  0  0
    6.0651   -5.5998    0.9391 H   0  0  0  0  0  0  0  0  0  0  0  0
    4.7327   -4.7065    0.0927 H   0  0  0  0  0  0  0  0  0  0  0  0
    7.1253   -0.7518    6.7352 H   0  0  0  0  0  0  0  0  0  0  0  0
    1.1120   -1.1719    8.4639 H   0  0  0  0  0  0  0  0  0  0  0  0
    0.4174   -0.1634   10.6172 H   0  0  0  0  0  0  0  0  0  0  0  0
    1.5326    0.1354   13.1870 H   0  0  0  0  0  0  0  0  0  0  0  0
    1.2456    1.7170   12.3605 H   0  0  0  0  0  0  0  0  0  0  0  0
    2.8486    1.3702   13.1024 H   0  0  0  0  0  0  0  0  0  0  0  0
    4.5247    0.6248   11.6162 H   0  0  0  0  0  0  0  0  0  0  0  0
  1  2  2  3
  2  3  1  0
  3  4  2  0
  3  5  1  0
  5  6  2  0
  6  7  1  0
  6  8  1  0
  8  9  1  0
  8 10  2  0
 10 11  1  0
 10 12  1  0
 12 13  1  0
 12 14  2  0
 14 15  1  0
 15 16  2  3
 16 17  1  0
 17 18  3  0
 16 19  1  0
 19 20  3  0
  1 21  1  0
 21 22  2  0
 22 23  1  0
 22 24  1  0
 24 25  1  0
 24 26  2  0
 26 27  1  0
 27 28  1  0
 28 29  1  0
 29 30  1  0
 27 31  2  0
 31 32  1  0
 32 33  1  0
 33 34  1  0
 26 35  1  0
 35 36  2  0
 36 37  1  0
 37 38  2  0
 38 39  1  0
 39 40  2  0
 40 41  1  0
 41 42  1  0
 42 43  1  0
 43 44  1  0
 41 45  2  0
 45 46  1  0
 46 47  1  0
 47 48  1  0
 48 49  1  0
 46 50  2  0
 38 51  1  0
 51 52  2  0
 52 53  1  0
 53 54  1  0
 54 55  2  0
 55 56  1  0
 56 57  2  0
 57 58  1  0
 58 59  1  0
 59 60  1  0
 60 61  1  0
 58 62  2  0
 56 63  1  0
 63 64  1  0
 64 65  1  0
 53 66  2  0
 66 67  1  0
 52 68  1  0
 68 69  2  0
 69 70  1  0
 69 71  1  0
 71 72  2  0
 72 73  1  0
 72 74  1  0
 74 75  1  0
 74 76  2  0
 76 77  1  0
 77 78  1  0
 78 79  1  0
 79 80  1  0
 77 81  2  0
 81 82  1  0
 82 83  1  0
 83 84  1  0
 76 85  1  0
 85 86  2  3
 86 87  1  0
 87 88  2  0
 87 89  1  0
 89 90  2  0
 90 91  1  0
 91 92  2  0
 92 93  1  0
 92 94  1  0
 94 95  2  0
 95 96  1  0
 96 97  2  3
 97 98  1  0
 98 99  3  0
 97100  1  0
100101  3  0
 15  2  1  0
 31 21  1  0
 67 35  1  0
 81 71  1  0
 96 86  1  0
 14  5  1  0
 66 37  1  0
 95 89  1  0
 50 39  1  0
 70 51  1  0
 62 54  1  0
  1102  1  0
 29103  1  0
 29104  1  0
 30105  1  0
 30106  1  0
 30107  1  0
 33108  1  0
 33109  1  0
 34110  1  0
 34111  1  0
 34112  1  0
 36113  1  0
 40114  1  0
 43115  1  0
 43116  1  0
 44117  1  0
 44118  1  0
 44119  1  0
 45120  1  0
 48121  1  0
 48122  1  0
 49123  1  0
 49124  1  0
 49125  1  0
 50126  1  0
 55127  1  0
 57128  1  0
 60129  1  0
 60130  1  0
 61131  1  0
 61132  1  0
 61133  1  0
 62134  1  0
 64135  1  0
 64136  1  0
 65137  1  0
 65138  1  0
 65139  1  0
 68140  1  0
 79141  1  0
 79142  1  0
 80143  1  0
 80144  1  0
 80145  1  0
 83146  1  0
 83147  1  0
 84148  1  0
 84149  1  0
 84150  1  0
 85151  1  0
 90152  1  0
 91153  1  0
 93154  1  0
 93155  1  0
 93156  1  0
 94157  1  0
M  END

