
     RDKit          3D

157172  0  0  0  0  0  0  0  0999 V2000
   -8.5097   -0.0552    1.2820 C   0  0  0  0  0  0  0  0  0  0  0  0
   -8.6748   -1.3783    1.4758 C   0  0  0  0  0  0  0  0  0  0  0  0
   -7.6156   -2.3935    1.4874 C   0  0  0  0  0  0  0  0  0  0  0  0
   -6.3770   -2.1618    1.3903 O   0  0  0  0  0  0  0  0  0  0  0  0
   -8.2244   -3.7096    1.4302 C   0  0  0  0  0  0  0  0  0  0  0  0
   -7.5994   -4.9566    1.3239 C   0  0  0  0  0  0  0  0  0  0  0  0
   -5.8464   -5.1023    1.4669 Cl  0  0  0  0  0  0  0  0  0  0  0  0
   -8.4033   -6.0939    1.0917 C   0  0  0  0  0  0  0  0  0  0  0  0
   -7.6641   -7.6928    1.0105 Cl  0  0  0  0  0  0  0  0  0  0  0  0
   -9.7989   -5.9436    0.8895 C   0  0  0  0  0  0  0  0  0  0  0  0
  -10.7857   -7.3503    0.4926 Cl  0  0  0  0  0  0  0  0  0  0  0  0
  -10.3924   -4.6647    0.9571 C   0  0  0  0  0  0  0  0  0  0  0  0
  -12.0282   -4.4431    0.3189 Cl  0  0  0  0  0  0  0  0  0  0  0  0
   -9.5995   -3.5623    1.3383 C   0  0  0  0  0  0  0  0  0  0  0  0
   -9.9608   -2.1286    1.5389 C   0  0  0  0  0  0  0  0  0  0  0  0
  -11.0868   -1.6760    2.1520 C   0  0  0  0  0  0  0  0  0  0  0  0
  -11.2465   -0.2985    2.5475 C   0  0  0  0  0  0  0  0  0  0  0  0
  -11.3703    0.8048    2.8668 N   0  0  0  0  0  0  0  0  0  0  0  0
  -12.0705   -2.5780    2.7055 C   0  0  0  0  0  0  0  0  0  0  0  0
  -12.8694   -3.2807    3.1597 N   0  0  0  0  0  0  0  0  0  0  0  0
   -7.2074    0.6421    1.4028 C   0  0  0  0  0  0  0  0  0  0  0  0
   -6.7653    1.5170    0.3992 C   0  0  0  0  0  0  0  0  0  0  0  0
   -5.4583    2.0726    0.4297 C   0  0  0  0  0  0  0  0  0  0  0  0
   -5.1644    2.9404   -0.6708 N   0  0  0  0  0  0  0  0  0  0  0  0
   -6.5288    2.8538   -1.4960 S   0  0  0  0  0  4  0  0  0  0  0  0
   -7.5505    1.8880   -0.7411 N   0  0  0  0  0  0  0  0  0  0  0  0
   -4.5440    1.7446    1.4492 C   0  0  0  0  0  0  0  0  0  0  0  0
   -5.0455    0.9981    2.5407 C   0  0  0  0  0  0  0  0  0  0  0  0
   -4.3097    0.7060    3.6434 N   0  0  0  0  0  0  0  0  0  0  0  0
   -5.3858   -0.1792    4.5299 S   0  0  0  0  0  0  0  0  0  0  0  0
   -6.7548   -0.2486    3.6143 N   0  0  0  0  0  0  0  0  0  0  0  0
   -6.3745    0.4661    2.5240 C   0  0  0  0  0  0  0  0  0  0  0  0
   -3.0778    1.9545    1.2855 C   0  0  0  0  0  0  0  0  0  0  0  0
   -2.3154    1.5350    0.1688 C   0  0  0  0  0  0  0  0  0  0  0  0
   -2.8160    1.2417   -1.1488 N   0  0  0  0  0  0  0  0  0  0  0  0
   -2.9852   -0.1450   -1.5168 C   0  0  0  0  0  0  0  0  0  0  0  0
   -2.1943   -0.7185   -2.5291 C   0  0  0  0  0  0  0  0  0  0  0  0
   -2.3431   -2.0662   -2.8641 C   0  0  0  0  0  0  0  0  0  0  0  0
   -3.2834   -2.8551   -2.1924 C   0  0  0  0  0  0  0  0  0  0  0  0
   -3.5100   -4.5753   -2.6550 S   0  0  0  0  0  0  0  0  0  0  0  0
   -4.7382   -4.1892   -3.9416 C   0  0  0  0  0  0  0  0  0  0  0  0
   -4.0550   -2.2971   -1.1677 C   0  0  0  0  0  0  0  0  0  0  0  0
   -3.8998   -0.9526   -0.8296 C   0  0  0  0  0  0  0  0  0  0  0  0
   -2.7144    2.2596   -2.1815 C   0  0  0  0  0  0  0  0  0  0  0  0
   -1.9032    3.4073   -2.0076 C   0  0  0  0  0  0  0  0  0  0  0  0
   -1.8576    4.4037   -2.9851 C   0  0  0  0  0  0  0  0  0  0  0  0
   -2.6118    4.2820   -4.1514 C   0  0  0  0  0  0  0  0  0  0  0  0
   -2.6003    5.5950   -5.3659 S   0  0  0  0  0  0  0  0  0  0  0  0
   -3.8594    6.5739   -4.4888 C   0  0  0  0  0  0  0  0  0  0  0  0
   -3.4027    3.1427   -4.3518 C   0  0  0  0  0  0  0  0  0  0  0  0
   -3.4558    2.1416   -3.3737 C   0  0  0  0  0  0  0  0  0  0  0  0
   -0.9695    1.4115    0.4798 C   0  0  0  0  0  0  0  0  0  0  0  0
    0.3166    0.6894   -0.3177 S   0  0  0  0  0  0  0  0  0  0  0  0
    1.3533    0.7940    1.0270 C   0  0  0  0  0  0  0  0  0  0  0  0
    0.6855    1.4062    2.0940 C   0  0  0  0  0  0  0  0  0  0  0  0
    1.2124    1.5055    3.4222 N   0  0  0  0  0  0  0  0  0  0  0  0
    1.6160    2.7899    3.9471 C   0  0  0  0  0  0  0  0  0  0  0  0
    1.6301    3.0288    5.3337 C   0  0  0  0  0  0  0  0  0  0  0  0
    1.9972    4.2817    5.8337 C   0  0  0  0  0  0  0  0  0  0  0  0
    2.3237    5.3209    4.9540 C   0  0  0  0  0  0  0  0  0  0  0  0
    2.7197    6.9510    5.5915 S   0  0  0  0  0  0  0  0  0  0  0  0
    4.5214    6.7204    5.4621 C   0  0  0  0  0  0  0  0  0  0  0  0
    2.3106    5.0987    3.5747 C   0  0  0  0  0  0  0  0  0  0  0  0
    1.9675    3.8458    3.0746 C   0  0  0  0  0  0  0  0  0  0  0  0
    1.3175    0.2943    4.1946 C   0  0  0  0  0  0  0  0  0  0  0  0
    0.1647   -0.4541    4.4947 C   0  0  0  0  0  0  0  0  0  0  0  0
    0.2716   -1.6441    5.2137 C   0  0  0  0  0  0  0  0  0  0  0  0
    1.5282   -2.1193    5.6136 C   0  0  0  0  0  0  0  0  0  0  0  0
    1.6604   -3.6449    6.5467 S   0  0  0  0  0  0  0  0  0  0  0  0
    1.7241   -4.7060    5.0698 C   0  0  0  0  0  0  0  0  0  0  0  0
    2.6789   -1.3900    5.2953 C   0  0  0  0  0  0  0  0  0  0  0  0
    2.5769   -0.1846    4.5898 C   0  0  0  0  0  0  0  0  0  0  0  0
   -0.6239    1.7391    1.7425 C   0  0  0  0  0  0  0  0  0  0  0  0
   -1.9913    2.1953    2.5881 S   0  0  0  0  0  0  0  0  0  0  0  0
    2.7042    0.2180    1.0267 C   0  0  0  0  0  0  0  0  0  0  0  0
    2.8780   -1.0756    0.5150 C   0  0  0  0  0  0  0  0  0  0  0  0
    4.1595   -1.5180    0.2137 C   0  0  0  0  0  0  0  0  0  0  0  0
    4.5373   -2.9867   -0.7953 Si  0  0  0  0  0  4  0  0  0  0  0  0
    4.5858   -4.5492    0.2511 C   0  0  0  0  0  0  0  0  0  0  0  0
    3.3720   -4.6530    1.1652 C   0  0  0  0  0  0  0  0  0  0  0  0
    3.4998   -3.0251   -2.3700 C   0  0  0  0  0  0  0  0  0  0  0  0
    2.4401   -4.1247   -2.3389 C   0  0  0  0  0  0  0  0  0  0  0  0
    6.1963   -2.3089   -1.1284 C   0  0  0  0  0  0  0  0  0  0  0  0
    6.4405   -1.1456   -0.3898 C   0  0  0  0  0  0  0  0  0  0  0  0
    5.2702   -0.6963    0.3918 C   0  0  0  0  0  0  0  0  0  0  0  0
    5.1160    0.5553    1.0040 C   0  0  0  0  0  0  0  0  0  0  0  0
    3.8292    1.0090    1.3247 C   0  0  0  0  0  0  0  0  0  0  0  0
    7.5511   -0.3456   -0.6937 C   0  0  0  0  0  0  0  0  0  0  0  0
    8.3130   -0.6374   -1.8339 C   0  0  0  0  0  0  0  0  0  0  0  0
    7.9516   -1.7125   -2.6700 C   0  0  0  0  0  0  0  0  0  0  0  0
    6.9484   -2.6089   -2.2605 C   0  0  0  0  0  0  0  0  0  0  0  0
    8.3284   -1.6693   -4.0914 C   0  0  0  0  0  0  0  0  0  0  0  0
    7.5022   -1.1120   -5.0053 C   0  0  0  0  0  0  0  0  0  0  0  0
    6.2414   -0.3996   -4.7256 C   0  0  0  0  0  0  0  0  0  0  0  0
    5.5891   -0.4265   -3.6449 O   0  0  0  0  0  0  0  0  0  0  0  0
    5.9064    0.4194   -5.8773 C   0  0  0  0  0  0  0  0  0  0  0  0
    4.9150    1.3965   -5.9937 C   0  0  0  0  0  0  0  0  0  0  0  0
    3.6719    1.5857   -4.7490 Cl  0  0  0  0  0  0  0  0  0  0  0  0
    4.9479    2.2472   -7.1154 C   0  0  0  0  0  0  0  0  0  0  0  0
    3.6958    3.4822   -7.3273 Cl  0  0  0  0  0  0  0  0  0  0  0  0
    6.0078    2.1546   -8.0480 C   0  0  0  0  0  0  0  0  0  0  0  0
    6.1227    3.3168   -9.3769 Cl  0  0  0  0  0  0  0  0  0  0  0  0
    7.0028    1.1555   -7.9009 C   0  0  0  0  0  0  0  0  0  0  0  0
    8.4537    1.2077   -8.9089 Cl  0  0  0  0  0  0  0  0  0  0  0  0
    6.8756    0.2320   -6.8485 C   0  0  0  0  0  0  0  0  0  0  0  0
    7.7896   -0.8731   -6.4369 C   0  0  0  0  0  0  0  0  0  0  0  0
    8.3063   -1.8075   -7.2778 C   0  0  0  0  0  0  0  0  0  0  0  0
    8.9761   -2.9823   -6.7824 C   0  0  0  0  0  0  0  0  0  0  0  0
    9.4937   -3.9355   -6.3790 N   0  0  0  0  0  0  0  0  0  0  0  0
    7.9842   -1.8158   -8.6847 C   0  0  0  0  0  0  0  0  0  0  0  0
    7.7060   -1.8398   -9.8130 N   0  0  0  0  0  0  0  0  0  0  0  0
   -9.3677    0.5538    1.0280 H   0  0  0  0  0  0  0  0  0  0  0  0
   -1.4649   -0.1115   -3.0598 H   0  0  0  0  0  0  0  0  0  0  0  0
   -1.7349   -2.4923   -3.6536 H   0  0  0  0  0  0  0  0  0  0  0  0
   -5.1769   -5.1303   -4.3365 H   0  0  0  0  0  0  0  0  0  0  0  0
   -4.2391   -3.6639   -4.7746 H   0  0  0  0  0  0  0  0  0  0  0  0
   -5.5417   -3.5467   -3.5372 H   0  0  0  0  0  0  0  0  0  0  0  0
   -4.7702   -2.9083   -0.6367 H   0  0  0  0  0  0  0  0  0  0  0  0
   -4.5127   -0.5396   -0.0385 H   0  0  0  0  0  0  0  0  0  0  0  0
   -1.3186    3.5527   -1.1109 H   0  0  0  0  0  0  0  0  0  0  0  0
   -1.2558    5.2819   -2.8157 H   0  0  0  0  0  0  0  0  0  0  0  0
   -4.8122    6.0067   -4.4252 H   0  0  0  0  0  0  0  0  0  0  0  0
   -3.5090    6.8252   -3.4627 H   0  0  0  0  0  0  0  0  0  0  0  0
   -4.0432    7.5193   -5.0348 H   0  0  0  0  0  0  0  0  0  0  0  0
   -4.0093    3.0472   -5.2452 H   0  0  0  0  0  0  0  0  0  0  0  0
   -4.1087    1.2877   -3.5323 H   0  0  0  0  0  0  0  0  0  0  0  0
    1.3423    2.2489    6.0346 H   0  0  0  0  0  0  0  0  0  0  0  0
    1.9849    4.4573    6.9045 H   0  0  0  0  0  0  0  0  0  0  0  0
    5.0291    7.6440    5.8003 H   0  0  0  0  0  0  0  0  0  0  0  0
    4.8035    6.5310    4.4010 H   0  0  0  0  0  0  0  0  0  0  0  0
    4.8465    5.8671    6.0941 H   0  0  0  0  0  0  0  0  0  0  0  0
    2.5705    5.8999    2.8943 H   0  0  0  0  0  0  0  0  0  0  0  0
    1.9736    3.7010    2.0058 H   0  0  0  0  0  0  0  0  0  0  0  0
   -0.8082   -0.1069    4.1838 H   0  0  0  0  0  0  0  0  0  0  0  0
   -0.6174   -2.2033    5.4653 H   0  0  0  0  0  0  0  0  0  0  0  0
    2.5561   -4.3925    4.4088 H   0  0  0  0  0  0  0  0  0  0  0  0
    0.7641   -4.6420    4.5191 H   0  0  0  0  0  0  0  0  0  0  0  0
    1.8877   -5.7594    5.3830 H   0  0  0  0  0  0  0  0  0  0  0  0
    3.6574   -1.7498    5.5979 H   0  0  0  0  0  0  0  0  0  0  0  0
    3.4705    0.3744    4.3437 H   0  0  0  0  0  0  0  0  0  0  0  0
    2.0201   -1.6910    0.2531 H   0  0  0  0  0  0  0  0  0  0  0  0
    4.6403   -5.4325   -0.4138 H   0  0  0  0  0  0  0  0  0  0  0  0
    5.5046   -4.5160    0.8738 H   0  0  0  0  0  0  0  0  0  0  0  0
    2.4305   -4.6617    0.5803 H   0  0  0  0  0  0  0  0  0  0  0  0
    3.3517   -3.7968    1.8820 H   0  0  0  0  0  0  0  0  0  0  0  0
    3.4281   -5.5925    1.7521 H   0  0  0  0  0  0  0  0  0  0  0  0
    4.1704   -3.1941   -3.2413 H   0  0  0  0  0  0  0  0  0  0  0  0
    2.9996   -2.0370   -2.4966 H   0  0  0  0  0  0  0  0  0  0  0  0
    2.9262   -5.1149   -2.1979 H   0  0  0  0  0  0  0  0  0  0  0  0
    1.8934   -4.1329   -3.3036 H   0  0  0  0  0  0  0  0  0  0  0  0
    1.7128   -3.9252   -1.5250 H   0  0  0  0  0  0  0  0  0  0  0  0
    5.9597    1.2183    1.1312 H   0  0  0  0  0  0  0  0  0  0  0  0
    3.7071    2.0152    1.6897 H   0  0  0  0  0  0  0  0  0  0  0  0
    7.7518    0.5725   -0.1551 H   0  0  0  0  0  0  0  0  0  0  0  0
    9.0772    0.0575   -2.1517 H   0  0  0  0  0  0  0  0  0  0  0  0
    6.6267   -3.4085   -2.9223 H   0  0  0  0  0  0  0  0  0  0  0  0
    9.3282   -1.9630   -4.3647 H   0  0  0  0  0  0  0  0  0  0  0  0
  1  2  2  3
  2  3  1  0
  3  4  2  0
  3  5  1  0
  5  6  2  0
  6  7  1  0
  6  8  1  0
  8  9  1  0
  8 10  2  0
 10 11  1  0
 10 12  1  0
 12 13  1  0
 12 14  2  0
 14 15  1  0
 15 16  2  3
 16 17  1  0
 17 18  3  0
 16 19  1  0
 19 20  3  0
  1 21  1  0
 21 22  2  0
 22 23  1  0
 23 24  1  0
 24 25  2  0
 25 26  2  0
 23 27  2  0
 27 28  1  0
 28 29  2  0
 29 30  1  0
 30 31  1  0
 31 32  2  0
 27 33  1  0
 33 34  2  0
 34 35  1  0
 35 36  1  0
 36 37  2  0
 37 38  1  0
 38 39  2  0
 39 40  1  0
 40 41  1  0
 39 42  1  0
 42 43  2  0
 35 44  1  0
 44 45  2  0
 45 46  1  0
 46 47  2  0
 47 48  1  0
 48 49  1  0
 47 50  1  0
 50 51  2  0
 34 52  1  0
 52 53  1  0
 53 54  1  0
 54 55  2  0
 55 56  1  0
 56 57  1  0
 57 58  2  0
 58 59  1  0
 59 60  2  0
 60 61  1  0
 61 62  1  0
 60 63  1  0
 63 64  2  0
 56 65  1  0
 65 66  2  0
 66 67  1  0
 67 68  2  0
 68 69  1  0
 69 70  1  0
 68 71  1  0
 71 72  2  0
 55 73  1  0
 73 74  1  0
 54 75  1  0
 75 76  2  0
 76 77  1  0
 77 78  1  0
 78 79  1  0
 79 80  1  0
 78 81  1  0
 81 82  1  0
 78 83  1  0
 83 84  2  0
 84 85  1  0
 85 86  1  0
 86 87  2  0
 84 88  1  0
 88 89  2  0
 89 90  1  0
 90 91  2  0
 90 92  1  0
 92 93  2  3
 93 94  1  0
 94 95  2  0
 94 96  1  0
 96 97  2  0
 97 98  1  0
 97 99  1  0
 99100  1  0
 99101  2  0
101102  1  0
101103  1  0
103104  1  0
103105  2  0
105106  1  0
106107  2  3
107108  1  0
108109  3  0
107110  1  0
110111  3  0
 15  2  1  0
 32 21  1  0
 74 33  1  0
 87 75  1  0
106 93  1  0
 14  5  1  0
 26 22  1  0
 32 28  1  0
 43 36  1  0
 51 44  1  0
 73 52  2  0
 85 77  2  0
105 96  1  0
 64 57  1  0
 72 65  1  0
 91 83  1  0
  1112  1  0
 37113  1  0
 38114  1  0
 41115  1  0
 41116  1  0
 41117  1  0
 42118  1  0
 43119  1  0
 45120  1  0
 46121  1  0
 49122  1  0
 49123  1  0
 49124  1  0
 50125  1  0
 51126  1  0
 58127  1  0
 59128  1  0
 62129  1  0
 62130  1  0
 62131  1  0
 63132  1  0
 64133  1  0
 66134  1  0
 67135  1  0
 70136  1  0
 70137  1  0
 70138  1  0
 71139  1  0
 72140  1  0
 76141  1  0
 79142  1  0
 79143  1  0
 80144  1  0
 80145  1  0
 80146  1  0
 81147  1  0
 81148  1  0
 82149  1  0
 82150  1  0
 82151  1  0
 86152  1  0
 87153  1  0
 88154  1  0
 89155  1  0
 91156  1  0
 92157  1  0
M  END

