
     RDKit          3D

139152  0  0  0  0  0  0  0  0999 V2000
   -5.7152    5.3793    0.5192 C   0  0  0  0  0  0  0  0  0  0  0  0
   -5.3631    6.0561    1.6312 C   0  0  0  0  0  0  0  0  0  0  0  0
   -6.1053    7.2182    2.1243 C   0  0  0  0  0  0  0  0  0  0  0  0
   -7.0866    7.7598    1.5487 O   0  0  0  0  0  0  0  0  0  0  0  0
   -5.5494    7.6188    3.4110 C   0  0  0  0  0  0  0  0  0  0  0  0
   -5.9039    8.6988    4.2274 C   0  0  0  0  0  0  0  0  0  0  0  0
   -7.2410    9.7603    3.7898 Cl  0  0  0  0  0  0  0  0  0  0  0  0
   -5.1438    8.9344    5.3945 C   0  0  0  0  0  0  0  0  0  0  0  0
   -5.5563   10.2936    6.4460 Cl  0  0  0  0  0  0  0  0  0  0  0  0
   -4.0198    8.1236    5.6868 C   0  0  0  0  0  0  0  0  0  0  0  0
   -3.0219    8.4791    7.0992 Cl  0  0  0  0  0  0  0  0  0  0  0  0
   -3.6732    7.0535    4.8386 C   0  0  0  0  0  0  0  0  0  0  0  0
   -2.1449    6.2012    5.0880 Cl  0  0  0  0  0  0  0  0  0  0  0  0
   -4.5004    6.7755    3.7290 C   0  0  0  0  0  0  0  0  0  0  0  0
   -4.3120    5.7707    2.6504 C   0  0  0  0  0  0  0  0  0  0  0  0
   -3.7156    4.5765    2.8081 C   0  0  0  0  0  0  0  0  0  0  0  0
   -3.8453    3.8351    4.0363 C   0  0  0  0  0  0  0  0  0  0  0  0
   -3.9459    3.2412    5.0245 N   0  0  0  0  0  0  0  0  0  0  0  0
   -2.5977    4.2526    1.9597 C   0  0  0  0  0  0  0  0  0  0  0  0
   -1.6924    4.0043    1.2851 N   0  0  0  0  0  0  0  0  0  0  0  0
   -5.0996    4.1153    0.0916 C   0  0  0  0  0  0  0  0  0  0  0  0
   -5.4086    2.9093    0.7426 C   0  0  0  0  0  0  0  0  0  0  0  0
   -4.6534    1.7366    0.5037 C   0  0  0  0  0  0  0  0  0  0  0  0
   -4.9916    0.6271    1.3439 N   0  0  0  0  0  0  0  0  0  0  0  0
   -6.1702    1.2668    2.2085 S   0  0  0  0  0  4  0  0  0  0  0  0
   -6.4048    2.7843    1.7670 N   0  0  0  0  0  0  0  0  0  0  0  0
   -3.5930    1.7355   -0.4122 C   0  0  0  0  0  0  0  0  0  0  0  0
   -3.3567    2.9091   -1.1531 C   0  0  0  0  0  0  0  0  0  0  0  0
   -2.3393    3.0162   -2.0502 N   0  0  0  0  0  0  0  0  0  0  0  0
   -2.4917    4.6014   -2.4969 S   0  0  0  0  0  0  0  0  0  0  0  0
   -3.7473    5.2041   -1.6074 N   0  0  0  0  0  0  0  0  0  0  0  0
   -4.1098    4.0985   -0.9057 C   0  0  0  0  0  0  0  0  0  0  0  0
   -2.5639    0.6929   -0.3578 C   0  0  0  0  0  0  0  0  0  0  0  0
   -2.2256   -0.2024   -1.3837 C   0  0  0  0  0  0  0  0  0  0  0  0
   -3.1195   -0.6182   -2.4229 N   0  0  0  0  0  0  0  0  0  0  0  0
   -3.2075    0.1538   -3.6380 C   0  0  0  0  0  0  0  0  0  0  0  0
   -4.4577    0.3903   -4.2357 C   0  0  0  0  0  0  0  0  0  0  0  0
   -4.5440    1.0984   -5.4370 C   0  0  0  0  0  0  0  0  0  0  0  0
   -3.3830    1.5813   -6.0489 C   0  0  0  0  0  0  0  0  0  0  0  0
   -3.4882    2.4200   -7.6346 S   0  0  0  0  0  0  0  0  0  0  0  0
   -3.3042    0.8824   -8.5948 C   0  0  0  0  0  0  0  0  0  0  0  0
   -2.1400    1.3814   -5.4431 C   0  0  0  0  0  0  0  0  0  0  0  0
   -2.0500    0.6757   -4.2417 C   0  0  0  0  0  0  0  0  0  0  0  0
   -3.8492   -1.8553   -2.2575 C   0  0  0  0  0  0  0  0  0  0  0  0
   -4.1097   -2.6885   -3.3605 C   0  0  0  0  0  0  0  0  0  0  0  0
   -4.7881   -3.8981   -3.1921 C   0  0  0  0  0  0  0  0  0  0  0  0
   -5.2028   -4.2996   -1.9175 C   0  0  0  0  0  0  0  0  0  0  0  0
   -6.0624   -5.8615   -1.6966 S   0  0  0  0  0  0  0  0  0  0  0  0
   -7.7098   -5.0969   -1.8302 C   0  0  0  0  0  0  0  0  0  0  0  0
   -4.9364   -3.4862   -0.8117 C   0  0  0  0  0  0  0  0  0  0  0  0
   -4.2701   -2.2714   -0.9798 C   0  0  0  0  0  0  0  0  0  0  0  0
   -0.9973   -0.8008   -1.1366 C   0  0  0  0  0  0  0  0  0  0  0  0
    0.0082   -1.8264   -2.0029 S   0  0  0  0  0  0  0  0  0  0  0  0
    1.2736   -1.7422   -0.8595 C   0  0  0  0  0  0  0  0  0  0  0  0
    0.8873   -0.9183    0.2102 C   0  0  0  0  0  0  0  0  0  0  0  0
    1.5558   -0.8616    1.4815 N   0  0  0  0  0  0  0  0  0  0  0  0
    0.9803   -1.6113    2.5721 C   0  0  0  0  0  0  0  0  0  0  0  0
    0.4395   -2.8928    2.3436 C   0  0  0  0  0  0  0  0  0  0  0  0
   -0.2564   -3.5585    3.3549 C   0  0  0  0  0  0  0  0  0  0  0  0
   -0.4198   -2.9585    4.6080 C   0  0  0  0  0  0  0  0  0  0  0  0
   -1.3990   -3.7764    5.8715 S   0  0  0  0  0  0  0  0  0  0  0  0
   -2.9583   -3.0326    5.2966 C   0  0  0  0  0  0  0  0  0  0  0  0
    0.1479   -1.7050    4.8582 C   0  0  0  0  0  0  0  0  0  0  0  0
    0.8421   -1.0313    3.8475 C   0  0  0  0  0  0  0  0  0  0  0  0
    2.6239    0.0879    1.7021 C   0  0  0  0  0  0  0  0  0  0  0  0
    2.5806    1.3687    1.1232 C   0  0  0  0  0  0  0  0  0  0  0  0
    3.6088    2.2826    1.3553 C   0  0  0  0  0  0  0  0  0  0  0  0
    4.6951    1.9305    2.1669 C   0  0  0  0  0  0  0  0  0  0  0  0
    5.9669    3.1413    2.5449 S   0  0  0  0  0  0  0  0  0  0  0  0
    6.9604    2.7721    1.0655 C   0  0  0  0  0  0  0  0  0  0  0  0
    4.7560    0.6485    2.7250 C   0  0  0  0  0  0  0  0  0  0  0  0
    3.7265   -0.2668    2.4981 C   0  0  0  0  0  0  0  0  0  0  0  0
   -0.3865   -0.4086    0.0067 C   0  0  0  0  0  0  0  0  0  0  0  0
   -1.3279    0.7109    0.8164 S   0  0  0  0  0  0  0  0  0  0  0  0
    2.6180   -2.2776   -1.0874 C   0  0  0  0  0  0  0  0  0  0  0  0
    3.7872   -1.5437   -0.9523 C   0  0  0  0  0  0  0  0  0  0  0  0
    4.9356   -2.1949   -1.4370 C   0  0  0  0  0  0  0  0  0  0  0  0
    6.2595   -1.5225   -1.5266 C   0  0  0  0  0  0  0  0  0  0  0  0
    7.2456   -2.1364   -2.0172 O   0  0  0  0  0  0  0  0  0  0  0  0
    6.4528   -0.0894   -1.1184 C   0  0  0  0  0  0  0  0  0  0  0  0
    5.9803    0.8538   -2.2249 C   0  0  0  0  0  0  0  0  0  0  0  0
    4.6426   -3.4767   -1.9288 C   0  0  0  0  0  0  0  0  0  0  0  0
    2.9795   -3.7318   -1.8380 S   0  0  0  0  0  0  0  0  0  0  0  0
    5.5612   -4.4145   -2.5792 C   0  0  0  0  0  0  0  0  0  0  0  0
    6.6094   -4.9718   -1.9527 C   0  0  0  0  0  0  0  0  0  0  0  0
    6.8894   -4.9291   -0.5108 C   0  0  0  0  0  0  0  0  0  0  0  0
    6.3257   -4.1914    0.3329 O   0  0  0  0  0  0  0  0  0  0  0  0
    7.9103   -5.9235   -0.2204 C   0  0  0  0  0  0  0  0  0  0  0  0
    8.3803   -6.3547    1.0241 C   0  0  0  0  0  0  0  0  0  0  0  0
    7.8932   -5.5352    2.5072 Cl  0  0  0  0  0  0  0  0  0  0  0  0
    9.2229   -7.4813    1.0675 C   0  0  0  0  0  0  0  0  0  0  0  0
    9.8529   -8.0448    2.6158 Cl  0  0  0  0  0  0  0  0  0  0  0  0
    9.5296   -8.1845   -0.1227 C   0  0  0  0  0  0  0  0  0  0  0  0
   10.5034   -9.6562   -0.0487 Cl  0  0  0  0  0  0  0  0  0  0  0  0
    9.0126   -7.7454   -1.3629 C   0  0  0  0  0  0  0  0  0  0  0  0
    9.1035   -8.7960   -2.7728 Cl  0  0  0  0  0  0  0  0  0  0  0  0
    8.2821   -6.5410   -1.3993 C   0  0  0  0  0  0  0  0  0  0  0  0
    7.6308   -5.8661   -2.5533 C   0  0  0  0  0  0  0  0  0  0  0  0
    8.2019   -5.6655   -3.7690 C   0  0  0  0  0  0  0  0  0  0  0  0
    7.5733   -4.8693   -4.7942 C   0  0  0  0  0  0  0  0  0  0  0  0
    7.0714   -4.2365   -5.6192 N   0  0  0  0  0  0  0  0  0  0  0  0
    9.5647   -6.0471   -4.0337 C   0  0  0  0  0  0  0  0  0  0  0  0
   10.6672   -6.3375   -4.2328 N   0  0  0  0  0  0  0  0  0  0  0  0
   -6.5161    5.7669   -0.1001 H   0  0  0  0  0  0  0  0  0  0  0  0
   -5.3615    0.0155   -3.7702 H   0  0  0  0  0  0  0  0  0  0  0  0
   -5.5082    1.2529   -5.9012 H   0  0  0  0  0  0  0  0  0  0  0  0
   -4.1296    0.1768   -8.3542 H   0  0  0  0  0  0  0  0  0  0  0  0
   -2.3322    0.4036   -8.3693 H   0  0  0  0  0  0  0  0  0  0  0  0
   -3.3444    1.1193   -9.6763 H   0  0  0  0  0  0  0  0  0  0  0  0
   -1.2391    1.7594   -5.9097 H   0  0  0  0  0  0  0  0  0  0  0  0
   -1.0778    0.5144   -3.7940 H   0  0  0  0  0  0  0  0  0  0  0  0
   -3.7727   -2.4123   -4.3526 H   0  0  0  0  0  0  0  0  0  0  0  0
   -4.9843   -4.5270   -4.0516 H   0  0  0  0  0  0  0  0  0  0  0  0
   -8.4822   -5.8886   -1.7474 H   0  0  0  0  0  0  0  0  0  0  0  0
   -7.8163   -4.5884   -2.8112 H   0  0  0  0  0  0  0  0  0  0  0  0
   -7.8590   -4.3676   -1.0061 H   0  0  0  0  0  0  0  0  0  0  0  0
   -5.2483   -3.7975    0.1770 H   0  0  0  0  0  0  0  0  0  0  0  0
   -4.0800   -1.6624   -0.1054 H   0  0  0  0  0  0  0  0  0  0  0  0
    0.5312   -3.3625    1.3746 H   0  0  0  0  0  0  0  0  0  0  0  0
   -0.7016   -4.5245    3.1566 H   0  0  0  0  0  0  0  0  0  0  0  0
   -2.8968   -1.9269    5.3646 H   0  0  0  0  0  0  0  0  0  0  0  0
   -3.7944   -3.3853    5.9380 H   0  0  0  0  0  0  0  0  0  0  0  0
   -3.1600   -3.3336    4.2455 H   0  0  0  0  0  0  0  0  0  0  0  0
    0.0215   -1.2367    5.8249 H   0  0  0  0  0  0  0  0  0  0  0  0
    1.2272   -0.0392    4.0450 H   0  0  0  0  0  0  0  0  0  0  0  0
    1.7414    1.6686    0.5059 H   0  0  0  0  0  0  0  0  0  0  0  0
    3.5552    3.2724    0.9204 H   0  0  0  0  0  0  0  0  0  0  0  0
    7.4054    1.7592    1.1486 H   0  0  0  0  0  0  0  0  0  0  0  0
    7.7668    3.5184    0.9647 H   0  0  0  0  0  0  0  0  0  0  0  0
    6.3188    2.8280    0.1635 H   0  0  0  0  0  0  0  0  0  0  0  0
    5.5960    0.3693    3.3509 H   0  0  0  0  0  0  0  0  0  0  0  0
    3.7901   -1.2524    2.9471 H   0  0  0  0  0  0  0  0  0  0  0  0
    3.7829   -0.5196   -0.6099 H   0  0  0  0  0  0  0  0  0  0  0  0
    7.5294    0.0981   -0.9238 H   0  0  0  0  0  0  0  0  0  0  0  0
    5.9127    0.1219   -0.1724 H   0  0  0  0  0  0  0  0  0  0  0  0
    4.9000    0.7000   -2.4322 H   0  0  0  0  0  0  0  0  0  0  0  0
    6.1273    1.9054   -1.9137 H   0  0  0  0  0  0  0  0  0  0  0  0
    6.5637    0.6823   -3.1524 H   0  0  0  0  0  0  0  0  0  0  0  0
    5.3136   -4.7126   -3.5866 H   0  0  0  0  0  0  0  0  0  0  0  0
  1  2  2  3
  2  3  1  0
  3  4  2  0
  3  5  1  0
  5  6  2  0
  6  7  1  0
  6  8  1  0
  8  9  1  0
  8 10  2  0
 10 11  1  0
 10 12  1  0
 12 13  1  0
 12 14  2  0
 14 15  1  0
 15 16  2  3
 16 17  1  0
 17 18  3  0
 16 19  1  0
 19 20  3  0
  1 21  1  0
 21 22  2  0
 22 23  1  0
 23 24  1  0
 24 25  2  0
 25 26  2  0
 23 27  2  0
 27 28  1  0
 28 29  2  0
 29 30  1  0
 30 31  1  0
 31 32  2  0
 27 33  1  0
 33 34  2  0
 34 35  1  0
 35 36  1  0
 36 37  2  0
 37 38  1  0
 38 39  2  0
 39 40  1  0
 40 41  1  0
 39 42  1  0
 42 43  2  0
 35 44  1  0
 44 45  2  0
 45 46  1  0
 46 47  2  0
 47 48  1  0
 48 49  1  0
 47 50  1  0
 50 51  2  0
 34 52  1  0
 52 53  1  0
 53 54  1  0
 54 55  2  0
 55 56  1  0
 56 57  1  0
 57 58  2  0
 58 59  1  0
 59 60  2  0
 60 61  1  0
 61 62  1  0
 60 63  1  0
 63 64  2  0
 56 65  1  0
 65 66  2  0
 66 67  1  0
 67 68  2  0
 68 69  1  0
 69 70  1  0
 68 71  1  0
 71 72  2  0
 55 73  1  0
 73 74  1  0
 54 75  1  0
 75 76  2  0
 76 77  1  0
 77 78  1  0
 78 79  2  0
 78 80  1  0
 80 81  1  0
 77 82  2  0
 82 83  1  0
 82 84  1  0
 84 85  2  3
 85 86  1  0
 86 87  2  0
 86 88  1  0
 88 89  2  0
 89 90  1  0
 89 91  1  0
 91 92  1  0
 91 93  2  0
 93 94  1  0
 93 95  1  0
 95 96  1  0
 95 97  2  0
 97 98  1  0
 98 99  2  3
 99100  1  0
100101  3  0
 99102  1  0
102103  3  0
 15  2  1  0
 32 21  1  0
 74 33  1  0
 83 75  1  0
 98 85  1  0
 14  5  1  0
 26 22  1  0
 32 28  1  0
 43 36  1  0
 51 44  1  0
 73 52  2  0
 97 88  1  0
 64 57  1  0
 72 65  1  0
  1104  1  0
 37105  1  0
 38106  1  0
 41107  1  0
 41108  1  0
 41109  1  0
 42110  1  0
 43111  1  0
 45112  1  0
 46113  1  0
 49114  1  0
 49115  1  0
 49116  1  0
 50117  1  0
 51118  1  0
 58119  1  0
 59120  1  0
 62121  1  0
 62122  1  0
 62123  1  0
 63124  1  0
 64125  1  0
 66126  1  0
 67127  1  0
 70128  1  0
 70129  1  0
 70130  1  0
 71131  1  0
 72132  1  0
 76133  1  0
 80134  1  0
 80135  1  0
 81136  1  0
 81137  1  0
 81138  1  0
 84139  1  0
M  END

