
     RDKit          3D

126137  0  0  0  0  0  0  0  0999 V2000
   -3.4959   -0.4053    5.5166 C   0  0  0  0  0  0  0  0  0  0  0  0
   -2.9290   -0.6878    6.7087 C   0  0  0  0  0  0  0  0  0  0  0  0
   -3.3261    0.0619    7.8946 C   0  0  0  0  0  0  0  0  0  0  0  0
   -4.4606    0.5710    8.0926 O   0  0  0  0  0  0  0  0  0  0  0  0
   -2.1695    0.1839    8.7722 C   0  0  0  0  0  0  0  0  0  0  0  0
   -2.0503    0.9262    9.9518 C   0  0  0  0  0  0  0  0  0  0  0  0
   -3.3709    1.9403   10.5215 Cl  0  0  0  0  0  0  0  0  0  0  0  0
   -0.8436    0.8440   10.6738 C   0  0  0  0  0  0  0  0  0  0  0  0
   -0.6256    1.8210   12.1262 Cl  0  0  0  0  0  0  0  0  0  0  0  0
    0.1749   -0.0409   10.2549 C   0  0  0  0  0  0  0  0  0  0  0  0
    1.6400   -0.2074   11.2253 Cl  0  0  0  0  0  0  0  0  0  0  0  0
    0.0181   -0.8034    9.0751 C   0  0  0  0  0  0  0  0  0  0  0  0
    1.1019   -2.1731    8.8217 Cl  0  0  0  0  0  0  0  0  0  0  0  0
   -1.1191   -0.5739    8.2677 C   0  0  0  0  0  0  0  0  0  0  0  0
   -1.5408   -1.1669    6.9645 C   0  0  0  0  0  0  0  0  0  0  0  0
   -0.8282   -1.9560    6.1279 C   0  0  0  0  0  0  0  0  0  0  0  0
   -1.4878   -2.8473    5.2078 C   0  0  0  0  0  0  0  0  0  0  0  0
   -2.0170   -3.5801    4.4757 N   0  0  0  0  0  0  0  0  0  0  0  0
    0.5842   -1.7695    5.9298 C   0  0  0  0  0  0  0  0  0  0  0  0
    1.7181   -1.6149    5.7569 N   0  0  0  0  0  0  0  0  0  0  0  0
   -2.7046   -0.2338    4.2903 C   0  0  0  0  0  0  0  0  0  0  0  0
   -1.4625    0.3707    4.2238 C   0  0  0  0  0  0  0  0  0  0  0  0
   -1.0662    0.2660    2.9158 C   0  0  0  0  0  0  0  0  0  0  0  0
   -2.1120   -0.3505    2.2608 C   0  0  0  0  0  0  0  0  0  0  0  0
   -3.0865   -0.6283    3.0969 O   0  0  0  0  0  0  0  0  0  0  0  0
   -2.1189   -0.6203    0.8285 C   0  0  0  0  0  0  0  0  0  0  0  0
   -2.8884    0.0500   -0.1285 C   0  0  0  0  0  0  0  0  0  0  0  0
   -4.0203    0.8966    0.1521 N   0  0  0  0  0  0  0  0  0  0  0  0
   -3.9905    1.8500    1.2337 C   0  0  0  0  0  0  0  0  0  0  0  0
   -5.0691    1.9382    2.1333 C   0  0  0  0  0  0  0  0  0  0  0  0
   -5.0020    2.8011    3.2320 C   0  0  0  0  0  0  0  0  0  0  0  0
   -3.8562    3.5806    3.4429 C   0  0  0  0  0  0  0  0  0  0  0  0
   -3.7726    4.6957    4.8498 S   0  0  0  0  0  0  0  0  0  0  0  0
   -2.9756    3.4739    5.9412 C   0  0  0  0  0  0  0  0  0  0  0  0
   -2.7915    3.5164    2.5351 C   0  0  0  0  0  0  0  0  0  0  0  0
   -2.8588    2.6568    1.4355 C   0  0  0  0  0  0  0  0  0  0  0  0
   -5.1887    0.7580   -0.6756 C   0  0  0  0  0  0  0  0  0  0  0  0
   -5.6464   -0.5236   -1.0368 C   0  0  0  0  0  0  0  0  0  0  0  0
   -6.6531   -0.6719   -1.9933 C   0  0  0  0  0  0  0  0  0  0  0  0
   -7.2140    0.4558   -2.6004 C   0  0  0  0  0  0  0  0  0  0  0  0
   -8.3947    0.2550   -3.9322 S   0  0  0  0  0  0  0  0  0  0  0  0
   -7.1001    0.1993   -5.2091 C   0  0  0  0  0  0  0  0  0  0  0  0
   -6.8105    1.7353   -2.2006 C   0  0  0  0  0  0  0  0  0  0  0  0
   -5.8074    1.8879   -1.2364 C   0  0  0  0  0  0  0  0  0  0  0  0
   -2.3613   -0.1216   -1.4122 C   0  0  0  0  0  0  0  0  0  0  0  0
   -2.4860    0.8180   -2.7940 S   0  0  0  0  0  0  0  0  0  0  0  0
   -1.0750    0.2014   -3.5221 C   0  0  0  0  0  0  0  0  0  0  0  0
   -0.5108   -0.7847   -2.6825 C   0  0  0  0  0  0  0  0  0  0  0  0
    0.7282   -1.4909   -2.9657 N   0  0  0  0  0  0  0  0  0  0  0  0
    1.4013   -2.2180   -1.9318 C   0  0  0  0  0  0  0  0  0  0  0  0
    2.3163   -1.5716   -1.0911 C   0  0  0  0  0  0  0  0  0  0  0  0
    2.8924   -2.2655   -0.0223 C   0  0  0  0  0  0  0  0  0  0  0  0
    2.5525   -3.6065    0.2119 C   0  0  0  0  0  0  0  0  0  0  0  0
    3.2414   -4.4767    1.6233 S   0  0  0  0  0  0  0  0  0  0  0  0
    1.9160   -3.9505    2.7505 C   0  0  0  0  0  0  0  0  0  0  0  0
    1.6588   -4.2583   -0.6463 C   0  0  0  0  0  0  0  0  0  0  0  0
    1.0924   -3.5690   -1.7204 C   0  0  0  0  0  0  0  0  0  0  0  0
    1.1855   -1.7045   -4.3170 C   0  0  0  0  0  0  0  0  0  0  0  0
    2.5518   -1.5813   -4.6274 C   0  0  0  0  0  0  0  0  0  0  0  0
    3.0055   -1.8152   -5.9276 C   0  0  0  0  0  0  0  0  0  0  0  0
    2.1038   -2.1887   -6.9297 C   0  0  0  0  0  0  0  0  0  0  0  0
    2.6996   -2.5505   -8.5819 S   0  0  0  0  0  0  0  0  0  0  0  0
    2.9665   -4.3153   -8.2223 C   0  0  0  0  0  0  0  0  0  0  0  0
    0.7412   -2.3066   -6.6323 C   0  0  0  0  0  0  0  0  0  0  0  0
    0.2830   -2.0666   -5.3334 C   0  0  0  0  0  0  0  0  0  0  0  0
   -1.2427   -0.8931   -1.4909 C   0  0  0  0  0  0  0  0  0  0  0  0
   -0.8295   -1.3979    0.0522 S   0  0  0  0  0  0  0  0  0  0  0  0
   -0.2546    1.0430   -4.3936 C   0  0  0  0  0  0  0  0  0  0  0  0
   -0.6725    1.8317   -5.4490 C   0  0  0  0  0  0  0  0  0  0  0  0
    0.4467    2.5532   -5.8369 C   0  0  0  0  0  0  0  0  0  0  0  0
    1.4533    2.1712   -4.9664 C   0  0  0  0  0  0  0  0  0  0  0  0
    1.0129    1.2512   -4.1552 O   0  0  0  0  0  0  0  0  0  0  0  0
    2.8169    2.7123   -4.8933 C   0  0  0  0  0  0  0  0  0  0  0  0
    3.4468    2.9303   -3.7240 C   0  0  0  0  0  0  0  0  0  0  0  0
    2.8233    3.0434   -2.3930 C   0  0  0  0  0  0  0  0  0  0  0  0
    1.7069    2.5848   -2.0443 O   0  0  0  0  0  0  0  0  0  0  0  0
    3.7244    3.7952   -1.5310 C   0  0  0  0  0  0  0  0  0  0  0  0
    3.4852    4.2985   -0.2453 C   0  0  0  0  0  0  0  0  0  0  0  0
    2.0103    3.8732    0.6295 Cl  0  0  0  0  0  0  0  0  0  0  0  0
    4.4305    5.1753    0.3157 C   0  0  0  0  0  0  0  0  0  0  0  0
    4.1658    5.8321    1.9330 Cl  0  0  0  0  0  0  0  0  0  0  0  0
    5.5489    5.5930   -0.4465 C   0  0  0  0  0  0  0  0  0  0  0  0
    6.6794    6.7739    0.2258 Cl  0  0  0  0  0  0  0  0  0  0  0  0
    5.7561    5.0869   -1.7494 C   0  0  0  0  0  0  0  0  0  0  0  0
    6.9444    5.8529   -2.8034 Cl  0  0  0  0  0  0  0  0  0  0  0  0
    4.8705    4.1092   -2.2414 C   0  0  0  0  0  0  0  0  0  0  0  0
    4.8409    3.4210   -3.5634 C   0  0  0  0  0  0  0  0  0  0  0  0
    5.9062    2.8533   -4.1793 C   0  0  0  0  0  0  0  0  0  0  0  0
    7.2351    2.9211   -3.6284 C   0  0  0  0  0  0  0  0  0  0  0  0
    8.3033    2.9652   -3.1888 N   0  0  0  0  0  0  0  0  0  0  0  0
    5.7383    1.9175   -5.2641 C   0  0  0  0  0  0  0  0  0  0  0  0
    5.5997    1.1540   -6.1202 N   0  0  0  0  0  0  0  0  0  0  0  0
   -4.5162   -0.0466    5.4810 H   0  0  0  0  0  0  0  0  0  0  0  0
   -0.9025    0.8196    5.0312 H   0  0  0  0  0  0  0  0  0  0  0  0
   -0.1421    0.6315    2.4877 H   0  0  0  0  0  0  0  0  0  0  0  0
   -5.9478    1.3181    2.0013 H   0  0  0  0  0  0  0  0  0  0  0  0
   -5.8293    2.8426    3.9272 H   0  0  0  0  0  0  0  0  0  0  0  0
   -3.6744    2.6390    6.1445 H   0  0  0  0  0  0  0  0  0  0  0  0
   -2.0519    3.0897    5.4670 H   0  0  0  0  0  0  0  0  0  0  0  0
   -2.7084    3.9644    6.8996 H   0  0  0  0  0  0  0  0  0  0  0  0
   -1.9074    4.1207    2.6886 H   0  0  0  0  0  0  0  0  0  0  0  0
   -2.0254    2.5982    0.7505 H   0  0  0  0  0  0  0  0  0  0  0  0
   -5.1888   -1.4050   -0.6090 H   0  0  0  0  0  0  0  0  0  0  0  0
   -6.9623   -1.6662   -2.2885 H   0  0  0  0  0  0  0  0  0  0  0  0
   -6.5867    1.1824   -5.2751 H   0  0  0  0  0  0  0  0  0  0  0  0
   -6.3585   -0.5932   -4.9745 H   0  0  0  0  0  0  0  0  0  0  0  0
   -7.5650   -0.0298   -6.1924 H   0  0  0  0  0  0  0  0  0  0  0  0
   -7.2430    2.6110   -2.6705 H   0  0  0  0  0  0  0  0  0  0  0  0
   -5.4714    2.8837   -0.9762 H   0  0  0  0  0  0  0  0  0  0  0  0
    2.5549   -0.5262   -1.2453 H   0  0  0  0  0  0  0  0  0  0  0  0
    3.5851   -1.7552    0.6374 H   0  0  0  0  0  0  0  0  0  0  0  0
    1.8914   -2.8413    2.8265 H   0  0  0  0  0  0  0  0  0  0  0  0
    0.9315   -4.3200    2.3864 H   0  0  0  0  0  0  0  0  0  0  0  0
    2.1077   -4.3736    3.7567 H   0  0  0  0  0  0  0  0  0  0  0  0
    1.3896   -5.2917   -0.4720 H   0  0  0  0  0  0  0  0  0  0  0  0
    0.3773   -4.0666   -2.3655 H   0  0  0  0  0  0  0  0  0  0  0  0
    3.2637   -1.2982   -3.8639 H   0  0  0  0  0  0  0  0  0  0  0  0
    4.0583   -1.7166   -6.1539 H   0  0  0  0  0  0  0  0  0  0  0  0
    1.9928   -4.8098   -8.0110 H   0  0  0  0  0  0  0  0  0  0  0  0
    3.6354   -4.4293   -7.3442 H   0  0  0  0  0  0  0  0  0  0  0  0
    3.4397   -4.7992   -9.0962 H   0  0  0  0  0  0  0  0  0  0  0  0
    0.0388   -2.5964   -7.4045 H   0  0  0  0  0  0  0  0  0  0  0  0
   -0.7717   -2.1829   -5.1160 H   0  0  0  0  0  0  0  0  0  0  0  0
   -1.6721    1.9188   -5.8488 H   0  0  0  0  0  0  0  0  0  0  0  0
    0.4969    3.3214   -6.5922 H   0  0  0  0  0  0  0  0  0  0  0  0
    3.3271    2.9252   -5.8278 H   0  0  0  0  0  0  0  0  0  0  0  0
  1  2  2  3
  2  3  1  0
  3  4  2  0
  3  5  1  0
  5  6  2  0
  6  7  1  0
  6  8  1  0
  8  9  1  0
  8 10  2  0
 10 11  1  0
 10 12  1  0
 12 13  1  0
 12 14  2  0
 14 15  1  0
 15 16  2  3
 16 17  1  0
 17 18  3  0
 16 19  1  0
 19 20  3  0
  1 21  1  0
 21 22  2  0
 22 23  1  0
 23 24  2  0
 24 25  1  0
 24 26  1  0
 26 27  2  0
 27 28  1  0
 28 29  1  0
 29 30  2  0
 30 31  1  0
 31 32  2  0
 32 33  1  0
 33 34  1  0
 32 35  1  0
 35 36  2  0
 28 37  1  0
 37 38  2  0
 38 39  1  0
 39 40  2  0
 40 41  1  0
 41 42  1  0
 40 43  1  0
 43 44  2  0
 27 45  1  0
 45 46  1  0
 46 47  1  0
 47 48  2  0
 48 49  1  0
 49 50  1  0
 50 51  2  0
 51 52  1  0
 52 53  2  0
 53 54  1  0
 54 55  1  0
 53 56  1  0
 56 57  2  0
 49 58  1  0
 58 59  2  0
 59 60  1  0
 60 61  2  0
 61 62  1  0
 62 63  1  0
 61 64  1  0
 64 65  2  0
 48 66  1  0
 66 67  1  0
 47 68  1  0
 68 69  2  0
 69 70  1  0
 70 71  2  0
 71 72  1  0
 71 73  1  0
 73 74  2  3
 74 75  1  0
 75 76  2  0
 75 77  1  0
 77 78  2  0
 78 79  1  0
 78 80  1  0
 80 81  1  0
 80 82  2  0
 82 83  1  0
 82 84  1  0
 84 85  1  0
 84 86  2  0
 86 87  1  0
 87 88  2  3
 88 89  1  0
 89 90  3  0
 88 91  1  0
 91 92  3  0
 15  2  1  0
 25 21  1  0
 67 26  1  0
 72 68  1  0
 87 74  1  0
 14  5  1  0
 36 29  1  0
 44 37  1  0
 66 45  2  0
 86 77  1  0
 57 50  1  0
 65 58  1  0
  1 93  1  0
 22 94  1  0
 23 95  1  0
 30 96  1  0
 31 97  1  0
 34 98  1  0
 34 99  1  0
 34100  1  0
 35101  1  0
 36102  1  0
 38103  1  0
 39104  1  0
 42105  1  0
 42106  1  0
 42107  1  0
 43108  1  0
 44109  1  0
 51110  1  0
 52111  1  0
 55112  1  0
 55113  1  0
 55114  1  0
 56115  1  0
 57116  1  0
 59117  1  0
 60118  1  0
 63119  1  0
 63120  1  0
 63121  1  0
 64122  1  0
 65123  1  0
 69124  1  0
 70125  1  0
 73126  1  0
M  END

