
     RDKit          3D

196216  0  0  0  0  0  0  0  0999 V2000
    1.1163   -5.0311    7.0946 C   0  0  0  0  0  0  0  0  0  0  0  0
   -0.1064   -4.4706    6.9510 C   0  0  0  0  0  0  0  0  0  0  0  0
   -0.5717   -3.6870    5.7910 C   0  0  0  0  0  0  0  0  0  0  0  0
    0.1095   -3.3635    4.7864 O   0  0  0  0  0  0  0  0  0  0  0  0
   -2.0043   -3.4842    5.9110 C   0  0  0  0  0  0  0  0  0  0  0  0
   -2.8783   -2.8721    5.0043 C   0  0  0  0  0  0  0  0  0  0  0  0
   -2.2599   -1.9854    3.6099 Cl  0  0  0  0  0  0  0  0  0  0  0  0
   -4.2617   -2.9768    5.2366 C   0  0  0  0  0  0  0  0  0  0  0  0
   -5.4048   -2.1982    4.1377 Cl  0  0  0  0  0  0  0  0  0  0  0  0
   -4.7378   -3.7689    6.3081 C   0  0  0  0  0  0  0  0  0  0  0  0
   -6.4768   -4.0304    6.4983 Cl  0  0  0  0  0  0  0  0  0  0  0  0
   -3.8314   -4.3934    7.1975 C   0  0  0  0  0  0  0  0  0  0  0  0
   -4.4212   -5.6376    8.3032 Cl  0  0  0  0  0  0  0  0  0  0  0  0
   -2.4554   -4.1420    7.0405 C   0  0  0  0  0  0  0  0  0  0  0  0
   -1.2921   -4.6318    7.8361 C   0  0  0  0  0  0  0  0  0  0  0  0
   -1.2449   -4.6766    9.1951 C   0  0  0  0  0  0  0  0  0  0  0  0
   -0.0245   -4.9613    9.9128 C   0  0  0  0  0  0  0  0  0  0  0  0
    0.9436   -5.1774   10.5065 N   0  0  0  0  0  0  0  0  0  0  0  0
   -2.3295   -4.1934   10.0088 C   0  0  0  0  0  0  0  0  0  0  0  0
   -3.1913   -3.7912   10.6684 N   0  0  0  0  0  0  0  0  0  0  0  0
    2.2078   -4.7236    6.1564 C   0  0  0  0  0  0  0  0  0  0  0  0
    2.6782   -3.4061    6.0454 C   0  0  0  0  0  0  0  0  0  0  0  0
    3.2744   -2.9445    4.8458 C   0  0  0  0  0  0  0  0  0  0  0  0
    3.4083   -1.5218    4.7761 N   0  0  0  0  0  0  0  0  0  0  0  0
    2.8237   -1.0868    6.1930 S   0  0  0  0  0  4  0  0  0  0  0  0
    2.3537   -2.3797    6.9941 N   0  0  0  0  0  0  0  0  0  0  0  0
    3.4707   -3.8092    3.7463 C   0  0  0  0  0  0  0  0  0  0  0  0
    3.1771   -5.1750    3.9382 C   0  0  0  0  0  0  0  0  0  0  0  0
    3.3461   -6.1045    2.9575 N   0  0  0  0  0  0  0  0  0  0  0  0
    2.7037   -7.4410    3.6847 S   0  0  0  0  0  0  0  0  0  0  0  0
    2.1841   -6.9386    5.1713 N   0  0  0  0  0  0  0  0  0  0  0  0
    2.5486   -5.6280    5.1380 C   0  0  0  0  0  0  0  0  0  0  0  0
    3.4829   -3.2640    2.3782 C   0  0  0  0  0  0  0  0  0  0  0  0
    4.2418   -2.1697    1.9085 C   0  0  0  0  0  0  0  0  0  0  0  0
    5.5980   -1.9243    2.3075 N   0  0  0  0  0  0  0  0  0  0  0  0
    5.9426   -0.9346    3.2932 C   0  0  0  0  0  0  0  0  0  0  0  0
    6.9344   -1.2084    4.2553 C   0  0  0  0  0  0  0  0  0  0  0  0
    7.2304   -0.2795    5.2572 C   0  0  0  0  0  0  0  0  0  0  0  0
    6.5498    0.9476    5.2981 C   0  0  0  0  0  0  0  0  0  0  0  0
    6.9056    2.1312    6.5995 S   0  0  0  0  0  0  0  0  0  0  0  0
    5.5562    1.5343    7.6660 C   0  0  0  0  0  0  0  0  0  0  0  0
    5.5894    1.2449    4.3238 C   0  0  0  0  0  0  0  0  0  0  0  0
    5.2766    0.3040    3.3378 C   0  0  0  0  0  0  0  0  0  0  0  0
    6.6102   -2.7144    1.6744 C   0  0  0  0  0  0  0  0  0  0  0  0
    6.8670   -4.0227    2.1126 C   0  0  0  0  0  0  0  0  0  0  0  0
    7.7521   -4.8405    1.4010 C   0  0  0  0  0  0  0  0  0  0  0  0
    8.3748   -4.3560    0.2418 C   0  0  0  0  0  0  0  0  0  0  0  0
    9.4450   -5.4238   -0.7177 S   0  0  0  0  0  0  0  0  0  0  0  0
    8.1141   -5.9485   -1.8421 C   0  0  0  0  0  0  0  0  0  0  0  0
    8.1316   -3.0440   -0.1853 C   0  0  0  0  0  0  0  0  0  0  0  0
    7.2532   -2.2260    0.5300 C   0  0  0  0  0  0  0  0  0  0  0  0
    3.6724   -1.6309    0.7562 C   0  0  0  0  0  0  0  0  0  0  0  0
    3.8202   -0.1415   -0.0058 S   0  0  0  0  0  0  0  0  0  0  0  0
    2.3666   -0.2665   -0.8909 C   0  0  0  0  0  0  0  0  0  0  0  0
    1.7787   -1.5296   -0.6074 C   0  0  0  0  0  0  0  0  0  0  0  0
    0.5658   -2.0653   -1.1870 N   0  0  0  0  0  0  0  0  0  0  0  0
    0.4763   -3.4804   -1.4547 C   0  0  0  0  0  0  0  0  0  0  0  0
    1.5316   -4.1464   -2.1046 C   0  0  0  0  0  0  0  0  0  0  0  0
    1.4965   -5.5329   -2.2784 C   0  0  0  0  0  0  0  0  0  0  0  0
    0.4029   -6.2703   -1.8106 C   0  0  0  0  0  0  0  0  0  0  0  0
    0.3421   -8.0469   -2.0578 S   0  0  0  0  0  0  0  0  0  0  0  0
    1.1872   -8.4381   -0.4954 C   0  0  0  0  0  0  0  0  0  0  0  0
   -0.6556   -5.6146   -1.1731 C   0  0  0  0  0  0  0  0  0  0  0  0
   -0.6254   -4.2257   -1.0018 C   0  0  0  0  0  0  0  0  0  0  0  0
   -0.5541   -1.2187   -1.4765 C   0  0  0  0  0  0  0  0  0  0  0  0
   -1.4714   -0.8963   -0.4647 C   0  0  0  0  0  0  0  0  0  0  0  0
   -2.5338   -0.0280   -0.7335 C   0  0  0  0  0  0  0  0  0  0  0  0
   -2.6793    0.5361   -2.0061 C   0  0  0  0  0  0  0  0  0  0  0  0
   -3.9709    1.7406   -2.3064 S   0  0  0  0  0  0  0  0  0  0  0  0
   -5.2526    0.4879   -2.6190 C   0  0  0  0  0  0  0  0  0  0  0  0
   -1.7883    0.1851   -3.0294 C   0  0  0  0  0  0  0  0  0  0  0  0
   -0.7365   -0.7026   -2.7691 C   0  0  0  0  0  0  0  0  0  0  0  0
    2.5299   -2.2291    0.3348 C   0  0  0  0  0  0  0  0  0  0  0  0
    2.1361   -3.4829    1.3642 S   0  0  0  0  0  0  0  0  0  0  0  0
    1.6055    0.9432   -1.2101 C   0  0  0  0  0  0  0  0  0  0  0  0
    1.6234    1.6531   -2.4035 C   0  0  0  0  0  0  0  0  0  0  0  0
    0.7653    2.7699   -2.3750 C   0  0  0  0  0  0  0  0  0  0  0  0
    0.5338    3.6700   -3.4316 C   0  0  0  0  0  0  0  0  0  0  0  0
    1.2906    3.6125   -4.7008 C   0  0  0  0  0  0  0  0  0  0  0  0
    2.6763    3.6075   -4.8355 C   0  0  0  0  0  0  0  0  0  0  0  0
    3.1093    3.7249   -6.1664 C   0  0  0  0  0  0  0  0  0  0  0  0
    2.0686    3.8118   -7.0863 C   0  0  0  0  0  0  0  0  0  0  0  0
    2.2405    4.1224   -8.5249 C   0  0  0  0  0  0  0  0  0  0  0  0
    1.2713    4.1077   -9.4551 C   0  0  0  0  0  0  0  0  0  0  0  0
   -0.0855    3.5909   -9.2353 C   0  0  0  0  0  0  0  0  0  0  0  0
   -1.2511    4.3468   -9.2648 C   0  0  0  0  0  0  0  0  0  0  0  0
   -2.4010    3.5916   -9.0006 C   0  0  0  0  0  0  0  0  0  0  0  0
   -2.1253    2.2490   -8.7771 C   0  0  0  0  0  0  0  0  0  0  0  0
   -3.3372    0.9609   -8.5074 S   0  0  0  0  0  0  0  0  0  0  0  0
   -3.5139    1.2390   -6.7054 C   0  0  0  0  0  0  0  0  0  0  0  0
   -4.7975    2.0136   -6.4375 C   0  0  0  0  0  0  0  0  0  0  0  0
   -0.4739    1.9828   -8.9155 S   0  0  0  0  0  0  0  0  0  0  0  0
    0.6190    3.7661   -6.2333 S   0  0  0  0  0  0  0  0  0  0  0  0
   -0.4614    4.6425   -3.2234 C   0  0  0  0  0  0  0  0  0  0  0  0
   -1.1612    4.7744   -2.0165 C   0  0  0  0  0  0  0  0  0  0  0  0
   -0.8628    3.9355   -0.9235 C   0  0  0  0  0  0  0  0  0  0  0  0
   -1.4575    4.1542    0.4132 C   0  0  0  0  0  0  0  0  0  0  0  0
   -1.9815    3.1789    1.2565 C   0  0  0  0  0  0  0  0  0  0  0  0
   -2.3747    3.6778    2.5075 C   0  0  0  0  0  0  0  0  0  0  0  0
   -2.1450    5.0451    2.6481 C   0  0  0  0  0  0  0  0  0  0  0  0
   -2.5078    5.8882    3.7915 C   0  0  0  0  0  0  0  0  0  0  0  0
   -2.1488    5.6728    5.0683 C   0  0  0  0  0  0  0  0  0  0  0  0
   -1.2022    4.6489    5.5663 C   0  0  0  0  0  0  0  0  0  0  0  0
   -0.2127    3.9496    4.8649 C   0  0  0  0  0  0  0  0  0  0  0  0
    0.5756    3.1312    5.6809 C   0  0  0  0  0  0  0  0  0  0  0  0
    0.2405    3.2105    7.0221 C   0  0  0  0  0  0  0  0  0  0  0  0
    1.0749    2.3718    8.3639 S   0  0  0  0  0  0  0  0  0  0  0  0
   -0.2180    1.0984    8.5302 C   0  0  0  0  0  0  0  0  0  0  0  0
    0.0993    0.1893    9.7109 C   0  0  0  0  0  0  0  0  0  0  0  0
   -1.0279    4.2936    7.2015 S   0  0  0  0  0  0  0  0  0  0  0  0
   -1.4993    5.6330    1.2196 S   0  0  0  0  0  0  0  0  0  0  0  0
    0.0879    2.9216   -1.1551 C   0  0  0  0  0  0  0  0  0  0  0  0
    0.5980    1.7173   -0.1058 S   0  0  0  0  0  0  0  0  0  0  0  0
   -2.1718    5.7646   -2.0658 C   0  0  0  0  0  0  0  0  0  0  0  0
   -2.2479    6.3940   -3.3089 C   0  0  0  0  0  0  0  0  0  0  0  0
   -1.0589    5.7683   -4.3165 S   0  0  0  0  0  0  0  0  0  0  0  0
   -3.2918    7.2929   -3.8264 C   0  0  0  0  0  0  0  0  0  0  0  0
   -4.5206    6.8316   -4.1493 C   0  0  0  0  0  0  0  0  0  0  0  0
   -5.1322    5.6301   -3.5755 C   0  0  0  0  0  0  0  0  0  0  0  0
   -5.0152    5.2362   -2.3822 O   0  0  0  0  0  0  0  0  0  0  0  0
   -6.0164    5.0341   -4.5516 C   0  0  0  0  0  0  0  0  0  0  0  0
   -6.8176    3.9007   -4.3993 C   0  0  0  0  0  0  0  0  0  0  0  0
   -7.5988    3.4881   -5.4893 C   0  0  0  0  0  0  0  0  0  0  0  0
   -8.3489    2.3037   -5.4215 C   0  0  0  0  0  0  0  0  0  0  0  0
   -9.0889    1.8746   -6.5308 C   0  0  0  0  0  0  0  0  0  0  0  0
   -9.1110    2.6331   -7.7015 C   0  0  0  0  0  0  0  0  0  0  0  0
   -9.8282    2.2095   -8.7724 F   0  0  0  0  0  0  0  0  0  0  0  0
   -8.3804    3.8230   -7.7821 C   0  0  0  0  0  0  0  0  0  0  0  0
   -7.6193    4.2597   -6.6856 C   0  0  0  0  0  0  0  0  0  0  0  0
   -6.8476    5.4400   -6.7780 C   0  0  0  0  0  0  0  0  0  0  0  0
   -6.0232    5.8016   -5.6995 C   0  0  0  0  0  0  0  0  0  0  0  0
   -5.1493    6.9896   -5.5047 C   0  0  0  0  0  0  0  0  0  0  0  0
   -4.8808    7.9527   -6.4233 C   0  0  0  0  0  0  0  0  0  0  0  0
   -4.3394    9.2373   -6.0546 C   0  0  0  0  0  0  0  0  0  0  0  0
   -3.9109   10.2722   -5.7537 N   0  0  0  0  0  0  0  0  0  0  0  0
   -5.0535    7.7356   -7.8379 C   0  0  0  0  0  0  0  0  0  0  0  0
   -5.1537    7.5407   -8.9806 N   0  0  0  0  0  0  0  0  0  0  0  0
    1.2962   -5.7767    7.8574 H   0  0  0  0  0  0  0  0  0  0  0  0
    7.4668   -2.1484    4.2442 H   0  0  0  0  0  0  0  0  0  0  0  0
    7.9819   -0.5185    6.0040 H   0  0  0  0  0  0  0  0  0  0  0  0
    4.5764    1.6831    7.1590 H   0  0  0  0  0  0  0  0  0  0  0  0
    5.5667    2.1138    8.6103 H   0  0  0  0  0  0  0  0  0  0  0  0
    5.7001    0.4566    7.8972 H   0  0  0  0  0  0  0  0  0  0  0  0
    5.0664    2.1944    4.3464 H   0  0  0  0  0  0  0  0  0  0  0  0
    4.5036    0.5415    2.6256 H   0  0  0  0  0  0  0  0  0  0  0  0
    6.3584   -4.4130    2.9846 H   0  0  0  0  0  0  0  0  0  0  0  0
    7.9307   -5.8540    1.7352 H   0  0  0  0  0  0  0  0  0  0  0  0
    7.3204   -6.4725   -1.2704 H   0  0  0  0  0  0  0  0  0  0  0  0
    8.5344   -6.6428   -2.5975 H   0  0  0  0  0  0  0  0  0  0  0  0
    7.6836   -5.0695   -2.3665 H   0  0  0  0  0  0  0  0  0  0  0  0
    8.5943   -2.6673   -1.0893 H   0  0  0  0  0  0  0  0  0  0  0  0
    7.0335   -1.2275    0.1707 H   0  0  0  0  0  0  0  0  0  0  0  0
    2.3933   -3.5947   -2.4597 H   0  0  0  0  0  0  0  0  0  0  0  0
    2.3234   -6.0340   -2.7693 H   0  0  0  0  0  0  0  0  0  0  0  0
    1.3137   -9.5385   -0.4134 H   0  0  0  0  0  0  0  0  0  0  0  0
    0.5845   -8.0859    0.3656 H   0  0  0  0  0  0  0  0  0  0  0  0
    2.1898   -7.9670   -0.4676 H   0  0  0  0  0  0  0  0  0  0  0  0
   -1.5027   -6.1835   -0.7973 H   0  0  0  0  0  0  0  0  0  0  0  0
   -1.4392   -3.7439   -0.4760 H   0  0  0  0  0  0  0  0  0  0  0  0
   -1.3463   -1.3036    0.5307 H   0  0  0  0  0  0  0  0  0  0  0  0
   -3.2301    0.2241    0.0591 H   0  0  0  0  0  0  0  0  0  0  0  0
   -5.3219   -0.2173   -1.7654 H   0  0  0  0  0  0  0  0  0  0  0  0
   -5.0259   -0.0702   -3.5488 H   0  0  0  0  0  0  0  0  0  0  0  0
   -6.2317    0.9959   -2.7253 H   0  0  0  0  0  0  0  0  0  0  0  0
   -1.8875    0.6208   -4.0143 H   0  0  0  0  0  0  0  0  0  0  0  0
   -0.0262   -0.9441   -3.5547 H   0  0  0  0  0  0  0  0  0  0  0  0
    2.2120    1.3477   -3.2603 H   0  0  0  0  0  0  0  0  0  0  0  0
    3.3606    3.5824   -3.9954 H   0  0  0  0  0  0  0  0  0  0  0  0
    4.1522    3.7819   -6.4432 H   0  0  0  0  0  0  0  0  0  0  0  0
    3.2261    4.4613   -8.8349 H   0  0  0  0  0  0  0  0  0  0  0  0
    1.5028    4.4943  -10.4413 H   0  0  0  0  0  0  0  0  0  0  0  0
   -1.2669    5.4122   -9.4492 H   0  0  0  0  0  0  0  0  0  0  0  0
   -3.3966    4.0150   -8.9695 H   0  0  0  0  0  0  0  0  0  0  0  0
   -2.6482    1.7873   -6.2789 H   0  0  0  0  0  0  0  0  0  0  0  0
   -3.5775    0.2533   -6.2031 H   0  0  0  0  0  0  0  0  0  0  0  0
   -4.6683    3.0762   -6.7458 H   0  0  0  0  0  0  0  0  0  0  0  0
   -5.0470    1.9573   -5.3617 H   0  0  0  0  0  0  0  0  0  0  0  0
   -5.6322    1.5701   -7.0189 H   0  0  0  0  0  0  0  0  0  0  0  0
   -2.0802    2.1365    0.9928 H   0  0  0  0  0  0  0  0  0  0  0  0
   -2.8348    3.0687    3.2728 H   0  0  0  0  0  0  0  0  0  0  0  0
   -3.1184    6.7605    3.5815 H   0  0  0  0  0  0  0  0  0  0  0  0
   -2.5542    6.3496    5.8127 H   0  0  0  0  0  0  0  0  0  0  0  0
   -0.0199    4.0491    3.8049 H   0  0  0  0  0  0  0  0  0  0  0  0
    1.3889    2.5198    5.3063 H   0  0  0  0  0  0  0  0  0  0  0  0
   -1.1999    1.5880    8.7173 H   0  0  0  0  0  0  0  0  0  0  0  0
   -0.2909    0.4842    7.6019 H   0  0  0  0  0  0  0  0  0  0  0  0
    1.0589   -0.3450    9.5367 H   0  0  0  0  0  0  0  0  0  0  0  0
   -0.7153   -0.5589    9.8443 H   0  0  0  0  0  0  0  0  0  0  0  0
    0.1684    0.7863   10.6436 H   0  0  0  0  0  0  0  0  0  0  0  0
   -2.8599    5.9740   -1.2604 H   0  0  0  0  0  0  0  0  0  0  0  0
   -2.8732    8.1066   -4.3899 H   0  0  0  0  0  0  0  0  0  0  0  0
   -6.7981    3.3388   -3.4741 H   0  0  0  0  0  0  0  0  0  0  0  0
   -8.3525    1.7015   -4.5203 H   0  0  0  0  0  0  0  0  0  0  0  0
   -9.6547    0.9508   -6.4755 H   0  0  0  0  0  0  0  0  0  0  0  0
   -8.3921    4.3916   -8.7075 H   0  0  0  0  0  0  0  0  0  0  0  0
   -6.9353    6.0560   -7.6533 H   0  0  0  0  0  0  0  0  0  0  0  0
  1  2  2  3
  2  3  1  0
  3  4  2  0
  3  5  1  0
  5  6  2  0
  6  7  1  0
  6  8  1  0
  8  9  1  0
  8 10  2  0
 10 11  1  0
 10 12  1  0
 12 13  1  0
 12 14  2  0
 14 15  1  0
 15 16  2  3
 16 17  1  0
 17 18  3  0
 16 19  1  0
 19 20  3  0
  1 21  1  0
 21 22  2  0
 22 23  1  0
 23 24  1  0
 24 25  2  0
 25 26  2  0
 23 27  2  0
 27 28  1  0
 28 29  2  0
 29 30  1  0
 30 31  1  0
 31 32  2  0
 27 33  1  0
 33 34  2  0
 34 35  1  0
 35 36  1  0
 36 37  2  0
 37 38  1  0
 38 39  2  0
 39 40  1  0
 40 41  1  0
 39 42  1  0
 42 43  2  0
 35 44  1  0
 44 45  2  0
 45 46  1  0
 46 47  2  0
 47 48  1  0
 48 49  1  0
 47 50  1  0
 50 51  2  0
 34 52  1  0
 52 53  1  0
 53 54  1  0
 54 55  2  0
 55 56  1  0
 56 57  1  0
 57 58  2  0
 58 59  1  0
 59 60  2  0
 60 61  1  0
 61 62  1  0
 60 63  1  0
 63 64  2  0
 56 65  1  0
 65 66  2  0
 66 67  1  0
 67 68  2  0
 68 69  1  0
 69 70  1  0
 68 71  1  0
 71 72  2  0
 55 73  1  0
 73 74  1  0
 54 75  1  0
 75 76  2  0
 76 77  1  0
 77 78  2  0
 78 79  1  0
 79 80  2  0
 80 81  1  0
 81 82  2  0
 82 83  1  0
 83 84  2  3
 84 85  1  0
 85 86  2  0
 86 87  1  0
 87 88  2  0
 88 89  1  0
 89 90  1  0
 90 91  1  0
 88 92  1  0
 82 93  1  0
 78 94  1  0
 94 95  2  0
 95 96  1  0
 96 97  1  0
 97 98  2  0
 98 99  1  0
 99100  2  0
100101  1  0
101102  2  3
102103  1  0
103104  2  0
104105  1  0
105106  2  0
106107  1  0
107108  1  0
108109  1  0
106110  1  0
100111  1  0
 96112  2  0
112113  1  0
 95114  1  0
114115  2  0
115116  1  0
115117  1  0
117118  2  3
118119  1  0
119120  2  0
119121  1  0
121122  2  0
122123  1  0
123124  2  0
124125  1  0
125126  2  0
126127  1  0
126128  1  0
128129  2  0
129130  1  0
130131  2  0
131132  1  0
132133  2  3
133134  1  0
134135  3  0
133136  1  0
136137  3  0
 15  2  1  0
 32 21  1  0
 74 33  1  0
113 75  1  0
132118  1  0
 14  5  1  0
 26 22  1  0
 32 28  1  0
 43 36  1  0
 51 44  1  0
 73 52  2  0
112 77  1  0
131121  1  0
 64 57  1  0
 72 65  1  0
 93 79  1  0
116 94  1  0
129123  1  0
 92 85  1  0
111 97  1  0
110103  1  0
  1138  1  0
 37139  1  0
 38140  1  0
 41141  1  0
 41142  1  0
 41143  1  0
 42144  1  0
 43145  1  0
 45146  1  0
 46147  1  0
 49148  1  0
 49149  1  0
 49150  1  0
 50151  1  0
 51152  1  0
 58153  1  0
 59154  1  0
 62155  1  0
 62156  1  0
 62157  1  0
 63158  1  0
 64159  1  0
 66160  1  0
 67161  1  0
 70162  1  0
 70163  1  0
 70164  1  0
 71165  1  0
 72166  1  0
 76167  1  0
 80168  1  0
 81169  1  0
 83170  1  0
 84171  1  0
 86172  1  0
 87173  1  0
 90174  1  0
 90175  1  0
 91176  1  0
 91177  1  0
 91178  1  0
 98179  1  0
 99180  1  0
101181  1  0
102182  1  0
104183  1  0
105184  1  0
108185  1  0
108186  1  0
109187  1  0
109188  1  0
109189  1  0
114190  1  0
117191  1  0
122192  1  0
124193  1  0
125194  1  0
128195  1  0
130196  1  0
M  END

