
     RDKit          3D

134147  0  0  0  0  0  0  0  0999 V2000
    1.4688   -7.2733   -1.0609 C   0  0  0  0  0  0  0  0  0  0  0  0
    0.2648   -7.6893   -1.5097 C   0  0  0  0  0  0  0  0  0  0  0  0
   -0.2247   -9.0344   -1.2306 C   0  0  0  0  0  0  0  0  0  0  0  0
    0.4914  -10.0161   -0.8950 O   0  0  0  0  0  0  0  0  0  0  0  0
   -1.6772   -9.0383   -1.3390 C   0  0  0  0  0  0  0  0  0  0  0  0
   -2.5619  -10.0974   -1.1021 C   0  0  0  0  0  0  0  0  0  0  0  0
   -1.9792  -11.6302   -0.4556 Cl  0  0  0  0  0  0  0  0  0  0  0  0
   -3.9259   -9.9075   -1.3899 C   0  0  0  0  0  0  0  0  0  0  0  0
   -5.0758  -11.2063   -1.0687 Cl  0  0  0  0  0  0  0  0  0  0  0  0
   -4.3631   -8.7050   -1.9864 C   0  0  0  0  0  0  0  0  0  0  0  0
   -6.0581   -8.5298   -2.4473 Cl  0  0  0  0  0  0  0  0  0  0  0  0
   -3.4472   -7.6615   -2.2456 C   0  0  0  0  0  0  0  0  0  0  0  0
   -3.9613   -6.3548   -3.3120 Cl  0  0  0  0  0  0  0  0  0  0  0  0
   -2.1116   -7.7998   -1.7947 C   0  0  0  0  0  0  0  0  0  0  0  0
   -0.9328   -6.8905   -1.9158 C   0  0  0  0  0  0  0  0  0  0  0  0
   -0.9335   -5.6053   -2.3273 C   0  0  0  0  0  0  0  0  0  0  0  0
   -1.9573   -4.6837   -1.9069 C   0  0  0  0  0  0  0  0  0  0  0  0
   -2.7677   -3.9352   -1.5518 N   0  0  0  0  0  0  0  0  0  0  0  0
    0.1694   -5.0491   -3.0684 C   0  0  0  0  0  0  0  0  0  0  0  0
    1.0358   -4.5883   -3.6831 N   0  0  0  0  0  0  0  0  0  0  0  0
    1.7791   -5.8811   -0.6731 C   0  0  0  0  0  0  0  0  0  0  0  0
    2.9105   -5.2295   -1.1794 C   0  0  0  0  0  0  0  0  0  0  0  0
    3.1210   -3.8448   -0.9589 C   0  0  0  0  0  0  0  0  0  0  0  0
    4.2762   -3.3122   -1.6190 N   0  0  0  0  0  0  0  0  0  0  0  0
    4.8247   -4.6170   -2.3577 S   0  0  0  0  0  4  0  0  0  0  0  0
    3.8726   -5.8562   -2.0350 N   0  0  0  0  0  0  0  0  0  0  0  0
    2.2250   -3.0773   -0.1973 C   0  0  0  0  0  0  0  0  0  0  0  0
    1.1489   -3.7582    0.4135 C   0  0  0  0  0  0  0  0  0  0  0  0
    0.2287   -3.1444    1.2007 N   0  0  0  0  0  0  0  0  0  0  0  0
   -0.7484   -4.4084    1.6081 S   0  0  0  0  0  0  0  0  0  0  0  0
   -0.1183   -5.7231    0.8337 N   0  0  0  0  0  0  0  0  0  0  0  0
    0.9441   -5.1577    0.1965 C   0  0  0  0  0  0  0  0  0  0  0  0
    2.2949   -1.5950   -0.2276 C   0  0  0  0  0  0  0  0  0  0  0  0
    1.9569   -0.6969    0.8096 C   0  0  0  0  0  0  0  0  0  0  0  0
    1.8728   -1.0403    2.2047 N   0  0  0  0  0  0  0  0  0  0  0  0
    0.7582   -0.6042    3.0234 C   0  0  0  0  0  0  0  0  0  0  0  0
   -0.5253   -0.4357    2.4656 C   0  0  0  0  0  0  0  0  0  0  0  0
   -1.6040   -0.0384    3.2634 C   0  0  0  0  0  0  0  0  0  0  0  0
   -1.4160    0.2030    4.6271 C   0  0  0  0  0  0  0  0  0  0  0  0
   -2.7993    0.7106    5.6516 S   0  0  0  0  0  0  0  0  0  0  0  0
   -3.1876   -0.9876    6.1727 C   0  0  0  0  0  0  0  0  0  0  0  0
   -0.1436    0.0631    5.1885 C   0  0  0  0  0  0  0  0  0  0  0  0
    0.9344   -0.3372    4.3961 C   0  0  0  0  0  0  0  0  0  0  0  0
    2.9985   -1.7114    2.8005 C   0  0  0  0  0  0  0  0  0  0  0  0
    2.8145   -2.8832    3.5542 C   0  0  0  0  0  0  0  0  0  0  0  0
    3.9072   -3.4936    4.1799 C   0  0  0  0  0  0  0  0  0  0  0  0
    5.1878   -2.9349    4.0651 C   0  0  0  0  0  0  0  0  0  0  0  0
    6.5728   -3.6781    4.9299 S   0  0  0  0  0  0  0  0  0  0  0  0
    7.1179   -4.6385    3.4829 C   0  0  0  0  0  0  0  0  0  0  0  0
    5.3747   -1.7732    3.3088 C   0  0  0  0  0  0  0  0  0  0  0  0
    4.2891   -1.1715    2.6676 C   0  0  0  0  0  0  0  0  0  0  0  0
    1.8144    0.6022    0.3212 C   0  0  0  0  0  0  0  0  0  0  0  0
    1.1953    2.0248    0.9542 S   0  0  0  0  0  0  0  0  0  0  0  0
    1.2060    2.8524   -0.5353 C   0  0  0  0  0  0  0  0  0  0  0  0
    1.7067    1.9984   -1.5310 C   0  0  0  0  0  0  0  0  0  0  0  0
    1.8456    2.3376   -2.9193 N   0  0  0  0  0  0  0  0  0  0  0  0
    3.1376    2.2305   -3.5591 C   0  0  0  0  0  0  0  0  0  0  0  0
    3.2484    1.8374   -4.9067 C   0  0  0  0  0  0  0  0  0  0  0  0
    4.5068    1.6865   -5.4994 C   0  0  0  0  0  0  0  0  0  0  0  0
    5.6671    1.9398   -4.7587 C   0  0  0  0  0  0  0  0  0  0  0  0
    7.2803    1.7598   -5.5222 S   0  0  0  0  0  0  0  0  0  0  0  0
    7.4772    0.0280   -4.9907 C   0  0  0  0  0  0  0  0  0  0  0  0
    5.5669    2.3477   -3.4258 C   0  0  0  0  0  0  0  0  0  0  0  0
    4.3118    2.4903   -2.8277 C   0  0  0  0  0  0  0  0  0  0  0  0
    0.6684    2.6581   -3.6750 C   0  0  0  0  0  0  0  0  0  0  0  0
    0.5407    3.9138   -4.2835 C   0  0  0  0  0  0  0  0  0  0  0  0
   -0.6402    4.2601   -4.9474 C   0  0  0  0  0  0  0  0  0  0  0  0
   -1.6938    3.3384   -5.0249 C   0  0  0  0  0  0  0  0  0  0  0  0
   -3.2347    3.7905   -5.8235 S   0  0  0  0  0  0  0  0  0  0  0  0
   -2.6974    3.2442   -7.4722 C   0  0  0  0  0  0  0  0  0  0  0  0
   -1.5620    2.0747   -4.4364 C   0  0  0  0  0  0  0  0  0  0  0  0
   -0.3843    1.7357   -3.7642 C   0  0  0  0  0  0  0  0  0  0  0  0
    2.0334    0.7534   -1.0075 C   0  0  0  0  0  0  0  0  0  0  0  0
    2.4006   -0.7266   -1.6962 S   0  0  0  0  0  0  0  0  0  0  0  0
    0.3861    4.0450   -0.7656 C   0  0  0  0  0  0  0  0  0  0  0  0
    0.9229    5.3278   -0.5956 C   0  0  0  0  0  0  0  0  0  0  0  0
    0.0821    6.4469   -0.6076 C   0  0  0  0  0  0  0  0  0  0  0  0
   -1.3037    6.2865   -0.7712 C   0  0  0  0  0  0  0  0  0  0  0  0
   -1.8154    5.0092   -1.0690 C   0  0  0  0  0  0  0  0  0  0  0  0
   -3.1259    4.8358   -1.3685 F   0  0  0  0  0  0  0  0  0  0  0  0
   -0.9831    3.8929   -1.0242 C   0  0  0  0  0  0  0  0  0  0  0  0
   -1.5246    2.6566   -1.1749 F   0  0  0  0  0  0  0  0  0  0  0  0
   -2.1973    7.4448   -0.5683 C   0  0  0  0  0  0  0  0  0  0  0  0
   -3.3237    7.4039    0.1721 C   0  0  0  0  0  0  0  0  0  0  0  0
   -4.3841    8.4035    0.0980 C   0  0  0  0  0  0  0  0  0  0  0  0
   -4.2652    9.5674   -0.3710 O   0  0  0  0  0  0  0  0  0  0  0  0
   -5.6262    7.7825    0.5462 C   0  0  0  0  0  0  0  0  0  0  0  0
   -6.9301    8.2857    0.5179 C   0  0  0  0  0  0  0  0  0  0  0  0
   -7.2298    9.9776    0.1203 Cl  0  0  0  0  0  0  0  0  0  0  0  0
   -7.9931    7.4044    0.8116 C   0  0  0  0  0  0  0  0  0  0  0  0
   -9.6482    8.0100    0.8412 Cl  0  0  0  0  0  0  0  0  0  0  0  0
   -7.7342    6.0320    1.0383 C   0  0  0  0  0  0  0  0  0  0  0  0
   -9.0790    4.9085    1.2728 Cl  0  0  0  0  0  0  0  0  0  0  0  0
   -6.4066    5.5497    1.0490 C   0  0  0  0  0  0  0  0  0  0  0  0
   -6.1030    3.8108    1.0019 Cl  0  0  0  0  0  0  0  0  0  0  0  0
   -5.3571    6.4751    0.9144 C   0  0  0  0  0  0  0  0  0  0  0  0
   -3.8899    6.2628    0.9425 C   0  0  0  0  0  0  0  0  0  0  0  0
   -3.2235    5.5924    1.9164 C   0  0  0  0  0  0  0  0  0  0  0  0
   -3.9077    4.7986    2.9052 C   0  0  0  0  0  0  0  0  0  0  0  0
   -4.4471    4.1651    3.7114 N   0  0  0  0  0  0  0  0  0  0  0  0
   -1.8294    5.8328    2.1909 C   0  0  0  0  0  0  0  0  0  0  0  0
   -0.7126    6.0304    2.4338 N   0  0  0  0  0  0  0  0  0  0  0  0
    2.2196   -8.0149   -0.8081 H   0  0  0  0  0  0  0  0  0  0  0  0
   -0.6985   -0.6201    1.4134 H   0  0  0  0  0  0  0  0  0  0  0  0
   -2.5847    0.0775    2.8201 H   0  0  0  0  0  0  0  0  0  0  0  0
   -2.3066   -1.4536    6.6604 H   0  0  0  0  0  0  0  0  0  0  0  0
   -3.4948   -1.5954    5.2936 H   0  0  0  0  0  0  0  0  0  0  0  0
   -4.0243   -0.9600    6.9010 H   0  0  0  0  0  0  0  0  0  0  0  0
    0.0059    0.2565    6.2445 H   0  0  0  0  0  0  0  0  0  0  0  0
    1.9080   -0.4286    4.8590 H   0  0  0  0  0  0  0  0  0  0  0  0
    1.8281   -3.3123    3.6634 H   0  0  0  0  0  0  0  0  0  0  0  0
    3.7544   -4.3929    4.7600 H   0  0  0  0  0  0  0  0  0  0  0  0
    7.9816   -5.2702    3.7752 H   0  0  0  0  0  0  0  0  0  0  0  0
    7.4334   -3.9494    2.6730 H   0  0  0  0  0  0  0  0  0  0  0  0
    6.2954   -5.2931    3.1236 H   0  0  0  0  0  0  0  0  0  0  0  0
    6.3588   -1.3324    3.2175 H   0  0  0  0  0  0  0  0  0  0  0  0
    4.4464   -0.2655    2.0943 H   0  0  0  0  0  0  0  0  0  0  0  0
    2.3654    1.6158   -5.4935 H   0  0  0  0  0  0  0  0  0  0  0  0
    4.5812    1.3713   -6.5326 H   0  0  0  0  0  0  0  0  0  0  0  0
    8.4697   -0.3396   -5.3258 H   0  0  0  0  0  0  0  0  0  0  0  0
    6.6835   -0.6016   -5.4494 H   0  0  0  0  0  0  0  0  0  0  0  0
    7.4215   -0.0403   -3.8851 H   0  0  0  0  0  0  0  0  0  0  0  0
    6.4626    2.5483   -2.8515 H   0  0  0  0  0  0  0  0  0  0  0  0
    4.2596    2.7984   -1.7945 H   0  0  0  0  0  0  0  0  0  0  0  0
    1.3450    4.6365   -4.2133 H   0  0  0  0  0  0  0  0  0  0  0  0
   -0.7376    5.2409   -5.3934 H   0  0  0  0  0  0  0  0  0  0  0  0
   -2.0107    3.9987   -7.9079 H   0  0  0  0  0  0  0  0  0  0  0  0
   -2.1893    2.2611   -7.4225 H   0  0  0  0  0  0  0  0  0  0  0  0
   -3.5844    3.1516   -8.1284 H   0  0  0  0  0  0  0  0  0  0  0  0
   -2.3738    1.3577   -4.4899 H   0  0  0  0  0  0  0  0  0  0  0  0
   -0.2966    0.7626   -3.2985 H   0  0  0  0  0  0  0  0  0  0  0  0
    1.9803    5.4572   -0.3970 H   0  0  0  0  0  0  0  0  0  0  0  0
    0.4985    7.4277   -0.4139 H   0  0  0  0  0  0  0  0  0  0  0  0
   -1.9367    8.3666   -1.0740 H   0  0  0  0  0  0  0  0  0  0  0  0
  1  2  2  3
  2  3  1  0
  3  4  2  0
  3  5  1  0
  5  6  2  0
  6  7  1  0
  6  8  1  0
  8  9  1  0
  8 10  2  0
 10 11  1  0
 10 12  1  0
 12 13  1  0
 12 14  2  0
 14 15  1  0
 15 16  2  3
 16 17  1  0
 17 18  3  0
 16 19  1  0
 19 20  3  0
  1 21  1  0
 21 22  2  0
 22 23  1  0
 23 24  1  0
 24 25  2  0
 25 26  2  0
 23 27  2  0
 27 28  1  0
 28 29  2  0
 29 30  1  0
 30 31  1  0
 31 32  2  0
 27 33  1  0
 33 34  2  0
 34 35  1  0
 35 36  1  0
 36 37  2  0
 37 38  1  0
 38 39  2  0
 39 40  1  0
 40 41  1  0
 39 42  1  0
 42 43  2  0
 35 44  1  0
 44 45  2  0
 45 46  1  0
 46 47  2  0
 47 48  1  0
 48 49  1  0
 47 50  1  0
 50 51  2  0
 34 52  1  0
 52 53  1  0
 53 54  1  0
 54 55  2  0
 55 56  1  0
 56 57  1  0
 57 58  2  0
 58 59  1  0
 59 60  2  0
 60 61  1  0
 61 62  1  0
 60 63  1  0
 63 64  2  0
 56 65  1  0
 65 66  2  0
 66 67  1  0
 67 68  2  0
 68 69  1  0
 69 70  1  0
 68 71  1  0
 71 72  2  0
 55 73  1  0
 73 74  1  0
 54 75  1  0
 75 76  2  0
 76 77  1  0
 77 78  2  0
 78 79  1  0
 79 80  1  0
 79 81  2  0
 81 82  1  0
 78 83  1  0
 83 84  2  3
 84 85  1  0
 85 86  2  0
 85 87  1  0
 87 88  2  0
 88 89  1  0
 88 90  1  0
 90 91  1  0
 90 92  2  0
 92 93  1  0
 92 94  1  0
 94 95  1  0
 94 96  2  0
 96 97  1  0
 97 98  2  3
 98 99  1  0
 99100  3  0
 98101  1  0
101102  3  0
 15  2  1  0
 32 21  1  0
 74 33  1  0
 81 75  1  0
 97 84  1  0
 14  5  1  0
 26 22  1  0
 32 28  1  0
 43 36  1  0
 51 44  1  0
 73 52  2  0
 96 87  1  0
 64 57  1  0
 72 65  1  0
  1103  1  0
 37104  1  0
 38105  1  0
 41106  1  0
 41107  1  0
 41108  1  0
 42109  1  0
 43110  1  0
 45111  1  0
 46112  1  0
 49113  1  0
 49114  1  0
 49115  1  0
 50116  1  0
 51117  1  0
 58118  1  0
 59119  1  0
 62120  1  0
 62121  1  0
 62122  1  0
 63123  1  0
 64124  1  0
 66125  1  0
 67126  1  0
 70127  1  0
 70128  1  0
 70129  1  0
 71130  1  0
 72131  1  0
 76132  1  0
 77133  1  0
 83134  1  0
M  END

