
     RDKit          3D

 74 84  0  0  0  0  0  0  0  0999 V2000
   -6.4793    0.1080    2.3777 C   0  0  0  0  0  0  0  0  0  0  0  0
   -6.0106    0.2244    3.6334 C   0  0  0  0  0  0  0  0  0  0  0  0
   -4.6821   -0.1978    4.1029 C   0  0  0  0  0  0  0  0  0  0  0  0
   -3.7162   -0.5764    3.3758 O   0  0  0  0  0  0  0  0  0  0  0  0
   -4.7088   -0.2349    5.5550 C   0  0  0  0  0  0  0  0  0  0  0  0
   -3.7326   -0.7149    6.4331 C   0  0  0  0  0  0  0  0  0  0  0  0
   -2.1466   -1.2089    5.8423 Cl  0  0  0  0  0  0  0  0  0  0  0  0
   -4.0521   -0.8082    7.8014 C   0  0  0  0  0  0  0  0  0  0  0  0
   -2.8354   -1.3731    8.9505 Cl  0  0  0  0  0  0  0  0  0  0  0  0
   -5.3593   -0.5014    8.2498 C   0  0  0  0  0  0  0  0  0  0  0  0
   -5.7811   -0.7340    9.9489 Cl  0  0  0  0  0  0  0  0  0  0  0  0
   -6.3440   -0.0592    7.3364 C   0  0  0  0  0  0  0  0  0  0  0  0
   -8.0389   -0.0271    7.8420 Cl  0  0  0  0  0  0  0  0  0  0  0  0
   -5.9641    0.1684    5.9991 C   0  0  0  0  0  0  0  0  0  0  0  0
   -6.7686    0.6491    4.8401 C   0  0  0  0  0  0  0  0  0  0  0  0
   -7.6458    1.6871    4.8636 C   0  0  0  0  0  0  0  0  0  0  0  0
   -7.8989    2.4423    6.0645 C   0  0  0  0  0  0  0  0  0  0  0  0
   -8.0995    3.0628    7.0217 N   0  0  0  0  0  0  0  0  0  0  0  0
   -8.1719    2.2783    3.6562 C   0  0  0  0  0  0  0  0  0  0  0  0
   -8.5942    2.7705    2.6943 N   0  0  0  0  0  0  0  0  0  0  0  0
   -5.5985   -0.2384    1.2466 C   0  0  0  0  0  0  0  0  0  0  0  0
   -5.4928   -1.5588    0.7835 C   0  0  0  0  0  0  0  0  0  0  0  0
   -4.5280   -1.9194   -0.1929 C   0  0  0  0  0  0  0  0  0  0  0  0
   -4.4830   -3.3210   -0.4996 N   0  0  0  0  0  0  0  0  0  0  0  0
   -5.6266   -3.8653    0.4711 S   0  0  0  0  0  4  0  0  0  0  0  0
   -6.2609   -2.6537    1.2995 N   0  0  0  0  0  0  0  0  0  0  0  0
   -3.6579   -0.9641   -0.7396 C   0  0  0  0  0  0  0  0  0  0  0  0
   -3.7923    0.3717   -0.3159 C   0  0  0  0  0  0  0  0  0  0  0  0
   -2.9972    1.3735   -0.7736 N   0  0  0  0  0  0  0  0  0  0  0  0
   -3.5807    2.6494    0.1003 S   0  0  0  0  0  0  0  0  0  0  0  0
   -4.7893    2.0412    1.0448 N   0  0  0  0  0  0  0  0  0  0  0  0
   -4.7603    0.7335    0.6727 C   0  0  0  0  0  0  0  0  0  0  0  0
   -2.5246   -1.3567   -1.5866 C   0  0  0  0  0  0  0  0  0  0  0  0
   -2.6164   -1.3487   -2.9798 C   0  0  0  0  0  0  0  0  0  0  0  0
   -1.4599   -1.5445   -3.7428 C   0  0  0  0  0  0  0  0  0  0  0  0
   -0.2352   -1.7374   -3.0886 C   0  0  0  0  0  0  0  0  0  0  0  0
   -0.2178   -1.7751   -1.7287 N   0  0  0  0  0  0  0  0  0  0  0  0
   -1.3207   -1.5903   -1.0053 N   0  0  0  0  0  0  0  0  0  0  0  0
    1.0559   -1.7975   -3.8130 C   0  0  0  0  0  0  0  0  0  0  0  0
    2.0726   -2.6698   -3.3729 C   0  0  0  0  0  0  0  0  0  0  0  0
    3.4091   -2.5371   -3.8253 C   0  0  0  0  0  0  0  0  0  0  0  0
    4.3493   -3.4200   -3.1967 N   0  0  0  0  0  0  0  0  0  0  0  0
    3.3798   -4.2234   -2.2189 S   0  0  0  0  0  4  0  0  0  0  0  0
    1.8848   -3.6853   -2.3786 N   0  0  0  0  0  0  0  0  0  0  0  0
    3.7736   -1.5288   -4.7262 C   0  0  0  0  0  0  0  0  0  0  0  0
    2.7567   -0.7039   -5.2431 C   0  0  0  0  0  0  0  0  0  0  0  0
    3.0102    0.3123   -6.1104 N   0  0  0  0  0  0  0  0  0  0  0  0
    1.5047    0.9784   -6.2507 S   0  0  0  0  0  0  0  0  0  0  0  0
    0.5230    0.0807   -5.2750 N   0  0  0  0  0  0  0  0  0  0  0  0
    1.4027   -0.8347   -4.7891 C   0  0  0  0  0  0  0  0  0  0  0  0
    5.1983   -1.1803   -4.9005 C   0  0  0  0  0  0  0  0  0  0  0  0
    5.8054   -0.3094   -4.0714 C   0  0  0  0  0  0  0  0  0  0  0  0
    5.1426    0.5157   -3.0507 C   0  0  0  0  0  0  0  0  0  0  0  0
    3.9336    0.3972   -2.6757 O   0  0  0  0  0  0  0  0  0  0  0  0
    6.0702    1.5448   -2.6070 C   0  0  0  0  0  0  0  0  0  0  0  0
    5.8366    2.6418   -1.7687 C   0  0  0  0  0  0  0  0  0  0  0  0
    4.2936    2.8084   -0.9132 Cl  0  0  0  0  0  0  0  0  0  0  0  0
    6.8474    3.6187   -1.6436 C   0  0  0  0  0  0  0  0  0  0  0  0
    6.6000    5.0006   -0.5683 Cl  0  0  0  0  0  0  0  0  0  0  0  0
    8.0256    3.5230   -2.4244 C   0  0  0  0  0  0  0  0  0  0  0  0
    9.2173    4.8197   -2.3683 Cl  0  0  0  0  0  0  0  0  0  0  0  0
    8.2307    2.4146   -3.2813 C   0  0  0  0  0  0  0  0  0  0  0  0
    9.5457    2.4502   -4.4619 Cl  0  0  0  0  0  0  0  0  0  0  0  0
    7.2686    1.3808   -3.2850 C   0  0  0  0  0  0  0  0  0  0  0  0
    7.2292    0.1189   -4.0811 C   0  0  0  0  0  0  0  0  0  0  0  0
    8.2849   -0.7170   -4.2620 C   0  0  0  0  0  0  0  0  0  0  0  0
    8.1451   -2.0194   -4.8733 C   0  0  0  0  0  0  0  0  0  0  0  0
    8.0514   -3.0732   -5.3580 N   0  0  0  0  0  0  0  0  0  0  0  0
    9.5424   -0.4822   -3.6020 C   0  0  0  0  0  0  0  0  0  0  0  0
   10.5483   -0.3212   -3.0510 N   0  0  0  0  0  0  0  0  0  0  0  0
   -7.5265    0.2745    2.1626 H   0  0  0  0  0  0  0  0  0  0  0  0
   -3.5622   -1.1533   -3.4673 H   0  0  0  0  0  0  0  0  0  0  0  0
   -1.5191   -1.5291   -4.8249 H   0  0  0  0  0  0  0  0  0  0  0  0
    5.7377   -1.6365   -5.7125 H   0  0  0  0  0  0  0  0  0  0  0  0
  1  2  2  3
  2  3  1  0
  3  4  2  0
  3  5  1  0
  5  6  2  0
  6  7  1  0
  6  8  1  0
  8  9  1  0
  8 10  2  0
 10 11  1  0
 10 12  1  0
 12 13  1  0
 12 14  2  0
 14 15  1  0
 15 16  2  3
 16 17  1  0
 17 18  3  0
 16 19  1  0
 19 20  3  0
  1 21  1  0
 21 22  2  0
 22 23  1  0
 23 24  1  0
 24 25  2  0
 25 26  2  0
 23 27  2  0
 27 28  1  0
 28 29  2  0
 29 30  1  0
 30 31  1  0
 31 32  2  0
 27 33  1  0
 33 34  2  0
 34 35  1  0
 35 36  2  0
 36 37  1  0
 37 38  2  0
 36 39  1  0
 39 40  2  0
 40 41  1  0
 41 42  1  0
 42 43  2  0
 43 44  2  0
 41 45  2  0
 45 46  1  0
 46 47  2  0
 47 48  1  0
 48 49  1  0
 49 50  2  0
 45 51  1  0
 51 52  2  3
 52 53  1  0
 53 54  2  0
 53 55  1  0
 55 56  2  0
 56 57  1  0
 56 58  1  0
 58 59  1  0
 58 60  2  0
 60 61  1  0
 60 62  1  0
 62 63  1  0
 62 64  2  0
 64 65  1  0
 65 66  2  3
 66 67  1  0
 67 68  3  0
 66 69  1  0
 69 70  3  0
 15  2  1  0
 32 21  1  0
 38 33  1  0
 50 39  1  0
 65 52  1  0
 14  5  1  0
 26 22  1  0
 32 28  1  0
 44 40  1  0
 50 46  1  0
 64 55  1  0
  1 71  1  0
 34 72  1  0
 35 73  1  0
 51 74  1  0
M  END

