
     RDKit          3D

153166  0  0  0  0  0  0  0  0999 V2000
   -2.2398    2.2592   -7.9721 C   0  0  0  0  0  0  0  0  0  0  0  0
   -2.5788    1.1249   -8.6056 C   0  0  0  0  0  0  0  0  0  0  0  0
   -3.7647    0.3495   -8.1997 C   0  0  0  0  0  0  0  0  0  0  0  0
   -4.8319    0.8452   -7.7393 O   0  0  0  0  0  0  0  0  0  0  0  0
   -3.4018   -1.0616   -8.1668 C   0  0  0  0  0  0  0  0  0  0  0  0
   -4.1985   -2.1130   -7.7000 C   0  0  0  0  0  0  0  0  0  0  0  0
   -5.9111   -1.8896   -7.3703 Cl  0  0  0  0  0  0  0  0  0  0  0  0
   -3.5968   -3.3920   -7.6015 C   0  0  0  0  0  0  0  0  0  0  0  0
   -4.5460   -4.7619   -7.0595 Cl  0  0  0  0  0  0  0  0  0  0  0  0
   -2.2245   -3.5658   -7.8703 C   0  0  0  0  0  0  0  0  0  0  0  0
   -1.4732   -5.1666   -7.7920 Cl  0  0  0  0  0  0  0  0  0  0  0  0
   -1.4134   -2.4405   -8.1888 C   0  0  0  0  0  0  0  0  0  0  0  0
    0.2458   -2.5797   -7.6867 Cl  0  0  0  0  0  0  0  0  0  0  0  0
   -2.0521   -1.1871   -8.4228 C   0  0  0  0  0  0  0  0  0  0  0  0
   -1.5135    0.1361   -8.9027 C   0  0  0  0  0  0  0  0  0  0  0  0
   -0.4104    0.3865   -9.6574 C   0  0  0  0  0  0  0  0  0  0  0  0
   -0.2847    1.5970  -10.4461 C   0  0  0  0  0  0  0  0  0  0  0  0
   -0.0663    2.5878  -11.0119 N   0  0  0  0  0  0  0  0  0  0  0  0
    0.8419   -0.2907   -9.4665 C   0  0  0  0  0  0  0  0  0  0  0  0
    1.8699   -0.8137   -9.2717 N   0  0  0  0  0  0  0  0  0  0  0  0
   -2.2808    2.2848   -6.4736 C   0  0  0  0  0  0  0  0  0  0  0  0
   -1.8401    3.4276   -5.7603 C   0  0  0  0  0  0  0  0  0  0  0  0
   -1.5653    3.2798   -4.3911 C   0  0  0  0  0  0  0  0  0  0  0  0
   -1.7264    2.0211   -3.7887 C   0  0  0  0  0  0  0  0  0  0  0  0
   -2.2596    1.0039   -4.5074 N   0  0  0  0  0  0  0  0  0  0  0  0
   -2.4981    1.1351   -5.8133 N   0  0  0  0  0  0  0  0  0  0  0  0
   -1.1897    1.6737   -2.4520 C   0  0  0  0  0  0  0  0  0  0  0  0
   -0.3452    0.5652   -2.2133 C   0  0  0  0  0  0  0  0  0  0  0  0
    0.3058   -0.1734   -3.2586 N   0  0  0  0  0  0  0  0  0  0  0  0
    0.0233   -1.5843   -3.3873 C   0  0  0  0  0  0  0  0  0  0  0  0
   -1.1862   -2.0486   -3.9531 C   0  0  0  0  0  0  0  0  0  0  0  0
   -1.3792   -3.4137   -4.2039 C   0  0  0  0  0  0  0  0  0  0  0  0
   -0.4084   -4.3460   -3.8217 C   0  0  0  0  0  0  0  0  0  0  0  0
   -0.6666   -6.0888   -4.1730 S   0  0  0  0  0  0  0  0  0  0  0  0
   -1.8046   -6.3508   -2.7642 C   0  0  0  0  0  0  0  0  0  0  0  0
    0.7654   -3.9049   -3.2222 C   0  0  0  0  0  0  0  0  0  0  0  0
    1.0040   -2.5380   -3.0316 C   0  0  0  0  0  0  0  0  0  0  0  0
    1.5079    0.3577   -3.8650 C   0  0  0  0  0  0  0  0  0  0  0  0
    2.4431    1.0855   -3.0960 C   0  0  0  0  0  0  0  0  0  0  0  0
    3.6418    1.4850   -3.6637 C   0  0  0  0  0  0  0  0  0  0  0  0
    3.9244    1.2148   -5.0005 C   0  0  0  0  0  0  0  0  0  0  0  0
    5.5002    1.7182   -5.6910 S   0  0  0  0  0  0  0  0  0  0  0  0
    6.3630    0.1873   -5.2086 C   0  0  0  0  0  0  0  0  0  0  0  0
    2.9949    0.5254   -5.7778 C   0  0  0  0  0  0  0  0  0  0  0  0
    1.7957    0.0881   -5.2162 C   0  0  0  0  0  0  0  0  0  0  0  0
    0.0362    0.5163   -0.8944 C   0  0  0  0  0  0  0  0  0  0  0  0
    1.1865   -0.3622   -0.0745 S   0  0  0  0  0  0  0  0  0  0  0  0
    0.8397    0.3253    1.4383 C   0  0  0  0  0  0  0  0  0  0  0  0
   -0.0741    1.4070    1.2516 C   0  0  0  0  0  0  0  0  0  0  0  0
   -0.2909    2.4752    2.1889 N   0  0  0  0  0  0  0  0  0  0  0  0
   -1.0513    2.2588    3.4089 C   0  0  0  0  0  0  0  0  0  0  0  0
   -0.8804    3.1314    4.5112 C   0  0  0  0  0  0  0  0  0  0  0  0
   -1.6844    3.0092    5.6552 C   0  0  0  0  0  0  0  0  0  0  0  0
   -2.6755    2.0188    5.7152 C   0  0  0  0  0  0  0  0  0  0  0  0
   -3.7230    1.8224    7.1713 S   0  0  0  0  0  0  0  0  0  0  0  0
   -2.3543    1.3857    8.3374 C   0  0  0  0  0  0  0  0  0  0  0  0
   -2.8650    1.1723    4.6136 C   0  0  0  0  0  0  0  0  0  0  0  0
   -2.0504    1.2731    3.4716 C   0  0  0  0  0  0  0  0  0  0  0  0
    0.0050    3.8101    1.7267 C   0  0  0  0  0  0  0  0  0  0  0  0
   -0.9429    4.8402    1.8604 C   0  0  0  0  0  0  0  0  0  0  0  0
   -0.7295    6.0827    1.2468 C   0  0  0  0  0  0  0  0  0  0  0  0
    0.4573    6.3364    0.5450 C   0  0  0  0  0  0  0  0  0  0  0  0
    0.7549    7.9170   -0.2422 S   0  0  0  0  0  0  0  0  0  0  0  0
    0.2101    7.3659   -1.8887 C   0  0  0  0  0  0  0  0  0  0  0  0
    1.4203    5.3237    0.4435 C   0  0  0  0  0  0  0  0  0  0  0  0
    1.1956    4.0670    1.0289 C   0  0  0  0  0  0  0  0  0  0  0  0
   -0.5125    1.4597   -0.0833 C   0  0  0  0  0  0  0  0  0  0  0  0
   -1.4544    2.5381   -1.0064 S   0  0  0  0  0  0  0  0  0  0  0  0
    1.3322   -0.3306    2.6677 C   0  0  0  0  0  0  0  0  0  0  0  0
    2.2569    0.3087    3.5589 C   0  0  0  0  0  0  0  0  0  0  0  0
    2.9652    1.9362    3.1313 S   0  0  0  0  0  0  0  0  0  0  0  0
    4.5595    1.2652    2.5356 C   0  0  0  0  0  0  0  0  0  0  0  0
    4.4259    0.6119    1.1702 C   0  0  0  0  0  0  0  0  0  0  0  0
    2.6221   -0.3291    4.7891 C   0  0  0  0  0  0  0  0  0  0  0  0
    3.8813    0.3721    5.9182 S   0  0  0  0  0  0  0  0  0  0  0  0
    3.0254    1.9344    6.3653 C   0  0  0  0  0  0  0  0  0  0  0  0
    3.1118    2.1464    7.8742 C   0  0  0  0  0  0  0  0  0  0  0  0
    2.2313   -1.6765    5.0109 C   0  0  0  0  0  0  0  0  0  0  0  0
    1.6877   -2.4224    3.9258 C   0  0  0  0  0  0  0  0  0  0  0  0
    1.0489   -1.7295    2.8587 C   0  0  0  0  0  0  0  0  0  0  0  0
    0.0863   -2.5222    2.0155 C   0  0  0  0  0  0  0  0  0  0  0  0
   -0.9506   -1.9882    1.5294 O   0  0  0  0  0  0  0  0  0  0  0  0
    0.3146   -3.9602    1.8662 C   0  0  0  0  0  0  0  0  0  0  0  0
    1.1630   -4.6300    2.7430 C   0  0  0  0  0  0  0  0  0  0  0  0
    1.7943   -3.9220    3.8794 C   0  0  0  0  0  0  0  0  0  0  0  0
    2.4002   -4.6062    4.7626 O   0  0  0  0  0  0  0  0  0  0  0  0
    1.4422   -5.9385    2.3502 C   0  0  0  0  0  0  0  0  0  0  0  0
    0.5477   -6.2444    0.9573 S   0  0  0  0  0  0  0  0  0  0  0  0
   -0.1813   -4.7405    0.8224 C   0  0  0  0  0  0  0  0  0  0  0  0
    2.2468   -2.2517    6.3856 C   0  0  0  0  0  0  0  0  0  0  0  0
    1.1536   -2.8595    6.9161 C   0  0  0  0  0  0  0  0  0  0  0  0
    1.2177   -3.7870    8.0411 C   0  0  0  0  0  0  0  0  0  0  0  0
    2.1656   -3.8489    8.8675 O   0  0  0  0  0  0  0  0  0  0  0  0
    0.0421   -4.6570    7.9763 C   0  0  0  0  0  0  0  0  0  0  0  0
   -0.2798   -5.7388    8.7985 C   0  0  0  0  0  0  0  0  0  0  0  0
    0.7311   -6.1496   10.1995 Cl  0  0  0  0  0  0  0  0  0  0  0  0
   -1.4167   -6.5041    8.4773 C   0  0  0  0  0  0  0  0  0  0  0  0
   -1.8803   -7.8386    9.5144 Cl  0  0  0  0  0  0  0  0  0  0  0  0
   -2.1452   -6.2452    7.2902 C   0  0  0  0  0  0  0  0  0  0  0  0
   -3.5362   -7.2367    6.8594 Cl  0  0  0  0  0  0  0  0  0  0  0  0
   -1.7440   -5.1969    6.4401 C   0  0  0  0  0  0  0  0  0  0  0  0
   -2.3814   -5.1688    4.7783 Cl  0  0  0  0  0  0  0  0  0  0  0  0
   -0.7242   -4.3288    6.8705 C   0  0  0  0  0  0  0  0  0  0  0  0
   -0.1867   -3.0567    6.2830 C   0  0  0  0  0  0  0  0  0  0  0  0
   -0.9163   -2.0443    5.7784 C   0  0  0  0  0  0  0  0  0  0  0  0
   -0.4430   -0.7074    5.7991 C   0  0  0  0  0  0  0  0  0  0  0  0
   -0.0424    0.3803    5.8680 N   0  0  0  0  0  0  0  0  0  0  0  0
   -2.2433   -2.1795    5.2028 C   0  0  0  0  0  0  0  0  0  0  0  0
   -3.2974   -2.2576    4.6934 N   0  0  0  0  0  0  0  0  0  0  0  0
   -1.4215    2.8630   -8.3509 H   0  0  0  0  0  0  0  0  0  0  0  0
   -1.6217    4.3494   -6.2850 H   0  0  0  0  0  0  0  0  0  0  0  0
   -1.1360    4.1109   -3.8596 H   0  0  0  0  0  0  0  0  0  0  0  0
   -1.9574   -1.3420   -4.2382 H   0  0  0  0  0  0  0  0  0  0  0  0
   -2.2884   -3.7218   -4.6967 H   0  0  0  0  0  0  0  0  0  0  0  0
   -2.1021   -7.4183   -2.7722 H   0  0  0  0  0  0  0  0  0  0  0  0
   -1.3075   -6.0997   -1.8087 H   0  0  0  0  0  0  0  0  0  0  0  0
   -2.7200   -5.7417   -2.9029 H   0  0  0  0  0  0  0  0  0  0  0  0
    1.5284   -4.6149   -2.9504 H   0  0  0  0  0  0  0  0  0  0  0  0
    1.9430   -2.2184   -2.5979 H   0  0  0  0  0  0  0  0  0  0  0  0
    2.2785    1.3212   -2.0614 H   0  0  0  0  0  0  0  0  0  0  0  0
    4.3414    2.0262   -3.0496 H   0  0  0  0  0  0  0  0  0  0  0  0
    6.3384    0.0436   -4.1116 H   0  0  0  0  0  0  0  0  0  0  0  0
    7.4240    0.2550   -5.5498 H   0  0  0  0  0  0  0  0  0  0  0  0
    5.8782   -0.6657   -5.7062 H   0  0  0  0  0  0  0  0  0  0  0  0
    3.1832    0.3289   -6.8285 H   0  0  0  0  0  0  0  0  0  0  0  0
    1.0756   -0.4645   -5.8182 H   0  0  0  0  0  0  0  0  0  0  0  0
   -0.1562    3.9308    4.4673 H   0  0  0  0  0  0  0  0  0  0  0  0
   -1.5101    3.6579    6.4847 H   0  0  0  0  0  0  0  0  0  0  0  0
   -2.1472    2.2541    9.0018 H   0  0  0  0  0  0  0  0  0  0  0  0
   -2.6624    0.4926    8.9430 H   0  0  0  0  0  0  0  0  0  0  0  0
   -1.4269    1.1254    7.8068 H   0  0  0  0  0  0  0  0  0  0  0  0
   -3.6488    0.4192    4.6240 H   0  0  0  0  0  0  0  0  0  0  0  0
   -2.1779    0.5686    2.6572 H   0  0  0  0  0  0  0  0  0  0  0  0
   -1.8976    4.6691    2.3273 H   0  0  0  0  0  0  0  0  0  0  0  0
   -1.4615    6.8655    1.3245 H   0  0  0  0  0  0  0  0  0  0  0  0
    0.9284    6.6120   -2.2860 H   0  0  0  0  0  0  0  0  0  0  0  0
   -0.8107    6.9546   -1.8670 H   0  0  0  0  0  0  0  0  0  0  0  0
    0.2462    8.2304   -2.5741 H   0  0  0  0  0  0  0  0  0  0  0  0
    2.3616    5.4799   -0.1016 H   0  0  0  0  0  0  0  0  0  0  0  0
    1.9130    3.2757    0.8619 H   0  0  0  0  0  0  0  0  0  0  0  0
    5.2653    2.0980    2.4025 H   0  0  0  0  0  0  0  0  0  0  0  0
    5.0230    0.5506    3.2506 H   0  0  0  0  0  0  0  0  0  0  0  0
    5.4050    0.1652    0.8742 H   0  0  0  0  0  0  0  0  0  0  0  0
    4.1244    1.3423    0.4127 H   0  0  0  0  0  0  0  0  0  0  0  0
    3.6908   -0.2155    1.2226 H   0  0  0  0  0  0  0  0  0  0  0  0
    1.9540    1.9495    6.0723 H   0  0  0  0  0  0  0  0  0  0  0  0
    3.5456    2.7707    5.8734 H   0  0  0  0  0  0  0  0  0  0  0  0
    4.1594    2.3140    8.1876 H   0  0  0  0  0  0  0  0  0  0  0  0
    2.7271    1.2557    8.4125 H   0  0  0  0  0  0  0  0  0  0  0  0
    2.5029    3.0328    8.1856 H   0  0  0  0  0  0  0  0  0  0  0  0
    2.2482   -6.5431    2.7198 H   0  0  0  0  0  0  0  0  0  0  0  0
   -0.8284   -4.3850    0.0406 H   0  0  0  0  0  0  0  0  0  0  0  0
    3.1928   -2.2588    6.9246 H   0  0  0  0  0  0  0  0  0  0  0  0
  1  2  2  3
  2  3  1  0
  3  4  2  0
  3  5  1  0
  5  6  2  0
  6  7  1  0
  6  8  1  0
  8  9  1  0
  8 10  2  0
 10 11  1  0
 10 12  1  0
 12 13  1  0
 12 14  2  0
 14 15  1  0
 15 16  2  3
 16 17  1  0
 17 18  3  0
 16 19  1  0
 19 20  3  0
  1 21  1  0
 21 22  2  0
 22 23  1  0
 23 24  2  0
 24 25  1  0
 25 26  2  0
 24 27  1  0
 27 28  2  0
 28 29  1  0
 29 30  1  0
 30 31  2  0
 31 32  1  0
 32 33  2  0
 33 34  1  0
 34 35  1  0
 33 36  1  0
 36 37  2  0
 29 38  1  0
 38 39  2  0
 39 40  1  0
 40 41  2  0
 41 42  1  0
 42 43  1  0
 41 44  1  0
 44 45  2  0
 28 46  1  0
 46 47  1  0
 47 48  1  0
 48 49  2  0
 49 50  1  0
 50 51  1  0
 51 52  2  0
 52 53  1  0
 53 54  2  0
 54 55  1  0
 55 56  1  0
 54 57  1  0
 57 58  2  0
 50 59  1  0
 59 60  2  0
 60 61  1  0
 61 62  2  0
 62 63  1  0
 63 64  1  0
 62 65  1  0
 65 66  2  0
 49 67  1  0
 67 68  1  0
 48 69  1  0
 69 70  2  0
 70 71  1  0
 71 72  1  0
 72 73  1  0
 70 74  1  0
 74 75  1  0
 75 76  1  0
 76 77  1  0
 74 78  2  0
 78 79  1  0
 79 80  2  0
 80 81  1  0
 81 82  2  0
 81 83  1  0
 83 84  1  0
 84 85  1  0
 85 86  2  0
 84 87  2  0
 87 88  1  0
 88 89  1  0
 78 90  1  0
 90 91  2  3
 91 92  1  0
 92 93  2  0
 92 94  1  0
 94 95  2  0
 95 96  1  0
 95 97  1  0
 97 98  1  0
 97 99  2  0
 99100  1  0
 99101  1  0
101102  1  0
101103  2  0
103104  1  0
104105  2  3
105106  1  0
106107  3  0
105108  1  0
108109  3  0
 15  2  1  0
 26 21  1  0
 68 27  1  0
 80 69  1  0
 89 83  2  0
104 91  1  0
 14  5  1  0
 37 30  1  0
 45 38  1  0
 67 46  2  0
 85 79  1  0
103 94  1  0
 58 51  1  0
 66 59  1  0
  1110  1  0
 22111  1  0
 23112  1  0
 31113  1  0
 32114  1  0
 35115  1  0
 35116  1  0
 35117  1  0
 36118  1  0
 37119  1  0
 39120  1  0
 40121  1  0
 43122  1  0
 43123  1  0
 43124  1  0
 44125  1  0
 45126  1  0
 52127  1  0
 53128  1  0
 56129  1  0
 56130  1  0
 56131  1  0
 57132  1  0
 58133  1  0
 60134  1  0
 61135  1  0
 64136  1  0
 64137  1  0
 64138  1  0
 65139  1  0
 66140  1  0
 72141  1  0
 72142  1  0
 73143  1  0
 73144  1  0
 73145  1  0
 76146  1  0
 76147  1  0
 77148  1  0
 77149  1  0
 77150  1  0
 87151  1  0
 89152  1  0
 90153  1  0
M  END

