
     RDKit          3D

196213  0  0  0  0  0  0  0  0999 V2000
   -4.6844   -2.1367   -5.8270 C   0  0  0  0  0  0  0  0  0  0  0  0
   -3.8509   -3.0900   -6.3802 C   0  0  0  0  0  0  0  0  0  0  0  0
   -3.2314   -4.1471   -5.6126 C   0  0  0  0  0  0  0  0  0  0  0  0
   -3.7189   -4.6419   -4.5627 O   0  0  0  0  0  0  0  0  0  0  0  0
   -1.9275   -4.4765   -6.2210 C   0  0  0  0  0  0  0  0  0  0  0  0
   -0.9782   -5.4041   -5.7384 C   0  0  0  0  0  0  0  0  0  0  0  0
   -1.1504   -6.2735   -4.1795 Cl  0  0  0  0  0  0  0  0  0  0  0  0
    0.1907   -5.5593   -6.5087 C   0  0  0  0  0  0  0  0  0  0  0  0
    1.5013   -6.5930   -5.9825 Cl  0  0  0  0  0  0  0  0  0  0  0  0
    0.3918   -4.9256   -7.7458 C   0  0  0  0  0  0  0  0  0  0  0  0
    1.8815   -5.0989   -8.6326 Cl  0  0  0  0  0  0  0  0  0  0  0  0
   -0.6289   -4.1230   -8.3165 C   0  0  0  0  0  0  0  0  0  0  0  0
   -0.5212   -3.8822  -10.1013 Cl  0  0  0  0  0  0  0  0  0  0  0  0
   -1.7579   -3.7777   -7.4537 C   0  0  0  0  0  0  0  0  0  0  0  0
   -3.0797   -2.9991   -7.6816 C   0  0  0  0  0  0  0  0  0  0  0  0
   -3.4395   -2.2462   -8.7745 C   0  0  0  0  0  0  0  0  0  0  0  0
   -4.8013   -1.9030   -9.0037 C   0  0  0  0  0  0  0  0  0  0  0  0
   -5.9164   -1.6750   -9.2188 N   0  0  0  0  0  0  0  0  0  0  0  0
   -2.5016   -1.6698   -9.7155 C   0  0  0  0  0  0  0  0  0  0  0  0
   -1.7644   -1.2140  -10.4776 N   0  0  0  0  0  0  0  0  0  0  0  0
   -4.6886   -1.8215   -4.3384 C   0  0  0  0  0  0  0  0  0  0  0  0
   -3.5118   -1.6880   -3.5149 C   0  0  0  0  0  0  0  0  0  0  0  0
   -2.1613   -2.0220   -3.8273 N   0  0  0  0  0  0  0  0  0  0  0  0
   -1.4316   -1.2015   -4.7886 C   0  0  0  0  0  0  0  0  0  0  0  0
   -1.7257    0.1956   -4.9054 C   0  0  0  0  0  0  0  0  0  0  0  0
   -0.8131    1.0553   -5.5884 C   0  0  0  0  0  0  0  0  0  0  0  0
    0.3742    0.5483   -6.1524 C   0  0  0  0  0  0  0  0  0  0  0  0
    1.4091    1.5961   -7.2080 S   0  0  0  0  0  0  0  0  0  0  0  0
    2.5394    2.2243   -5.8971 C   0  0  0  0  0  0  0  0  0  0  0  0
    0.6176   -0.8456   -6.0825 C   0  0  0  0  0  0  0  0  0  0  0  0
   -0.2727   -1.7143   -5.4149 C   0  0  0  0  0  0  0  0  0  0  0  0
   -1.3929   -2.7745   -2.8262 C   0  0  0  0  0  0  0  0  0  0  0  0
   -2.0218   -3.8211   -2.0890 C   0  0  0  0  0  0  0  0  0  0  0  0
   -1.3607   -4.4170   -1.0060 C   0  0  0  0  0  0  0  0  0  0  0  0
   -0.1226   -3.9096   -0.5399 C   0  0  0  0  0  0  0  0  0  0  0  0
    0.8166   -4.7890    0.7223 S   0  0  0  0  0  0  0  0  0  0  0  0
   -0.0861   -4.0878    2.1654 C   0  0  0  0  0  0  0  0  0  0  0  0
    0.4805   -2.8244   -1.2263 C   0  0  0  0  0  0  0  0  0  0  0  0
   -0.1557   -2.2388   -2.3390 C   0  0  0  0  0  0  0  0  0  0  0  0
   -3.8151   -1.1769   -2.2723 C   0  0  0  0  0  0  0  0  0  0  0  0
   -2.7889   -0.7237   -1.0440 S   0  0  0  0  0  0  0  0  0  0  0  0
   -4.0439   -0.2621   -0.0459 C   0  0  0  0  0  0  0  0  0  0  0  0
   -5.3450   -0.4189   -0.6729 C   0  0  0  0  0  0  0  0  0  0  0  0
   -6.5980   -0.0334   -0.1205 N   0  0  0  0  0  0  0  0  0  0  0  0
   -6.9716   -0.3856    1.2570 C   0  0  0  0  0  0  0  0  0  0  0  0
   -7.5361    0.5775    2.0948 C   0  0  0  0  0  0  0  0  0  0  0  0
   -7.9358    0.2322    3.4233 C   0  0  0  0  0  0  0  0  0  0  0  0
   -7.7296   -1.0817    3.9216 C   0  0  0  0  0  0  0  0  0  0  0  0
   -8.5117   -1.5951    5.4701 S   0  0  0  0  0  0  0  0  0  0  0  0
   -7.1319   -1.1382    6.6083 C   0  0  0  0  0  0  0  0  0  0  0  0
   -7.1716   -2.0443    3.0553 C   0  0  0  0  0  0  0  0  0  0  0  0
   -6.7713   -1.7032    1.7275 C   0  0  0  0  0  0  0  0  0  0  0  0
   -7.5484    0.6717   -0.9415 C   0  0  0  0  0  0  0  0  0  0  0  0
   -7.0836    1.7114   -1.8033 C   0  0  0  0  0  0  0  0  0  0  0  0
   -7.9934    2.3436   -2.7007 C   0  0  0  0  0  0  0  0  0  0  0  0
   -9.3408    1.9425   -2.7484 C   0  0  0  0  0  0  0  0  0  0  0  0
  -10.5396    2.9343   -3.6457 S   0  0  0  0  0  0  0  0  0  0  0  0
  -10.5832    1.9328   -5.1952 C   0  0  0  0  0  0  0  0  0  0  0  0
   -9.7892    0.9475   -1.8588 C   0  0  0  0  0  0  0  0  0  0  0  0
   -8.8882    0.3080   -0.9660 C   0  0  0  0  0  0  0  0  0  0  0  0
   -5.1352   -0.9333   -1.9940 C   0  0  0  0  0  0  0  0  0  0  0  0
   -6.0511   -1.2844   -3.3882 S   0  0  0  0  0  0  0  0  0  0  0  0
   -3.6367    0.2271    1.2984 C   0  0  0  0  0  0  0  0  0  0  0  0
   -2.8412   -0.6731    2.0351 C   0  0  0  0  0  0  0  0  0  0  0  0
   -1.5916   -0.2381    2.5159 C   0  0  0  0  0  0  0  0  0  0  0  0
   -1.1059    1.0870    2.3065 C   0  0  0  0  0  0  0  0  0  0  0  0
   -2.1353    2.0524    2.0600 C   0  0  0  0  0  0  0  0  0  0  0  0
   -1.9695    3.4011    2.2562 N   0  0  0  0  0  0  0  0  0  0  0  0
   -2.9606    4.3134    1.9895 C   0  0  0  0  0  0  0  0  0  0  0  0
   -4.1635    3.8720    1.4211 C   0  0  0  0  0  0  0  0  0  0  0  0
   -4.3411    2.5342    1.1935 N   0  0  0  0  0  0  0  0  0  0  0  0
   -3.3931    1.6143    1.5453 C   0  0  0  0  0  0  0  0  0  0  0  0
    0.4246    1.2748    2.3804 C   0  0  0  0  0  0  0  0  0  0  0  0
    1.2642    2.4497    2.2438 C   0  0  0  0  0  0  0  0  0  0  0  0
    0.8480    3.8261    2.1391 N   0  0  0  0  0  0  0  0  0  0  0  0
    0.3992    4.3258    0.8436 C   0  0  0  0  0  0  0  0  0  0  0  0
    0.8695    3.7140   -0.3502 C   0  0  0  0  0  0  0  0  0  0  0  0
    0.5690    4.2950   -1.6122 C   0  0  0  0  0  0  0  0  0  0  0  0
   -0.1565    5.4874   -1.6983 C   0  0  0  0  0  0  0  0  0  0  0  0
   -0.4868    6.1534   -3.3619 S   0  0  0  0  0  0  0  0  0  0  0  0
   -1.6038    7.5759   -3.0237 C   0  0  0  0  0  0  0  0  0  0  0  0
   -0.5896    6.1192   -0.5017 C   0  0  0  0  0  0  0  0  0  0  0  0
   -0.2840    5.5458    0.7653 C   0  0  0  0  0  0  0  0  0  0  0  0
    1.5472    4.7767    2.9784 C   0  0  0  0  0  0  0  0  0  0  0  0
    1.4582    4.6632    4.3881 C   0  0  0  0  0  0  0  0  0  0  0  0
    2.2772    5.4490    5.2209 C   0  0  0  0  0  0  0  0  0  0  0  0
    3.2145    6.3394    4.6578 C   0  0  0  0  0  0  0  0  0  0  0  0
    4.1668    7.3862    5.7856 S   0  0  0  0  0  0  0  0  0  0  0  0
    5.5983    7.7571    4.6738 C   0  0  0  0  0  0  0  0  0  0  0  0
    3.2937    6.4350    3.2359 C   0  0  0  0  0  0  0  0  0  0  0  0
    2.5149    5.6410    2.4071 C   0  0  0  0  0  0  0  0  0  0  0  0
    2.6301    2.0667    2.3233 C   0  0  0  0  0  0  0  0  0  0  0  0
    4.1136    2.9009    2.4420 S   0  0  0  0  0  0  0  0  0  0  0  0
    5.1301    1.5027    2.3866 C   0  0  0  0  0  0  0  0  0  0  0  0
    4.2779    0.3687    2.4062 C   0  0  0  0  0  0  0  0  0  0  0  0
    4.6648   -0.9916    2.2273 N   0  0  0  0  0  0  0  0  0  0  0  0
    4.3955   -2.0129    3.2603 C   0  0  0  0  0  0  0  0  0  0  0  0
    5.1945   -2.0909    4.4267 C   0  0  0  0  0  0  0  0  0  0  0  0
    5.0792   -3.2304    5.2897 C   0  0  0  0  0  0  0  0  0  0  0  0
    4.1087   -4.2301    5.0176 C   0  0  0  0  0  0  0  0  0  0  0  0
    3.9360   -5.6631    6.1151 S   0  0  0  0  0  0  0  0  0  0  0  0
    3.5616   -6.9152    4.7925 C   0  0  0  0  0  0  0  0  0  0  0  0
    3.2591   -4.0443    3.9007 C   0  0  0  0  0  0  0  0  0  0  0  0
    3.4246   -2.9918    2.9988 C   0  0  0  0  0  0  0  0  0  0  0  0
    4.8701   -1.4731    0.8864 C   0  0  0  0  0  0  0  0  0  0  0  0
    3.9956   -1.0378   -0.1672 C   0  0  0  0  0  0  0  0  0  0  0  0
    4.1471   -1.5552   -1.4692 C   0  0  0  0  0  0  0  0  0  0  0  0
    5.1228   -2.5258   -1.7548 C   0  0  0  0  0  0  0  0  0  0  0  0
    5.1300   -3.3744   -3.3342 S   0  0  0  0  0  0  0  0  0  0  0  0
    6.2908   -2.2218   -4.1961 C   0  0  0  0  0  0  0  0  0  0  0  0
    5.9329   -3.0213   -0.6886 C   0  0  0  0  0  0  0  0  0  0  0  0
    5.7998   -2.5039    0.6142 C   0  0  0  0  0  0  0  0  0  0  0  0
    2.9016    0.7331    2.3994 C   0  0  0  0  0  0  0  0  0  0  0  0
    1.4762   -0.1325    2.4767 S   0  0  0  0  0  0  0  0  0  0  0  0
    6.2967    1.4077    3.2453 C   0  0  0  0  0  0  0  0  0  0  0  0
    7.4734    0.7672    2.8876 C   0  0  0  0  0  0  0  0  0  0  0  0
    7.7872    0.3111    1.5685 C   0  0  0  0  0  0  0  0  0  0  0  0
    7.2486    0.7537    0.4647 O   0  0  0  0  0  0  0  0  0  0  0  0
    8.9778   -0.5690    1.6637 C   0  0  0  0  0  0  0  0  0  0  0  0
    9.7192   -1.2133    0.6066 C   0  0  0  0  0  0  0  0  0  0  0  0
    9.2741   -1.0151   -1.1259 Cl  0  0  0  0  0  0  0  0  0  0  0  0
   10.8279   -2.0156    0.9540 C   0  0  0  0  0  0  0  0  0  0  0  0
   11.7528   -2.8958   -0.2528 Cl  0  0  0  0  0  0  0  0  0  0  0  0
   11.2440   -2.1298    2.2943 C   0  0  0  0  0  0  0  0  0  0  0  0
   12.6614   -3.1313    2.7665 Cl  0  0  0  0  0  0  0  0  0  0  0  0
   10.5802   -1.4385    3.3611 C   0  0  0  0  0  0  0  0  0  0  0  0
   11.4224   -1.3404    4.8750 Cl  0  0  0  0  0  0  0  0  0  0  0  0
    9.3542   -0.6663    2.9929 C   0  0  0  0  0  0  0  0  0  0  0  0
    8.4661    0.1967    3.9167 C   0  0  0  0  0  0  0  0  0  0  0  0
    8.4697    0.1174    5.2881 C   0  0  0  0  0  0  0  0  0  0  0  0
    7.8774    1.0896    6.1987 C   0  0  0  0  0  0  0  0  0  0  0  0
    7.4113    1.8852    6.8938 N   0  0  0  0  0  0  0  0  0  0  0  0
    8.6439   -1.1212    5.9890 C   0  0  0  0  0  0  0  0  0  0  0  0
    8.7048   -2.1103    6.5982 N   0  0  0  0  0  0  0  0  0  0  0  0
   -5.1198   -1.3496   -6.4511 H   0  0  0  0  0  0  0  0  0  0  0  0
   -2.5794    0.6829   -4.3796 H   0  0  0  0  0  0  0  0  0  0  0  0
   -1.0615    2.1260   -5.6957 H   0  0  0  0  0  0  0  0  0  0  0  0
    3.1217    1.4217   -5.3838 H   0  0  0  0  0  0  0  0  0  0  0  0
    1.9975    2.8388   -5.1487 H   0  0  0  0  0  0  0  0  0  0  0  0
    3.3036    2.8962   -6.3506 H   0  0  0  0  0  0  0  0  0  0  0  0
    1.4862   -1.2873   -6.5582 H   0  0  0  0  0  0  0  0  0  0  0  0
   -0.0136   -2.7660   -5.2594 H   0  0  0  0  0  0  0  0  0  0  0  0
   -3.0576   -4.1396   -2.3149 H   0  0  0  0  0  0  0  0  0  0  0  0
   -1.8270   -5.2964   -0.5345 H   0  0  0  0  0  0  0  0  0  0  0  0
   -0.2020   -4.8807    2.9469 H   0  0  0  0  0  0  0  0  0  0  0  0
    0.5183   -3.2837    2.6147 H   0  0  0  0  0  0  0  0  0  0  0  0
   -1.0954   -3.6676    1.9444 H   0  0  0  0  0  0  0  0  0  0  0  0
    1.4668   -2.4477   -0.9567 H   0  0  0  0  0  0  0  0  0  0  0  0
    0.2803   -1.3143   -2.7691 H   0  0  0  0  0  0  0  0  0  0  0  0
   -7.6778    1.5935    1.7178 H   0  0  0  0  0  0  0  0  0  0  0  0
   -8.4325    0.9996    4.0097 H   0  0  0  0  0  0  0  0  0  0  0  0
   -7.0434   -1.9176    7.3988 H   0  0  0  0  0  0  0  0  0  0  0  0
   -7.4029   -0.2138    7.1847 H   0  0  0  0  0  0  0  0  0  0  0  0
   -6.1094   -0.9990    6.1697 H   0  0  0  0  0  0  0  0  0  0  0  0
   -7.0776   -3.0967    3.3352 H   0  0  0  0  0  0  0  0  0  0  0  0
   -6.3538   -2.4520    1.0593 H   0  0  0  0  0  0  0  0  0  0  0  0
   -6.0355    2.0120   -1.8111 H   0  0  0  0  0  0  0  0  0  0  0  0
   -7.6127    3.1779   -3.3012 H   0  0  0  0  0  0  0  0  0  0  0  0
  -11.6485    1.8630   -5.5489 H   0  0  0  0  0  0  0  0  0  0  0  0
  -10.0651    2.4922   -6.0170 H   0  0  0  0  0  0  0  0  0  0  0  0
  -10.1935    0.8776   -5.1405 H   0  0  0  0  0  0  0  0  0  0  0  0
  -10.8192    0.6663   -1.7967 H   0  0  0  0  0  0  0  0  0  0  0  0
   -9.2376   -0.5112   -0.3263 H   0  0  0  0  0  0  0  0  0  0  0  0
   -2.8588   -1.7479    1.7900 H   0  0  0  0  0  0  0  0  0  0  0  0
   -0.9639   -1.1102    2.7220 H   0  0  0  0  0  0  0  0  0  0  0  0
   -2.8187    5.3785    2.1914 H   0  0  0  0  0  0  0  0  0  0  0  0
   -4.9465    4.5859    1.1721 H   0  0  0  0  0  0  0  0  0  0  0  0
    1.5263    2.8145   -0.3511 H   0  0  0  0  0  0  0  0  0  0  0  0
    0.9148    3.8227   -2.5467 H   0  0  0  0  0  0  0  0  0  0  0  0
   -2.4339    7.3528   -2.3079 H   0  0  0  0  0  0  0  0  0  0  0  0
   -1.0145    8.4808   -2.7042 H   0  0  0  0  0  0  0  0  0  0  0  0
   -2.0814    7.8463   -3.9870 H   0  0  0  0  0  0  0  0  0  0  0  0
   -1.1466    7.0423   -0.4629 H   0  0  0  0  0  0  0  0  0  0  0  0
   -0.5525    6.0436    1.7030 H   0  0  0  0  0  0  0  0  0  0  0  0
    0.7534    3.9501    4.7945 H   0  0  0  0  0  0  0  0  0  0  0  0
    2.1401    5.3800    6.3096 H   0  0  0  0  0  0  0  0  0  0  0  0
    6.4791    8.0034    5.2909 H   0  0  0  0  0  0  0  0  0  0  0  0
    5.3710    8.6465    4.0495 H   0  0  0  0  0  0  0  0  0  0  0  0
    5.8984    6.9132    3.9872 H   0  0  0  0  0  0  0  0  0  0  0  0
    3.9967    7.0981    2.7203 H   0  0  0  0  0  0  0  0  0  0  0  0
    2.7305    5.6618    1.3117 H   0  0  0  0  0  0  0  0  0  0  0  0
    5.9642   -1.3475    4.6453 H   0  0  0  0  0  0  0  0  0  0  0  0
    5.7096   -3.3077    6.1800 H   0  0  0  0  0  0  0  0  0  0  0  0
    3.9553   -7.8981    5.1215 H   0  0  0  0  0  0  0  0  0  0  0  0
    4.0206   -6.7087    3.7985 H   0  0  0  0  0  0  0  0  0  0  0  0
    2.4463   -7.0151    4.6600 H   0  0  0  0  0  0  0  0  0  0  0  0
    2.4654   -4.7405    3.6621 H   0  0  0  0  0  0  0  0  0  0  0  0
    2.8473   -3.0072    2.0316 H   0  0  0  0  0  0  0  0  0  0  0  0
    3.1663   -0.3242    0.0192 H   0  0  0  0  0  0  0  0  0  0  0  0
    3.4447   -1.2108   -2.2424 H   0  0  0  0  0  0  0  0  0  0  0  0
    6.4805   -2.6035   -5.2177 H   0  0  0  0  0  0  0  0  0  0  0  0
    7.2993   -2.1414   -3.7262 H   0  0  0  0  0  0  0  0  0  0  0  0
    5.8928   -1.1931   -4.3368 H   0  0  0  0  0  0  0  0  0  0  0  0
    6.6473   -3.8267   -0.8367 H   0  0  0  0  0  0  0  0  0  0  0  0
    6.3818   -2.9124    1.4435 H   0  0  0  0  0  0  0  0  0  0  0  0
    6.0679    1.5306    4.3003 H   0  0  0  0  0  0  0  0  0  0  0  0
  1  2  2  3
  2  3  1  0
  3  4  2  0
  3  5  1  0
  5  6  2  0
  6  7  1  0
  6  8  1  0
  8  9  1  0
  8 10  2  0
 10 11  1  0
 10 12  1  0
 12 13  1  0
 12 14  2  0
 14 15  1  0
 15 16  2  3
 16 17  1  0
 17 18  3  0
 16 19  1  0
 19 20  3  0
  1 21  1  0
 21 22  2  0
 22 23  1  0
 23 24  1  0
 24 25  2  0
 25 26  1  0
 26 27  2  0
 27 28  1  0
 28 29  1  0
 27 30  1  0
 30 31  2  0
 23 32  1  0
 32 33  2  0
 33 34  1  0
 34 35  2  0
 35 36  1  0
 36 37  1  0
 35 38  1  0
 38 39  2  0
 22 40  1  0
 40 41  1  0
 41 42  1  0
 42 43  2  0
 43 44  1  0
 44 45  1  0
 45 46  2  0
 46 47  1  0
 47 48  2  0
 48 49  1  0
 49 50  1  0
 48 51  1  0
 51 52  2  0
 44 53  1  0
 53 54  2  0
 54 55  1  0
 55 56  2  0
 56 57  1  0
 57 58  1  0
 56 59  1  0
 59 60  2  0
 43 61  1  0
 61 62  1  0
 42 63  1  0
 63 64  2  0
 64 65  1  0
 65 66  2  0
 66 67  1  0
 67 68  2  0
 68 69  1  0
 69 70  2  0
 70 71  1  0
 71 72  2  0
 66 73  1  0
 73 74  2  0
 74 75  1  0
 75 76  1  0
 76 77  2  0
 77 78  1  0
 78 79  2  0
 79 80  1  0
 80 81  1  0
 79 82  1  0
 82 83  2  0
 75 84  1  0
 84 85  2  0
 85 86  1  0
 86 87  2  0
 87 88  1  0
 88 89  1  0
 87 90  1  0
 90 91  2  0
 74 92  1  0
 92 93  1  0
 93 94  1  0
 94 95  2  0
 95 96  1  0
 96 97  1  0
 97 98  2  0
 98 99  1  0
 99100  2  0
100101  1  0
101102  1  0
100103  1  0
103104  2  0
 96105  1  0
105106  2  0
106107  1  0
107108  2  0
108109  1  0
109110  1  0
108111  1  0
111112  2  0
 95113  1  0
113114  1  0
 94115  1  0
115116  2  3
116117  1  0
117118  2  0
117119  1  0
119120  2  0
120121  1  0
120122  1  0
122123  1  0
122124  2  0
124125  1  0
124126  1  0
126127  1  0
126128  2  0
128129  1  0
129130  2  3
130131  1  0
131132  3  0
130133  1  0
133134  3  0
 15  2  1  0
 62 21  1  0
 72 63  1  0
114 73  1  0
129116  1  0
 14  5  1  0
 31 24  1  0
 39 32  1  0
 61 40  2  0
 72 67  1  0
 83 76  1  0
 91 84  1  0
113 92  2  0
128119  1  0
 52 45  1  0
 60 53  1  0
104 97  1  0
112105  1  0
  1135  1  0
 25136  1  0
 26137  1  0
 29138  1  0
 29139  1  0
 29140  1  0
 30141  1  0
 31142  1  0
 33143  1  0
 34144  1  0
 37145  1  0
 37146  1  0
 37147  1  0
 38148  1  0
 39149  1  0
 46150  1  0
 47151  1  0
 50152  1  0
 50153  1  0
 50154  1  0
 51155  1  0
 52156  1  0
 54157  1  0
 55158  1  0
 58159  1  0
 58160  1  0
 58161  1  0
 59162  1  0
 60163  1  0
 64164  1  0
 65165  1  0
 69166  1  0
 70167  1  0
 77168  1  0
 78169  1  0
 81170  1  0
 81171  1  0
 81172  1  0
 82173  1  0
 83174  1  0
 85175  1  0
 86176  1  0
 89177  1  0
 89178  1  0
 89179  1  0
 90180  1  0
 91181  1  0
 98182  1  0
 99183  1  0
102184  1  0
102185  1  0
102186  1  0
103187  1  0
104188  1  0
106189  1  0
107190  1  0
110191  1  0
110192  1  0
110193  1  0
111194  1  0
112195  1  0
115196  1  0
M  END

