
     RDKit          3D

180197  0  0  0  0  0  0  0  0999 V2000
    0.3110  -10.1458   -6.2008 C   0  0  0  0  0  0  0  0  0  0  0  0
    0.0990  -10.9544   -5.1513 C   0  0  0  0  0  0  0  0  0  0  0  0
   -0.0420  -10.5278   -3.7560 C   0  0  0  0  0  0  0  0  0  0  0  0
    0.4414   -9.4767   -3.2535 O   0  0  0  0  0  0  0  0  0  0  0  0
   -0.8549  -11.5142   -3.0588 C   0  0  0  0  0  0  0  0  0  0  0  0
   -1.4469  -11.4195   -1.7927 C   0  0  0  0  0  0  0  0  0  0  0  0
   -1.0318  -10.1036   -0.6951 Cl  0  0  0  0  0  0  0  0  0  0  0  0
   -2.3996  -12.3860   -1.4259 C   0  0  0  0  0  0  0  0  0  0  0  0
   -3.1596  -12.3186    0.1639 Cl  0  0  0  0  0  0  0  0  0  0  0  0
   -2.8102  -13.3636   -2.3644 C   0  0  0  0  0  0  0  0  0  0  0  0
   -4.1350  -14.4588   -1.9615 Cl  0  0  0  0  0  0  0  0  0  0  0  0
   -2.2308  -13.4147   -3.6519 C   0  0  0  0  0  0  0  0  0  0  0  0
   -2.9954  -14.3677   -4.9164 Cl  0  0  0  0  0  0  0  0  0  0  0  0
   -1.1671  -12.5408   -3.9394 C   0  0  0  0  0  0  0  0  0  0  0  0
   -0.4186  -12.3416   -5.2111 C   0  0  0  0  0  0  0  0  0  0  0  0
    0.0831  -13.3164   -6.0084 C   0  0  0  0  0  0  0  0  0  0  0  0
   -0.0514  -14.7133   -5.6704 C   0  0  0  0  0  0  0  0  0  0  0  0
   -0.1440  -15.8327   -5.3960 N   0  0  0  0  0  0  0  0  0  0  0  0
    0.9910  -13.0301   -7.0933 C   0  0  0  0  0  0  0  0  0  0  0  0
    1.7221  -12.8105   -7.9647 N   0  0  0  0  0  0  0  0  0  0  0  0
    0.4160   -8.6920   -6.0373 C   0  0  0  0  0  0  0  0  0  0  0  0
   -0.7609   -7.9177   -5.9812 C   0  0  0  0  0  0  0  0  0  0  0  0
   -0.6522   -6.5616   -5.6767 C   0  0  0  0  0  0  0  0  0  0  0  0
   -1.6941   -5.5829   -5.3878 C   0  0  0  0  0  0  0  0  0  0  0  0
   -2.9361   -5.7698   -5.4696 O   0  0  0  0  0  0  0  0  0  0  0  0
   -1.0192   -4.3768   -4.9268 C   0  0  0  0  0  0  0  0  0  0  0  0
    0.3474   -4.6127   -4.9524 C   0  0  0  0  0  0  0  0  0  0  0  0
    0.5751   -5.9809   -5.4180 C   0  0  0  0  0  0  0  0  0  0  0  0
    1.7567   -6.7233   -5.4663 C   0  0  0  0  0  0  0  0  0  0  0  0
    1.6754   -8.0904   -5.7923 C   0  0  0  0  0  0  0  0  0  0  0  0
    1.2469   -3.7003   -4.4210 C   0  0  0  0  0  0  0  0  0  0  0  0
    0.7361   -2.5338   -3.8320 C   0  0  0  0  0  0  0  0  0  0  0  0
   -0.6648   -2.2871   -3.7792 C   0  0  0  0  0  0  0  0  0  0  0  0
   -1.5552   -3.2339   -4.3359 C   0  0  0  0  0  0  0  0  0  0  0  0
   -1.1875   -1.1651   -2.9609 C   0  0  0  0  0  0  0  0  0  0  0  0
   -0.4895    0.0187   -2.6643 C   0  0  0  0  0  0  0  0  0  0  0  0
    0.5793    0.5676   -3.4683 N   0  0  0  0  0  0  0  0  0  0  0  0
    1.7323    1.1708   -2.8548 C   0  0  0  0  0  0  0  0  0  0  0  0
    2.3872    0.5297   -1.7873 C   0  0  0  0  0  0  0  0  0  0  0  0
    3.4787    1.1343   -1.1570 C   0  0  0  0  0  0  0  0  0  0  0  0
    3.9271    2.3950   -1.5833 C   0  0  0  0  0  0  0  0  0  0  0  0
    5.3251    3.1624   -0.7471 S   0  0  0  0  0  0  0  0  0  0  0  0
    4.3051    4.0883    0.4433 C   0  0  0  0  0  0  0  0  0  0  0  0
    3.2879    3.0403   -2.6498 C   0  0  0  0  0  0  0  0  0  0  0  0
    2.2003    2.4279   -3.2879 C   0  0  0  0  0  0  0  0  0  0  0  0
    0.4428    0.5701   -4.8984 C   0  0  0  0  0  0  0  0  0  0  0  0
   -0.7763    0.9598   -5.4866 C   0  0  0  0  0  0  0  0  0  0  0  0
   -0.9756    0.7956   -6.8573 C   0  0  0  0  0  0  0  0  0  0  0  0
    0.0299    0.2324   -7.6516 C   0  0  0  0  0  0  0  0  0  0  0  0
   -0.3091   -0.1217   -9.3751 S   0  0  0  0  0  0  0  0  0  0  0  0
   -0.9561   -1.7925   -9.0313 C   0  0  0  0  0  0  0  0  0  0  0  0
    1.2686   -0.0964   -7.0841 C   0  0  0  0  0  0  0  0  0  0  0  0
    1.4757    0.0858   -5.7120 C   0  0  0  0  0  0  0  0  0  0  0  0
   -1.0078    0.6300   -1.5183 C   0  0  0  0  0  0  0  0  0  0  0  0
   -0.4615    1.8481   -0.5239 S   0  0  0  0  0  0  0  0  0  0  0  0
   -1.6448    1.6046    0.6683 C   0  0  0  0  0  0  0  0  0  0  0  0
   -2.4865    0.5439    0.2832 C   0  0  0  0  0  0  0  0  0  0  0  0
   -3.8248    0.4091    0.7789 N   0  0  0  0  0  0  0  0  0  0  0  0
   -4.1713   -0.5550    1.7893 C   0  0  0  0  0  0  0  0  0  0  0  0
   -5.0573   -0.1899    2.8284 C   0  0  0  0  0  0  0  0  0  0  0  0
   -5.6030   -1.1676    3.6616 C   0  0  0  0  0  0  0  0  0  0  0  0
   -5.2546   -2.5129    3.4976 C   0  0  0  0  0  0  0  0  0  0  0  0
   -6.0790   -3.7687    4.4869 S   0  0  0  0  0  0  0  0  0  0  0  0
   -5.0455   -3.4943    5.9598 C   0  0  0  0  0  0  0  0  0  0  0  0
   -4.3059   -2.8708    2.5310 C   0  0  0  0  0  0  0  0  0  0  0  0
   -3.7769   -1.9063    1.6632 C   0  0  0  0  0  0  0  0  0  0  0  0
   -4.8299    1.3078    0.2736 C   0  0  0  0  0  0  0  0  0  0  0  0
   -4.7409    2.6839    0.5225 C   0  0  0  0  0  0  0  0  0  0  0  0
   -5.6957    3.5630    0.0062 C   0  0  0  0  0  0  0  0  0  0  0  0
   -6.7712    3.0664   -0.7471 C   0  0  0  0  0  0  0  0  0  0  0  0
   -7.9883    4.2062   -1.4192 S   0  0  0  0  0  0  0  0  0  0  0  0
   -9.0962    4.1590    0.0316 C   0  0  0  0  0  0  0  0  0  0  0  0
   -6.8802    1.6894   -0.9799 C   0  0  0  0  0  0  0  0  0  0  0  0
   -5.9160    0.8091   -0.4615 C   0  0  0  0  0  0  0  0  0  0  0  0
   -2.0882    0.0339   -0.9598 C   0  0  0  0  0  0  0  0  0  0  0  0
   -2.4681   -1.3426   -1.8438 S   0  0  0  0  0  0  0  0  0  0  0  0
   -1.3597    2.0041    2.0459 C   0  0  0  0  0  0  0  0  0  0  0  0
   -0.2400    1.5371    2.7172 C   0  0  0  0  0  0  0  0  0  0  0  0
    0.0351    2.5130    3.6451 C   0  0  0  0  0  0  0  0  0  0  0  0
    1.2316    2.7872    4.3378 C   0  0  0  0  0  0  0  0  0  0  0  0
    2.3871    1.8633    4.3663 C   0  0  0  0  0  0  0  0  0  0  0  0
    2.9531    1.3788    3.1804 C   0  0  0  0  0  0  0  0  0  0  0  0
    3.9800    0.4362    3.2136 C   0  0  0  0  0  0  0  0  0  0  0  0
    4.4657   -0.0573    2.0503 F   0  0  0  0  0  0  0  0  0  0  0  0
    4.4915   -0.0166    4.4448 C   0  0  0  0  0  0  0  0  0  0  0  0
    5.5594   -1.0792    4.4852 C   0  0  0  0  0  0  0  0  0  0  0  0
    4.9337   -2.4697    4.4905 C   0  0  0  0  0  0  0  0  0  0  0  0
    3.9585    0.5066    5.6409 C   0  0  0  0  0  0  0  0  0  0  0  0
    4.4272    0.1001    6.8444 F   0  0  0  0  0  0  0  0  0  0  0  0
    2.9206    1.4464    5.5975 C   0  0  0  0  0  0  0  0  0  0  0  0
    1.3136    4.0660    4.8995 C   0  0  0  0  0  0  0  0  0  0  0  0
    0.2427    4.9377    4.9279 C   0  0  0  0  0  0  0  0  0  0  0  0
   -0.9878    4.6253    4.3144 C   0  0  0  0  0  0  0  0  0  0  0  0
   -2.1914    5.4580    4.4939 C   0  0  0  0  0  0  0  0  0  0  0  0
   -3.2796    4.9160    5.1983 C   0  0  0  0  0  0  0  0  0  0  0  0
   -4.3182    5.7414    5.6342 C   0  0  0  0  0  0  0  0  0  0  0  0
   -4.3057    7.1186    5.3387 C   0  0  0  0  0  0  0  0  0  0  0  0
   -5.3423    8.0351    5.9410 C   0  0  0  0  0  0  0  0  0  0  0  0
   -4.8527    8.5747    7.2787 C   0  0  0  0  0  0  0  0  0  0  0  0
   -3.2485    7.6439    4.5726 C   0  0  0  0  0  0  0  0  0  0  0  0
   -2.2018    6.8156    4.1501 C   0  0  0  0  0  0  0  0  0  0  0  0
   -3.1967    8.9683    4.2861 F   0  0  0  0  0  0  0  0  0  0  0  0
   -5.3076    5.2095    6.4020 F   0  0  0  0  0  0  0  0  0  0  0  0
   -1.0051    3.4280    3.5770 C   0  0  0  0  0  0  0  0  0  0  0  0
   -1.8397    3.0920    2.6220 O   0  0  0  0  0  0  0  0  0  0  0  0
    0.7201    6.1285    5.4474 C   0  0  0  0  0  0  0  0  0  0  0  0
    2.0819    5.9082    5.6091 C   0  0  0  0  0  0  0  0  0  0  0  0
    2.3935    4.6607    5.3362 O   0  0  0  0  0  0  0  0  0  0  0  0
    3.1057    6.9354    5.8283 C   0  0  0  0  0  0  0  0  0  0  0  0
    3.4812    7.7774    4.8387 C   0  0  0  0  0  0  0  0  0  0  0  0
    2.8958    7.8396    3.4933 C   0  0  0  0  0  0  0  0  0  0  0  0
    1.7330    7.5053    3.1673 O   0  0  0  0  0  0  0  0  0  0  0  0
    3.8517    8.4219    2.6005 C   0  0  0  0  0  0  0  0  0  0  0  0
    3.6936    8.7166    1.2481 C   0  0  0  0  0  0  0  0  0  0  0  0
    4.7344    9.3738    0.5732 C   0  0  0  0  0  0  0  0  0  0  0  0
    4.5608    9.7473   -1.1349 Cl  0  0  0  0  0  0  0  0  0  0  0  0
    5.9085    9.7244    1.2626 C   0  0  0  0  0  0  0  0  0  0  0  0
    6.9141   10.3711    0.6151 F   0  0  0  0  0  0  0  0  0  0  0  0
    6.0380    9.4311    2.6353 C   0  0  0  0  0  0  0  0  0  0  0  0
    4.9846    8.7851    3.3107 C   0  0  0  0  0  0  0  0  0  0  0  0
    4.7701    8.5305    4.7672 C   0  0  0  0  0  0  0  0  0  0  0  0
    5.4315    9.0951    5.8020 C   0  0  0  0  0  0  0  0  0  0  0  0
    4.9207    9.0632    7.1436 C   0  0  0  0  0  0  0  0  0  0  0  0
    4.4879    9.0752    8.2229 N   0  0  0  0  0  0  0  0  0  0  0  0
    6.6708    9.8094    5.6294 C   0  0  0  0  0  0  0  0  0  0  0  0
    7.6703   10.3868    5.5188 N   0  0  0  0  0  0  0  0  0  0  0  0
    0.1978  -10.5197   -7.2103 H   0  0  0  0  0  0  0  0  0  0  0  0
   -1.7380   -8.3787   -6.0955 H   0  0  0  0  0  0  0  0  0  0  0  0
    2.7089   -6.2661   -5.2359 H   0  0  0  0  0  0  0  0  0  0  0  0
    2.5774   -8.6901   -5.7947 H   0  0  0  0  0  0  0  0  0  0  0  0
    2.3103   -3.9053   -4.4031 H   0  0  0  0  0  0  0  0  0  0  0  0
    1.4381   -1.8643   -3.3485 H   0  0  0  0  0  0  0  0  0  0  0  0
   -2.6266   -3.1132   -4.2471 H   0  0  0  0  0  0  0  0  0  0  0  0
    2.0463   -0.4378   -1.4392 H   0  0  0  0  0  0  0  0  0  0  0  0
    3.9803    0.6206   -0.3466 H   0  0  0  0  0  0  0  0  0  0  0  0
    4.8970    4.2606    1.3618 H   0  0  0  0  0  0  0  0  0  0  0  0
    3.3788    3.5345    0.7197 H   0  0  0  0  0  0  0  0  0  0  0  0
    4.0398    5.0741    0.0105 H   0  0  0  0  0  0  0  0  0  0  0  0
    3.6238    4.0131   -2.9843 H   0  0  0  0  0  0  0  0  0  0  0  0
    1.7067    2.9381   -4.0975 H   0  0  0  0  0  0  0  0  0  0  0  0
   -1.5768    1.3454   -4.8767 H   0  0  0  0  0  0  0  0  0  0  0  0
   -1.9319    1.0673   -7.2919 H   0  0  0  0  0  0  0  0  0  0  0  0
   -0.1080   -2.4970   -8.9180 H   0  0  0  0  0  0  0  0  0  0  0  0
   -1.5984   -2.1139   -9.8809 H   0  0  0  0  0  0  0  0  0  0  0  0
   -1.5769   -1.8040   -8.1090 H   0  0  0  0  0  0  0  0  0  0  0  0
    2.0554   -0.5255   -7.7015 H   0  0  0  0  0  0  0  0  0  0  0  0
    2.4208   -0.2150   -5.2741 H   0  0  0  0  0  0  0  0  0  0  0  0
   -5.3681    0.8490    2.9502 H   0  0  0  0  0  0  0  0  0  0  0  0
   -6.3302   -0.8858    4.4163 H   0  0  0  0  0  0  0  0  0  0  0  0
   -4.4388   -2.5511    5.9151 H   0  0  0  0  0  0  0  0  0  0  0  0
   -4.3708   -4.3647    6.0703 H   0  0  0  0  0  0  0  0  0  0  0  0
   -5.7150   -3.4314    6.8450 H   0  0  0  0  0  0  0  0  0  0  0  0
   -4.0066   -3.9138    2.4082 H   0  0  0  0  0  0  0  0  0  0  0  0
   -3.0949   -2.1968    0.8769 H   0  0  0  0  0  0  0  0  0  0  0  0
   -3.9323    3.0887    1.1250 H   0  0  0  0  0  0  0  0  0  0  0  0
   -5.6122    4.6284    0.1960 H   0  0  0  0  0  0  0  0  0  0  0  0
   -8.5272    4.0176    0.9833 H   0  0  0  0  0  0  0  0  0  0  0  0
   -9.8185    3.3228   -0.0974 H   0  0  0  0  0  0  0  0  0  0  0  0
   -9.6373    5.1306    0.0779 H   0  0  0  0  0  0  0  0  0  0  0  0
   -7.7022    1.3060   -1.5748 H   0  0  0  0  0  0  0  0  0  0  0  0
   -5.9926   -0.2529   -0.6780 H   0  0  0  0  0  0  0  0  0  0  0  0
    0.4152    0.7347    2.3939 H   0  0  0  0  0  0  0  0  0  0  0  0
    2.5807    1.7173    2.2241 H   0  0  0  0  0  0  0  0  0  0  0  0
    6.2231   -0.9831    3.6024 H   0  0  0  0  0  0  0  0  0  0  0  0
    6.1961   -0.9640    5.3849 H   0  0  0  0  0  0  0  0  0  0  0  0
    4.2871   -2.6132    3.5943 H   0  0  0  0  0  0  0  0  0  0  0  0
    5.7337   -3.2377    4.4806 H   0  0  0  0  0  0  0  0  0  0  0  0
    4.3155   -2.6114    5.4095 H   0  0  0  0  0  0  0  0  0  0  0  0
    2.5114    1.8270    6.5267 H   0  0  0  0  0  0  0  0  0  0  0  0
   -3.2814    3.8708    5.4857 H   0  0  0  0  0  0  0  0  0  0  0  0
   -5.5586    8.8818    5.2550 H   0  0  0  0  0  0  0  0  0  0  0  0
   -6.2998    7.4895    6.0986 H   0  0  0  0  0  0  0  0  0  0  0  0
   -4.6586    7.7414    7.9891 H   0  0  0  0  0  0  0  0  0  0  0  0
   -3.9111    9.1554    7.1452 H   0  0  0  0  0  0  0  0  0  0  0  0
   -5.6201    9.2454    7.7149 H   0  0  0  0  0  0  0  0  0  0  0  0
   -1.3738    7.2431    3.6031 H   0  0  0  0  0  0  0  0  0  0  0  0
    0.2007    7.0765    5.5416 H   0  0  0  0  0  0  0  0  0  0  0  0
    3.7554    6.7940    6.6804 H   0  0  0  0  0  0  0  0  0  0  0  0
    2.7759    8.4843    0.7367 H   0  0  0  0  0  0  0  0  0  0  0  0
    6.9579    9.7090    3.1208 H   0  0  0  0  0  0  0  0  0  0  0  0
  1  2  2  3
  2  3  1  0
  3  4  2  0
  3  5  1  0
  5  6  2  0
  6  7  1  0
  6  8  1  0
  8  9  1  0
  8 10  2  0
 10 11  1  0
 10 12  1  0
 12 13  1  0
 12 14  2  0
 14 15  1  0
 15 16  2  3
 16 17  1  0
 17 18  3  0
 16 19  1  0
 19 20  3  0
  1 21  1  0
 21 22  2  0
 22 23  1  0
 23 24  1  0
 24 25  2  0
 24 26  1  0
 26 27  2  0
 27 28  1  0
 28 29  1  0
 29 30  2  0
 27 31  1  0
 31 32  2  0
 32 33  1  0
 33 34  2  0
 33 35  1  0
 35 36  2  0
 36 37  1  0
 37 38  1  0
 38 39  2  0
 39 40  1  0
 40 41  2  0
 41 42  1  0
 42 43  1  0
 41 44  1  0
 44 45  2  0
 37 46  1  0
 46 47  2  0
 47 48  1  0
 48 49  2  0
 49 50  1  0
 50 51  1  0
 49 52  1  0
 52 53  2  0
 36 54  1  0
 54 55  1  0
 55 56  1  0
 56 57  2  0
 57 58  1  0
 58 59  1  0
 59 60  2  0
 60 61  1  0
 61 62  2  0
 62 63  1  0
 63 64  1  0
 62 65  1  0
 65 66  2  0
 58 67  1  0
 67 68  2  0
 68 69  1  0
 69 70  2  0
 70 71  1  0
 71 72  1  0
 70 73  1  0
 73 74  2  0
 57 75  1  0
 75 76  1  0
 56 77  1  0
 77 78  2  0
 78 79  1  0
 79 80  2  0
 80 81  1  0
 81 82  2  0
 82 83  1  0
 83 84  1  0
 83 85  2  0
 85 86  1  0
 86 87  1  0
 85 88  1  0
 88 89  1  0
 88 90  2  0
 80 91  1  0
 91 92  2  0
 92 93  1  0
 93 94  1  0
 94 95  2  0
 95 96  1  0
 96 97  2  0
 97 98  1  0
 98 99  1  0
 97100  1  0
100101  2  0
100102  1  0
 96103  1  0
 93104  2  0
104105  1  0
 92106  1  0
106107  2  0
107108  1  0
107109  1  0
109110  2  3
110111  1  0
111112  2  0
111113  1  0
113114  2  0
114115  1  0
115116  1  0
115117  2  0
117118  1  0
117119  1  0
119120  2  0
120121  1  0
121122  2  3
122123  1  0
123124  3  0
122125  1  0
125126  3  0
 15  2  1  0
 30 21  1  0
 76 35  1  0
105 77  1  0
121110  1  0
 14  5  1  0
 28 23  2  0
 45 38  1  0
 53 46  1  0
 75 54  2  0
104 79  1  0
120113  1  0
 34 26  1  0
 66 59  1  0
 74 67  1  0
 90 81  1  0
108 91  1  0
101 94  1  0
  1127  1  0
 22128  1  0
 29129  1  0
 30130  1  0
 31131  1  0
 32132  1  0
 34133  1  0
 39134  1  0
 40135  1  0
 43136  1  0
 43137  1  0
 43138  1  0
 44139  1  0
 45140  1  0
 47141  1  0
 48142  1  0
 51143  1  0
 51144  1  0
 51145  1  0
 52146  1  0
 53147  1  0
 60148  1  0
 61149  1  0
 64150  1  0
 64151  1  0
 64152  1  0
 65153  1  0
 66154  1  0
 68155  1  0
 69156  1  0
 72157  1  0
 72158  1  0
 72159  1  0
 73160  1  0
 74161  1  0
 78162  1  0
 82163  1  0
 86164  1  0
 86165  1  0
 87166  1  0
 87167  1  0
 87168  1  0
 90169  1  0
 95170  1  0
 98171  1  0
 98172  1  0
 99173  1  0
 99174  1  0
 99175  1  0
101176  1  0
106177  1  0
109178  1  0
114179  1  0
119180  1  0
M  END

