
     RDKit          3D

196215  0  0  0  0  0  0  0  0999 V2000
   -2.5559   -4.1242    8.9445 C   0  0  0  0  0  0  0  0  0  0  0  0
   -3.8924   -4.1721    8.7903 C   0  0  0  0  0  0  0  0  0  0  0  0
   -4.7872   -4.9327    9.6492 C   0  0  0  0  0  0  0  0  0  0  0  0
   -4.4344   -5.6671   10.6099 O   0  0  0  0  0  0  0  0  0  0  0  0
   -6.1485   -4.6776    9.2166 C   0  0  0  0  0  0  0  0  0  0  0  0
   -7.3429   -5.2196    9.7025 C   0  0  0  0  0  0  0  0  0  0  0  0
   -7.3378   -6.3296   11.0701 Cl  0  0  0  0  0  0  0  0  0  0  0  0
   -8.5486   -4.8721    9.0603 C   0  0  0  0  0  0  0  0  0  0  0  0
  -10.0710   -5.5669    9.6251 Cl  0  0  0  0  0  0  0  0  0  0  0  0
   -8.5377   -3.9857    7.9586 C   0  0  0  0  0  0  0  0  0  0  0  0
  -10.0568   -3.5664    7.1595 Cl  0  0  0  0  0  0  0  0  0  0  0  0
   -7.3220   -3.4382    7.4939 C   0  0  0  0  0  0  0  0  0  0  0  0
   -7.3392   -2.2953    6.1549 Cl  0  0  0  0  0  0  0  0  0  0  0  0
   -6.1204   -3.8041    8.1355 C   0  0  0  0  0  0  0  0  0  0  0  0
   -4.7154   -3.4380    7.7851 C   0  0  0  0  0  0  0  0  0  0  0  0
   -4.3457   -3.3821    6.4983 C   0  0  0  0  0  0  0  0  0  0  0  0
   -4.2325   -2.1062    5.8432 C   0  0  0  0  0  0  0  0  0  0  0  0
   -4.1339   -1.0790    5.3190 N   0  0  0  0  0  0  0  0  0  0  0  0
   -3.8191   -4.5468    5.8321 C   0  0  0  0  0  0  0  0  0  0  0  0
   -3.4104   -5.4888    5.2985 N   0  0  0  0  0  0  0  0  0  0  0  0
   -1.7189   -3.2007    8.1716 C   0  0  0  0  0  0  0  0  0  0  0  0
   -0.9456   -3.5512    7.0710 C   0  0  0  0  0  0  0  0  0  0  0  0
   -0.4969   -2.4354    6.3409 C   0  0  0  0  0  0  0  0  0  0  0  0
    0.2208   -2.4493    5.1211 C   0  0  0  0  0  0  0  0  0  0  0  0
    0.6195   -3.7048    4.4443 C   0  0  0  0  0  0  0  0  0  0  0  0
    1.8964   -4.0010    3.9711 C   0  0  0  0  0  0  0  0  0  0  0  0
    2.0100   -5.2896    3.4343 C   0  0  0  0  0  0  0  0  0  0  0  0
    0.8224   -6.0112    3.4786 C   0  0  0  0  0  0  0  0  0  0  0  0
    0.6428   -7.4378    3.0616 C   0  0  0  0  0  0  0  0  0  0  0  0
    0.3844   -7.5471    1.5661 C   0  0  0  0  0  0  0  0  0  0  0  0
   -0.3694   -5.0378    4.1541 S   0  0  0  0  0  0  0  0  0  0  0  0
    0.5111   -1.1942    4.5484 C   0  0  0  0  0  0  0  0  0  0  0  0
    0.1154    0.0140    5.1339 C   0  0  0  0  0  0  0  0  0  0  0  0
   -0.5679    0.0284    6.3643 C   0  0  0  0  0  0  0  0  0  0  0  0
   -0.9210    1.2942    7.0423 C   0  0  0  0  0  0  0  0  0  0  0  0
   -2.1605    1.6276    7.5834 C   0  0  0  0  0  0  0  0  0  0  0  0
   -2.1712    2.8686    8.2318 C   0  0  0  0  0  0  0  0  0  0  0  0
   -0.9411    3.5170    8.1904 C   0  0  0  0  0  0  0  0  0  0  0  0
   -0.6128    4.8268    8.8340 C   0  0  0  0  0  0  0  0  0  0  0  0
    0.1649    4.6141   10.1283 C   0  0  0  0  0  0  0  0  0  0  0  0
    0.1600    2.5434    7.3750 S   0  0  0  0  0  0  0  0  0  0  0  0
   -0.8800   -1.2195    6.9271 C   0  0  0  0  0  0  0  0  0  0  0  0
   -1.7928   -1.5260    8.3065 S   0  0  0  0  0  0  0  0  0  0  0  0
    0.3470    1.1302    4.3171 C   0  0  0  0  0  0  0  0  0  0  0  0
    0.9260    0.8103    3.0906 C   0  0  0  0  0  0  0  0  0  0  0  0
    1.1517   -0.8637    3.0251 S   0  0  0  0  0  0  0  0  0  0  0  0
    0.9993    1.7424    1.9541 C   0  0  0  0  0  0  0  0  0  0  0  0
    1.7670    1.6137    0.7837 C   0  0  0  0  0  0  0  0  0  0  0  0
    2.6741    0.5386    0.4942 N   0  0  0  0  0  0  0  0  0  0  0  0
    2.1870   -0.6806   -0.1137 C   0  0  0  0  0  0  0  0  0  0  0  0
    1.0279   -0.6850   -0.9169 C   0  0  0  0  0  0  0  0  0  0  0  0
    0.6034   -1.8555   -1.5478 C   0  0  0  0  0  0  0  0  0  0  0  0
    1.3018   -3.0501   -1.3521 C   0  0  0  0  0  0  0  0  0  0  0  0
    0.7711   -4.5423   -2.1882 S   0  0  0  0  0  0  0  0  0  0  0  0
   -0.4883   -4.9319   -0.9328 C   0  0  0  0  0  0  0  0  0  0  0  0
    2.4241   -3.0715   -0.5161 C   0  0  0  0  0  0  0  0  0  0  0  0
    2.8698   -1.8942    0.0902 C   0  0  0  0  0  0  0  0  0  0  0  0
    4.0820    0.8486    0.5309 C   0  0  0  0  0  0  0  0  0  0  0  0
    4.6103    1.6017    1.5957 C   0  0  0  0  0  0  0  0  0  0  0  0
    5.9451    2.0114    1.5783 C   0  0  0  0  0  0  0  0  0  0  0  0
    6.7684    1.6765    0.4973 C   0  0  0  0  0  0  0  0  0  0  0  0
    8.4640    2.2579    0.4557 S   0  0  0  0  0  0  0  0  0  0  0  0
    8.0514    3.7710   -0.4706 C   0  0  0  0  0  0  0  0  0  0  0  0
    6.2607    0.9053   -0.5544 C   0  0  0  0  0  0  0  0  0  0  0  0
    4.9233    0.4988   -0.5437 C   0  0  0  0  0  0  0  0  0  0  0  0
    1.4597    2.6126   -0.1352 C   0  0  0  0  0  0  0  0  0  0  0  0
    1.7462    2.7619   -1.7740 S   0  0  0  0  0  0  0  0  0  0  0  0
    0.5269    3.9275   -2.0328 C   0  0  0  0  0  0  0  0  0  0  0  0
   -0.1021    4.2013   -0.8000 C   0  0  0  0  0  0  0  0  0  0  0  0
   -1.2601    5.0372   -0.6186 N   0  0  0  0  0  0  0  0  0  0  0  0
   -1.2200    6.0885    0.3732 C   0  0  0  0  0  0  0  0  0  0  0  0
   -2.3499    6.3848    1.1617 C   0  0  0  0  0  0  0  0  0  0  0  0
   -2.2726    7.3370    2.1832 C   0  0  0  0  0  0  0  0  0  0  0  0
   -1.0686    7.9997    2.4360 C   0  0  0  0  0  0  0  0  0  0  0  0
   -0.9507    9.1693    3.7919 S   0  0  0  0  0  0  0  0  0  0  0  0
   -0.4267    7.9033    4.9933 C   0  0  0  0  0  0  0  0  0  0  0  0
    0.0502    7.7406    1.6378 C   0  0  0  0  0  0  0  0  0  0  0  0
   -0.0239    6.7893    0.6157 C   0  0  0  0  0  0  0  0  0  0  0  0
   -2.5034    4.6524   -1.2207 C   0  0  0  0  0  0  0  0  0  0  0  0
   -3.0971    3.4203   -0.8987 C   0  0  0  0  0  0  0  0  0  0  0  0
   -4.2842    3.0269   -1.5233 C   0  0  0  0  0  0  0  0  0  0  0  0
   -4.8932    3.8687   -2.4627 C   0  0  0  0  0  0  0  0  0  0  0  0
   -6.3929    3.3434   -3.2931 S   0  0  0  0  0  0  0  0  0  0  0  0
   -7.4913    4.1259   -2.0704 C   0  0  0  0  0  0  0  0  0  0  0  0
   -4.3153    5.1085   -2.7677 C   0  0  0  0  0  0  0  0  0  0  0  0
   -3.1288    5.5033   -2.1428 C   0  0  0  0  0  0  0  0  0  0  0  0
    0.4659    3.4589    0.2330 C   0  0  0  0  0  0  0  0  0  0  0  0
   -0.0702    3.0628    1.7692 S   0  0  0  0  0  0  0  0  0  0  0  0
   -0.0942    4.0307   -3.3546 C   0  0  0  0  0  0  0  0  0  0  0  0
   -1.1090    3.1382   -3.6930 C   0  0  0  0  0  0  0  0  0  0  0  0
   -1.0709    2.7036   -5.0212 C   0  0  0  0  0  0  0  0  0  0  0  0
   -1.7922    1.6110   -5.5323 C   0  0  0  0  0  0  0  0  0  0  0  0
   -2.8116    0.9151   -4.7315 C   0  0  0  0  0  0  0  0  0  0  0  0
   -4.1792    0.9650   -4.9552 C   0  0  0  0  0  0  0  0  0  0  0  0
   -4.9145    0.2189   -4.0279 C   0  0  0  0  0  0  0  0  0  0  0  0
   -4.1190   -0.3959   -3.0674 C   0  0  0  0  0  0  0  0  0  0  0  0
   -4.6051   -1.2955   -1.9761 C   0  0  0  0  0  0  0  0  0  0  0  0
   -4.7999   -2.7150   -2.4951 C   0  0  0  0  0  0  0  0  0  0  0  0
   -2.5041   -0.0521   -3.3863 S   0  0  0  0  0  0  0  0  0  0  0  0
   -1.3565    1.0781   -6.7509 C   0  0  0  0  0  0  0  0  0  0  0  0
   -0.3064    1.6424   -7.4826 C   0  0  0  0  0  0  0  0  0  0  0  0
    0.3210    2.8255   -7.0365 C   0  0  0  0  0  0  0  0  0  0  0  0
    1.3810    3.4814   -7.8167 C   0  0  0  0  0  0  0  0  0  0  0  0
    2.7044    3.6529   -7.4324 C   0  0  0  0  0  0  0  0  0  0  0  0
    3.4497    4.4083   -8.3468 C   0  0  0  0  0  0  0  0  0  0  0  0
    2.7003    4.8411   -9.4370 C   0  0  0  0  0  0  0  0  0  0  0  0
    3.1869    5.7270  -10.5431 C   0  0  0  0  0  0  0  0  0  0  0  0
    3.2363    4.9769  -11.8687 C   0  0  0  0  0  0  0  0  0  0  0  0
    1.1237    4.2766   -9.2737 S   0  0  0  0  0  0  0  0  0  0  0  0
   -0.0523    3.2986   -5.7662 C   0  0  0  0  0  0  0  0  0  0  0  0
    0.8129    4.3245   -4.7492 S   0  0  0  0  0  0  0  0  0  0  0  0
    0.2120    0.7706   -8.4597 C   0  0  0  0  0  0  0  0  0  0  0  0
   -0.3967   -0.4869   -8.4390 C   0  0  0  0  0  0  0  0  0  0  0  0
   -1.6303   -0.4855   -7.2926 S   0  0  0  0  0  0  0  0  0  0  0  0
    0.2564   -1.7405   -8.8373 C   0  0  0  0  0  0  0  0  0  0  0  0
    1.2369   -2.3062   -8.0921 C   0  0  0  0  0  0  0  0  0  0  0  0
    1.8066   -1.7406   -6.8552 C   0  0  0  0  0  0  0  0  0  0  0  0
    1.7459   -0.5392   -6.4771 O   0  0  0  0  0  0  0  0  0  0  0  0
    2.5007   -2.7832   -6.1404 C   0  0  0  0  0  0  0  0  0  0  0  0
    3.1851   -2.6783   -4.9275 C   0  0  0  0  0  0  0  0  0  0  0  0
    3.8388   -3.8134   -4.4298 C   0  0  0  0  0  0  0  0  0  0  0  0
    4.7825   -3.6974   -2.9513 Cl  0  0  0  0  0  0  0  0  0  0  0  0
    3.7816   -5.0266   -5.1390 C   0  0  0  0  0  0  0  0  0  0  0  0
    4.4223   -6.1225   -4.6661 F   0  0  0  0  0  0  0  0  0  0  0  0
    3.0883   -5.1075   -6.3596 C   0  0  0  0  0  0  0  0  0  0  0  0
    2.4419   -3.9637   -6.8622 C   0  0  0  0  0  0  0  0  0  0  0  0
    1.7125   -3.7278   -8.1482 C   0  0  0  0  0  0  0  0  0  0  0  0
    1.5815   -4.5949   -9.1849 C   0  0  0  0  0  0  0  0  0  0  0  0
    1.1424   -4.1716  -10.4907 C   0  0  0  0  0  0  0  0  0  0  0  0
    0.8001   -3.8513  -11.5508 N   0  0  0  0  0  0  0  0  0  0  0  0
    1.9057   -5.9926   -9.0797 C   0  0  0  0  0  0  0  0  0  0  0  0
    2.1364   -7.1258   -9.0000 N   0  0  0  0  0  0  0  0  0  0  0  0
   -2.0783   -4.7524    9.6865 H   0  0  0  0  0  0  0  0  0  0  0  0
   -0.7763   -4.5781    6.7933 H   0  0  0  0  0  0  0  0  0  0  0  0
    2.7326   -3.3178    4.0408 H   0  0  0  0  0  0  0  0  0  0  0  0
    2.9348   -5.6897    3.0439 H   0  0  0  0  0  0  0  0  0  0  0  0
    1.5557   -8.0136    3.3210 H   0  0  0  0  0  0  0  0  0  0  0  0
   -0.2083   -7.8860    3.6168 H   0  0  0  0  0  0  0  0  0  0  0  0
   -0.5762   -7.0489    1.3103 H   0  0  0  0  0  0  0  0  0  0  0  0
    0.3132   -8.6179    1.2776 H   0  0  0  0  0  0  0  0  0  0  0  0
    1.2146   -7.0788    0.9987 H   0  0  0  0  0  0  0  0  0  0  0  0
   -3.0338    0.9954    7.5118 H   0  0  0  0  0  0  0  0  0  0  0  0
   -3.0505    3.2723    8.7186 H   0  0  0  0  0  0  0  0  0  0  0  0
    0.0000    5.4307    8.1322 H   0  0  0  0  0  0  0  0  0  0  0  0
   -1.5469    5.3878    9.0492 H   0  0  0  0  0  0  0  0  0  0  0  0
   -0.4172    3.9804   10.8327 H   0  0  0  0  0  0  0  0  0  0  0  0
    0.3646    5.5963   10.6069 H   0  0  0  0  0  0  0  0  0  0  0  0
    1.1390    4.1229    9.9146 H   0  0  0  0  0  0  0  0  0  0  0  0
    0.0231    2.1320    4.5614 H   0  0  0  0  0  0  0  0  0  0  0  0
    0.4561    0.2185   -1.0832 H   0  0  0  0  0  0  0  0  0  0  0  0
   -0.2705   -1.8349   -2.1871 H   0  0  0  0  0  0  0  0  0  0  0  0
   -0.0104   -5.0059    0.0636 H   0  0  0  0  0  0  0  0  0  0  0  0
   -1.2718   -4.1488   -0.9146 H   0  0  0  0  0  0  0  0  0  0  0  0
   -0.9553   -5.9065   -1.1820 H   0  0  0  0  0  0  0  0  0  0  0  0
    2.9646   -3.9959   -0.3529 H   0  0  0  0  0  0  0  0  0  0  0  0
    3.7485   -1.9271    0.7236 H   0  0  0  0  0  0  0  0  0  0  0  0
    3.9818    1.8812    2.4323 H   0  0  0  0  0  0  0  0  0  0  0  0
    6.3345    2.6059    2.3974 H   0  0  0  0  0  0  0  0  0  0  0  0
    8.9286    4.4492   -0.4589 H   0  0  0  0  0  0  0  0  0  0  0  0
    7.1923    4.2994   -0.0032 H   0  0  0  0  0  0  0  0  0  0  0  0
    7.8171    3.5104   -1.5211 H   0  0  0  0  0  0  0  0  0  0  0  0
    6.8929    0.6442   -1.3943 H   0  0  0  0  0  0  0  0  0  0  0  0
    4.5382   -0.0568   -1.3880 H   0  0  0  0  0  0  0  0  0  0  0  0
   -3.2827    5.8569    1.0120 H   0  0  0  0  0  0  0  0  0  0  0  0
   -3.1431    7.5371    2.7966 H   0  0  0  0  0  0  0  0  0  0  0  0
    0.5141    7.4209    4.6559 H   0  0  0  0  0  0  0  0  0  0  0  0
   -1.2201    7.1357    5.1076 H   0  0  0  0  0  0  0  0  0  0  0  0
   -0.2492    8.3821    5.9765 H   0  0  0  0  0  0  0  0  0  0  0  0
    0.9839    8.2577    1.8249 H   0  0  0  0  0  0  0  0  0  0  0  0
    0.8600    6.5950    0.0193 H   0  0  0  0  0  0  0  0  0  0  0  0
   -2.6233    2.7575   -0.1841 H   0  0  0  0  0  0  0  0  0  0  0  0
   -4.7220    2.0636   -1.2877 H   0  0  0  0  0  0  0  0  0  0  0  0
   -7.2219    3.8136   -1.0411 H   0  0  0  0  0  0  0  0  0  0  0  0
   -7.4278    5.2269   -2.1723 H   0  0  0  0  0  0  0  0  0  0  0  0
   -8.5379    3.8194   -2.2790 H   0  0  0  0  0  0  0  0  0  0  0  0
   -4.7850    5.7638   -3.4929 H   0  0  0  0  0  0  0  0  0  0  0  0
   -2.6853    6.4602   -2.3902 H   0  0  0  0  0  0  0  0  0  0  0  0
   -1.7012    2.6346   -2.9479 H   0  0  0  0  0  0  0  0  0  0  0  0
   -4.6369    1.5230   -5.7623 H   0  0  0  0  0  0  0  0  0  0  0  0
   -5.9928    0.1419   -4.0492 H   0  0  0  0  0  0  0  0  0  0  0  0
   -3.8680   -1.3019   -1.1448 H   0  0  0  0  0  0  0  0  0  0  0  0
   -5.5675   -0.9089   -1.5780 H   0  0  0  0  0  0  0  0  0  0  0  0
   -5.1656   -3.3628   -1.6705 H   0  0  0  0  0  0  0  0  0  0  0  0
   -5.5489   -2.7280   -3.3165 H   0  0  0  0  0  0  0  0  0  0  0  0
   -3.8389   -3.1218   -2.8748 H   0  0  0  0  0  0  0  0  0  0  0  0
    3.1200    3.2502   -6.5194 H   0  0  0  0  0  0  0  0  0  0  0  0
    4.4937    4.6545   -8.2020 H   0  0  0  0  0  0  0  0  0  0  0  0
    4.1973    6.1171  -10.2992 H   0  0  0  0  0  0  0  0  0  0  0  0
    2.5034    6.5966  -10.6354 H   0  0  0  0  0  0  0  0  0  0  0  0
    3.9150    4.1014  -11.7938 H   0  0  0  0  0  0  0  0  0  0  0  0
    3.6090    5.6542  -12.6656 H   0  0  0  0  0  0  0  0  0  0  0  0
    2.2179    4.6303  -12.1504 H   0  0  0  0  0  0  0  0  0  0  0  0
    1.1211    0.9681   -9.0120 H   0  0  0  0  0  0  0  0  0  0  0  0
   -0.2634   -2.3115   -9.5861 H   0  0  0  0  0  0  0  0  0  0  0  0
    3.2269   -1.7354   -4.3942 H   0  0  0  0  0  0  0  0  0  0  0  0
    3.0909   -6.0485   -6.8769 H   0  0  0  0  0  0  0  0  0  0  0  0
  1  2  2  3
  2  3  1  0
  3  4  2  0
  3  5  1  0
  5  6  2  0
  6  7  1  0
  6  8  1  0
  8  9  1  0
  8 10  2  0
 10 11  1  0
 10 12  1  0
 12 13  1  0
 12 14  2  0
 14 15  1  0
 15 16  2  3
 16 17  1  0
 17 18  3  0
 16 19  1  0
 19 20  3  0
  1 21  1  0
 21 22  2  0
 22 23  1  0
 23 24  2  0
 24 25  1  0
 25 26  2  0
 26 27  1  0
 27 28  2  0
 28 29  1  0
 29 30  1  0
 28 31  1  0
 24 32  1  0
 32 33  2  0
 33 34  1  0
 34 35  1  0
 35 36  2  0
 36 37  1  0
 37 38  2  0
 38 39  1  0
 39 40  1  0
 38 41  1  0
 34 42  2  0
 42 43  1  0
 33 44  1  0
 44 45  2  0
 45 46  1  0
 45 47  1  0
 47 48  2  0
 48 49  1  0
 49 50  1  0
 50 51  2  0
 51 52  1  0
 52 53  2  0
 53 54  1  0
 54 55  1  0
 53 56  1  0
 56 57  2  0
 49 58  1  0
 58 59  2  0
 59 60  1  0
 60 61  2  0
 61 62  1  0
 62 63  1  0
 61 64  1  0
 64 65  2  0
 48 66  1  0
 66 67  1  0
 67 68  1  0
 68 69  2  0
 69 70  1  0
 70 71  1  0
 71 72  2  0
 72 73  1  0
 73 74  2  0
 74 75  1  0
 75 76  1  0
 74 77  1  0
 77 78  2  0
 70 79  1  0
 79 80  2  0
 80 81  1  0
 81 82  2  0
 82 83  1  0
 83 84  1  0
 82 85  1  0
 85 86  2  0
 69 87  1  0
 87 88  1  0
 68 89  1  0
 89 90  2  0
 90 91  1  0
 91 92  2  0
 92 93  1  0
 93 94  2  0
 94 95  1  0
 95 96  2  0
 96 97  1  0
 97 98  1  0
 96 99  1  0
 92100  1  0
100101  2  0
101102  1  0
102103  1  0
103104  2  0
104105  1  0
105106  2  0
106107  1  0
107108  1  0
106109  1  0
102110  2  0
110111  1  0
101112  1  0
112113  2  0
113114  1  0
113115  1  0
115116  2  3
116117  1  0
117118  2  0
117119  1  0
119120  2  0
120121  1  0
121122  1  0
121123  2  0
123124  1  0
123125  1  0
125126  2  0
126127  1  0
127128  2  3
128129  1  0
129130  3  0
128131  1  0
131132  3  0
 15  2  1  0
 43 21  1  0
 88 47  1  0
111 89  1  0
127116  1  0
 14  5  1  0
 42 23  1  0
 57 50  1  0
 65 58  1  0
 87 66  2  0
110 91  1  0
126119  1  0
 31 25  1  0
 46 32  1  0
 78 71  1  0
 86 79  1  0
 99 93  1  0
114100  1  0
 41 35  1  0
109103  1  0
  1133  1  0
 22134  1  0
 26135  1  0
 27136  1  0
 29137  1  0
 29138  1  0
 30139  1  0
 30140  1  0
 30141  1  0
 36142  1  0
 37143  1  0
 39144  1  0
 39145  1  0
 40146  1  0
 40147  1  0
 40148  1  0
 44149  1  0
 51150  1  0
 52151  1  0
 55152  1  0
 55153  1  0
 55154  1  0
 56155  1  0
 57156  1  0
 59157  1  0
 60158  1  0
 63159  1  0
 63160  1  0
 63161  1  0
 64162  1  0
 65163  1  0
 72164  1  0
 73165  1  0
 76166  1  0
 76167  1  0
 76168  1  0
 77169  1  0
 78170  1  0
 80171  1  0
 81172  1  0
 84173  1  0
 84174  1  0
 84175  1  0
 85176  1  0
 86177  1  0
 90178  1  0
 94179  1  0
 95180  1  0
 97181  1  0
 97182  1  0
 98183  1  0
 98184  1  0
 98185  1  0
104186  1  0
105187  1  0
107188  1  0
107189  1  0
108190  1  0
108191  1  0
108192  1  0
112193  1  0
115194  1  0
120195  1  0
125196  1  0
M  END

