
     RDKit          3D

201218  0  0  0  0  0  0  0  0999 V2000
    1.9376    2.4668    8.9418 C   0  0  0  0  0  0  0  0  0  0  0  0
    2.3710    1.4649    9.7236 C   0  0  0  0  0  0  0  0  0  0  0  0
    2.3061    1.5307   11.1807 C   0  0  0  0  0  0  0  0  0  0  0  0
    2.1150    2.5746   11.8588 O   0  0  0  0  0  0  0  0  0  0  0  0
    2.3864    0.1784   11.7071 C   0  0  0  0  0  0  0  0  0  0  0  0
    2.1927   -0.2703   13.0167 C   0  0  0  0  0  0  0  0  0  0  0  0
    2.0131    0.8676   14.3517 Cl  0  0  0  0  0  0  0  0  0  0  0  0
    2.1350   -1.6588   13.2447 C   0  0  0  0  0  0  0  0  0  0  0  0
    1.9239   -2.2668   14.8848 Cl  0  0  0  0  0  0  0  0  0  0  0  0
    2.1755   -2.5598   12.1560 C   0  0  0  0  0  0  0  0  0  0  0  0
    1.9985   -4.2926   12.4482 Cl  0  0  0  0  0  0  0  0  0  0  0  0
    2.3513   -2.0780   10.8373 C   0  0  0  0  0  0  0  0  0  0  0  0
    2.1392   -3.1648    9.4639 Cl  0  0  0  0  0  0  0  0  0  0  0  0
    2.5491   -0.6970   10.6464 C   0  0  0  0  0  0  0  0  0  0  0  0
    2.7814    0.0717    9.3922 C   0  0  0  0  0  0  0  0  0  0  0  0
    3.7127   -0.2655    8.4648 C   0  0  0  0  0  0  0  0  0  0  0  0
    4.1124    0.6233    7.4050 C   0  0  0  0  0  0  0  0  0  0  0  0
    4.4294    1.3141    6.5345 N   0  0  0  0  0  0  0  0  0  0  0  0
    4.5733   -1.4057    8.6576 C   0  0  0  0  0  0  0  0  0  0  0  0
    5.2700   -2.3057    8.8518 N   0  0  0  0  0  0  0  0  0  0  0  0
    1.6321    2.3615    7.5104 C   0  0  0  0  0  0  0  0  0  0  0  0
    0.9846    1.0220    6.6809 S   0  0  0  0  0  0  0  0  0  0  0  0
    0.9826    1.7156    5.1400 C   0  0  0  0  0  0  0  0  0  0  0  0
    1.5145    2.9809    5.2870 C   0  0  0  0  0  0  0  0  0  0  0  0
    2.0004    4.1467    4.1880 S   0  0  0  0  0  0  0  0  0  0  0  0
    2.5872    5.2029    5.3825 C   0  0  0  0  0  0  0  0  0  0  0  0
    3.2000    6.5010    5.0867 C   0  0  0  0  0  0  0  0  0  0  0  0
    3.5742    7.2557    6.0248 O   0  0  0  0  0  0  0  0  0  0  0  0
    3.3555    6.8870    3.7524 O   0  0  0  0  0  0  0  0  0  0  0  0
    3.9539    8.1185    3.3638 C   0  0  0  0  0  0  0  0  0  0  0  0
    4.0235    8.1908    1.8476 C   0  0  0  0  0  0  0  0  0  0  0  0
    2.4346    4.6184    6.6459 C   0  0  0  0  0  0  0  0  0  0  0  0
    1.8380    3.3570    6.5654 C   0  0  0  0  0  0  0  0  0  0  0  0
    2.8680    5.1764    7.8011 F   0  0  0  0  0  0  0  0  0  0  0  0
    0.7256    1.0594    3.8625 C   0  0  0  0  0  0  0  0  0  0  0  0
    0.0026    1.6296    2.8025 C   0  0  0  0  0  0  0  0  0  0  0  0
   -1.2811    2.2546    2.9868 N   0  0  0  0  0  0  0  0  0  0  0  0
   -1.4141    3.4256    3.7949 C   0  0  0  0  0  0  0  0  0  0  0  0
   -1.9051    3.3174    5.1053 C   0  0  0  0  0  0  0  0  0  0  0  0
   -2.0473    4.4567    5.8954 C   0  0  0  0  0  0  0  0  0  0  0  0
   -1.7357    5.7150    5.3680 C   0  0  0  0  0  0  0  0  0  0  0  0
   -1.9755    7.1853    6.3601 S   0  0  0  0  0  0  0  0  0  0  0  0
   -3.7515    7.2866    5.9747 C   0  0  0  0  0  0  0  0  0  0  0  0
   -1.2597    5.8297    4.0540 C   0  0  0  0  0  0  0  0  0  0  0  0
   -1.0978    4.6864    3.2678 C   0  0  0  0  0  0  0  0  0  0  0  0
   -2.4754    1.5509    2.5890 C   0  0  0  0  0  0  0  0  0  0  0  0
   -2.5854    0.1629    2.7983 C   0  0  0  0  0  0  0  0  0  0  0  0
   -3.7170   -0.5282    2.3656 C   0  0  0  0  0  0  0  0  0  0  0  0
   -4.7484    0.1532    1.7126 C   0  0  0  0  0  0  0  0  0  0  0  0
   -6.1917   -0.7414    1.1308 S   0  0  0  0  0  0  0  0  0  0  0  0
   -5.4239   -1.2010   -0.4588 C   0  0  0  0  0  0  0  0  0  0  0  0
   -4.6525    1.5343    1.5107 C   0  0  0  0  0  0  0  0  0  0  0  0
   -3.5246    2.2328    1.9513 C   0  0  0  0  0  0  0  0  0  0  0  0
    0.3160    0.9855    1.6162 C   0  0  0  0  0  0  0  0  0  0  0  0
   -0.3322    1.0932    0.0904 S   0  0  0  0  0  0  0  0  0  0  0  0
    0.4268   -0.3199   -0.4715 C   0  0  0  0  0  0  0  0  0  0  0  0
    1.1440   -0.9309    0.5849 C   0  0  0  0  0  0  0  0  0  0  0  0
    1.4287   -2.3452    0.6685 N   0  0  0  0  0  0  0  0  0  0  0  0
    0.4233   -3.2942    0.2362 C   0  0  0  0  0  0  0  0  0  0  0  0
   -0.9534   -2.9846    0.3198 C   0  0  0  0  0  0  0  0  0  0  0  0
   -1.9108   -3.8778   -0.1594 C   0  0  0  0  0  0  0  0  0  0  0  0
   -1.5172   -5.1131   -0.6852 C   0  0  0  0  0  0  0  0  0  0  0  0
   -2.7551   -6.2618   -1.2853 S   0  0  0  0  0  0  0  0  0  0  0  0
   -2.9683   -7.0612    0.3366 C   0  0  0  0  0  0  0  0  0  0  0  0
   -0.1615   -5.4543   -0.7294 C   0  0  0  0  0  0  0  0  0  0  0  0
    0.8011   -4.5590   -0.2541 C   0  0  0  0  0  0  0  0  0  0  0  0
    2.5458   -2.7965    1.4693 C   0  0  0  0  0  0  0  0  0  0  0  0
    3.8023   -2.1739    1.3519 C   0  0  0  0  0  0  0  0  0  0  0  0
    4.8850   -2.6182    2.1205 C   0  0  0  0  0  0  0  0  0  0  0  0
    4.7214   -3.6813    3.0156 C   0  0  0  0  0  0  0  0  0  0  0  0
    6.1159   -4.2880    3.9649 S   0  0  0  0  0  0  0  0  0  0  0  0
    5.7736   -3.2150    5.3929 C   0  0  0  0  0  0  0  0  0  0  0  0
    3.4694   -4.2890    3.1578 C   0  0  0  0  0  0  0  0  0  0  0  0
    2.3867   -3.8447    2.3983 C   0  0  0  0  0  0  0  0  0  0  0  0
    1.1146   -0.1103    1.7184 C   0  0  0  0  0  0  0  0  0  0  0  0
    1.5959   -0.2986    3.3178 S   0  0  0  0  0  0  0  0  0  0  0  0
    0.1453   -0.8474   -1.8089 C   0  0  0  0  0  0  0  0  0  0  0  0
    1.0369   -1.4700   -2.7046 C   0  0  0  0  0  0  0  0  0  0  0  0
    2.4669   -1.4288   -2.5652 N   0  0  0  0  0  0  0  0  0  0  0  0
    3.2432   -2.6329   -2.3900 C   0  0  0  0  0  0  0  0  0  0  0  0
    4.5468   -2.5531   -1.8617 C   0  0  0  0  0  0  0  0  0  0  0  0
    5.2874   -3.7114   -1.6162 C   0  0  0  0  0  0  0  0  0  0  0  0
    4.7371   -4.9654   -1.8952 C   0  0  0  0  0  0  0  0  0  0  0  0
    5.6291   -6.4522   -1.4431 S   0  0  0  0  0  0  0  0  0  0  0  0
    4.8973   -6.5077    0.2244 C   0  0  0  0  0  0  0  0  0  0  0  0
    3.4694   -5.0559   -2.4736 C   0  0  0  0  0  0  0  0  0  0  0  0
    2.7240   -3.9007   -2.7190 C   0  0  0  0  0  0  0  0  0  0  0  0
    3.1346   -0.2212   -2.9776 C   0  0  0  0  0  0  0  0  0  0  0  0
    3.0756    0.9337   -2.1840 C   0  0  0  0  0  0  0  0  0  0  0  0
    3.6873    2.1141   -2.6118 C   0  0  0  0  0  0  0  0  0  0  0  0
    4.3637    2.1508   -3.8342 C   0  0  0  0  0  0  0  0  0  0  0  0
    5.0945    3.6850   -4.4085 S   0  0  0  0  0  0  0  0  0  0  0  0
    3.5810    4.2083   -5.2704 C   0  0  0  0  0  0  0  0  0  0  0  0
    4.4530    0.9949   -4.6192 C   0  0  0  0  0  0  0  0  0  0  0  0
    3.8429   -0.1867   -4.1925 C   0  0  0  0  0  0  0  0  0  0  0  0
    0.4172   -1.6709   -3.9462 C   0  0  0  0  0  0  0  0  0  0  0  0
    0.9904   -2.1040   -5.4656 S   0  0  0  0  0  0  0  0  0  0  0  0
   -0.4337   -1.6308   -6.2708 C   0  0  0  0  0  0  0  0  0  0  0  0
   -1.3233   -1.0305   -5.3608 C   0  0  0  0  0  0  0  0  0  0  0  0
   -2.2302    0.0245   -5.7391 N   0  0  0  0  0  0  0  0  0  0  0  0
   -1.7268    1.1374   -6.5163 C   0  0  0  0  0  0  0  0  0  0  0  0
   -2.5808    1.8308   -7.3945 C   0  0  0  0  0  0  0  0  0  0  0  0
   -2.1245    2.9599   -8.0825 C   0  0  0  0  0  0  0  0  0  0  0  0
   -0.8061    3.3982   -7.9162 C   0  0  0  0  0  0  0  0  0  0  0  0
   -0.2172    4.8409   -8.8066 S   0  0  0  0  0  0  0  0  0  0  0  0
   -0.4022    5.9580   -7.3790 C   0  0  0  0  0  0  0  0  0  0  0  0
    0.0552    2.7070   -7.0607 C   0  0  0  0  0  0  0  0  0  0  0  0
   -0.4006    1.5947   -6.3546 C   0  0  0  0  0  0  0  0  0  0  0  0
   -3.4814    0.1849   -5.0412 C   0  0  0  0  0  0  0  0  0  0  0  0
   -3.7575    1.3793   -4.3526 C   0  0  0  0  0  0  0  0  0  0  0  0
   -4.9783    1.5571   -3.7054 C   0  0  0  0  0  0  0  0  0  0  0  0
   -5.9510    0.5560   -3.7569 C   0  0  0  0  0  0  0  0  0  0  0  0
   -7.5339    0.8128   -2.9509 S   0  0  0  0  0  0  0  0  0  0  0  0
   -8.2336    1.7648   -4.3373 C   0  0  0  0  0  0  0  0  0  0  0  0
   -5.6862   -0.6376   -4.4349 C   0  0  0  0  0  0  0  0  0  0  0  0
   -4.4473   -0.8298   -5.0610 C   0  0  0  0  0  0  0  0  0  0  0  0
   -0.8404   -1.1591   -4.0641 C   0  0  0  0  0  0  0  0  0  0  0  0
   -1.2997   -0.4680   -2.6235 S   0  0  0  0  0  0  0  0  0  0  0  0
   -0.6307   -1.6788   -7.7257 C   0  0  0  0  0  0  0  0  0  0  0  0
   -1.7525   -2.1828   -8.2695 C   0  0  0  0  0  0  0  0  0  0  0  0
   -2.6954   -3.0924   -7.6059 C   0  0  0  0  0  0  0  0  0  0  0  0
   -2.6181   -3.4903   -6.4146 O   0  0  0  0  0  0  0  0  0  0  0  0
   -3.5976   -3.6317   -8.6112 C   0  0  0  0  0  0  0  0  0  0  0  0
   -4.5438   -4.6540   -8.4676 C   0  0  0  0  0  0  0  0  0  0  0  0
   -4.9953   -5.2456   -6.8672 Cl  0  0  0  0  0  0  0  0  0  0  0  0
   -5.1143   -5.2060   -9.6309 C   0  0  0  0  0  0  0  0  0  0  0  0
   -6.3031   -6.5027   -9.4964 Cl  0  0  0  0  0  0  0  0  0  0  0  0
   -4.6804   -4.7742  -10.9057 C   0  0  0  0  0  0  0  0  0  0  0  0
   -5.3091   -5.5652  -12.3546 Cl  0  0  0  0  0  0  0  0  0  0  0  0
   -3.7153   -3.7476  -11.0272 C   0  0  0  0  0  0  0  0  0  0  0  0
   -2.9685   -3.4347  -12.5981 Cl  0  0  0  0  0  0  0  0  0  0  0  0
   -3.2479   -3.1217   -9.8522 C   0  0  0  0  0  0  0  0  0  0  0  0
   -2.2007   -2.0760   -9.6874 C   0  0  0  0  0  0  0  0  0  0  0  0
   -2.0662   -0.9633  -10.4582 C   0  0  0  0  0  0  0  0  0  0  0  0
   -3.0677   -0.6166  -11.4342 C   0  0  0  0  0  0  0  0  0  0  0  0
   -3.8864   -0.3382  -12.2050 N   0  0  0  0  0  0  0  0  0  0  0  0
   -1.1022    0.0641  -10.1692 C   0  0  0  0  0  0  0  0  0  0  0  0
   -0.3231    0.8923   -9.9532 N   0  0  0  0  0  0  0  0  0  0  0  0
    1.7322    3.4216    9.4069 H   0  0  0  0  0  0  0  0  0  0  0  0
    3.3409    8.9687    3.7426 H   0  0  0  0  0  0  0  0  0  0  0  0
    4.9836    8.1885    3.7776 H   0  0  0  0  0  0  0  0  0  0  0  0
    4.6572    7.3621    1.4590 H   0  0  0  0  0  0  0  0  0  0  0  0
    3.0057    8.1139    1.4087 H   0  0  0  0  0  0  0  0  0  0  0  0
    4.4751    9.1594    1.5374 H   0  0  0  0  0  0  0  0  0  0  0  0
   -2.1608    2.3460    5.5088 H   0  0  0  0  0  0  0  0  0  0  0  0
   -2.4113    4.3647    6.9094 H   0  0  0  0  0  0  0  0  0  0  0  0
   -3.9198    7.2524    4.8800 H   0  0  0  0  0  0  0  0  0  0  0  0
   -4.1598    8.2353    6.3788 H   0  0  0  0  0  0  0  0  0  0  0  0
   -4.2820    6.4444    6.4626 H   0  0  0  0  0  0  0  0  0  0  0  0
   -1.0122    6.8009    3.6464 H   0  0  0  0  0  0  0  0  0  0  0  0
   -0.7301    4.7801    2.2519 H   0  0  0  0  0  0  0  0  0  0  0  0
   -1.7920   -0.3855    3.2923 H   0  0  0  0  0  0  0  0  0  0  0  0
   -3.7845   -1.5985    2.5226 H   0  0  0  0  0  0  0  0  0  0  0  0
   -4.5073   -1.7933   -0.2687 H   0  0  0  0  0  0  0  0  0  0  0  0
   -6.1358   -1.8313   -1.0341 H   0  0  0  0  0  0  0  0  0  0  0  0
   -5.1698   -0.2924   -1.0447 H   0  0  0  0  0  0  0  0  0  0  0  0
   -5.4504    2.0645    1.0007 H   0  0  0  0  0  0  0  0  0  0  0  0
   -3.4552    3.3002    1.7691 H   0  0  0  0  0  0  0  0  0  0  0  0
   -1.2888   -2.0447    0.7389 H   0  0  0  0  0  0  0  0  0  0  0  0
   -2.9571   -3.6185   -0.1094 H   0  0  0  0  0  0  0  0  0  0  0  0
   -3.1441   -6.3091    1.1344 H   0  0  0  0  0  0  0  0  0  0  0  0
   -3.8434   -7.7406    0.2882 H   0  0  0  0  0  0  0  0  0  0  0  0
   -2.0642   -7.6575    0.5832 H   0  0  0  0  0  0  0  0  0  0  0  0
    0.1475   -6.4132   -1.1201 H   0  0  0  0  0  0  0  0  0  0  0  0
    1.8402   -4.8450   -0.2701 H   0  0  0  0  0  0  0  0  0  0  0  0
    3.9446   -1.3439    0.6711 H   0  0  0  0  0  0  0  0  0  0  0  0
    5.8500   -2.1415    2.0161 H   0  0  0  0  0  0  0  0  0  0  0  0
    5.8391   -2.1461    5.0917 H   0  0  0  0  0  0  0  0  0  0  0  0
    6.5278   -3.4130    6.1823 H   0  0  0  0  0  0  0  0  0  0  0  0
    4.7585   -3.4235    5.8008 H   0  0  0  0  0  0  0  0  0  0  0  0
    3.3353   -5.1054    3.8562 H   0  0  0  0  0  0  0  0  0  0  0  0
    1.4199   -4.3129    2.5386 H   0  0  0  0  0  0  0  0  0  0  0  0
    4.9815   -1.5939   -1.6092 H   0  0  0  0  0  0  0  0  0  0  0  0
    6.2747   -3.6387   -1.1775 H   0  0  0  0  0  0  0  0  0  0  0  0
    5.3167   -7.3698    0.7808 H   0  0  0  0  0  0  0  0  0  0  0  0
    3.7971   -6.6307    0.1480 H   0  0  0  0  0  0  0  0  0  0  0  0
    5.1252   -5.5769    0.7819 H   0  0  0  0  0  0  0  0  0  0  0  0
    3.0361   -6.0260   -2.6855 H   0  0  0  0  0  0  0  0  0  0  0  0
    1.7345   -4.0091   -3.1356 H   0  0  0  0  0  0  0  0  0  0  0  0
    2.5862    0.9176   -1.2242 H   0  0  0  0  0  0  0  0  0  0  0  0
    3.6303    3.0009   -1.9916 H   0  0  0  0  0  0  0  0  0  0  0  0
    3.3061    3.4649   -6.0459 H   0  0  0  0  0  0  0  0  0  0  0  0
    3.7570    5.1889   -5.7635 H   0  0  0  0  0  0  0  0  0  0  0  0
    2.7530    4.3163   -4.5427 H   0  0  0  0  0  0  0  0  0  0  0  0
    4.9771    1.0183   -5.5648 H   0  0  0  0  0  0  0  0  0  0  0  0
    3.9069   -1.0706   -4.8154 H   0  0  0  0  0  0  0  0  0  0  0  0
   -3.6023    1.4991   -7.5444 H   0  0  0  0  0  0  0  0  0  0  0  0
   -2.7914    3.4876   -8.7561 H   0  0  0  0  0  0  0  0  0  0  0  0
   -1.4032    5.8392   -6.9131 H   0  0  0  0  0  0  0  0  0  0  0  0
    0.3902    5.7367   -6.6335 H   0  0  0  0  0  0  0  0  0  0  0  0
   -0.2837    7.0086   -7.7176 H   0  0  0  0  0  0  0  0  0  0  0  0
    1.0774    3.0412   -6.9263 H   0  0  0  0  0  0  0  0  0  0  0  0
    0.2737    1.1055   -5.6675 H   0  0  0  0  0  0  0  0  0  0  0  0
   -3.0240    2.1780   -4.3209 H   0  0  0  0  0  0  0  0  0  0  0  0
   -5.1818    2.4852   -3.1847 H   0  0  0  0  0  0  0  0  0  0  0  0
   -8.3289    1.1138   -5.2317 H   0  0  0  0  0  0  0  0  0  0  0  0
   -7.5871    2.6359   -4.5736 H   0  0  0  0  0  0  0  0  0  0  0  0
   -9.2370    2.1385   -4.0520 H   0  0  0  0  0  0  0  0  0  0  0  0
   -6.4383   -1.4139   -4.4867 H   0  0  0  0  0  0  0  0  0  0  0  0
   -4.2680   -1.7459   -5.5992 H   0  0  0  0  0  0  0  0  0  0  0  0
    0.1456   -1.2666   -8.3514 H   0  0  0  0  0  0  0  0  0  0  0  0
  1  2  2  3
  2  3  1  0
  3  4  2  0
  3  5  1  0
  5  6  2  0
  6  7  1  0
  6  8  1  0
  8  9  1  0
  8 10  2  0
 10 11  1  0
 10 12  1  0
 12 13  1  0
 12 14  2  0
 14 15  1  0
 15 16  2  3
 16 17  1  0
 17 18  3  0
 16 19  1  0
 19 20  3  0
  1 21  1  0
 21 22  1  0
 22 23  1  0
 23 24  2  0
 24 25  1  0
 25 26  1  0
 26 27  1  0
 27 28  2  0
 27 29  1  0
 29 30  1  0
 30 31  1  0
 26 32  2  0
 32 33  1  0
 32 34  1  0
 23 35  1  0
 35 36  2  0
 36 37  1  0
 37 38  1  0
 38 39  2  0
 39 40  1  0
 40 41  2  0
 41 42  1  0
 42 43  1  0
 41 44  1  0
 44 45  2  0
 37 46  1  0
 46 47  2  0
 47 48  1  0
 48 49  2  0
 49 50  1  0
 50 51  1  0
 49 52  1  0
 52 53  2  0
 36 54  1  0
 54 55  1  0
 55 56  1  0
 56 57  2  0
 57 58  1  0
 58 59  1  0
 59 60  2  0
 60 61  1  0
 61 62  2  0
 62 63  1  0
 63 64  1  0
 62 65  1  0
 65 66  2  0
 58 67  1  0
 67 68  2  0
 68 69  1  0
 69 70  2  0
 70 71  1  0
 71 72  1  0
 70 73  1  0
 73 74  2  0
 57 75  1  0
 75 76  1  0
 56 77  1  0
 77 78  2  0
 78 79  1  0
 79 80  1  0
 80 81  2  0
 81 82  1  0
 82 83  2  0
 83 84  1  0
 84 85  1  0
 83 86  1  0
 86 87  2  0
 79 88  1  0
 88 89  2  0
 89 90  1  0
 90 91  2  0
 91 92  1  0
 92 93  1  0
 91 94  1  0
 94 95  2  0
 78 96  1  0
 96 97  1  0
 97 98  1  0
 98 99  2  0
 99100  1  0
100101  1  0
101102  2  0
102103  1  0
103104  2  0
104105  1  0
105106  1  0
104107  1  0
107108  2  0
100109  1  0
109110  2  0
110111  1  0
111112  2  0
112113  1  0
113114  1  0
112115  1  0
115116  2  0
 99117  1  0
117118  1  0
 98119  1  0
119120  2  3
120121  1  0
121122  2  0
121123  1  0
123124  2  0
124125  1  0
124126  1  0
126127  1  0
126128  2  0
128129  1  0
128130  1  0
130131  1  0
130132  2  0
132133  1  0
133134  2  3
134135  1  0
135136  3  0
134137  1  0
137138  3  0
 15  2  1  0
 33 21  2  0
 76 35  1  0
118 77  1  0
133120  1  0
 14  5  1  0
 33 24  1  0
 45 38  1  0
 53 46  1  0
 75 54  2  0
 87 80  1  0
 95 88  1  0
117 96  2  0
132123  1  0
 66 59  1  0
 74 67  1  0
108101  1  0
116109  1  0
  1139  1  0
 30140  1  0
 30141  1  0
 31142  1  0
 31143  1  0
 31144  1  0
 39145  1  0
 40146  1  0
 43147  1  0
 43148  1  0
 43149  1  0
 44150  1  0
 45151  1  0
 47152  1  0
 48153  1  0
 51154  1  0
 51155  1  0
 51156  1  0
 52157  1  0
 53158  1  0
 60159  1  0
 61160  1  0
 64161  1  0
 64162  1  0
 64163  1  0
 65164  1  0
 66165  1  0
 68166  1  0
 69167  1  0
 72168  1  0
 72169  1  0
 72170  1  0
 73171  1  0
 74172  1  0
 81173  1  0
 82174  1  0
 85175  1  0
 85176  1  0
 85177  1  0
 86178  1  0
 87179  1  0
 89180  1  0
 90181  1  0
 93182  1  0
 93183  1  0
 93184  1  0
 94185  1  0
 95186  1  0
102187  1  0
103188  1  0
106189  1  0
106190  1  0
106191  1  0
107192  1  0
108193  1  0
110194  1  0
111195  1  0
114196  1  0
114197  1  0
114198  1  0
115199  1  0
116200  1  0
119201  1  0
M  END

