
     RDKit          3D

 89101  0  0  0  0  0  0  0  0999 V2000
    5.7434   -2.1793   -4.7985 C   0  0  0  0  0  0  0  0  0  0  0  0
    6.6913   -1.2677   -4.5086 C   0  0  0  0  0  0  0  0  0  0  0  0
    6.5393    0.1911   -4.5405 C   0  0  0  0  0  0  0  0  0  0  0  0
    5.6578    0.8253   -5.1855 O   0  0  0  0  0  0  0  0  0  0  0  0
    7.5506    0.7753   -3.6638 C   0  0  0  0  0  0  0  0  0  0  0  0
    7.7345    2.1051   -3.2730 C   0  0  0  0  0  0  0  0  0  0  0  0
    6.8025    3.3982   -4.0208 Cl  0  0  0  0  0  0  0  0  0  0  0  0
    8.6710    2.3790   -2.2450 C   0  0  0  0  0  0  0  0  0  0  0  0
    8.9784    4.0385   -1.7578 Cl  0  0  0  0  0  0  0  0  0  0  0  0
    9.3386    1.3189   -1.5840 C   0  0  0  0  0  0  0  0  0  0  0  0
   10.4130    1.6686   -0.2202 Cl  0  0  0  0  0  0  0  0  0  0  0  0
    9.1412   -0.0157   -2.0102 C   0  0  0  0  0  0  0  0  0  0  0  0
    9.7343   -1.3429   -1.0081 Cl  0  0  0  0  0  0  0  0  0  0  0  0
    8.3143   -0.2538   -3.1283 C   0  0  0  0  0  0  0  0  0  0  0  0
    7.9608   -1.5359   -3.7890 C   0  0  0  0  0  0  0  0  0  0  0  0
    8.8300   -2.5229   -4.1115 C   0  0  0  0  0  0  0  0  0  0  0  0
   10.2403   -2.4097   -3.8257 C   0  0  0  0  0  0  0  0  0  0  0  0
   11.3763   -2.3065   -3.6161 N   0  0  0  0  0  0  0  0  0  0  0  0
    8.4745   -3.5695   -5.0301 C   0  0  0  0  0  0  0  0  0  0  0  0
    8.2250   -4.4065   -5.7820 N   0  0  0  0  0  0  0  0  0  0  0  0
    4.3743   -1.8147   -5.2026 C   0  0  0  0  0  0  0  0  0  0  0  0
    3.5276   -1.1371   -4.3179 C   0  0  0  0  0  0  0  0  0  0  0  0
    2.1715   -0.9078   -4.6343 C   0  0  0  0  0  0  0  0  0  0  0  0
    1.4283   -0.2263   -3.6149 N   0  0  0  0  0  0  0  0  0  0  0  0
    2.5595   -0.0173   -2.5062 S   0  0  0  0  0  4  0  0  0  0  0  0
    3.9273   -0.6515   -3.0235 N   0  0  0  0  0  0  0  0  0  0  0  0
    1.6062   -1.3890   -5.8242 C   0  0  0  0  0  0  0  0  0  0  0  0
    2.4400   -2.0661   -6.7251 C   0  0  0  0  0  0  0  0  0  0  0  0
    1.9894   -2.5916   -7.8941 N   0  0  0  0  0  0  0  0  0  0  0  0
    3.3805   -3.2648   -8.4628 S   0  0  0  0  0  0  0  0  0  0  0  0
    4.5481   -2.9695   -7.3297 N   0  0  0  0  0  0  0  0  0  0  0  0
    3.8267   -2.2756   -6.4139 C   0  0  0  0  0  0  0  0  0  0  0  0
    0.1498   -1.3523   -5.9813 C   0  0  0  0  0  0  0  0  0  0  0  0
   -0.8418   -2.4121   -5.1192 S   0  0  0  0  0  0  0  0  0  0  0  0
   -2.1800   -1.4175   -5.1630 C   0  0  0  0  0  0  0  0  0  0  0  0
   -3.3274   -1.5000   -4.4006 C   0  0  0  0  0  0  0  0  0  0  0  0
   -4.1609   -0.4001   -4.3210 C   0  0  0  0  0  0  0  0  0  0  0  0
   -3.9245    0.6980   -5.0476 O   0  0  0  0  0  0  0  0  0  0  0  0
   -2.8203    0.8085   -5.8141 C   0  0  0  0  0  0  0  0  0  0  0  0
   -2.6104    1.8667   -6.4614 O   0  0  0  0  0  0  0  0  0  0  0  0
   -1.8923   -0.2506   -5.8480 C   0  0  0  0  0  0  0  0  0  0  0  0
   -0.5714   -0.2064   -6.3188 C   0  0  0  0  0  0  0  0  0  0  0  0
   -5.1382   -0.5098   -3.3227 C   0  0  0  0  0  0  0  0  0  0  0  0
   -4.9924   -1.6809   -2.5571 C   0  0  0  0  0  0  0  0  0  0  0  0
   -3.7238   -2.6009   -3.2081 S   0  0  0  0  0  0  0  0  0  0  0  0
   -5.4890   -1.8356   -1.1735 C   0  0  0  0  0  0  0  0  0  0  0  0
   -4.6436   -2.4077   -0.2010 C   0  0  0  0  0  0  0  0  0  0  0  0
   -4.9940   -2.3016    1.1336 C   0  0  0  0  0  0  0  0  0  0  0  0
   -4.1705   -2.5524    2.3112 C   0  0  0  0  0  0  0  0  0  0  0  0
   -3.0212   -3.0532    2.3417 O   0  0  0  0  0  0  0  0  0  0  0  0
   -4.8949   -1.9959    3.4387 C   0  0  0  0  0  0  0  0  0  0  0  0
   -6.1001   -1.4886    2.9932 C   0  0  0  0  0  0  0  0  0  0  0  0
   -6.1548   -1.6667    1.5358 C   0  0  0  0  0  0  0  0  0  0  0  0
   -7.0466   -1.1504    0.6016 C   0  0  0  0  0  0  0  0  0  0  0  0
   -6.7078   -1.2407   -0.7621 C   0  0  0  0  0  0  0  0  0  0  0  0
   -6.9337   -0.7585    3.8470 C   0  0  0  0  0  0  0  0  0  0  0  0
   -6.5105   -0.5520    5.1727 C   0  0  0  0  0  0  0  0  0  0  0  0
   -5.2573   -1.0222    5.6045 C   0  0  0  0  0  0  0  0  0  0  0  0
   -4.4475   -1.7894    4.7369 C   0  0  0  0  0  0  0  0  0  0  0  0
   -4.7764   -0.6744    6.9448 C   0  0  0  0  0  0  0  0  0  0  0  0
   -3.9487    0.3683    7.1582 C   0  0  0  0  0  0  0  0  0  0  0  0
   -3.6561    1.4363    6.1919 C   0  0  0  0  0  0  0  0  0  0  0  0
   -3.9146    1.4267    4.9584 O   0  0  0  0  0  0  0  0  0  0  0  0
   -3.0366    2.5338    6.8978 C   0  0  0  0  0  0  0  0  0  0  0  0
   -2.6782    3.7916    6.4105 C   0  0  0  0  0  0  0  0  0  0  0  0
   -2.1461    4.7261    7.3074 C   0  0  0  0  0  0  0  0  0  0  0  0
   -1.6828    6.3122    6.7115 Cl  0  0  0  0  0  0  0  0  0  0  0  0
   -1.9952    4.3933    8.6690 C   0  0  0  0  0  0  0  0  0  0  0  0
   -1.4872    5.3063    9.5320 F   0  0  0  0  0  0  0  0  0  0  0  0
   -2.3703    3.1238    9.1410 C   0  0  0  0  0  0  0  0  0  0  0  0
   -2.8772    2.1846    8.2322 C   0  0  0  0  0  0  0  0  0  0  0  0
   -3.3296    0.7828    8.4515 C   0  0  0  0  0  0  0  0  0  0  0  0
   -2.9884   -0.0247    9.4923 C   0  0  0  0  0  0  0  0  0  0  0  0
   -3.2053   -1.4476    9.4525 C   0  0  0  0  0  0  0  0  0  0  0  0
   -3.3660   -2.5964    9.4248 N   0  0  0  0  0  0  0  0  0  0  0  0
   -2.2601    0.4458   10.6509 C   0  0  0  0  0  0  0  0  0  0  0  0
   -1.6748    0.8011   11.5854 N   0  0  0  0  0  0  0  0  0  0  0  0
    5.9314   -3.2201   -4.6281 H   0  0  0  0  0  0  0  0  0  0  0  0
   -0.1174    0.6733   -6.7563 H   0  0  0  0  0  0  0  0  0  0  0  0
   -5.8016    0.3106   -3.0752 H   0  0  0  0  0  0  0  0  0  0  0  0
   -3.6844   -2.8413   -0.4473 H   0  0  0  0  0  0  0  0  0  0  0  0
   -7.9524   -0.6463    0.9132 H   0  0  0  0  0  0  0  0  0  0  0  0
   -7.3641   -0.7770   -1.4862 H   0  0  0  0  0  0  0  0  0  0  0  0
   -7.8727   -0.3388    3.4984 H   0  0  0  0  0  0  0  0  0  0  0  0
   -7.1401    0.0098    5.8460 H   0  0  0  0  0  0  0  0  0  0  0  0
   -3.4791   -2.1645    5.0507 H   0  0  0  0  0  0  0  0  0  0  0  0
   -5.0999   -1.3128    7.7495 H   0  0  0  0  0  0  0  0  0  0  0  0
   -2.8315    4.0366    5.3668 H   0  0  0  0  0  0  0  0  0  0  0  0
   -2.3151    2.9324   10.2037 H   0  0  0  0  0  0  0  0  0  0  0  0
  1  2  2  3
  2  3  1  0
  3  4  2  0
  3  5  1  0
  5  6  2  0
  6  7  1  0
  6  8  1  0
  8  9  1  0
  8 10  2  0
 10 11  1  0
 10 12  1  0
 12 13  1  0
 12 14  2  0
 14 15  1  0
 15 16  2  3
 16 17  1  0
 17 18  3  0
 16 19  1  0
 19 20  3  0
  1 21  1  0
 21 22  2  0
 22 23  1  0
 23 24  1  0
 24 25  2  0
 25 26  2  0
 23 27  2  0
 27 28  1  0
 28 29  2  0
 29 30  1  0
 30 31  1  0
 31 32  2  0
 27 33  1  0
 33 34  1  0
 34 35  1  0
 35 36  1  0
 36 37  2  0
 37 38  1  0
 38 39  1  0
 39 40  2  0
 39 41  1  0
 41 42  1  0
 37 43  1  0
 43 44  2  0
 44 45  1  0
 44 46  1  0
 46 47  2  0
 47 48  1  0
 48 49  1  0
 49 50  2  0
 49 51  1  0
 51 52  2  0
 52 53  1  0
 53 54  1  0
 54 55  2  0
 52 56  1  0
 56 57  2  0
 57 58  1  0
 58 59  2  0
 58 60  1  0
 60 61  2  3
 61 62  1  0
 62 63  2  0
 62 64  1  0
 64 65  2  0
 65 66  1  0
 66 67  1  0
 66 68  2  0
 68 69  1  0
 68 70  1  0
 70 71  2  0
 71 72  1  0
 72 73  2  3
 73 74  1  0
 74 75  3  0
 73 76  1  0
 76 77  3  0
 15  2  1  0
 32 21  1  0
 42 33  2  0
 55 46  1  0
 72 61  1  0
 14  5  1  0
 26 22  1  0
 32 28  1  0
 41 35  2  0
 53 48  2  0
 71 64  1  0
 45 36  1  0
 59 51  1  0
  1 78  1  0
 42 79  1  0
 43 80  1  0
 47 81  1  0
 54 82  1  0
 55 83  1  0
 56 84  1  0
 57 85  1  0
 59 86  1  0
 60 87  1  0
 65 88  1  0
 70 89  1  0
M  END

