
     RDKit          3D

178193  0  0  0  0  0  0  0  0999 V2000
    7.7027    4.5908    2.2238 C   0  0  0  0  0  0  0  0  0  0  0  0
    8.5132    5.3908    2.9418 C   0  0  0  0  0  0  0  0  0  0  0  0
    9.0470    5.1275    4.2785 C   0  0  0  0  0  0  0  0  0  0  0  0
    8.6550    4.2264    5.0735 O   0  0  0  0  0  0  0  0  0  0  0  0
   10.1824    6.0140    4.4934 C   0  0  0  0  0  0  0  0  0  0  0  0
   11.1167    6.0199    5.5390 C   0  0  0  0  0  0  0  0  0  0  0  0
   10.8554    5.0123    6.9559 Cl  0  0  0  0  0  0  0  0  0  0  0  0
   12.2689    6.8186    5.4049 C   0  0  0  0  0  0  0  0  0  0  0  0
   13.4572    6.8553    6.7073 Cl  0  0  0  0  0  0  0  0  0  0  0  0
   12.4982    7.5385    4.2120 C   0  0  0  0  0  0  0  0  0  0  0  0
   14.0058    8.4243    3.9984 Cl  0  0  0  0  0  0  0  0  0  0  0  0
   11.5499    7.5015    3.1633 C   0  0  0  0  0  0  0  0  0  0  0  0
   11.9953    8.0921    1.5585 Cl  0  0  0  0  0  0  0  0  0  0  0  0
   10.3414    6.8130    3.3763 C   0  0  0  0  0  0  0  0  0  0  0  0
    9.1965    6.6109    2.4515 C   0  0  0  0  0  0  0  0  0  0  0  0
    8.6146    7.5681    1.6796 C   0  0  0  0  0  0  0  0  0  0  0  0
    7.3454    7.3589    1.0270 C   0  0  0  0  0  0  0  0  0  0  0  0
    6.3202    7.1880    0.5161 N   0  0  0  0  0  0  0  0  0  0  0  0
    9.0632    8.9420    1.7357 C   0  0  0  0  0  0  0  0  0  0  0  0
    9.4179   10.0375    1.8052 N   0  0  0  0  0  0  0  0  0  0  0  0
    7.1410    3.3330    2.7300 C   0  0  0  0  0  0  0  0  0  0  0  0
    7.4622    2.0597    2.2229 C   0  0  0  0  0  0  0  0  0  0  0  0
    8.6356    1.8163    1.3110 C   0  0  0  0  0  0  0  0  0  0  0  0
    9.9548    1.8860    2.0761 C   0  0  0  0  0  0  0  0  0  0  0  0
    6.5133    1.0955    2.6153 C   0  0  0  0  0  0  0  0  0  0  0  0
    5.5480    1.5968    3.4464 C   0  0  0  0  0  0  0  0  0  0  0  0
    5.6997    3.2543    3.6263 S   0  0  0  0  0  0  0  0  0  0  0  0
    4.4580    0.6678    3.5131 C   0  0  0  0  0  0  0  0  0  0  0  0
    4.7370   -0.3960    2.7099 C   0  0  0  0  0  0  0  0  0  0  0  0
    6.1161   -0.2808    2.0683 C   0  0  0  0  0  0  0  0  0  0  0  0
    7.0821   -1.3498    2.6372 C   0  0  0  0  0  0  0  0  0  0  0  0
    6.6810   -2.7958    2.3254 C   0  0  0  0  0  0  0  0  0  0  0  0
    6.0101   -0.3338    0.5129 C   0  0  0  0  0  0  0  0  0  0  0  0
    5.3343    0.8799   -0.1296 C   0  0  0  0  0  0  0  0  0  0  0  0
    3.6081   -1.1229    2.3351 C   0  0  0  0  0  0  0  0  0  0  0  0
    2.4328   -0.5872    2.8780 C   0  0  0  0  0  0  0  0  0  0  0  0
    2.8094    0.8192    3.7586 S   0  0  0  0  0  0  0  0  0  0  0  0
    1.0615   -0.9797    2.5075 C   0  0  0  0  0  0  0  0  0  0  0  0
    0.6338   -1.4525    1.2573 C   0  0  0  0  0  0  0  0  0  0  0  0
    1.4780   -1.8751    0.1810 N   0  0  0  0  0  0  0  0  0  0  0  0
    1.5332   -3.2955   -0.0598 C   0  0  0  0  0  0  0  0  0  0  0  0
    1.9169   -4.1751    0.9708 C   0  0  0  0  0  0  0  0  0  0  0  0
    1.8674   -5.5558    0.7722 C   0  0  0  0  0  0  0  0  0  0  0  0
    1.4073   -6.0769   -0.4402 C   0  0  0  0  0  0  0  0  0  0  0  0
    1.2785   -7.8522   -0.6621 S   0  0  0  0  0  0  0  0  0  0  0  0
   -0.4096   -7.9377    0.0166 C   0  0  0  0  0  0  0  0  0  0  0  0
    1.0235   -5.2093   -1.4696 C   0  0  0  0  0  0  0  0  0  0  0  0
    1.0836   -3.8272   -1.2796 C   0  0  0  0  0  0  0  0  0  0  0  0
    1.9068   -0.9345   -0.8306 C   0  0  0  0  0  0  0  0  0  0  0  0
    1.2427    0.2974   -1.0115 C   0  0  0  0  0  0  0  0  0  0  0  0
    1.5972    1.1479   -2.0648 C   0  0  0  0  0  0  0  0  0  0  0  0
    2.6230    0.7925   -2.9427 C   0  0  0  0  0  0  0  0  0  0  0  0
    3.0177    1.8598   -4.3307 S   0  0  0  0  0  0  0  0  0  0  0  0
    4.2382    2.8383   -3.4025 C   0  0  0  0  0  0  0  0  0  0  0  0
    3.3160   -0.4105   -2.7566 C   0  0  0  0  0  0  0  0  0  0  0  0
    2.9680   -1.2596   -1.6987 C   0  0  0  0  0  0  0  0  0  0  0  0
   -0.7483   -1.5040    1.1721 C   0  0  0  0  0  0  0  0  0  0  0  0
   -1.7919   -1.7650   -0.1019 S   0  0  0  0  0  0  0  0  0  0  0  0
   -3.1955   -1.4683    0.8213 C   0  0  0  0  0  0  0  0  0  0  0  0
   -2.8335   -1.2166    2.1663 C   0  0  0  0  0  0  0  0  0  0  0  0
   -3.7463   -1.3519    3.2771 N   0  0  0  0  0  0  0  0  0  0  0  0
   -3.4524   -0.7140    4.5345 C   0  0  0  0  0  0  0  0  0  0  0  0
   -2.8053   -1.4242    5.5680 C   0  0  0  0  0  0  0  0  0  0  0  0
   -2.4957   -0.7873    6.7733 C   0  0  0  0  0  0  0  0  0  0  0  0
   -2.8659    0.5456    6.9827 C   0  0  0  0  0  0  0  0  0  0  0  0
   -2.5084    1.3408    8.5481 S   0  0  0  0  0  0  0  0  0  0  0  0
   -0.9231    2.0355    7.9774 C   0  0  0  0  0  0  0  0  0  0  0  0
   -3.5285    1.2488    5.9683 C   0  0  0  0  0  0  0  0  0  0  0  0
   -3.7989    0.6282    4.7443 C   0  0  0  0  0  0  0  0  0  0  0  0
   -4.5794   -2.5224    3.2974 C   0  0  0  0  0  0  0  0  0  0  0  0
   -5.9664   -2.4078    3.1360 C   0  0  0  0  0  0  0  0  0  0  0  0
   -6.7688   -3.5518    3.1136 C   0  0  0  0  0  0  0  0  0  0  0  0
   -6.1948   -4.8164    3.2824 C   0  0  0  0  0  0  0  0  0  0  0  0
   -7.2319   -6.2757    3.3000 S   0  0  0  0  0  0  0  0  0  0  0  0
   -7.4951   -6.2039    5.1013 C   0  0  0  0  0  0  0  0  0  0  0  0
   -4.8066   -4.9361    3.4255 C   0  0  0  0  0  0  0  0  0  0  0  0
   -4.0000   -3.7965    3.4240 C   0  0  0  0  0  0  0  0  0  0  0  0
   -1.4358   -1.1762    2.2931 C   0  0  0  0  0  0  0  0  0  0  0  0
   -0.3264   -0.7123    3.4773 S   0  0  0  0  0  0  0  0  0  0  0  0
   -4.5243   -1.3254    0.1803 C   0  0  0  0  0  0  0  0  0  0  0  0
   -5.3583   -0.1710    0.2004 C   0  0  0  0  0  0  0  0  0  0  0  0
   -5.0255    1.0604    1.0246 C   0  0  0  0  0  0  0  0  0  0  0  0
   -6.1599    1.5009    1.9378 C   0  0  0  0  0  0  0  0  0  0  0  0
   -6.3144   -0.2077   -0.8650 C   0  0  0  0  0  0  0  0  0  0  0  0
   -6.1823   -1.3195   -1.6654 C   0  0  0  0  0  0  0  0  0  0  0  0
   -4.9114   -2.2690   -1.1727 S   0  0  0  0  0  0  0  0  0  0  0  0
   -6.7383   -1.0744   -2.9708 C   0  0  0  0  0  0  0  0  0  0  0  0
   -7.3029    0.1735   -2.9660 C   0  0  0  0  0  0  0  0  0  0  0  0
   -7.1561    0.8565   -1.6093 C   0  0  0  0  0  0  0  0  0  0  0  0
   -8.5811    1.0690   -1.0194 C   0  0  0  0  0  0  0  0  0  0  0  0
   -9.3169   -0.2257   -0.6498 C   0  0  0  0  0  0  0  0  0  0  0  0
   -6.4275    2.2239   -1.7656 C   0  0  0  0  0  0  0  0  0  0  0  0
   -5.0280    2.1476   -2.3985 C   0  0  0  0  0  0  0  0  0  0  0  0
   -7.3876    0.7741   -4.2253 C   0  0  0  0  0  0  0  0  0  0  0  0
   -6.7405    0.0360   -5.2145 C   0  0  0  0  0  0  0  0  0  0  0  0
   -6.0992   -1.3652   -4.4976 S   0  0  0  0  0  0  0  0  0  0  0  0
   -6.1984    0.6931   -6.4206 C   0  0  0  0  0  0  0  0  0  0  0  0
   -5.7484    0.0724   -7.5234 C   0  0  0  0  0  0  0  0  0  0  0  0
   -6.1393   -1.2670   -7.9816 C   0  0  0  0  0  0  0  0  0  0  0  0
   -6.8200   -2.1015   -7.3366 O   0  0  0  0  0  0  0  0  0  0  0  0
   -5.7725   -1.3851   -9.3906 C   0  0  0  0  0  0  0  0  0  0  0  0
   -5.1640   -0.2066   -9.7985 C   0  0  0  0  0  0  0  0  0  0  0  0
   -4.8712   -0.0030  -11.1557 C   0  0  0  0  0  0  0  0  0  0  0  0
   -5.1227   -1.0357  -12.0693 C   0  0  0  0  0  0  0  0  0  0  0  0
   -5.6908   -2.2506  -11.6420 C   0  0  0  0  0  0  0  0  0  0  0  0
   -6.0191   -3.6123  -12.9530 Br  0  0  0  0  0  0  0  0  0  0  0  0
   -6.0372   -2.4316  -10.2870 C   0  0  0  0  0  0  0  0  0  0  0  0
   -6.8129   -3.9148   -9.7463 Cl  0  0  0  0  0  0  0  0  0  0  0  0
   -5.0078    0.7157   -8.6463 C   0  0  0  0  0  0  0  0  0  0  0  0
   -4.1253    1.7457   -8.5508 C   0  0  0  0  0  0  0  0  0  0  0  0
   -3.2515    2.1195   -9.6314 C   0  0  0  0  0  0  0  0  0  0  0  0
   -2.5343    2.4189  -10.4893 N   0  0  0  0  0  0  0  0  0  0  0  0
   -3.8860    2.4431   -7.3131 C   0  0  0  0  0  0  0  0  0  0  0  0
   -3.6903    3.0074   -6.3216 N   0  0  0  0  0  0  0  0  0  0  0  0
    7.5609    4.7858    1.1732 H   0  0  0  0  0  0  0  0  0  0  0  0
    8.5823    0.8235    0.8308 H   0  0  0  0  0  0  0  0  0  0  0  0
    8.6360    2.5752    0.5000 H   0  0  0  0  0  0  0  0  0  0  0  0
   10.0902    0.9729    2.6881 H   0  0  0  0  0  0  0  0  0  0  0  0
    9.9916    2.7784    2.7369 H   0  0  0  0  0  0  0  0  0  0  0  0
   10.7902    1.9629    1.3559 H   0  0  0  0  0  0  0  0  0  0  0  0
    7.1452   -1.2463    3.7442 H   0  0  0  0  0  0  0  0  0  0  0  0
    8.1017   -1.1734    2.2309 H   0  0  0  0  0  0  0  0  0  0  0  0
    6.6468   -2.9676    1.2284 H   0  0  0  0  0  0  0  0  0  0  0  0
    5.6953   -3.0402    2.7732 H   0  0  0  0  0  0  0  0  0  0  0  0
    7.4353   -3.4845    2.7572 H   0  0  0  0  0  0  0  0  0  0  0  0
    7.0110   -0.4656    0.0602 H   0  0  0  0  0  0  0  0  0  0  0  0
    5.4350   -1.2293    0.2080 H   0  0  0  0  0  0  0  0  0  0  0  0
    5.2851    0.7285   -1.2244 H   0  0  0  0  0  0  0  0  0  0  0  0
    4.2983    1.0196    0.2542 H   0  0  0  0  0  0  0  0  0  0  0  0
    5.9194    1.8056    0.0396 H   0  0  0  0  0  0  0  0  0  0  0  0
    3.6385   -1.9287    1.6191 H   0  0  0  0  0  0  0  0  0  0  0  0
    2.2284   -3.7939    1.9333 H   0  0  0  0  0  0  0  0  0  0  0  0
    2.1587   -6.2256    1.5749 H   0  0  0  0  0  0  0  0  0  0  0  0
   -0.7612   -8.9889   -0.0157 H   0  0  0  0  0  0  0  0  0  0  0  0
   -1.0956   -7.3084   -0.5910 H   0  0  0  0  0  0  0  0  0  0  0  0
   -0.4192   -7.5880    1.0706 H   0  0  0  0  0  0  0  0  0  0  0  0
    0.6534   -5.6085   -2.4099 H   0  0  0  0  0  0  0  0  0  0  0  0
    0.7329   -3.1714   -2.0663 H   0  0  0  0  0  0  0  0  0  0  0  0
    0.4234    0.5948   -0.3633 H   0  0  0  0  0  0  0  0  0  0  0  0
    1.0616    2.0792   -2.2019 H   0  0  0  0  0  0  0  0  0  0  0  0
    4.5694    3.6911   -4.0279 H   0  0  0  0  0  0  0  0  0  0  0  0
    3.7895    3.2346   -2.4665 H   0  0  0  0  0  0  0  0  0  0  0  0
    5.1174    2.2059   -3.1607 H   0  0  0  0  0  0  0  0  0  0  0  0
    4.1231   -0.6859   -3.4232 H   0  0  0  0  0  0  0  0  0  0  0  0
    3.5215   -2.1788   -1.5650 H   0  0  0  0  0  0  0  0  0  0  0  0
   -2.5073   -2.4524    5.4246 H   0  0  0  0  0  0  0  0  0  0  0  0
   -1.9680   -1.3346    7.5496 H   0  0  0  0  0  0  0  0  0  0  0  0
   -1.0916    2.6937    7.0963 H   0  0  0  0  0  0  0  0  0  0  0  0
   -0.4755    2.6411    8.7923 H   0  0  0  0  0  0  0  0  0  0  0  0
   -0.2169    1.2205    7.7040 H   0  0  0  0  0  0  0  0  0  0  0  0
   -3.8226    2.2806    6.1234 H   0  0  0  0  0  0  0  0  0  0  0  0
   -4.2974    1.1911    3.9729 H   0  0  0  0  0  0  0  0  0  0  0  0
   -6.4272   -1.4416    3.0114 H   0  0  0  0  0  0  0  0  0  0  0  0
   -7.8398   -3.4520    2.9910 H   0  0  0  0  0  0  0  0  0  0  0  0
   -8.1535   -7.0392    5.4077 H   0  0  0  0  0  0  0  0  0  0  0  0
   -6.5243   -6.2900    5.6363 H   0  0  0  0  0  0  0  0  0  0  0  0
   -7.9845   -5.2424    5.3744 H   0  0  0  0  0  0  0  0  0  0  0  0
   -4.3547   -5.9119    3.5550 H   0  0  0  0  0  0  0  0  0  0  0  0
   -2.9268   -3.9024    3.5154 H   0  0  0  0  0  0  0  0  0  0  0  0
   -4.1428    0.8893    1.6585 H   0  0  0  0  0  0  0  0  0  0  0  0
   -4.7219    1.8919    0.3692 H   0  0  0  0  0  0  0  0  0  0  0  0
   -7.1014    1.6130    1.3841 H   0  0  0  0  0  0  0  0  0  0  0  0
   -5.9124    2.4818    2.3983 H   0  0  0  0  0  0  0  0  0  0  0  0
   -6.3210    0.7636    2.7489 H   0  0  0  0  0  0  0  0  0  0  0  0
   -9.1994    1.6065   -1.7703 H   0  0  0  0  0  0  0  0  0  0  0  0
   -8.5610    1.7301   -0.1335 H   0  0  0  0  0  0  0  0  0  0  0  0
   -9.4367   -0.8759   -1.5437 H   0  0  0  0  0  0  0  0  0  0  0  0
  -10.3257    0.0229   -0.2634 H   0  0  0  0  0  0  0  0  0  0  0  0
   -8.7682   -0.7830    0.1413 H   0  0  0  0  0  0  0  0  0  0  0  0
   -7.0490    2.8958   -2.3935 H   0  0  0  0  0  0  0  0  0  0  0  0
   -6.3699    2.7362   -0.7835 H   0  0  0  0  0  0  0  0  0  0  0  0
   -5.0783    1.8162   -3.4530 H   0  0  0  0  0  0  0  0  0  0  0  0
   -4.5585    3.1522   -2.3854 H   0  0  0  0  0  0  0  0  0  0  0  0
   -4.3642    1.4441   -1.8571 H   0  0  0  0  0  0  0  0  0  0  0  0
   -7.6847    1.8064   -4.3709 H   0  0  0  0  0  0  0  0  0  0  0  0
   -6.1251    1.7695   -6.3622 H   0  0  0  0  0  0  0  0  0  0  0  0
   -4.5049    0.9466  -11.5258 H   0  0  0  0  0  0  0  0  0  0  0  0
   -4.8965   -0.8818  -13.1150 H   0  0  0  0  0  0  0  0  0  0  0  0
  1  2  2  3
  2  3  1  0
  3  4  2  0
  3  5  1  0
  5  6  2  0
  6  7  1  0
  6  8  1  0
  8  9  1  0
  8 10  2  0
 10 11  1  0
 10 12  1  0
 12 13  1  0
 12 14  2  0
 14 15  1  0
 15 16  2  3
 16 17  1  0
 17 18  3  0
 16 19  1  0
 19 20  3  0
  1 21  1  0
 21 22  2  0
 22 23  1  0
 23 24  1  0
 22 25  1  0
 25 26  2  0
 26 27  1  0
 26 28  1  0
 28 29  2  0
 29 30  1  0
 30 31  1  0
 31 32  1  0
 30 33  1  0
 33 34  1  0
 29 35  1  0
 35 36  2  0
 36 37  1  0
 36 38  1  0
 38 39  2  0
 39 40  1  0
 40 41  1  0
 41 42  2  0
 42 43  1  0
 43 44  2  0
 44 45  1  0
 45 46  1  0
 44 47  1  0
 47 48  2  0
 40 49  1  0
 49 50  2  0
 50 51  1  0
 51 52  2  0
 52 53  1  0
 53 54  1  0
 52 55  1  0
 55 56  2  0
 39 57  1  0
 57 58  1  0
 58 59  1  0
 59 60  2  0
 60 61  1  0
 61 62  1  0
 62 63  2  0
 63 64  1  0
 64 65  2  0
 65 66  1  0
 66 67  1  0
 65 68  1  0
 68 69  2  0
 61 70  1  0
 70 71  2  0
 71 72  1  0
 72 73  2  0
 73 74  1  0
 74 75  1  0
 73 76  1  0
 76 77  2  0
 60 78  1  0
 78 79  1  0
 59 80  1  0
 80 81  2  0
 81 82  1  0
 82 83  1  0
 81 84  1  0
 84 85  2  0
 85 86  1  0
 85 87  1  0
 87 88  2  0
 88 89  1  0
 89 90  1  0
 90 91  1  0
 89 92  1  0
 92 93  1  0
 88 94  1  0
 94 95  2  0
 95 96  1  0
 95 97  1  0
 97 98  2  3
 98 99  1  0
 99100  2  0
 99101  1  0
101102  2  0
102103  1  0
103104  2  0
104105  1  0
105106  1  0
105107  2  0
107108  1  0
102109  1  0
109110  2  3
110111  1  0
111112  3  0
110113  1  0
113114  3  0
 15  2  1  0
 27 21  1  0
 37 28  1  0
 79 38  1  0
 86 80  1  0
 96 87  1  0
109 98  1  0
 14  5  1  0
 30 25  1  0
 48 41  1  0
 56 49  1  0
 78 57  2  0
 89 84  1  0
107101  1  0
 69 62  1  0
 77 70  1  0
  1115  1  0
 23116  1  0
 23117  1  0
 24118  1  0
 24119  1  0
 24120  1  0
 31121  1  0
 31122  1  0
 32123  1  0
 32124  1  0
 32125  1  0
 33126  1  0
 33127  1  0
 34128  1  0
 34129  1  0
 34130  1  0
 35131  1  0
 42132  1  0
 43133  1  0
 46134  1  0
 46135  1  0
 46136  1  0
 47137  1  0
 48138  1  0
 50139  1  0
 51140  1  0
 54141  1  0
 54142  1  0
 54143  1  0
 55144  1  0
 56145  1  0
 63146  1  0
 64147  1  0
 67148  1  0
 67149  1  0
 67150  1  0
 68151  1  0
 69152  1  0
 71153  1  0
 72154  1  0
 75155  1  0
 75156  1  0
 75157  1  0
 76158  1  0
 77159  1  0
 82160  1  0
 82161  1  0
 83162  1  0
 83163  1  0
 83164  1  0
 90165  1  0
 90166  1  0
 91167  1  0
 91168  1  0
 91169  1  0
 92170  1  0
 92171  1  0
 93172  1  0
 93173  1  0
 93174  1  0
 94175  1  0
 97176  1  0
103177  1  0
104178  1  0
M  END

