
     RDKit          3D

153167  0  0  0  0  0  0  0  0999 V2000
   -2.7268   -1.4241  -10.1605 C   0  0  0  0  0  0  0  0  0  0  0  0
   -1.6751   -2.1846  -10.5276 C   0  0  0  0  0  0  0  0  0  0  0  0
   -1.6317   -2.9362  -11.7814 C   0  0  0  0  0  0  0  0  0  0  0  0
   -2.5683   -3.0130  -12.6237 O   0  0  0  0  0  0  0  0  0  0  0  0
   -0.3295   -3.5644  -11.8985 C   0  0  0  0  0  0  0  0  0  0  0  0
    0.1715   -4.3936  -12.9084 C   0  0  0  0  0  0  0  0  0  0  0  0
   -0.7902   -4.7471  -14.3391 Cl  0  0  0  0  0  0  0  0  0  0  0  0
    1.4626   -4.9450  -12.7451 C   0  0  0  0  0  0  0  0  0  0  0  0
    2.1364   -6.0004  -13.9909 Cl  0  0  0  0  0  0  0  0  0  0  0  0
    2.2022   -4.6909  -11.5645 C   0  0  0  0  0  0  0  0  0  0  0  0
    3.7840   -5.4434  -11.3348 Cl  0  0  0  0  0  0  0  0  0  0  0  0
    1.6658   -3.8574  -10.5578 C   0  0  0  0  0  0  0  0  0  0  0  0
    2.5046   -3.6795   -9.0145 Cl  0  0  0  0  0  0  0  0  0  0  0  0
    0.4097   -3.2572  -10.7737 C   0  0  0  0  0  0  0  0  0  0  0  0
   -0.3523   -2.3708   -9.8560 C   0  0  0  0  0  0  0  0  0  0  0  0
    0.2354   -1.4050   -9.1355 C   0  0  0  0  0  0  0  0  0  0  0  0
    0.0060   -1.3527   -7.7169 C   0  0  0  0  0  0  0  0  0  0  0  0
   -0.1658   -1.3078   -6.5720 N   0  0  0  0  0  0  0  0  0  0  0  0
    1.3909   -0.7083   -9.6402 C   0  0  0  0  0  0  0  0  0  0  0  0
    2.3167   -0.1391  -10.0450 N   0  0  0  0  0  0  0  0  0  0  0  0
   -2.7613   -0.6017   -8.9465 C   0  0  0  0  0  0  0  0  0  0  0  0
   -3.3160   -1.1187   -7.7582 C   0  0  0  0  0  0  0  0  0  0  0  0
   -3.2284   -0.3448   -6.6025 C   0  0  0  0  0  0  0  0  0  0  0  0
   -3.5004   -0.7112   -5.2138 C   0  0  0  0  0  0  0  0  0  0  0  0
   -4.0068   -1.7911   -4.8079 O   0  0  0  0  0  0  0  0  0  0  0  0
   -2.9529    0.3609   -4.3866 C   0  0  0  0  0  0  0  0  0  0  0  0
   -2.4213    1.3222   -5.2233 C   0  0  0  0  0  0  0  0  0  0  0  0
   -2.5999    0.8896   -6.6083 C   0  0  0  0  0  0  0  0  0  0  0  0
   -2.0931    1.4448   -7.7834 C   0  0  0  0  0  0  0  0  0  0  0  0
   -2.1946    0.6968   -8.9661 C   0  0  0  0  0  0  0  0  0  0  0  0
   -1.6765    2.3814   -4.7119 C   0  0  0  0  0  0  0  0  0  0  0  0
   -1.4462    2.4258   -3.3281 C   0  0  0  0  0  0  0  0  0  0  0  0
   -1.9384    1.4127   -2.4596 C   0  0  0  0  0  0  0  0  0  0  0  0
   -2.7558    0.4006   -3.0098 C   0  0  0  0  0  0  0  0  0  0  0  0
   -1.4703    1.3851   -1.0355 C   0  0  0  0  0  0  0  0  0  0  0  0
   -1.6692    0.3911   -0.0410 C   0  0  0  0  0  0  0  0  0  0  0  0
   -2.4124   -0.8281   -0.1908 N   0  0  0  0  0  0  0  0  0  0  0  0
   -1.8495   -1.9668   -0.8891 C   0  0  0  0  0  0  0  0  0  0  0  0
   -0.4670   -2.0610   -1.1329 C   0  0  0  0  0  0  0  0  0  0  0  0
    0.0481   -3.1077   -1.9042 C   0  0  0  0  0  0  0  0  0  0  0  0
   -0.8112   -4.0733   -2.4460 C   0  0  0  0  0  0  0  0  0  0  0  0
   -0.1595   -5.3785   -3.4900 S   0  0  0  0  0  0  0  0  0  0  0  0
   -0.2952   -4.3825   -5.0096 C   0  0  0  0  0  0  0  0  0  0  0  0
   -2.1819   -3.9988   -2.1947 C   0  0  0  0  0  0  0  0  0  0  0  0
   -2.7011   -2.9604   -1.4193 C   0  0  0  0  0  0  0  0  0  0  0  0
   -3.6597   -0.9254    0.5158 C   0  0  0  0  0  0  0  0  0  0  0  0
   -3.8281   -1.8651    1.5458 C   0  0  0  0  0  0  0  0  0  0  0  0
   -5.0156   -1.8938    2.2809 C   0  0  0  0  0  0  0  0  0  0  0  0
   -6.0443   -0.9870    1.9896 C   0  0  0  0  0  0  0  0  0  0  0  0
   -7.5783   -1.0304    2.9240 S   0  0  0  0  0  0  0  0  0  0  0  0
   -7.0644    0.2773    4.0831 C   0  0  0  0  0  0  0  0  0  0  0  0
   -5.8835   -0.0550    0.9605 C   0  0  0  0  0  0  0  0  0  0  0  0
   -4.6887   -0.0096    0.2366 C   0  0  0  0  0  0  0  0  0  0  0  0
   -0.8953    0.6252    1.0934 C   0  0  0  0  0  0  0  0  0  0  0  0
   -0.4186   -0.3721    2.3464 S   0  0  0  0  0  0  0  0  0  0  0  0
    0.8775    0.6202    2.8443 C   0  0  0  0  0  0  0  0  0  0  0  0
    0.9426    1.7338    1.9917 C   0  0  0  0  0  0  0  0  0  0  0  0
    1.9990    2.7034    1.9695 N   0  0  0  0  0  0  0  0  0  0  0  0
    1.6466    4.0784    2.2208 C   0  0  0  0  0  0  0  0  0  0  0  0
    0.8155    4.4021    3.3018 C   0  0  0  0  0  0  0  0  0  0  0  0
    0.4691    5.7303    3.5615 C   0  0  0  0  0  0  0  0  0  0  0  0
    0.9326    6.7544    2.7240 C   0  0  0  0  0  0  0  0  0  0  0  0
    0.5248    8.4601    3.0956 S   0  0  0  0  0  0  0  0  0  0  0  0
    2.0176    8.7053    4.1115 C   0  0  0  0  0  0  0  0  0  0  0  0
    1.7358    6.4392    1.6221 C   0  0  0  0  0  0  0  0  0  0  0  0
    2.0919    5.1129    1.3675 C   0  0  0  0  0  0  0  0  0  0  0  0
    3.2950    2.3611    1.4393 C   0  0  0  0  0  0  0  0  0  0  0  0
    4.4506    2.9981    1.9282 C   0  0  0  0  0  0  0  0  0  0  0  0
    5.6909    2.7757    1.3267 C   0  0  0  0  0  0  0  0  0  0  0  0
    5.7913    1.9093    0.2306 C   0  0  0  0  0  0  0  0  0  0  0  0
    7.3643    1.7095   -0.6095 S   0  0  0  0  0  0  0  0  0  0  0  0
    7.0185    3.0583   -1.7859 C   0  0  0  0  0  0  0  0  0  0  0  0
    4.6567    1.2256   -0.2275 C   0  0  0  0  0  0  0  0  0  0  0  0
    3.4150    1.4576    0.3647 C   0  0  0  0  0  0  0  0  0  0  0  0
   -0.0818    1.7049    1.0439 C   0  0  0  0  0  0  0  0  0  0  0  0
   -0.3007    2.4793   -0.4198 S   0  0  0  0  0  0  0  0  0  0  0  0
    1.9265    0.0985    3.7326 C   0  0  0  0  0  0  0  0  0  0  0  0
    2.7651   -0.9107    3.2334 C   0  0  0  0  0  0  0  0  0  0  0  0
    2.8724   -1.1143    1.8970 F   0  0  0  0  0  0  0  0  0  0  0  0
    3.3817   -1.8103    4.1000 C   0  0  0  0  0  0  0  0  0  0  0  0
    3.1325   -1.7675    5.4775 C   0  0  0  0  0  0  0  0  0  0  0  0
    2.4120   -0.6670    5.9979 C   0  0  0  0  0  0  0  0  0  0  0  0
    2.2355   -0.5145    7.3387 N   0  0  0  0  0  0  0  0  0  0  0  0
    1.5629    0.5419    7.8562 C   0  0  0  0  0  0  0  0  0  0  0  0
    1.0573    1.5208    7.0040 C   0  0  0  0  0  0  0  0  0  0  0  0
    0.4605    2.6613    7.5561 O   0  0  0  0  0  0  0  0  0  0  0  0
    0.2513    3.8588    6.8163 C   0  0  0  0  0  0  0  0  0  0  0  0
   -0.1546    4.9814    7.7615 C   0  0  0  0  0  0  0  0  0  0  0  0
    1.1755    1.3593    5.6553 N   0  0  0  0  0  0  0  0  0  0  0  0
    1.8379    0.2906    5.1246 C   0  0  0  0  0  0  0  0  0  0  0  0
    3.5135   -2.9642    6.2818 C   0  0  0  0  0  0  0  0  0  0  0  0
    2.7805   -3.3317    7.3408 C   0  0  0  0  0  0  0  0  0  0  0  0
    3.2909   -3.1013    8.6912 C   0  0  0  0  0  0  0  0  0  0  0  0
    4.1079   -2.1933    9.0137 O   0  0  0  0  0  0  0  0  0  0  0  0
    2.7125   -4.0839    9.5988 C   0  0  0  0  0  0  0  0  0  0  0  0
    2.8588   -4.1849   10.9888 C   0  0  0  0  0  0  0  0  0  0  0  0
    4.0026   -3.1619   11.8529 Cl  0  0  0  0  0  0  0  0  0  0  0  0
    2.0671   -5.1241   11.6767 C   0  0  0  0  0  0  0  0  0  0  0  0
    2.2443   -5.3167   13.4207 Cl  0  0  0  0  0  0  0  0  0  0  0  0
    1.0876   -5.8706   10.9819 C   0  0  0  0  0  0  0  0  0  0  0  0
    0.0258   -6.9681   11.8616 Cl  0  0  0  0  0  0  0  0  0  0  0  0
    0.9380   -5.7184    9.5853 C   0  0  0  0  0  0  0  0  0  0  0  0
   -0.5537   -6.2836    8.8294 Cl  0  0  0  0  0  0  0  0  0  0  0  0
    1.8635   -4.9143    8.8901 C   0  0  0  0  0  0  0  0  0  0  0  0
    1.9950   -4.6028    7.4408 C   0  0  0  0  0  0  0  0  0  0  0  0
    1.6406   -5.3947    6.3944 C   0  0  0  0  0  0  0  0  0  0  0  0
    1.3067   -6.7854    6.5504 C   0  0  0  0  0  0  0  0  0  0  0  0
    1.0280   -7.9090    6.6488 N   0  0  0  0  0  0  0  0  0  0  0  0
    1.6262   -4.9082    5.0369 C   0  0  0  0  0  0  0  0  0  0  0  0
    1.6084   -4.5317    3.9413 N   0  0  0  0  0  0  0  0  0  0  0  0
   -3.6057   -1.4012  -10.7955 H   0  0  0  0  0  0  0  0  0  0  0  0
   -3.7379   -2.1133   -7.7231 H   0  0  0  0  0  0  0  0  0  0  0  0
   -1.5797    2.3929   -7.7793 H   0  0  0  0  0  0  0  0  0  0  0  0
   -1.7703    1.0887   -9.8832 H   0  0  0  0  0  0  0  0  0  0  0  0
   -1.2282    3.1152   -5.3691 H   0  0  0  0  0  0  0  0  0  0  0  0
   -0.8273    3.2302   -2.9549 H   0  0  0  0  0  0  0  0  0  0  0  0
   -3.2001   -0.3855   -2.4249 H   0  0  0  0  0  0  0  0  0  0  0  0
    0.2192   -1.3195   -0.7495 H   0  0  0  0  0  0  0  0  0  0  0  0
    1.1151   -3.1603   -2.0926 H   0  0  0  0  0  0  0  0  0  0  0  0
    0.4232   -3.5368   -4.9625 H   0  0  0  0  0  0  0  0  0  0  0  0
   -1.3308   -3.9922   -5.1363 H   0  0  0  0  0  0  0  0  0  0  0  0
   -0.0421   -5.0161   -5.8829 H   0  0  0  0  0  0  0  0  0  0  0  0
   -2.8542   -4.7337   -2.6233 H   0  0  0  0  0  0  0  0  0  0  0  0
   -3.7737   -2.9059   -1.2728 H   0  0  0  0  0  0  0  0  0  0  0  0
   -3.0310   -2.5572    1.7844 H   0  0  0  0  0  0  0  0  0  0  0  0
   -5.1310   -2.6078    3.0831 H   0  0  0  0  0  0  0  0  0  0  0  0
   -6.8703    1.2239    3.5298 H   0  0  0  0  0  0  0  0  0  0  0  0
   -6.1463   -0.0281    4.6331 H   0  0  0  0  0  0  0  0  0  0  0  0
   -7.8827    0.4507    4.8112 H   0  0  0  0  0  0  0  0  0  0  0  0
   -6.6738    0.6448    0.7298 H   0  0  0  0  0  0  0  0  0  0  0  0
   -4.5662    0.7322   -0.5422 H   0  0  0  0  0  0  0  0  0  0  0  0
    0.4515    3.6208    3.9548 H   0  0  0  0  0  0  0  0  0  0  0  0
   -0.1555    5.9660    4.4163 H   0  0  0  0  0  0  0  0  0  0  0  0
    2.9265    8.6687    3.4689 H   0  0  0  0  0  0  0  0  0  0  0  0
    2.0886    7.9278    4.9065 H   0  0  0  0  0  0  0  0  0  0  0  0
    1.9607    9.7031    4.5963 H   0  0  0  0  0  0  0  0  0  0  0  0
    2.0934    7.2228    0.9659 H   0  0  0  0  0  0  0  0  0  0  0  0
    2.7109    4.8864    0.5104 H   0  0  0  0  0  0  0  0  0  0  0  0
    4.3868    3.6991    2.7521 H   0  0  0  0  0  0  0  0  0  0  0  0
    6.5658    3.3060    1.6803 H   0  0  0  0  0  0  0  0  0  0  0  0
    6.8107    4.0079   -1.2386 H   0  0  0  0  0  0  0  0  0  0  0  0
    6.1402    2.7921   -2.4173 H   0  0  0  0  0  0  0  0  0  0  0  0
    7.9014    3.2061   -2.4394 H   0  0  0  0  0  0  0  0  0  0  0  0
    4.7320    0.5558   -1.0760 H   0  0  0  0  0  0  0  0  0  0  0  0
    2.5435    0.9670   -0.0484 H   0  0  0  0  0  0  0  0  0  0  0  0
    3.9610   -2.6182    3.6738 H   0  0  0  0  0  0  0  0  0  0  0  0
    1.4640    0.6459    8.9314 H   0  0  0  0  0  0  0  0  0  0  0  0
   -0.5516    3.7007    6.0638 H   0  0  0  0  0  0  0  0  0  0  0  0
    1.1981    4.1510    6.3070 H   0  0  0  0  0  0  0  0  0  0  0  0
   -1.1748    4.8019    8.1519 H   0  0  0  0  0  0  0  0  0  0  0  0
   -0.1466    5.9490    7.2185 H   0  0  0  0  0  0  0  0  0  0  0  0
    0.5569    5.0415    8.6126 H   0  0  0  0  0  0  0  0  0  0  0  0
    3.9752   -3.7677    5.7118 H   0  0  0  0  0  0  0  0  0  0  0  0
  1  2  2  3
  2  3  1  0
  3  4  2  0
  3  5  1  0
  5  6  2  0
  6  7  1  0
  6  8  1  0
  8  9  1  0
  8 10  2  0
 10 11  1  0
 10 12  1  0
 12 13  1  0
 12 14  2  0
 14 15  1  0
 15 16  2  3
 16 17  1  0
 17 18  3  0
 16 19  1  0
 19 20  3  0
  1 21  1  0
 21 22  2  0
 22 23  1  0
 23 24  1  0
 24 25  2  0
 24 26  1  0
 26 27  2  0
 27 28  1  0
 28 29  1  0
 29 30  2  0
 27 31  1  0
 31 32  2  0
 32 33  1  0
 33 34  2  0
 33 35  1  0
 35 36  2  0
 36 37  1  0
 37 38  1  0
 38 39  2  0
 39 40  1  0
 40 41  2  0
 41 42  1  0
 42 43  1  0
 41 44  1  0
 44 45  2  0
 37 46  1  0
 46 47  2  0
 47 48  1  0
 48 49  2  0
 49 50  1  0
 50 51  1  0
 49 52  1  0
 52 53  2  0
 36 54  1  0
 54 55  1  0
 55 56  1  0
 56 57  2  0
 57 58  1  0
 58 59  1  0
 59 60  2  0
 60 61  1  0
 61 62  2  0
 62 63  1  0
 63 64  1  0
 62 65  1  0
 65 66  2  0
 58 67  1  0
 67 68  2  0
 68 69  1  0
 69 70  2  0
 70 71  1  0
 71 72  1  0
 70 73  1  0
 73 74  2  0
 57 75  1  0
 75 76  1  0
 56 77  1  0
 77 78  2  0
 78 79  1  0
 78 80  1  0
 80 81  2  0
 81 82  1  0
 82 83  2  0
 83 84  1  0
 84 85  2  0
 85 86  1  0
 86 87  1  0
 87 88  1  0
 85 89  1  0
 89 90  2  0
 81 91  1  0
 91 92  2  3
 92 93  1  0
 93 94  2  0
 93 95  1  0
 95 96  2  0
 96 97  1  0
 96 98  1  0
 98 99  1  0
 98100  2  0
100101  1  0
100102  1  0
102103  1  0
102104  2  0
104105  1  0
105106  2  3
106107  1  0
107108  3  0
106109  1  0
109110  3  0
 15  2  1  0
 30 21  1  0
 76 35  1  0
 90 77  1  0
105 92  1  0
 14  5  1  0
 28 23  2  0
 45 38  1  0
 53 46  1  0
 75 54  2  0
 90 82  1  0
104 95  1  0
 34 26  1  0
 66 59  1  0
 74 67  1  0
  1111  1  0
 22112  1  0
 29113  1  0
 30114  1  0
 31115  1  0
 32116  1  0
 34117  1  0
 39118  1  0
 40119  1  0
 43120  1  0
 43121  1  0
 43122  1  0
 44123  1  0
 45124  1  0
 47125  1  0
 48126  1  0
 51127  1  0
 51128  1  0
 51129  1  0
 52130  1  0
 53131  1  0
 60132  1  0
 61133  1  0
 64134  1  0
 64135  1  0
 64136  1  0
 65137  1  0
 66138  1  0
 68139  1  0
 69140  1  0
 72141  1  0
 72142  1  0
 72143  1  0
 73144  1  0
 74145  1  0
 80146  1  0
 84147  1  0
 87148  1  0
 87149  1  0
 88150  1  0
 88151  1  0
 88152  1  0
 91153  1  0
M  END

