
     RDKit          3D

241262  0  0  0  0  0  0  0  0999 V2000
    3.2828    2.3362   -6.6749 C   0  0  0  0  0  0  0  0  0  0  0  0
    4.2728    3.0920   -6.1684 C   0  0  0  0  0  0  0  0  0  0  0  0
    4.6636    3.1899   -4.7476 C   0  0  0  0  0  0  0  0  0  0  0  0
    4.1312    2.5753   -3.7870 O   0  0  0  0  0  0  0  0  0  0  0  0
    5.6468    4.2533   -4.6106 C   0  0  0  0  0  0  0  0  0  0  0  0
    6.2332    4.7597   -3.4434 C   0  0  0  0  0  0  0  0  0  0  0  0
    5.9690    3.9769   -1.8872 Cl  0  0  0  0  0  0  0  0  0  0  0  0
    7.0178    5.9199   -3.5399 C   0  0  0  0  0  0  0  0  0  0  0  0
    7.7891    6.5711   -2.0942 Cl  0  0  0  0  0  0  0  0  0  0  0  0
    7.1358    6.5983   -4.7748 C   0  0  0  0  0  0  0  0  0  0  0  0
    8.0212    8.1210   -4.8577 Cl  0  0  0  0  0  0  0  0  0  0  0  0
    6.5051    6.0888   -5.9299 C   0  0  0  0  0  0  0  0  0  0  0  0
    6.3870    7.0894   -7.3764 Cl  0  0  0  0  0  0  0  0  0  0  0  0
    5.8489    4.8413   -5.8477 C   0  0  0  0  0  0  0  0  0  0  0  0
    5.1181    4.0805   -6.9019 C   0  0  0  0  0  0  0  0  0  0  0  0
    5.5415    3.9358   -8.1846 C   0  0  0  0  0  0  0  0  0  0  0  0
    6.8622    4.3323   -8.5919 C   0  0  0  0  0  0  0  0  0  0  0  0
    7.9282    4.6382   -8.9250 N   0  0  0  0  0  0  0  0  0  0  0  0
    4.7652    3.2429   -9.1782 C   0  0  0  0  0  0  0  0  0  0  0  0
    4.1268    2.7148   -9.9909 N   0  0  0  0  0  0  0  0  0  0  0  0
    2.6473    1.2357   -5.9442 C   0  0  0  0  0  0  0  0  0  0  0  0
    1.2694    0.9610   -5.9082 C   0  0  0  0  0  0  0  0  0  0  0  0
    0.2777    1.6575   -6.6863 N   0  0  0  0  0  0  0  0  0  0  0  0
   -0.3465    2.8197   -6.1140 C   0  0  0  0  0  0  0  0  0  0  0  0
    0.2832    4.0711   -6.1879 C   0  0  0  0  0  0  0  0  0  0  0  0
   -0.3687    5.2156   -5.7167 C   0  0  0  0  0  0  0  0  0  0  0  0
   -1.6606    5.1244   -5.1855 C   0  0  0  0  0  0  0  0  0  0  0  0
   -2.3592    6.3512   -4.6789 C   0  0  0  0  0  0  0  0  0  0  0  0
   -2.2750    3.8679   -5.0788 C   0  0  0  0  0  0  0  0  0  0  0  0
   -1.6231    2.7211   -5.5483 C   0  0  0  0  0  0  0  0  0  0  0  0
    0.0817    1.3112   -8.0855 C   0  0  0  0  0  0  0  0  0  0  0  0
   -0.6877    2.1334   -8.9391 C   0  0  0  0  0  0  0  0  0  0  0  0
   -0.8111    1.8352  -10.3001 C   0  0  0  0  0  0  0  0  0  0  0  0
   -0.1780    0.7090  -10.8401 C   0  0  0  0  0  0  0  0  0  0  0  0
   -0.3141    0.3999  -12.3013 C   0  0  0  0  0  0  0  0  0  0  0  0
    0.5370   -0.1482   -9.9907 C   0  0  0  0  0  0  0  0  0  0  0  0
    0.6708    0.1496   -8.6320 C   0  0  0  0  0  0  0  0  0  0  0  0
    1.0042   -0.1641   -5.1307 C   0  0  0  0  0  0  0  0  0  0  0  0
   -0.3761   -0.8849   -4.5122 S   0  0  0  0  0  0  0  0  0  0  0  0
    0.4626   -1.9953   -3.5049 C   0  0  0  0  0  0  0  0  0  0  0  0
    1.8489   -1.8010   -3.7098 C   0  0  0  0  0  0  0  0  0  0  0  0
    2.8931   -2.5209   -3.0302 N   0  0  0  0  0  0  0  0  0  0  0  0
    3.0370   -3.9358   -3.2793 C   0  0  0  0  0  0  0  0  0  0  0  0
    3.2887   -4.8188   -2.2191 C   0  0  0  0  0  0  0  0  0  0  0  0
    3.3740   -6.1974   -2.4595 C   0  0  0  0  0  0  0  0  0  0  0  0
    3.2549   -6.6976   -3.7645 C   0  0  0  0  0  0  0  0  0  0  0  0
    3.3155   -8.1781   -4.0120 C   0  0  0  0  0  0  0  0  0  0  0  0
    2.9920   -5.8150   -4.8221 C   0  0  0  0  0  0  0  0  0  0  0  0
    2.8773   -4.4425   -4.5817 C   0  0  0  0  0  0  0  0  0  0  0  0
    3.9098   -1.7827   -2.3133 C   0  0  0  0  0  0  0  0  0  0  0  0
    5.2679   -2.1257   -2.4430 C   0  0  0  0  0  0  0  0  0  0  0  0
    6.2539   -1.3387   -1.8475 C   0  0  0  0  0  0  0  0  0  0  0  0
    5.9067   -0.1965   -1.1133 C   0  0  0  0  0  0  0  0  0  0  0  0
    6.9733    0.6742   -0.5296 C   0  0  0  0  0  0  0  0  0  0  0  0
    4.5500    0.1467   -0.9759 C   0  0  0  0  0  0  0  0  0  0  0  0
    3.5635   -0.6428   -1.5644 C   0  0  0  0  0  0  0  0  0  0  0  0
    2.0945   -0.7643   -4.5983 C   0  0  0  0  0  0  0  0  0  0  0  0
    3.4841    0.0338   -5.0714 S   0  0  0  0  0  0  0  0  0  0  0  0
   -0.1364   -2.5731   -2.2769 C   0  0  0  0  0  0  0  0  0  0  0  0
   -1.4383   -2.2723   -1.8339 C   0  0  0  0  0  0  0  0  0  0  0  0
   -2.5995   -2.4290   -2.6678 N   0  0  0  0  0  0  0  0  0  0  0  0
   -3.0463   -3.7924   -2.8184 C   0  0  0  0  0  0  0  0  0  0  0  0
   -4.2310   -4.2207   -2.1990 C   0  0  0  0  0  0  0  0  0  0  0  0
   -4.5700   -5.5788   -2.1926 C   0  0  0  0  0  0  0  0  0  0  0  0
   -3.7118   -6.5208   -2.7706 C   0  0  0  0  0  0  0  0  0  0  0  0
   -4.1065   -8.2662   -2.6734 S   0  0  0  0  0  0  0  0  0  0  0  0
   -4.9730   -8.2941   -4.2738 C   0  0  0  0  0  0  0  0  0  0  0  0
   -2.5347   -6.0982   -3.3956 C   0  0  0  0  0  0  0  0  0  0  0  0
   -2.2099   -4.7393   -3.4337 C   0  0  0  0  0  0  0  0  0  0  0  0
   -3.4317   -1.2997   -3.0434 C   0  0  0  0  0  0  0  0  0  0  0  0
   -3.0630    0.0181   -2.7038 C   0  0  0  0  0  0  0  0  0  0  0  0
   -3.7991    1.1050   -3.1746 C   0  0  0  0  0  0  0  0  0  0  0  0
   -4.9318    0.9026   -3.9692 C   0  0  0  0  0  0  0  0  0  0  0  0
   -5.8206    2.2949   -4.6715 S   0  0  0  0  0  0  0  0  0  0  0  0
   -5.1634    2.0759   -6.3610 C   0  0  0  0  0  0  0  0  0  0  0  0
   -5.3474   -0.3975   -4.2615 C   0  0  0  0  0  0  0  0  0  0  0  0
   -4.5880   -1.4873   -3.8315 C   0  0  0  0  0  0  0  0  0  0  0  0
   -1.5427   -2.3716   -0.4492 C   0  0  0  0  0  0  0  0  0  0  0  0
   -2.5044   -1.5100    0.6197 S   0  0  0  0  0  0  0  0  0  0  0  0
   -1.4705   -1.7330    1.9597 C   0  0  0  0  0  0  0  0  0  0  0  0
   -0.3821   -2.5274    1.5620 C   0  0  0  0  0  0  0  0  0  0  0  0
    0.5860   -3.0740    2.4785 N   0  0  0  0  0  0  0  0  0  0  0  0
    0.1297   -3.6349    3.7287 C   0  0  0  0  0  0  0  0  0  0  0  0
   -1.0787   -4.3568    3.7890 C   0  0  0  0  0  0  0  0  0  0  0  0
   -1.5350   -4.8701    5.0027 C   0  0  0  0  0  0  0  0  0  0  0  0
   -0.7928   -4.6690    6.1710 C   0  0  0  0  0  0  0  0  0  0  0  0
   -1.3842   -5.3399    7.7283 S   0  0  0  0  0  0  0  0  0  0  0  0
   -2.3143   -3.8399    8.1715 C   0  0  0  0  0  0  0  0  0  0  0  0
    0.4167   -3.9682    6.1175 C   0  0  0  0  0  0  0  0  0  0  0  0
    0.8775   -3.4558    4.9046 C   0  0  0  0  0  0  0  0  0  0  0  0
    1.9681   -3.2003    2.1078 C   0  0  0  0  0  0  0  0  0  0  0  0
    2.5845   -4.4618    2.0975 C   0  0  0  0  0  0  0  0  0  0  0  0
    3.9425   -4.5807    1.7833 C   0  0  0  0  0  0  0  0  0  0  0  0
    4.6991   -3.4396    1.5019 C   0  0  0  0  0  0  0  0  0  0  0  0
    6.4384   -3.5844    1.0886 S   0  0  0  0  0  0  0  0  0  0  0  0
    6.9777   -3.7651    2.8196 C   0  0  0  0  0  0  0  0  0  0  0  0
    4.0917   -2.1778    1.5273 C   0  0  0  0  0  0  0  0  0  0  0  0
    2.7246   -2.0610    1.7996 C   0  0  0  0  0  0  0  0  0  0  0  0
   -0.4285   -2.8004    0.1992 C   0  0  0  0  0  0  0  0  0  0  0  0
    0.7873   -3.0178   -0.9173 S   0  0  0  0  0  0  0  0  0  0  0  0
   -1.3540   -0.7768    3.0717 C   0  0  0  0  0  0  0  0  0  0  0  0
   -2.3798   -0.1536    3.8031 C   0  0  0  0  0  0  0  0  0  0  0  0
   -3.7789   -0.3038    3.5309 N   0  0  0  0  0  0  0  0  0  0  0  0
   -4.4267    0.4318    2.4566 C   0  0  0  0  0  0  0  0  0  0  0  0
   -3.7157    1.3936    1.7077 C   0  0  0  0  0  0  0  0  0  0  0  0
   -4.3139    2.0434    0.6200 C   0  0  0  0  0  0  0  0  0  0  0  0
   -5.6378    1.7526    0.2669 C   0  0  0  0  0  0  0  0  0  0  0  0
   -6.2937    2.4755   -0.8724 C   0  0  0  0  0  0  0  0  0  0  0  0
   -6.3634    0.8195    1.0210 C   0  0  0  0  0  0  0  0  0  0  0  0
   -5.7621    0.1593    2.0990 C   0  0  0  0  0  0  0  0  0  0  0  0
   -4.4933   -1.2192    4.3716 C   0  0  0  0  0  0  0  0  0  0  0  0
   -5.2738   -0.7413    5.4308 C   0  0  0  0  0  0  0  0  0  0  0  0
   -5.9127   -1.6381    6.2918 C   0  0  0  0  0  0  0  0  0  0  0  0
   -5.7911   -3.0231    6.0857 C   0  0  0  0  0  0  0  0  0  0  0  0
   -6.4232   -3.9947    7.0414 C   0  0  0  0  0  0  0  0  0  0  0  0
   -5.0142   -3.4972    5.0175 C   0  0  0  0  0  0  0  0  0  0  0  0
   -4.3740   -2.5992    4.1594 C   0  0  0  0  0  0  0  0  0  0  0  0
   -1.8648    0.8028    4.6824 C   0  0  0  0  0  0  0  0  0  0  0  0
   -2.5454    1.9931    5.6523 S   0  0  0  0  0  0  0  0  0  0  0  0
   -1.0522    2.7443    5.9865 C   0  0  0  0  0  0  0  0  0  0  0  0
   -0.0262    2.1133    5.2580 C   0  0  0  0  0  0  0  0  0  0  0  0
    1.1688    2.7964    4.8204 N   0  0  0  0  0  0  0  0  0  0  0  0
    2.4112    2.0796    4.6271 C   0  0  0  0  0  0  0  0  0  0  0  0
    2.8329    1.1002    5.5446 C   0  0  0  0  0  0  0  0  0  0  0  0
    4.0525    0.4382    5.3615 C   0  0  0  0  0  0  0  0  0  0  0  0
    4.8722    0.7472    4.2685 C   0  0  0  0  0  0  0  0  0  0  0  0
    6.1810    0.0410    4.0678 C   0  0  0  0  0  0  0  0  0  0  0  0
    4.4317    1.6799    3.3206 C   0  0  0  0  0  0  0  0  0  0  0  0
    3.2157    2.3416    3.4979 C   0  0  0  0  0  0  0  0  0  0  0  0
    1.0175    4.1058    4.2351 C   0  0  0  0  0  0  0  0  0  0  0  0
    0.0398    4.3251    3.2471 C   0  0  0  0  0  0  0  0  0  0  0  0
   -0.0603    5.5647    2.6142 C   0  0  0  0  0  0  0  0  0  0  0  0
    0.8167    6.6059    2.9563 C   0  0  0  0  0  0  0  0  0  0  0  0
    0.7056    7.9405    2.2800 C   0  0  0  0  0  0  0  0  0  0  0  0
    1.7677    6.4024    3.9716 C   0  0  0  0  0  0  0  0  0  0  0  0
    1.8750    5.1579    4.6008 C   0  0  0  0  0  0  0  0  0  0  0  0
   -0.5204    0.9912    4.6061 C   0  0  0  0  0  0  0  0  0  0  0  0
    0.1255   -0.0374    3.4644 S   0  0  0  0  0  0  0  0  0  0  0  0
   -0.8967    4.0021    6.7371 C   0  0  0  0  0  0  0  0  0  0  0  0
    0.0986    4.1939    7.6303 C   0  0  0  0  0  0  0  0  0  0  0  0
    0.9029    3.1152    8.2377 C   0  0  0  0  0  0  0  0  0  0  0  0
    0.7099    1.8759    8.1173 O   0  0  0  0  0  0  0  0  0  0  0  0
    1.8253    3.7160    9.1662 C   0  0  0  0  0  0  0  0  0  0  0  0
    2.7714    3.1924   10.0284 C   0  0  0  0  0  0  0  0  0  0  0  0
    3.3807    4.5278   10.8647 S   0  0  0  0  0  0  0  0  0  0  0  0
    2.4426    5.7333   10.1304 C   0  0  0  0  0  0  0  0  0  0  0  0
    1.6328    5.0736    9.2093 C   0  0  0  0  0  0  0  0  0  0  0  0
    0.5589    5.4795    8.2654 C   0  0  0  0  0  0  0  0  0  0  0  0
    0.1911    6.7528    7.9776 C   0  0  0  0  0  0  0  0  0  0  0  0
   -0.7833    7.0893    6.9805 C   0  0  0  0  0  0  0  0  0  0  0  0
   -1.5781    7.3964    6.1904 N   0  0  0  0  0  0  0  0  0  0  0  0
    0.7964    7.8820    8.6355 C   0  0  0  0  0  0  0  0  0  0  0  0
    1.2815    8.7980    9.1552 N   0  0  0  0  0  0  0  0  0  0  0  0
    2.8937    2.5459   -7.6562 H   0  0  0  0  0  0  0  0  0  0  0  0
    1.2643    4.1648   -6.6304 H   0  0  0  0  0  0  0  0  0  0  0  0
    0.1362    6.1716   -5.7695 H   0  0  0  0  0  0  0  0  0  0  0  0
   -2.0602    7.2453   -5.2711 H   0  0  0  0  0  0  0  0  0  0  0  0
   -3.4628    6.2447   -4.7668 H   0  0  0  0  0  0  0  0  0  0  0  0
   -2.0899    6.5188   -3.6156 H   0  0  0  0  0  0  0  0  0  0  0  0
   -3.2598    3.7840   -4.6486 H   0  0  0  0  0  0  0  0  0  0  0  0
   -2.1125    1.7577   -5.4858 H   0  0  0  0  0  0  0  0  0  0  0  0
   -1.1925    3.0117   -8.5587 H   0  0  0  0  0  0  0  0  0  0  0  0
   -1.4123    2.4811  -10.9296 H   0  0  0  0  0  0  0  0  0  0  0  0
   -1.3376    0.0297  -12.5246 H   0  0  0  0  0  0  0  0  0  0  0  0
   -0.1205    1.3159  -12.9006 H   0  0  0  0  0  0  0  0  0  0  0  0
    0.4184   -0.3743  -12.6188 H   0  0  0  0  0  0  0  0  0  0  0  0
    1.0026   -1.0412  -10.3813 H   0  0  0  0  0  0  0  0  0  0  0  0
    1.2489   -0.5246   -8.0189 H   0  0  0  0  0  0  0  0  0  0  0  0
    3.4126   -4.4461   -1.2100 H   0  0  0  0  0  0  0  0  0  0  0  0
    3.5522   -6.8717   -1.6297 H   0  0  0  0  0  0  0  0  0  0  0  0
    3.6401   -8.3905   -5.0545 H   0  0  0  0  0  0  0  0  0  0  0  0
    2.3099   -8.6187   -3.8465 H   0  0  0  0  0  0  0  0  0  0  0  0
    4.0419   -8.6594   -3.3219 H   0  0  0  0  0  0  0  0  0  0  0  0
    2.8937   -6.1860   -5.8350 H   0  0  0  0  0  0  0  0  0  0  0  0
    2.6952   -3.7708   -5.4119 H   0  0  0  0  0  0  0  0  0  0  0  0
    5.5628   -2.9895   -3.0236 H   0  0  0  0  0  0  0  0  0  0  0  0
    7.2985   -1.6065   -1.9737 H   0  0  0  0  0  0  0  0  0  0  0  0
    6.5709    1.3475    0.2579 H   0  0  0  0  0  0  0  0  0  0  0  0
    7.7783    0.0556   -0.0806 H   0  0  0  0  0  0  0  0  0  0  0  0
    7.4137    1.2939   -1.3376 H   0  0  0  0  0  0  0  0  0  0  0  0
    4.2625    1.0205   -0.4030 H   0  0  0  0  0  0  0  0  0  0  0  0
    2.5212   -0.3711   -1.4290 H   0  0  0  0  0  0  0  0  0  0  0  0
   -4.8707   -3.5075   -1.6953 H   0  0  0  0  0  0  0  0  0  0  0  0
   -5.4859   -5.8986   -1.7167 H   0  0  0  0  0  0  0  0  0  0  0  0
   -4.2334   -8.1989   -5.0956 H   0  0  0  0  0  0  0  0  0  0  0  0
   -5.5055   -9.2621   -4.3754 H   0  0  0  0  0  0  0  0  0  0  0  0
   -5.7102   -7.4698   -4.3351 H   0  0  0  0  0  0  0  0  0  0  0  0
   -1.8683   -6.8222   -3.8462 H   0  0  0  0  0  0  0  0  0  0  0  0
   -1.2936   -4.4290   -3.9264 H   0  0  0  0  0  0  0  0  0  0  0  0
   -2.1867    0.2132   -2.1004 H   0  0  0  0  0  0  0  0  0  0  0  0
   -3.4803    2.1084   -2.9239 H   0  0  0  0  0  0  0  0  0  0  0  0
   -6.0090    1.8704   -7.0502 H   0  0  0  0  0  0  0  0  0  0  0  0
   -4.4501    1.2288   -6.4427 H   0  0  0  0  0  0  0  0  0  0  0  0
   -4.6492    2.9970   -6.6902 H   0  0  0  0  0  0  0  0  0  0  0  0
   -6.2216   -0.5598   -4.8771 H   0  0  0  0  0  0  0  0  0  0  0  0
   -4.8914   -2.4743   -4.1547 H   0  0  0  0  0  0  0  0  0  0  0  0
   -1.6658   -4.5258    2.8964 H   0  0  0  0  0  0  0  0  0  0  0  0
   -2.4649   -5.4255    5.0379 H   0  0  0  0  0  0  0  0  0  0  0  0
   -3.0002   -3.5537    7.3462 H   0  0  0  0  0  0  0  0  0  0  0  0
   -1.6079   -3.0096    8.3758 H   0  0  0  0  0  0  0  0  0  0  0  0
   -2.9125   -4.0427    9.0849 H   0  0  0  0  0  0  0  0  0  0  0  0
    0.9955   -3.8228    7.0223 H   0  0  0  0  0  0  0  0  0  0  0  0
    1.8093   -2.9058    4.8797 H   0  0  0  0  0  0  0  0  0  0  0  0
    2.0152   -5.3504    2.3300 H   0  0  0  0  0  0  0  0  0  0  0  0
    4.4113   -5.5577    1.7735 H   0  0  0  0  0  0  0  0  0  0  0  0
    6.6936   -4.7686    3.1939 H   0  0  0  0  0  0  0  0  0  0  0  0
    8.0771   -3.6491    2.8777 H   0  0  0  0  0  0  0  0  0  0  0  0
    6.4969   -2.9977    3.4614 H   0  0  0  0  0  0  0  0  0  0  0  0
    4.6751   -1.2900    1.3305 H   0  0  0  0  0  0  0  0  0  0  0  0
    2.2653   -1.0826    1.7940 H   0  0  0  0  0  0  0  0  0  0  0  0
   -2.6890    1.6381    1.9436 H   0  0  0  0  0  0  0  0  0  0  0  0
   -3.7384    2.7584    0.0458 H   0  0  0  0  0  0  0  0  0  0  0  0
   -6.7960    3.3930   -0.4945 H   0  0  0  0  0  0  0  0  0  0  0  0
   -7.0454    1.8261   -1.3699 H   0  0  0  0  0  0  0  0  0  0  0  0
   -5.5425    2.7744   -1.6308 H   0  0  0  0  0  0  0  0  0  0  0  0
   -7.3921    0.5996    0.7741 H   0  0  0  0  0  0  0  0  0  0  0  0
   -6.3483   -0.5638    2.6480 H   0  0  0  0  0  0  0  0  0  0  0  0
   -5.3673    0.3256    5.5975 H   0  0  0  0  0  0  0  0  0  0  0  0
   -6.5003   -1.2563    7.1148 H   0  0  0  0  0  0  0  0  0  0  0  0
   -7.2410   -3.5173    7.6206 H   0  0  0  0  0  0  0  0  0  0  0  0
   -5.6488   -4.3680    7.7484 H   0  0  0  0  0  0  0  0  0  0  0  0
   -6.8466   -4.8581    6.4864 H   0  0  0  0  0  0  0  0  0  0  0  0
   -4.8984   -4.5622    4.8556 H   0  0  0  0  0  0  0  0  0  0  0  0
   -3.7721   -2.9720    3.3435 H   0  0  0  0  0  0  0  0  0  0  0  0
    2.2281    0.8585    6.4027 H   0  0  0  0  0  0  0  0  0  0  0  0
    4.3596   -0.3073    6.0817 H   0  0  0  0  0  0  0  0  0  0  0  0
    6.5498   -0.4081    5.0123 H   0  0  0  0  0  0  0  0  0  0  0  0
    6.0410   -0.7538    3.3127 H   0  0  0  0  0  0  0  0  0  0  0  0
    6.9488    0.7461    3.6938 H   0  0  0  0  0  0  0  0  0  0  0  0
    5.0370    1.8947    2.4445 H   0  0  0  0  0  0  0  0  0  0  0  0
    2.8946    3.0460    2.7355 H   0  0  0  0  0  0  0  0  0  0  0  0
   -0.6190    3.5225    2.9432 H   0  0  0  0  0  0  0  0  0  0  0  0
   -0.8072    5.7091    1.8449 H   0  0  0  0  0  0  0  0  0  0  0  0
    1.7088    8.3959    2.1479 H   0  0  0  0  0  0  0  0  0  0  0  0
    0.0666    8.6167    2.8894 H   0  0  0  0  0  0  0  0  0  0  0  0
    0.2476    7.8334    1.2683 H   0  0  0  0  0  0  0  0  0  0  0  0
    2.4278    7.2067    4.2661 H   0  0  0  0  0  0  0  0  0  0  0  0
    2.6231    5.0042    5.3674 H   0  0  0  0  0  0  0  0  0  0  0  0
   -1.6013    4.7844    6.5122 H   0  0  0  0  0  0  0  0  0  0  0  0
    3.0496    2.1550   10.1530 H   0  0  0  0  0  0  0  0  0  0  0  0
    2.4674    6.7828   10.3688 H   0  0  0  0  0  0  0  0  0  0  0  0
  1  2  2  3
  2  3  1  0
  3  4  2  0
  3  5  1  0
  5  6  2  0
  6  7  1  0
  6  8  1  0
  8  9  1  0
  8 10  2  0
 10 11  1  0
 10 12  1  0
 12 13  1  0
 12 14  2  0
 14 15  1  0
 15 16  2  3
 16 17  1  0
 17 18  3  0
 16 19  1  0
 19 20  3  0
  1 21  1  0
 21 22  2  0
 22 23  1  0
 23 24  1  0
 24 25  2  0
 25 26  1  0
 26 27  2  0
 27 28  1  0
 27 29  1  0
 29 30  2  0
 23 31  1  0
 31 32  2  0
 32 33  1  0
 33 34  2  0
 34 35  1  0
 34 36  1  0
 36 37  2  0
 22 38  1  0
 38 39  1  0
 39 40  1  0
 40 41  2  0
 41 42  1  0
 42 43  1  0
 43 44  2  0
 44 45  1  0
 45 46  2  0
 46 47  1  0
 46 48  1  0
 48 49  2  0
 42 50  1  0
 50 51  2  0
 51 52  1  0
 52 53  2  0
 53 54  1  0
 53 55  1  0
 55 56  2  0
 41 57  1  0
 57 58  1  0
 40 59  1  0
 59 60  2  0
 60 61  1  0
 61 62  1  0
 62 63  2  0
 63 64  1  0
 64 65  2  0
 65 66  1  0
 66 67  1  0
 65 68  1  0
 68 69  2  0
 61 70  1  0
 70 71  2  0
 71 72  1  0
 72 73  2  0
 73 74  1  0
 74 75  1  0
 73 76  1  0
 76 77  2  0
 60 78  1  0
 78 79  1  0
 79 80  1  0
 80 81  2  0
 81 82  1  0
 82 83  1  0
 83 84  2  0
 84 85  1  0
 85 86  2  0
 86 87  1  0
 87 88  1  0
 86 89  1  0
 89 90  2  0
 82 91  1  0
 91 92  2  0
 92 93  1  0
 93 94  2  0
 94 95  1  0
 95 96  1  0
 94 97  1  0
 97 98  2  0
 81 99  1  0
 99100  1  0
 80101  1  0
101102  2  0
102103  1  0
103104  1  0
104105  2  0
105106  1  0
106107  2  0
107108  1  0
107109  1  0
109110  2  0
103111  1  0
111112  2  0
112113  1  0
113114  2  0
114115  1  0
114116  1  0
116117  2  0
102118  1  0
118119  1  0
119120  1  0
120121  2  0
121122  1  0
122123  1  0
123124  2  0
124125  1  0
125126  2  0
126127  1  0
126128  1  0
128129  2  0
122130  1  0
130131  2  0
131132  1  0
132133  2  0
133134  1  0
133135  1  0
135136  2  0
121137  1  0
137138  1  0
120139  1  0
139140  2  3
140141  1  0
141142  2  0
141143  1  0
143144  2  0
144145  1  0
145146  1  0
146147  2  0
147148  1  0
148149  2  3
149150  1  0
150151  3  0
149152  1  0
152153  3  0
 15  2  1  0
 58 21  1  0
100 59  1  0
138101  1  0
148140  1  0
 14  5  1  0
 30 24  1  0
 37 31  1  0
 57 38  2  0
 69 62  1  0
 77 70  1  0
 99 78  2  0
110104  1  0
117111  1  0
137118  2  0
147143  1  0
 49 43  1  0
 56 50  1  0
 90 83  1  0
 98 91  1  0
129123  1  0
136130  1  0
  1154  1  0
 25155  1  0
 26156  1  0
 28157  1  0
 28158  1  0
 28159  1  0
 29160  1  0
 30161  1  0
 32162  1  0
 33163  1  0
 35164  1  0
 35165  1  0
 35166  1  0
 36167  1  0
 37168  1  0
 44169  1  0
 45170  1  0
 47171  1  0
 47172  1  0
 47173  1  0
 48174  1  0
 49175  1  0
 51176  1  0
 52177  1  0
 54178  1  0
 54179  1  0
 54180  1  0
 55181  1  0
 56182  1  0
 63183  1  0
 64184  1  0
 67185  1  0
 67186  1  0
 67187  1  0
 68188  1  0
 69189  1  0
 71190  1  0
 72191  1  0
 75192  1  0
 75193  1  0
 75194  1  0
 76195  1  0
 77196  1  0
 84197  1  0
 85198  1  0
 88199  1  0
 88200  1  0
 88201  1  0
 89202  1  0
 90203  1  0
 92204  1  0
 93205  1  0
 96206  1  0
 96207  1  0
 96208  1  0
 97209  1  0
 98210  1  0
105211  1  0
106212  1  0
108213  1  0
108214  1  0
108215  1  0
109216  1  0
110217  1  0
112218  1  0
113219  1  0
115220  1  0
115221  1  0
115222  1  0
116223  1  0
117224  1  0
124225  1  0
125226  1  0
127227  1  0
127228  1  0
127229  1  0
128230  1  0
129231  1  0
131232  1  0
132233  1  0
134234  1  0
134235  1  0
134236  1  0
135237  1  0
136238  1  0
139239  1  0
144240  1  0
146241  1  0
M  END

