
     RDKit          3D

226245  0  0  0  0  0  0  0  0999 V2000
   -2.7421   -8.5672   -1.6757 C   0  0  0  0  0  0  0  0  0  0  0  0
   -3.2070   -8.9177   -2.8867 C   0  0  0  0  0  0  0  0  0  0  0  0
   -2.9867   -8.1891   -4.1412 C   0  0  0  0  0  0  0  0  0  0  0  0
   -2.4009   -7.0793   -4.2613 O   0  0  0  0  0  0  0  0  0  0  0  0
   -3.4242   -9.0282   -5.2491 C   0  0  0  0  0  0  0  0  0  0  0  0
   -3.2905   -8.8052   -6.6255 C   0  0  0  0  0  0  0  0  0  0  0  0
   -2.7121   -7.2528   -7.2322 Cl  0  0  0  0  0  0  0  0  0  0  0  0
   -3.6144   -9.8559   -7.5106 C   0  0  0  0  0  0  0  0  0  0  0  0
   -3.4797   -9.6031   -9.2510 Cl  0  0  0  0  0  0  0  0  0  0  0  0
   -3.9946  -11.1208   -7.0022 C   0  0  0  0  0  0  0  0  0  0  0  0
   -4.3132  -12.4516   -8.1178 Cl  0  0  0  0  0  0  0  0  0  0  0  0
   -4.0869  -11.3282   -5.6107 C   0  0  0  0  0  0  0  0  0  0  0  0
   -4.2200  -12.9765   -4.9927 Cl  0  0  0  0  0  0  0  0  0  0  0  0
   -3.8960  -10.2274   -4.7445 C   0  0  0  0  0  0  0  0  0  0  0  0
   -3.9231  -10.1743   -3.2555 C   0  0  0  0  0  0  0  0  0  0  0  0
   -4.8241  -10.8171   -2.4652 C   0  0  0  0  0  0  0  0  0  0  0  0
   -5.9730  -11.4792   -3.0248 C   0  0  0  0  0  0  0  0  0  0  0  0
   -6.9083  -12.0005   -3.4674 N   0  0  0  0  0  0  0  0  0  0  0  0
   -4.8253  -10.7067   -1.0329 C   0  0  0  0  0  0  0  0  0  0  0  0
   -4.8386  -10.6152    0.1260 N   0  0  0  0  0  0  0  0  0  0  0  0
   -2.1601   -7.2512   -1.3641 C   0  0  0  0  0  0  0  0  0  0  0  0
   -2.8044   -5.9943   -1.4388 C   0  0  0  0  0  0  0  0  0  0  0  0
   -4.1439   -5.7601   -1.9266 N   0  0  0  0  0  0  0  0  0  0  0  0
   -5.2133   -6.6616   -1.5851 C   0  0  0  0  0  0  0  0  0  0  0  0
   -5.3937   -7.0743   -0.2562 C   0  0  0  0  0  0  0  0  0  0  0  0
   -6.4605   -7.9168    0.0798 C   0  0  0  0  0  0  0  0  0  0  0  0
   -7.3364   -8.3816   -0.9123 C   0  0  0  0  0  0  0  0  0  0  0  0
   -8.4667   -9.2975   -0.5531 C   0  0  0  0  0  0  0  0  0  0  0  0
   -7.1715   -7.9502   -2.2388 C   0  0  0  0  0  0  0  0  0  0  0  0
   -6.1133   -7.0945   -2.5735 C   0  0  0  0  0  0  0  0  0  0  0  0
   -4.4557   -4.5437   -2.6390 C   0  0  0  0  0  0  0  0  0  0  0  0
   -3.6108   -4.0800   -3.6657 C   0  0  0  0  0  0  0  0  0  0  0  0
   -3.9107   -2.8980   -4.3475 C   0  0  0  0  0  0  0  0  0  0  0  0
   -5.0420   -2.1446   -3.9987 C   0  0  0  0  0  0  0  0  0  0  0  0
   -5.2975   -0.8222   -4.6524 C   0  0  0  0  0  0  0  0  0  0  0  0
   -5.8785   -2.5961   -2.9657 C   0  0  0  0  0  0  0  0  0  0  0  0
   -5.5957   -3.7925   -2.3019 C   0  0  0  0  0  0  0  0  0  0  0  0
   -1.9953   -4.9976   -0.8911 C   0  0  0  0  0  0  0  0  0  0  0  0
   -2.1666   -3.3498   -0.6289 S   0  0  0  0  0  0  0  0  0  0  0  0
   -0.6396   -3.1686    0.1032 C   0  0  0  0  0  0  0  0  0  0  0  0
    0.0025   -4.4200    0.1542 C   0  0  0  0  0  0  0  0  0  0  0  0
    1.3982   -4.6111    0.4483 N   0  0  0  0  0  0  0  0  0  0  0  0
    2.3142   -4.5939   -0.6671 C   0  0  0  0  0  0  0  0  0  0  0  0
    3.1672   -5.6861   -0.9042 C   0  0  0  0  0  0  0  0  0  0  0  0
    4.0154   -5.6962   -2.0115 C   0  0  0  0  0  0  0  0  0  0  0  0
    4.0368   -4.6089   -2.8984 C   0  0  0  0  0  0  0  0  0  0  0  0
    4.8977   -4.6477   -4.1221 C   0  0  0  0  0  0  0  0  0  0  0  0
    3.1844   -3.5198   -2.6686 C   0  0  0  0  0  0  0  0  0  0  0  0
    2.3311   -3.5102   -1.5610 C   0  0  0  0  0  0  0  0  0  0  0  0
    1.8498   -5.0589    1.7485 C   0  0  0  0  0  0  0  0  0  0  0  0
    1.0261   -5.8374    2.5808 C   0  0  0  0  0  0  0  0  0  0  0  0
    1.5358   -6.3990    3.7579 C   0  0  0  0  0  0  0  0  0  0  0  0
    2.8732   -6.1815    4.1243 C   0  0  0  0  0  0  0  0  0  0  0  0
    3.4619   -6.8460    5.3296 C   0  0  0  0  0  0  0  0  0  0  0  0
    3.6730   -5.3380    3.3432 C   0  0  0  0  0  0  0  0  0  0  0  0
    3.1647   -4.7769    2.1708 C   0  0  0  0  0  0  0  0  0  0  0  0
   -0.7939   -5.4122   -0.4163 C   0  0  0  0  0  0  0  0  0  0  0  0
   -0.6332   -7.0650   -0.6250 S   0  0  0  0  0  0  0  0  0  0  0  0
   -0.1037   -1.8927    0.6080 C   0  0  0  0  0  0  0  0  0  0  0  0
   -0.3994   -0.6069    0.1246 C   0  0  0  0  0  0  0  0  0  0  0  0
   -1.0926   -0.3209   -1.0999 N   0  0  0  0  0  0  0  0  0  0  0  0
   -2.3737    0.3476   -1.0291 C   0  0  0  0  0  0  0  0  0  0  0  0
   -3.3184   -0.0255   -0.0552 C   0  0  0  0  0  0  0  0  0  0  0  0
   -4.5615    0.6100    0.0021 C   0  0  0  0  0  0  0  0  0  0  0  0
   -4.8732    1.6265   -0.9046 C   0  0  0  0  0  0  0  0  0  0  0  0
   -6.4736    2.4278   -0.8368 S   0  0  0  0  0  0  0  0  0  0  0  0
   -7.2168    1.3152   -2.0703 C   0  0  0  0  0  0  0  0  0  0  0  0
   -3.9279    2.0340   -1.8514 C   0  0  0  0  0  0  0  0  0  0  0  0
   -2.6870    1.3956   -1.9155 C   0  0  0  0  0  0  0  0  0  0  0  0
   -0.4084   -0.4779   -2.3651 C   0  0  0  0  0  0  0  0  0  0  0  0
    0.9666   -0.1903   -2.4995 C   0  0  0  0  0  0  0  0  0  0  0  0
    1.5785   -0.2261   -3.7585 C   0  0  0  0  0  0  0  0  0  0  0  0
    0.8383   -0.5774   -4.8945 C   0  0  0  0  0  0  0  0  0  0  0  0
    1.6033   -0.5592   -6.5206 S   0  0  0  0  0  0  0  0  0  0  0  0
    2.2269   -2.2624   -6.3923 C   0  0  0  0  0  0  0  0  0  0  0  0
   -0.5166   -0.9044   -4.7644 C   0  0  0  0  0  0  0  0  0  0  0  0
   -1.1323   -0.8545   -3.5113 C   0  0  0  0  0  0  0  0  0  0  0  0
    0.2931    0.3654    0.8351 C   0  0  0  0  0  0  0  0  0  0  0  0
    0.6321    1.9557    0.4897 S   0  0  0  0  0  0  0  0  0  0  0  0
    1.8774    2.1001    1.6465 C   0  0  0  0  0  0  0  0  0  0  0  0
    1.9970    0.8787    2.3503 C   0  0  0  0  0  0  0  0  0  0  0  0
    2.8707    0.6452    3.4812 N   0  0  0  0  0  0  0  0  0  0  0  0
    3.5439    1.7469    4.1112 C   0  0  0  0  0  0  0  0  0  0  0  0
    4.9366    1.7307    4.2710 C   0  0  0  0  0  0  0  0  0  0  0  0
    5.5795    2.7902    4.9182 C   0  0  0  0  0  0  0  0  0  0  0  0
    4.8326    3.8631    5.4203 C   0  0  0  0  0  0  0  0  0  0  0  0
    5.6545    5.2077    6.2763 S   0  0  0  0  0  0  0  0  0  0  0  0
    5.4026    4.4690    7.9213 C   0  0  0  0  0  0  0  0  0  0  0  0
    3.4435    3.8857    5.2565 C   0  0  0  0  0  0  0  0  0  0  0  0
    2.8004    2.8244    4.6203 C   0  0  0  0  0  0  0  0  0  0  0  0
    2.6189   -0.4824    4.3420 C   0  0  0  0  0  0  0  0  0  0  0  0
    3.6036   -1.4693    4.5316 C   0  0  0  0  0  0  0  0  0  0  0  0
    3.3392   -2.5743    5.3487 C   0  0  0  0  0  0  0  0  0  0  0  0
    2.0862   -2.7067    5.9634 C   0  0  0  0  0  0  0  0  0  0  0  0
    1.7329   -4.1235    7.0037 S   0  0  0  0  0  0  0  0  0  0  0  0
    2.1768   -3.2515    8.5369 C   0  0  0  0  0  0  0  0  0  0  0  0
    1.1067   -1.7327    5.7665 C   0  0  0  0  0  0  0  0  0  0  0  0
    1.3789   -0.6153    4.9797 C   0  0  0  0  0  0  0  0  0  0  0  0
    1.1172   -0.0774    1.8157 C   0  0  0  0  0  0  0  0  0  0  0  0
    1.0236   -1.7547    1.8806 S   0  0  0  0  0  0  0  0  0  0  0  0
    2.9588    3.0676    1.3806 C   0  0  0  0  0  0  0  0  0  0  0  0
    4.1951    2.5782    0.9376 C   0  0  0  0  0  0  0  0  0  0  0  0
    5.0119    3.3586    0.1152 C   0  0  0  0  0  0  0  0  0  0  0  0
    4.5928    4.6269   -0.3070 C   0  0  0  0  0  0  0  0  0  0  0  0
    3.3936    5.1596    0.2014 C   0  0  0  0  0  0  0  0  0  0  0  0
    2.9016    6.3443   -0.2482 N   0  0  0  0  0  0  0  0  0  0  0  0
    1.7368    6.8678    0.2251 C   0  0  0  0  0  0  0  0  0  0  0  0
    1.1441    8.0125   -0.5045 C   0  0  0  0  0  0  0  0  0  0  0  0
   -0.2315    8.0321   -0.8022 C   0  0  0  0  0  0  0  0  0  0  0  0
   -0.7789    9.0842   -1.5369 C   0  0  0  0  0  0  0  0  0  0  0  0
    0.0367   10.1126   -2.0071 C   0  0  0  0  0  0  0  0  0  0  0  0
    1.4240   10.0890   -1.7546 C   0  0  0  0  0  0  0  0  0  0  0  0
    2.2964   11.0771   -2.2410 O   0  0  0  0  0  0  0  0  0  0  0  0
    1.9103   12.2272   -2.9931 C   0  0  0  0  0  0  0  0  0  0  0  0
    1.3640   13.3110   -2.0708 C   0  0  0  0  0  0  0  0  0  0  0  0
    1.9662    9.0362   -1.0036 C   0  0  0  0  0  0  0  0  0  0  0  0
    1.0769    6.2060    1.2982 C   0  0  0  0  0  0  0  0  0  0  0  0
    1.5101    4.9638    1.6498 N   0  0  0  0  0  0  0  0  0  0  0  0
    2.6188    4.4033    1.1031 C   0  0  0  0  0  0  0  0  0  0  0  0
    0.0187    6.8406    2.1347 C   0  0  0  0  0  0  0  0  0  0  0  0
    0.0191    8.2260    2.3802 C   0  0  0  0  0  0  0  0  0  0  0  0
   -0.9224    8.7985    3.2341 C   0  0  0  0  0  0  0  0  0  0  0  0
   -1.8489    7.9962    3.8984 C   0  0  0  0  0  0  0  0  0  0  0  0
   -1.8327    6.5997    3.7165 C   0  0  0  0  0  0  0  0  0  0  0  0
   -2.6908    5.7430    4.4238 O   0  0  0  0  0  0  0  0  0  0  0  0
   -3.5641    6.1637    5.4675 C   0  0  0  0  0  0  0  0  0  0  0  0
   -4.1872    4.9496    6.1327 C   0  0  0  0  0  0  0  0  0  0  0  0
   -0.9138    6.0353    2.8201 C   0  0  0  0  0  0  0  0  0  0  0  0
    5.3199    5.2870   -1.4027 C   0  0  0  0  0  0  0  0  0  0  0  0
    6.1076    6.3639   -1.2423 C   0  0  0  0  0  0  0  0  0  0  0  0
    6.2665    7.1218    0.0049 C   0  0  0  0  0  0  0  0  0  0  0  0
    5.8627    6.7768    1.1481 O   0  0  0  0  0  0  0  0  0  0  0  0
    6.9581    8.3575   -0.3022 C   0  0  0  0  0  0  0  0  0  0  0  0
    7.2600    9.4142    0.5582 C   0  0  0  0  0  0  0  0  0  0  0  0
    6.9499    9.3555    1.8776 F   0  0  0  0  0  0  0  0  0  0  0  0
    7.8836   10.5498    0.0255 C   0  0  0  0  0  0  0  0  0  0  0  0
    8.1748   10.6198   -1.3475 C   0  0  0  0  0  0  0  0  0  0  0  0
    7.8577    9.5486   -2.1977 C   0  0  0  0  0  0  0  0  0  0  0  0
    7.2679    8.3942   -1.6517 C   0  0  0  0  0  0  0  0  0  0  0  0
    6.8545    7.1156   -2.3008 C   0  0  0  0  0  0  0  0  0  0  0  0
    7.2687    6.6490   -3.5111 C   0  0  0  0  0  0  0  0  0  0  0  0
    8.0966    7.4211   -4.4009 C   0  0  0  0  0  0  0  0  0  0  0  0
    8.7616    8.0250   -5.1317 N   0  0  0  0  0  0  0  0  0  0  0  0
    7.0230    5.3003   -3.9466 C   0  0  0  0  0  0  0  0  0  0  0  0
    6.8294    4.2182   -4.3074 N   0  0  0  0  0  0  0  0  0  0  0  0
   -2.7315   -9.2850   -0.8685 H   0  0  0  0  0  0  0  0  0  0  0  0
   -4.7190   -6.7332    0.5194 H   0  0  0  0  0  0  0  0  0  0  0  0
   -6.5915   -8.2182    1.1096 H   0  0  0  0  0  0  0  0  0  0  0  0
   -9.3727   -8.6969   -0.3282 H   0  0  0  0  0  0  0  0  0  0  0  0
   -8.2140   -9.9091    0.3395 H   0  0  0  0  0  0  0  0  0  0  0  0
   -8.6911   -9.9927   -1.3903 H   0  0  0  0  0  0  0  0  0  0  0  0
   -7.8551   -8.2773   -3.0149 H   0  0  0  0  0  0  0  0  0  0  0  0
   -5.9954   -6.7782   -3.6034 H   0  0  0  0  0  0  0  0  0  0  0  0
   -2.7121   -4.6175   -3.9294 H   0  0  0  0  0  0  0  0  0  0  0  0
   -3.2467   -2.5534   -5.1309 H   0  0  0  0  0  0  0  0  0  0  0  0
   -4.9098   -0.8117   -5.6922 H   0  0  0  0  0  0  0  0  0  0  0  0
   -4.7887   -0.0211   -4.0753 H   0  0  0  0  0  0  0  0  0  0  0  0
   -6.3890   -0.6074   -4.6897 H   0  0  0  0  0  0  0  0  0  0  0  0
   -6.7473   -2.0193   -2.6737 H   0  0  0  0  0  0  0  0  0  0  0  0
   -6.2483   -4.1195   -1.5010 H   0  0  0  0  0  0  0  0  0  0  0  0
    3.1614   -6.5380   -0.2337 H   0  0  0  0  0  0  0  0  0  0  0  0
    4.6555   -6.5565   -2.1805 H   0  0  0  0  0  0  0  0  0  0  0  0
    5.2290   -3.6272   -4.4029 H   0  0  0  0  0  0  0  0  0  0  0  0
    5.8015   -5.2706   -3.9473 H   0  0  0  0  0  0  0  0  0  0  0  0
    4.3171   -5.0867   -4.9585 H   0  0  0  0  0  0  0  0  0  0  0  0
    3.1799   -2.6710   -3.3397 H   0  0  0  0  0  0  0  0  0  0  0  0
    1.6859   -2.6594   -1.3990 H   0  0  0  0  0  0  0  0  0  0  0  0
    0.0040   -6.0514    2.3023 H   0  0  0  0  0  0  0  0  0  0  0  0
    0.8963   -7.0250    4.3687 H   0  0  0  0  0  0  0  0  0  0  0  0
    3.6915   -6.0875    6.1116 H   0  0  0  0  0  0  0  0  0  0  0  0
    4.4099   -7.3590    5.0453 H   0  0  0  0  0  0  0  0  0  0  0  0
    2.7698   -7.6068    5.7568 H   0  0  0  0  0  0  0  0  0  0  0  0
    4.6986   -5.1278    3.6310 H   0  0  0  0  0  0  0  0  0  0  0  0
    3.8072   -4.1423    1.5717 H   0  0  0  0  0  0  0  0  0  0  0  0
   -3.0965   -0.8128    0.6526 H   0  0  0  0  0  0  0  0  0  0  0  0
   -5.2838    0.3082    0.7482 H   0  0  0  0  0  0  0  0  0  0  0  0
   -7.1014    0.2589   -1.7546 H   0  0  0  0  0  0  0  0  0  0  0  0
   -6.7297    1.4602   -3.0566 H   0  0  0  0  0  0  0  0  0  0  0  0
   -8.2966    1.5378   -2.1711 H   0  0  0  0  0  0  0  0  0  0  0  0
   -4.1597    2.8366   -2.5410 H   0  0  0  0  0  0  0  0  0  0  0  0
   -1.9663    1.7331   -2.6506 H   0  0  0  0  0  0  0  0  0  0  0  0
    1.5638    0.0986   -1.6419 H   0  0  0  0  0  0  0  0  0  0  0  0
    2.6239    0.0370   -3.8534 H   0  0  0  0  0  0  0  0  0  0  0  0
    2.5287   -2.6149   -7.3992 H   0  0  0  0  0  0  0  0  0  0  0  0
    3.1154   -2.2806   -5.7301 H   0  0  0  0  0  0  0  0  0  0  0  0
    1.4463   -2.9421   -5.9919 H   0  0  0  0  0  0  0  0  0  0  0  0
   -1.0998   -1.1627   -5.6407 H   0  0  0  0  0  0  0  0  0  0  0  0
   -2.1883   -1.0668   -3.4305 H   0  0  0  0  0  0  0  0  0  0  0  0
    5.5226    0.9004    3.8890 H   0  0  0  0  0  0  0  0  0  0  0  0
    6.6565    2.7688    5.0416 H   0  0  0  0  0  0  0  0  0  0  0  0
    5.8990    3.4775    7.9726 H   0  0  0  0  0  0  0  0  0  0  0  0
    5.8383    5.1296    8.6951 H   0  0  0  0  0  0  0  0  0  0  0  0
    4.3187    4.3482    8.1277 H   0  0  0  0  0  0  0  0  0  0  0  0
    2.8621    4.7135    5.6408 H   0  0  0  0  0  0  0  0  0  0  0  0
    1.7218    2.8366    4.5269 H   0  0  0  0  0  0  0  0  0  0  0  0
    4.5663   -1.3852    4.0453 H   0  0  0  0  0  0  0  0  0  0  0  0
    4.1028   -3.3274    5.4959 H   0  0  0  0  0  0  0  0  0  0  0  0
    1.3922   -2.5032    8.7731 H   0  0  0  0  0  0  0  0  0  0  0  0
    3.1609   -2.7434    8.4395 H   0  0  0  0  0  0  0  0  0  0  0  0
    2.2349   -3.9872    9.3649 H   0  0  0  0  0  0  0  0  0  0  0  0
    0.1365   -1.8311    6.2358 H   0  0  0  0  0  0  0  0  0  0  0  0
    0.6150    0.1408    4.8402 H   0  0  0  0  0  0  0  0  0  0  0  0
    4.4718    1.5476    1.1249 H   0  0  0  0  0  0  0  0  0  0  0  0
    5.9301    2.9274   -0.2724 H   0  0  0  0  0  0  0  0  0  0  0  0
   -0.8840    7.2290   -0.4784 H   0  0  0  0  0  0  0  0  0  0  0  0
   -1.8399    9.1013   -1.7519 H   0  0  0  0  0  0  0  0  0  0  0  0
   -0.4199   10.9165   -2.5698 H   0  0  0  0  0  0  0  0  0  0  0  0
    2.8007   12.6232   -3.5206 H   0  0  0  0  0  0  0  0  0  0  0  0
    1.1634   11.9614   -3.7712 H   0  0  0  0  0  0  0  0  0  0  0  0
    2.1953   13.7426   -1.4735 H   0  0  0  0  0  0  0  0  0  0  0  0
    0.5974   12.8983   -1.3844 H   0  0  0  0  0  0  0  0  0  0  0  0
    0.9031   14.1187   -2.6787 H   0  0  0  0  0  0  0  0  0  0  0  0
    3.0321    9.0157   -0.8134 H   0  0  0  0  0  0  0  0  0  0  0  0
    0.7684    8.8684    1.9416 H   0  0  0  0  0  0  0  0  0  0  0  0
   -0.9117    9.8683    3.3990 H   0  0  0  0  0  0  0  0  0  0  0  0
   -2.5513    8.4658    4.5749 H   0  0  0  0  0  0  0  0  0  0  0  0
   -2.9902    6.7363    6.2332 H   0  0  0  0  0  0  0  0  0  0  0  0
   -4.3679    6.8092    5.0486 H   0  0  0  0  0  0  0  0  0  0  0  0
   -3.3864    4.2908    6.5302 H   0  0  0  0  0  0  0  0  0  0  0  0
   -4.7958    4.3829    5.3957 H   0  0  0  0  0  0  0  0  0  0  0  0
   -4.8402    5.2701    6.9732 H   0  0  0  0  0  0  0  0  0  0  0  0
   -0.9076    4.9572    2.6953 H   0  0  0  0  0  0  0  0  0  0  0  0
    5.1716    4.8486   -2.3755 H   0  0  0  0  0  0  0  0  0  0  0  0
    8.1365   11.3821    0.6725 H   0  0  0  0  0  0  0  0  0  0  0  0
    8.6385   11.5083   -1.7545 H   0  0  0  0  0  0  0  0  0  0  0  0
    8.0452    9.6609   -3.2504 H   0  0  0  0  0  0  0  0  0  0  0  0
  1  2  2  3
  2  3  1  0
  3  4  2  0
  3  5  1  0
  5  6  2  0
  6  7  1  0
  6  8  1  0
  8  9  1  0
  8 10  2  0
 10 11  1  0
 10 12  1  0
 12 13  1  0
 12 14  2  0
 14 15  1  0
 15 16  2  3
 16 17  1  0
 17 18  3  0
 16 19  1  0
 19 20  3  0
  1 21  1  0
 21 22  2  0
 22 23  1  0
 23 24  1  0
 24 25  2  0
 25 26  1  0
 26 27  2  0
 27 28  1  0
 27 29  1  0
 29 30  2  0
 23 31  1  0
 31 32  2  0
 32 33  1  0
 33 34  2  0
 34 35  1  0
 34 36  1  0
 36 37  2  0
 22 38  1  0
 38 39  1  0
 39 40  1  0
 40 41  2  0
 41 42  1  0
 42 43  1  0
 43 44  2  0
 44 45  1  0
 45 46  2  0
 46 47  1  0
 46 48  1  0
 48 49  2  0
 42 50  1  0
 50 51  2  0
 51 52  1  0
 52 53  2  0
 53 54  1  0
 53 55  1  0
 55 56  2  0
 41 57  1  0
 57 58  1  0
 40 59  1  0
 59 60  2  0
 60 61  1  0
 61 62  1  0
 62 63  2  0
 63 64  1  0
 64 65  2  0
 65 66  1  0
 66 67  1  0
 65 68  1  0
 68 69  2  0
 61 70  1  0
 70 71  2  0
 71 72  1  0
 72 73  2  0
 73 74  1  0
 74 75  1  0
 73 76  1  0
 76 77  2  0
 60 78  1  0
 78 79  1  0
 79 80  1  0
 80 81  2  0
 81 82  1  0
 82 83  1  0
 83 84  2  0
 84 85  1  0
 85 86  2  0
 86 87  1  0
 87 88  1  0
 86 89  1  0
 89 90  2  0
 82 91  1  0
 91 92  2  0
 92 93  1  0
 93 94  2  0
 94 95  1  0
 95 96  1  0
 94 97  1  0
 97 98  2  0
 81 99  1  0
 99100  1  0
 80101  1  0
101102  2  0
102103  1  0
103104  2  0
104105  1  0
105106  2  0
106107  1  0
107108  1  0
108109  2  0
109110  1  0
110111  2  0
111112  1  0
112113  1  0
113114  1  0
114115  1  0
112116  2  0
107117  2  0
117118  1  0
118119  2  0
117120  1  0
120121  2  0
121122  1  0
122123  2  0
123124  1  0
124125  1  0
125126  1  0
126127  1  0
124128  2  0
104129  1  0
129130  2  3
130131  1  0
131132  2  0
131133  1  0
133134  2  0
134135  1  0
134136  1  0
136137  2  0
137138  1  0
138139  2  0
139140  1  0
140141  2  3
141142  1  0
142143  3  0
141144  1  0
144145  3  0
 15  2  1  0
 58 21  1  0
100 59  1  0
119101  1  0
128120  1  0
140130  1  0
 14  5  1  0
 30 24  1  0
 37 31  1  0
 57 38  2  0
 69 62  1  0
 77 70  1  0
 99 78  2  0
119105  1  0
139133  1  0
 49 43  1  0
 56 50  1  0
 90 83  1  0
 98 91  1  0
116108  1  0
  1146  1  0
 25147  1  0
 26148  1  0
 28149  1  0
 28150  1  0
 28151  1  0
 29152  1  0
 30153  1  0
 32154  1  0
 33155  1  0
 35156  1  0
 35157  1  0
 35158  1  0
 36159  1  0
 37160  1  0
 44161  1  0
 45162  1  0
 47163  1  0
 47164  1  0
 47165  1  0
 48166  1  0
 49167  1  0
 51168  1  0
 52169  1  0
 54170  1  0
 54171  1  0
 54172  1  0
 55173  1  0
 56174  1  0
 63175  1  0
 64176  1  0
 67177  1  0
 67178  1  0
 67179  1  0
 68180  1  0
 69181  1  0
 71182  1  0
 72183  1  0
 75184  1  0
 75185  1  0
 75186  1  0
 76187  1  0
 77188  1  0
 84189  1  0
 85190  1  0
 88191  1  0
 88192  1  0
 88193  1  0
 89194  1  0
 90195  1  0
 92196  1  0
 93197  1  0
 96198  1  0
 96199  1  0
 96200  1  0
 97201  1  0
 98202  1  0
102203  1  0
103204  1  0
109205  1  0
110206  1  0
111207  1  0
114208  1  0
114209  1  0
115210  1  0
115211  1  0
115212  1  0
116213  1  0
121214  1  0
122215  1  0
123216  1  0
126217  1  0
126218  1  0
127219  1  0
127220  1  0
127221  1  0
128222  1  0
129223  1  0
136224  1  0
137225  1  0
138226  1  0
M  END

