
     RDKit          3D

189207  0  0  0  0  0  0  0  0999 V2000
    7.6998   -4.5396   -0.6410 C   0  0  0  0  0  0  0  0  0  0  0  0
    8.2698   -3.3262   -0.7379 C   0  0  0  0  0  0  0  0  0  0  0  0
    9.4922   -3.0860   -1.4989 C   0  0  0  0  0  0  0  0  0  0  0  0
   10.3154   -3.9681   -1.8616 O   0  0  0  0  0  0  0  0  0  0  0  0
    9.5160   -1.6817   -1.8877 C   0  0  0  0  0  0  0  0  0  0  0  0
   10.3588   -1.0414   -2.8008 C   0  0  0  0  0  0  0  0  0  0  0  0
   11.7522   -1.8772   -3.4841 Cl  0  0  0  0  0  0  0  0  0  0  0  0
   10.0395    0.2721   -3.1987 C   0  0  0  0  0  0  0  0  0  0  0  0
   11.0797    1.1188   -4.3466 Cl  0  0  0  0  0  0  0  0  0  0  0  0
    8.8581    0.8889   -2.7299 C   0  0  0  0  0  0  0  0  0  0  0  0
    8.4107    2.4924   -3.3165 Cl  0  0  0  0  0  0  0  0  0  0  0  0
    8.0120    0.2144   -1.8219 C   0  0  0  0  0  0  0  0  0  0  0  0
    6.4085    0.8666   -1.4897 Cl  0  0  0  0  0  0  0  0  0  0  0  0
    8.4064   -1.0519   -1.3439 C   0  0  0  0  0  0  0  0  0  0  0  0
    7.6942   -1.9900   -0.4343 C   0  0  0  0  0  0  0  0  0  0  0  0
    7.1867   -1.6404    0.7733 C   0  0  0  0  0  0  0  0  0  0  0  0
    6.9320   -2.6127    1.8064 C   0  0  0  0  0  0  0  0  0  0  0  0
    6.7491   -3.3772    2.6584 N   0  0  0  0  0  0  0  0  0  0  0  0
    7.1827   -0.2729    1.2320 C   0  0  0  0  0  0  0  0  0  0  0  0
    7.2105    0.8259    1.5982 N   0  0  0  0  0  0  0  0  0  0  0  0
    6.2745   -4.7740   -0.3730 C   0  0  0  0  0  0  0  0  0  0  0  0
    5.1766   -4.2802   -1.1073 C   0  0  0  0  0  0  0  0  0  0  0  0
    5.2385   -3.3154   -2.1818 N   0  0  0  0  0  0  0  0  0  0  0  0
    6.1898   -3.4673   -3.2612 C   0  0  0  0  0  0  0  0  0  0  0  0
    6.7642   -2.3376   -3.8691 C   0  0  0  0  0  0  0  0  0  0  0  0
    7.7650   -2.4736   -4.8315 C   0  0  0  0  0  0  0  0  0  0  0  0
    8.1811   -3.7486   -5.2406 C   0  0  0  0  0  0  0  0  0  0  0  0
    9.3068   -3.8954   -6.2159 C   0  0  0  0  0  0  0  0  0  0  0  0
    7.5879   -4.8819   -4.6675 C   0  0  0  0  0  0  0  0  0  0  0  0
    6.5937   -4.7442   -3.6933 C   0  0  0  0  0  0  0  0  0  0  0  0
    4.3306   -2.1873   -2.1532 C   0  0  0  0  0  0  0  0  0  0  0  0
    3.6597   -1.7791   -3.3195 C   0  0  0  0  0  0  0  0  0  0  0  0
    2.7568   -0.7129   -3.2790 C   0  0  0  0  0  0  0  0  0  0  0  0
    2.4899   -0.0525   -2.0701 C   0  0  0  0  0  0  0  0  0  0  0  0
    1.5399    1.1067   -2.0426 C   0  0  0  0  0  0  0  0  0  0  0  0
    3.1590   -0.4553   -0.9046 C   0  0  0  0  0  0  0  0  0  0  0  0
    4.0650   -1.5170   -0.9453 C   0  0  0  0  0  0  0  0  0  0  0  0
    3.9792   -4.7506   -0.5697 C   0  0  0  0  0  0  0  0  0  0  0  0
    2.3696   -4.4197   -0.8589 S   0  0  0  0  0  0  0  0  0  0  0  0
    1.7825   -5.2299    0.5232 C   0  0  0  0  0  0  0  0  0  0  0  0
    2.8859   -5.7978    1.1979 C   0  0  0  0  0  0  0  0  0  0  0  0
    2.8337   -6.4310    2.4837 N   0  0  0  0  0  0  0  0  0  0  0  0
    3.3771   -5.7478    3.6397 C   0  0  0  0  0  0  0  0  0  0  0  0
    3.9738   -6.4676    4.6921 C   0  0  0  0  0  0  0  0  0  0  0  0
    4.4773   -5.8014    5.8158 C   0  0  0  0  0  0  0  0  0  0  0  0
    4.4128   -4.4040    5.8977 C   0  0  0  0  0  0  0  0  0  0  0  0
    4.8989   -3.6941    7.1275 C   0  0  0  0  0  0  0  0  0  0  0  0
    3.8255   -3.6781    4.8511 C   0  0  0  0  0  0  0  0  0  0  0  0
    3.3239   -4.3422    3.7284 C   0  0  0  0  0  0  0  0  0  0  0  0
    2.3474   -7.7864    2.5631 C   0  0  0  0  0  0  0  0  0  0  0  0
    2.7373   -8.7371    1.6024 C   0  0  0  0  0  0  0  0  0  0  0  0
    2.2925  -10.0571    1.6928 C   0  0  0  0  0  0  0  0  0  0  0  0
    1.4554  -10.4512    2.7456 C   0  0  0  0  0  0  0  0  0  0  0  0
    0.9674  -11.8663    2.8232 C   0  0  0  0  0  0  0  0  0  0  0  0
    1.0390   -9.5003    3.6883 C   0  0  0  0  0  0  0  0  0  0  0  0
    1.4869   -8.1796    3.6030 C   0  0  0  0  0  0  0  0  0  0  0  0
    4.0878   -5.5225    0.5385 C   0  0  0  0  0  0  0  0  0  0  0  0
    5.7065   -5.7732    0.8905 S   0  0  0  0  0  0  0  0  0  0  0  0
    0.4311   -4.9421    1.0513 C   0  0  0  0  0  0  0  0  0  0  0  0
   -0.6539   -3.9756    0.1812 S   0  0  0  0  0  0  0  0  0  0  0  0
   -1.5423   -3.4890    1.5044 C   0  0  0  0  0  0  0  0  0  0  0  0
   -2.3799   -2.3969    1.6066 C   0  0  0  0  0  0  0  0  0  0  0  0
   -2.6771   -1.8964    2.8601 C   0  0  0  0  0  0  0  0  0  0  0  0
   -2.2762   -2.5297    3.9669 O   0  0  0  0  0  0  0  0  0  0  0  0
   -1.4779   -3.6068    3.9074 C   0  0  0  0  0  0  0  0  0  0  0  0
   -1.0731   -4.1455    4.9710 O   0  0  0  0  0  0  0  0  0  0  0  0
   -1.0332   -4.0749    2.6497 C   0  0  0  0  0  0  0  0  0  0  0  0
    0.0570   -4.9223    2.4044 C   0  0  0  0  0  0  0  0  0  0  0  0
   -3.2854   -0.6370    2.8318 C   0  0  0  0  0  0  0  0  0  0  0  0
   -3.4015   -0.1334    1.5263 C   0  0  0  0  0  0  0  0  0  0  0  0
   -2.7766   -1.2691    0.4374 S   0  0  0  0  0  0  0  0  0  0  0  0
   -3.5588    1.2822    1.1654 C   0  0  0  0  0  0  0  0  0  0  0  0
   -4.6453    2.1387    1.4370 C   0  0  0  0  0  0  0  0  0  0  0  0
   -5.8611    1.7496    2.1041 N   0  0  0  0  0  0  0  0  0  0  0  0
   -5.8116    1.2885    3.4647 C   0  0  0  0  0  0  0  0  0  0  0  0
   -6.5332    0.1480    3.8505 C   0  0  0  0  0  0  0  0  0  0  0  0
   -6.4773   -0.3085    5.1692 C   0  0  0  0  0  0  0  0  0  0  0  0
   -5.7019    0.3708    6.1198 C   0  0  0  0  0  0  0  0  0  0  0  0
   -5.6714   -0.0958    7.5437 C   0  0  0  0  0  0  0  0  0  0  0  0
   -5.0040    1.5288    5.7429 C   0  0  0  0  0  0  0  0  0  0  0  0
   -5.0565    1.9835    4.4231 C   0  0  0  0  0  0  0  0  0  0  0  0
   -7.1338    1.9985    1.4640 C   0  0  0  0  0  0  0  0  0  0  0  0
   -7.2806    1.8198    0.0766 C   0  0  0  0  0  0  0  0  0  0  0  0
   -8.4824    2.1465   -0.5570 C   0  0  0  0  0  0  0  0  0  0  0  0
   -9.5653    2.6366    0.1881 C   0  0  0  0  0  0  0  0  0  0  0  0
  -10.8278    3.0573   -0.5022 C   0  0  0  0  0  0  0  0  0  0  0  0
   -9.4230    2.8157    1.5725 C   0  0  0  0  0  0  0  0  0  0  0  0
   -8.2204    2.4917    2.2066 C   0  0  0  0  0  0  0  0  0  0  0  0
   -4.4766    3.3722    0.8001 C   0  0  0  0  0  0  0  0  0  0  0  0
   -5.4132    4.7627    0.6598 S   0  0  0  0  0  0  0  0  0  0  0  0
   -4.3232    5.5294   -0.4033 C   0  0  0  0  0  0  0  0  0  0  0  0
   -3.2238    4.6881   -0.6482 C   0  0  0  0  0  0  0  0  0  0  0  0
   -2.1295    5.0130   -1.5305 N   0  0  0  0  0  0  0  0  0  0  0  0
   -1.5121    6.3094   -1.3965 C   0  0  0  0  0  0  0  0  0  0  0  0
   -1.4147    7.1706   -2.5014 C   0  0  0  0  0  0  0  0  0  0  0  0
   -0.8760    8.4526   -2.3529 C   0  0  0  0  0  0  0  0  0  0  0  0
   -0.4360    8.8920   -1.0947 C   0  0  0  0  0  0  0  0  0  0  0  0
    0.1602   10.2568   -0.9328 C   0  0  0  0  0  0  0  0  0  0  0  0
   -0.5059    8.0221    0.0045 C   0  0  0  0  0  0  0  0  0  0  0  0
   -1.0526    6.7439   -0.1435 C   0  0  0  0  0  0  0  0  0  0  0  0
   -1.7294    4.1156   -2.5976 C   0  0  0  0  0  0  0  0  0  0  0  0
   -0.4186    4.1548   -3.1125 C   0  0  0  0  0  0  0  0  0  0  0  0
   -0.0566    3.3547   -4.1979 C   0  0  0  0  0  0  0  0  0  0  0  0
   -0.9837    2.4724   -4.7669 C   0  0  0  0  0  0  0  0  0  0  0  0
   -0.6100    1.6524   -5.9656 C   0  0  0  0  0  0  0  0  0  0  0  0
   -2.2853    2.4164   -4.2517 C   0  0  0  0  0  0  0  0  0  0  0  0
   -2.6527    3.2220   -3.1731 C   0  0  0  0  0  0  0  0  0  0  0  0
   -3.3508    3.4936    0.0531 C   0  0  0  0  0  0  0  0  0  0  0  0
   -2.4575    2.0818    0.1339 S   0  0  0  0  0  0  0  0  0  0  0  0
   -4.5645    6.8139   -1.0645 C   0  0  0  0  0  0  0  0  0  0  0  0
   -5.0423    6.8961   -2.3222 C   0  0  0  0  0  0  0  0  0  0  0  0
   -5.6036    5.7638   -3.0741 C   0  0  0  0  0  0  0  0  0  0  0  0
   -5.8040    4.5973   -2.6400 O   0  0  0  0  0  0  0  0  0  0  0  0
   -5.9765    6.2214   -4.3880 C   0  0  0  0  0  0  0  0  0  0  0  0
   -6.5475    5.4737   -5.4190 C   0  0  0  0  0  0  0  0  0  0  0  0
   -6.8536    6.1180   -6.6256 C   0  0  0  0  0  0  0  0  0  0  0  0
   -7.6063    5.2198   -7.9239 Cl  0  0  0  0  0  0  0  0  0  0  0  0
   -6.5806    7.4919   -6.7762 C   0  0  0  0  0  0  0  0  0  0  0  0
   -6.8695    8.1172   -7.9448 F   0  0  0  0  0  0  0  0  0  0  0  0
   -6.0096    8.2227   -5.7211 C   0  0  0  0  0  0  0  0  0  0  0  0
   -5.7110    7.5756   -4.5082 C   0  0  0  0  0  0  0  0  0  0  0  0
   -5.1215    8.0952   -3.2298 C   0  0  0  0  0  0  0  0  0  0  0  0
   -4.7210    9.3739   -2.9739 C   0  0  0  0  0  0  0  0  0  0  0  0
   -4.8398   10.4410   -3.9290 C   0  0  0  0  0  0  0  0  0  0  0  0
   -4.9329   11.3165   -4.6828 N   0  0  0  0  0  0  0  0  0  0  0  0
   -4.1422    9.7892   -1.7264 C   0  0  0  0  0  0  0  0  0  0  0  0
   -3.6609   10.1523   -0.7362 N   0  0  0  0  0  0  0  0  0  0  0  0
    8.2848   -5.4136   -0.9035 H   0  0  0  0  0  0  0  0  0  0  0  0
    6.4718   -1.3424   -3.5651 H   0  0  0  0  0  0  0  0  0  0  0  0
    8.2311   -1.5861   -5.2432 H   0  0  0  0  0  0  0  0  0  0  0  0
    9.3613   -3.0158   -6.8942 H   0  0  0  0  0  0  0  0  0  0  0  0
   10.2626   -3.9777   -5.6580 H   0  0  0  0  0  0  0  0  0  0  0  0
    9.1676   -4.8039   -6.8398 H   0  0  0  0  0  0  0  0  0  0  0  0
    7.9035   -5.8762   -4.9658 H   0  0  0  0  0  0  0  0  0  0  0  0
    6.1560   -5.6359   -3.2639 H   0  0  0  0  0  0  0  0  0  0  0  0
    3.8280   -2.2930   -4.2563 H   0  0  0  0  0  0  0  0  0  0  0  0
    2.2559   -0.4060   -4.1907 H   0  0  0  0  0  0  0  0  0  0  0  0
    0.6192    0.8537   -2.6110 H   0  0  0  0  0  0  0  0  0  0  0  0
    1.2462    1.3675   -1.0043 H   0  0  0  0  0  0  0  0  0  0  0  0
    2.0271    1.9873   -2.5096 H   0  0  0  0  0  0  0  0  0  0  0  0
    2.9806    0.0510    0.0369 H   0  0  0  0  0  0  0  0  0  0  0  0
    4.5532   -1.8224   -0.0296 H   0  0  0  0  0  0  0  0  0  0  0  0
    4.0532   -7.5473    4.6493 H   0  0  0  0  0  0  0  0  0  0  0  0
    4.9174   -6.3800    6.6196 H   0  0  0  0  0  0  0  0  0  0  0  0
    4.0640   -3.5955    7.8527 H   0  0  0  0  0  0  0  0  0  0  0  0
    5.7278   -4.2588    7.6065 H   0  0  0  0  0  0  0  0  0  0  0  0
    5.2755   -2.6806    6.8714 H   0  0  0  0  0  0  0  0  0  0  0  0
    3.7504   -2.5993    4.9056 H   0  0  0  0  0  0  0  0  0  0  0  0
    2.8702   -3.7563    2.9408 H   0  0  0  0  0  0  0  0  0  0  0  0
    3.4022   -8.4604    0.7933 H   0  0  0  0  0  0  0  0  0  0  0  0
    2.6103  -10.7773    0.9461 H   0  0  0  0  0  0  0  0  0  0  0  0
    1.7703  -12.5694    2.5147 H   0  0  0  0  0  0  0  0  0  0  0  0
    0.6657  -12.1276    3.8596 H   0  0  0  0  0  0  0  0  0  0  0  0
    0.0971  -11.9946    2.1466 H   0  0  0  0  0  0  0  0  0  0  0  0
    0.3727   -9.7810    4.4947 H   0  0  0  0  0  0  0  0  0  0  0  0
    1.1634   -7.4609    4.3446 H   0  0  0  0  0  0  0  0  0  0  0  0
    0.6415   -5.3481    3.2017 H   0  0  0  0  0  0  0  0  0  0  0  0
   -3.4441   -0.0563    3.7256 H   0  0  0  0  0  0  0  0  0  0  0  0
   -7.1282   -0.3936    3.1244 H   0  0  0  0  0  0  0  0  0  0  0  0
   -7.0407   -1.1895    5.4484 H   0  0  0  0  0  0  0  0  0  0  0  0
   -6.4773    0.4094    8.1154 H   0  0  0  0  0  0  0  0  0  0  0  0
   -4.6927    0.1404    8.0129 H   0  0  0  0  0  0  0  0  0  0  0  0
   -5.8229   -1.1948    7.6001 H   0  0  0  0  0  0  0  0  0  0  0  0
   -4.4193    2.0786    6.4700 H   0  0  0  0  0  0  0  0  0  0  0  0
   -4.5065    2.8738    4.1445 H   0  0  0  0  0  0  0  0  0  0  0  0
   -6.4576    1.4501   -0.5202 H   0  0  0  0  0  0  0  0  0  0  0  0
   -8.5647    2.0291   -1.6319 H   0  0  0  0  0  0  0  0  0  0  0  0
  -10.7221    4.1053   -0.8575 H   0  0  0  0  0  0  0  0  0  0  0  0
  -11.6972    2.9966    0.1887 H   0  0  0  0  0  0  0  0  0  0  0  0
  -11.0332    2.3988   -1.3729 H   0  0  0  0  0  0  0  0  0  0  0  0
  -10.2354    3.2243    2.1628 H   0  0  0  0  0  0  0  0  0  0  0  0
   -8.1248    2.6654    3.2720 H   0  0  0  0  0  0  0  0  0  0  0  0
   -1.7818    6.8595   -3.4719 H   0  0  0  0  0  0  0  0  0  0  0  0
   -0.8210    9.1060   -3.2142 H   0  0  0  0  0  0  0  0  0  0  0  0
   -0.1079   10.6787    0.0604 H   0  0  0  0  0  0  0  0  0  0  0  0
    1.2662   10.1928   -1.0115 H   0  0  0  0  0  0  0  0  0  0  0  0
   -0.2170   10.9517   -1.7124 H   0  0  0  0  0  0  0  0  0  0  0  0
   -0.1494    8.3355    0.9786 H   0  0  0  0  0  0  0  0  0  0  0  0
   -1.1172    6.0912    0.7181 H   0  0  0  0  0  0  0  0  0  0  0  0
    0.3217    4.8163   -2.6820 H   0  0  0  0  0  0  0  0  0  0  0  0
    0.9482    3.4253   -4.5929 H   0  0  0  0  0  0  0  0  0  0  0  0
   -0.8818    2.2070   -6.8876 H   0  0  0  0  0  0  0  0  0  0  0  0
   -1.1479    0.6815   -5.9529 H   0  0  0  0  0  0  0  0  0  0  0  0
    0.4820    1.4449   -5.9766 H   0  0  0  0  0  0  0  0  0  0  0  0
   -3.0196    1.7571   -4.6937 H   0  0  0  0  0  0  0  0  0  0  0  0
   -3.6650    3.1564   -2.8035 H   0  0  0  0  0  0  0  0  0  0  0  0
   -4.2316    7.6719   -0.5178 H   0  0  0  0  0  0  0  0  0  0  0  0
   -6.7575    4.4189   -5.2872 H   0  0  0  0  0  0  0  0  0  0  0  0
   -5.8172    9.2667   -5.8875 H   0  0  0  0  0  0  0  0  0  0  0  0
  1  2  2  3
  2  3  1  0
  3  4  2  0
  3  5  1  0
  5  6  2  0
  6  7  1  0
  6  8  1  0
  8  9  1  0
  8 10  2  0
 10 11  1  0
 10 12  1  0
 12 13  1  0
 12 14  2  0
 14 15  1  0
 15 16  2  3
 16 17  1  0
 17 18  3  0
 16 19  1  0
 19 20  3  0
  1 21  1  0
 21 22  2  0
 22 23  1  0
 23 24  1  0
 24 25  2  0
 25 26  1  0
 26 27  2  0
 27 28  1  0
 27 29  1  0
 29 30  2  0
 23 31  1  0
 31 32  2  0
 32 33  1  0
 33 34  2  0
 34 35  1  0
 34 36  1  0
 36 37  2  0
 22 38  1  0
 38 39  1  0
 39 40  1  0
 40 41  2  0
 41 42  1  0
 42 43  1  0
 43 44  2  0
 44 45  1  0
 45 46  2  0
 46 47  1  0
 46 48  1  0
 48 49  2  0
 42 50  1  0
 50 51  2  0
 51 52  1  0
 52 53  2  0
 53 54  1  0
 53 55  1  0
 55 56  2  0
 41 57  1  0
 57 58  1  0
 40 59  1  0
 59 60  1  0
 60 61  1  0
 61 62  1  0
 62 63  2  0
 63 64  1  0
 64 65  1  0
 65 66  2  0
 65 67  1  0
 67 68  1  0
 63 69  1  0
 69 70  2  0
 70 71  1  0
 70 72  1  0
 72 73  2  0
 73 74  1  0
 74 75  1  0
 75 76  2  0
 76 77  1  0
 77 78  2  0
 78 79  1  0
 78 80  1  0
 80 81  2  0
 74 82  1  0
 82 83  2  0
 83 84  1  0
 84 85  2  0
 85 86  1  0
 85 87  1  0
 87 88  2  0
 73 89  1  0
 89 90  1  0
 90 91  1  0
 91 92  2  0
 92 93  1  0
 93 94  1  0
 94 95  2  0
 95 96  1  0
 96 97  2  0
 97 98  1  0
 97 99  1  0
 99100  2  0
 93101  1  0
101102  2  0
102103  1  0
103104  2  0
104105  1  0
104106  1  0
106107  2  0
 92108  1  0
108109  1  0
 91110  1  0
110111  2  3
111112  1  0
112113  2  0
112114  1  0
114115  2  0
115116  1  0
116117  1  0
116118  2  0
118119  1  0
118120  1  0
120121  2  0
121122  1  0
122123  2  3
123124  1  0
124125  3  0
123126  1  0
126127  3  0
 15  2  1  0
 58 21  1  0
 68 59  2  0
109 72  1  0
122111  1  0
 14  5  1  0
 30 24  1  0
 37 31  1  0
 57 38  2  0
 67 61  2  0
 81 75  1  0
 88 82  1  0
108 89  2  0
121114  1  0
 49 43  1  0
 56 50  1  0
 71 62  1  0
100 94  1  0
107101  1  0
  1128  1  0
 25129  1  0
 26130  1  0
 28131  1  0
 28132  1  0
 28133  1  0
 29134  1  0
 30135  1  0
 32136  1  0
 33137  1  0
 35138  1  0
 35139  1  0
 35140  1  0
 36141  1  0
 37142  1  0
 44143  1  0
 45144  1  0
 47145  1  0
 47146  1  0
 47147  1  0
 48148  1  0
 49149  1  0
 51150  1  0
 52151  1  0
 54152  1  0
 54153  1  0
 54154  1  0
 55155  1  0
 56156  1  0
 68157  1  0
 69158  1  0
 76159  1  0
 77160  1  0
 79161  1  0
 79162  1  0
 79163  1  0
 80164  1  0
 81165  1  0
 83166  1  0
 84167  1  0
 86168  1  0
 86169  1  0
 86170  1  0
 87171  1  0
 88172  1  0
 95173  1  0
 96174  1  0
 98175  1  0
 98176  1  0
 98177  1  0
 99178  1  0
100179  1  0
102180  1  0
103181  1  0
105182  1  0
105183  1  0
105184  1  0
106185  1  0
107186  1  0
110187  1  0
115188  1  0
120189  1  0
M  END

