
     RDKit          3D

188204  0  0  0  0  0  0  0  0999 V2000
   -5.4619    1.9470   -4.2273 C   0  0  0  0  0  0  0  0  0  0  0  0
   -5.5981    3.2876   -4.2305 C   0  0  0  0  0  0  0  0  0  0  0  0
   -4.7065    4.2429   -3.5466 C   0  0  0  0  0  0  0  0  0  0  0  0
   -3.6416    3.9486   -2.9365 O   0  0  0  0  0  0  0  0  0  0  0  0
   -5.1460    5.5959   -3.8535 C   0  0  0  0  0  0  0  0  0  0  0  0
   -4.5362    6.8078   -3.5111 C   0  0  0  0  0  0  0  0  0  0  0  0
   -3.1672    6.8509   -2.3957 Cl  0  0  0  0  0  0  0  0  0  0  0  0
   -5.0353    7.9934   -4.0824 C   0  0  0  0  0  0  0  0  0  0  0  0
   -4.3449    9.5457   -3.6291 Cl  0  0  0  0  0  0  0  0  0  0  0  0
   -6.0592    7.9303   -5.0561 C   0  0  0  0  0  0  0  0  0  0  0  0
   -6.6253    9.4178   -5.8293 Cl  0  0  0  0  0  0  0  0  0  0  0  0
   -6.6282    6.6924   -5.4190 C   0  0  0  0  0  0  0  0  0  0  0  0
   -7.6596    6.5958   -6.8490 Cl  0  0  0  0  0  0  0  0  0  0  0  0
   -6.2224    5.5315   -4.7255 C   0  0  0  0  0  0  0  0  0  0  0  0
   -6.6402    4.1107   -4.9152 C   0  0  0  0  0  0  0  0  0  0  0  0
   -7.9051    3.7078   -5.1673 C   0  0  0  0  0  0  0  0  0  0  0  0
   -8.2305    2.3627   -5.5685 C   0  0  0  0  0  0  0  0  0  0  0  0
   -8.5068    1.2942   -5.9321 N   0  0  0  0  0  0  0  0  0  0  0  0
   -9.0275    4.6036   -4.9997 C   0  0  0  0  0  0  0  0  0  0  0  0
   -9.9276    5.3177   -4.8671 N   0  0  0  0  0  0  0  0  0  0  0  0
   -4.5542    1.2558   -3.3043 C   0  0  0  0  0  0  0  0  0  0  0  0
   -3.6308    0.2551   -3.6493 C   0  0  0  0  0  0  0  0  0  0  0  0
   -3.8762   -0.6663   -4.7255 N   0  0  0  0  0  0  0  0  0  0  0  0
   -4.7034   -1.8220   -4.4539 C   0  0  0  0  0  0  0  0  0  0  0  0
   -4.3078   -3.0968   -4.9000 C   0  0  0  0  0  0  0  0  0  0  0  0
   -5.0408   -4.2354   -4.5426 C   0  0  0  0  0  0  0  0  0  0  0  0
   -6.1803   -4.1155   -3.7319 C   0  0  0  0  0  0  0  0  0  0  0  0
   -6.9422   -5.3269   -3.2912 C   0  0  0  0  0  0  0  0  0  0  0  0
   -6.5765   -2.8489   -3.2873 C   0  0  0  0  0  0  0  0  0  0  0  0
   -5.8540   -1.7144   -3.6502 C   0  0  0  0  0  0  0  0  0  0  0  0
   -3.1864   -0.5519   -5.9808 C   0  0  0  0  0  0  0  0  0  0  0  0
   -1.7842   -0.4903   -6.0281 C   0  0  0  0  0  0  0  0  0  0  0  0
   -1.1179   -0.5849   -7.2525 C   0  0  0  0  0  0  0  0  0  0  0  0
   -1.8382   -0.7109   -8.4512 C   0  0  0  0  0  0  0  0  0  0  0  0
   -1.1260   -0.7926   -9.7671 C   0  0  0  0  0  0  0  0  0  0  0  0
   -3.2385   -0.7093   -8.4139 C   0  0  0  0  0  0  0  0  0  0  0  0
   -3.9068   -0.6439   -7.1843 C   0  0  0  0  0  0  0  0  0  0  0  0
   -2.9345   -0.1430   -2.5111 C   0  0  0  0  0  0  0  0  0  0  0  0
   -1.6098   -1.1379   -2.2388 S   0  0  0  0  0  0  0  0  0  0  0  0
   -1.6497   -0.9285   -0.5484 C   0  0  0  0  0  0  0  0  0  0  0  0
   -2.7494   -0.1289   -0.2020 C   0  0  0  0  0  0  0  0  0  0  0  0
   -3.3778   -0.1838    1.0915 N   0  0  0  0  0  0  0  0  0  0  0  0
   -4.3547   -1.2171    1.4136 C   0  0  0  0  0  0  0  0  0  0  0  0
   -4.9544   -1.2720    2.6945 C   0  0  0  0  0  0  0  0  0  0  0  0
   -5.8929   -2.2586    3.0057 C   0  0  0  0  0  0  0  0  0  0  0  0
   -6.2539   -3.2190    2.0531 C   0  0  0  0  0  0  0  0  0  0  0  0
   -7.2965   -4.2478    2.3872 C   0  0  0  0  0  0  0  0  0  0  0  0
   -5.6810   -3.1726    0.7766 C   0  0  0  0  0  0  0  0  0  0  0  0
   -4.7344   -2.1951    0.4601 C   0  0  0  0  0  0  0  0  0  0  0  0
   -3.1159    0.8775    2.0180 C   0  0  0  0  0  0  0  0  0  0  0  0
   -3.9980    1.9631    2.1114 C   0  0  0  0  0  0  0  0  0  0  0  0
   -3.7566    2.9859    3.0301 C   0  0  0  0  0  0  0  0  0  0  0  0
   -2.6279    2.9349    3.8635 C   0  0  0  0  0  0  0  0  0  0  0  0
   -2.3734    4.0206    4.8537 C   0  0  0  0  0  0  0  0  0  0  0  0
   -1.7709    1.8236    3.8019 C   0  0  0  0  0  0  0  0  0  0  0  0
   -2.0196    0.7955    2.8893 C   0  0  0  0  0  0  0  0  0  0  0  0
   -3.3904    0.3453   -1.3363 C   0  0  0  0  0  0  0  0  0  0  0  0
   -4.6272    1.4297   -1.6023 S   0  0  0  0  0  0  0  0  0  0  0  0
   -0.4252   -0.9072    0.2572 C   0  0  0  0  0  0  0  0  0  0  0  0
    0.2712    0.2686    0.5756 C   0  0  0  0  0  0  0  0  0  0  0  0
    0.2249    1.4388   -0.2694 N   0  0  0  0  0  0  0  0  0  0  0  0
    0.0188    2.7365    0.3175 C   0  0  0  0  0  0  0  0  0  0  0  0
   -1.2816    3.2338    0.4892 C   0  0  0  0  0  0  0  0  0  0  0  0
   -1.4841    4.5465    0.9326 C   0  0  0  0  0  0  0  0  0  0  0  0
   -0.3820    5.3862    1.1605 C   0  0  0  0  0  0  0  0  0  0  0  0
   -0.6242    7.1118    1.6083 S   0  0  0  0  0  0  0  0  0  0  0  0
   -0.3494    6.8633    3.3912 C   0  0  0  0  0  0  0  0  0  0  0  0
    0.9077    4.9141    0.9316 C   0  0  0  0  0  0  0  0  0  0  0  0
    1.1107    3.6017    0.5053 C   0  0  0  0  0  0  0  0  0  0  0  0
    0.8240    1.4051   -1.5876 C   0  0  0  0  0  0  0  0  0  0  0  0
    0.4219    2.3322   -2.5642 C   0  0  0  0  0  0  0  0  0  0  0  0
    1.1432    2.4755   -3.7526 C   0  0  0  0  0  0  0  0  0  0  0  0
    2.2623    1.6759   -3.9974 C   0  0  0  0  0  0  0  0  0  0  0  0
    3.2774    1.9592   -5.4475 S   0  0  0  0  0  0  0  0  0  0  0  0
    2.2399    0.9342   -6.5281 C   0  0  0  0  0  0  0  0  0  0  0  0
    2.6372    0.7008   -3.0625 C   0  0  0  0  0  0  0  0  0  0  0  0
    1.9228    0.5603   -1.8727 C   0  0  0  0  0  0  0  0  0  0  0  0
    1.3932   -0.0295    1.3486 C   0  0  0  0  0  0  0  0  0  0  0  0
    2.7139    0.8976    1.7377 S   0  0  0  0  0  0  0  0  0  0  0  0
    3.7315   -0.4181    2.0632 C   0  0  0  0  0  0  0  0  0  0  0  0
    3.0382   -1.6275    1.8357 C   0  0  0  0  0  0  0  0  0  0  0  0
    3.7236   -2.8350    1.4566 N   0  0  0  0  0  0  0  0  0  0  0  0
    3.4946   -4.0868    2.1168 C   0  0  0  0  0  0  0  0  0  0  0  0
    4.3725   -4.5217    3.1216 C   0  0  0  0  0  0  0  0  0  0  0  0
    4.2243   -5.7865    3.6931 C   0  0  0  0  0  0  0  0  0  0  0  0
    3.1990   -6.6370    3.2549 C   0  0  0  0  0  0  0  0  0  0  0  0
    3.0069   -8.2572    3.9985 S   0  0  0  0  0  0  0  0  0  0  0  0
    4.0690   -9.0817    2.7695 C   0  0  0  0  0  0  0  0  0  0  0  0
    2.3338   -6.2154    2.2402 C   0  0  0  0  0  0  0  0  0  0  0  0
    2.4921   -4.9528    1.6651 C   0  0  0  0  0  0  0  0  0  0  0  0
    4.5334   -2.8162    0.2731 C   0  0  0  0  0  0  0  0  0  0  0  0
    3.9330   -2.6422   -0.9827 C   0  0  0  0  0  0  0  0  0  0  0  0
    4.7229   -2.5340   -2.1288 C   0  0  0  0  0  0  0  0  0  0  0  0
    6.1169   -2.6053   -2.0287 C   0  0  0  0  0  0  0  0  0  0  0  0
    7.1162   -2.3940   -3.5016 S   0  0  0  0  0  0  0  0  0  0  0  0
    7.1217   -0.5731   -3.3961 C   0  0  0  0  0  0  0  0  0  0  0  0
    6.7171   -2.8059   -0.7816 C   0  0  0  0  0  0  0  0  0  0  0  0
    5.9265   -2.9273    0.3659 C   0  0  0  0  0  0  0  0  0  0  0  0
    1.7049   -1.3546    1.4756 C   0  0  0  0  0  0  0  0  0  0  0  0
    0.4909   -2.2587    0.7426 S   0  0  0  0  0  0  0  0  0  0  0  0
    5.1523   -0.2201    2.4285 C   0  0  0  0  0  0  0  0  0  0  0  0
    5.9059    0.7574    1.7541 C   0  0  0  0  0  0  0  0  0  0  0  0
    5.4389    1.3226    0.6225 F   0  0  0  0  0  0  0  0  0  0  0  0
    7.1025    1.2303    2.3050 C   0  0  0  0  0  0  0  0  0  0  0  0
    7.7495    2.2615    1.7008 F   0  0  0  0  0  0  0  0  0  0  0  0
    7.5636    0.7323    3.5320 C   0  0  0  0  0  0  0  0  0  0  0  0
    6.8964   -0.3492    4.1279 C   0  0  0  0  0  0  0  0  0  0  0  0
    7.3701   -0.8901    5.2753 F   0  0  0  0  0  0  0  0  0  0  0  0
    5.6781   -0.7952    3.6016 C   0  0  0  0  0  0  0  0  0  0  0  0
    4.9428   -1.6754    4.3187 F   0  0  0  0  0  0  0  0  0  0  0  0
    8.6853    1.4216    4.2005 C   0  0  0  0  0  0  0  0  0  0  0  0
    8.5566    2.0774    5.3754 C   0  0  0  0  0  0  0  0  0  0  0  0
    7.4044    2.0314    6.2888 C   0  0  0  0  0  0  0  0  0  0  0  0
    6.2237    1.7006    5.9963 O   0  0  0  0  0  0  0  0  0  0  0  0
    7.8517    2.4509    7.6095 C   0  0  0  0  0  0  0  0  0  0  0  0
    7.1769    2.3781    8.8302 C   0  0  0  0  0  0  0  0  0  0  0  0
    5.4904    1.8674    8.9062 Cl  0  0  0  0  0  0  0  0  0  0  0  0
    7.8928    2.6717   10.0087 C   0  0  0  0  0  0  0  0  0  0  0  0
    7.0723    2.6068   11.5716 Cl  0  0  0  0  0  0  0  0  0  0  0  0
    9.2816    2.9505    9.9488 C   0  0  0  0  0  0  0  0  0  0  0  0
   10.1907    3.1969   11.4412 Cl  0  0  0  0  0  0  0  0  0  0  0  0
    9.9415    3.0003    8.7025 C   0  0  0  0  0  0  0  0  0  0  0  0
   11.7072    3.0553    8.6556 Cl  0  0  0  0  0  0  0  0  0  0  0  0
    9.1817    2.8354    7.5290 C   0  0  0  0  0  0  0  0  0  0  0  0
    9.6212    2.8175    6.1045 C   0  0  0  0  0  0  0  0  0  0  0  0
   10.4393    3.7379    5.5272 C   0  0  0  0  0  0  0  0  0  0  0  0
   10.6271    3.8066    4.0998 C   0  0  0  0  0  0  0  0  0  0  0  0
   10.7913    3.8857    2.9574 N   0  0  0  0  0  0  0  0  0  0  0  0
   10.9884    4.8430    6.2688 C   0  0  0  0  0  0  0  0  0  0  0  0
   11.4283    5.7489    6.8422 N   0  0  0  0  0  0  0  0  0  0  0  0
   -6.0300    1.3382   -4.9099 H   0  0  0  0  0  0  0  0  0  0  0  0
   -3.4145   -3.2226   -5.4982 H   0  0  0  0  0  0  0  0  0  0  0  0
   -4.7087   -5.2072   -4.8792 H   0  0  0  0  0  0  0  0  0  0  0  0
   -8.0316   -5.1156   -3.2985 H   0  0  0  0  0  0  0  0  0  0  0  0
   -6.6306   -5.6004   -2.2621 H   0  0  0  0  0  0  0  0  0  0  0  0
   -6.7500   -6.1871   -3.9684 H   0  0  0  0  0  0  0  0  0  0  0  0
   -7.4376   -2.7398   -2.6383 H   0  0  0  0  0  0  0  0  0  0  0  0
   -6.1939   -0.7607   -3.2901 H   0  0  0  0  0  0  0  0  0  0  0  0
   -1.2061   -0.4201   -5.1210 H   0  0  0  0  0  0  0  0  0  0  0  0
   -0.0396   -0.5883   -7.2749 H   0  0  0  0  0  0  0  0  0  0  0  0
   -1.7063   -1.4121  -10.4886 H   0  0  0  0  0  0  0  0  0  0  0  0
   -0.1262   -1.2631   -9.6445 H   0  0  0  0  0  0  0  0  0  0  0  0
   -0.9972    0.2266  -10.1881 H   0  0  0  0  0  0  0  0  0  0  0  0
   -3.8173   -0.7688   -9.3267 H   0  0  0  0  0  0  0  0  0  0  0  0
   -4.9925   -0.6830   -7.1644 H   0  0  0  0  0  0  0  0  0  0  0  0
   -4.7098   -0.5478    3.4602 H   0  0  0  0  0  0  0  0  0  0  0  0
   -6.3496   -2.2614    3.9768 H   0  0  0  0  0  0  0  0  0  0  0  0
   -7.1062   -4.6656    3.3985 H   0  0  0  0  0  0  0  0  0  0  0  0
   -7.2825   -5.0917    1.6619 H   0  0  0  0  0  0  0  0  0  0  0  0
   -8.3040   -3.7831    2.3705 H   0  0  0  0  0  0  0  0  0  0  0  0
   -5.9559   -3.9011    0.0226 H   0  0  0  0  0  0  0  0  0  0  0  0
   -4.2957   -2.2124   -0.5239 H   0  0  0  0  0  0  0  0  0  0  0  0
   -4.8651    2.0112    1.4676 H   0  0  0  0  0  0  0  0  0  0  0  0
   -4.4429    3.8186    3.0796 H   0  0  0  0  0  0  0  0  0  0  0  0
   -2.8827    4.9605    4.5498 H   0  0  0  0  0  0  0  0  0  0  0  0
   -1.2799    4.2230    4.9332 H   0  0  0  0  0  0  0  0  0  0  0  0
   -2.7567    3.7154    5.8505 H   0  0  0  0  0  0  0  0  0  0  0  0
   -0.9142    1.7510    4.4564 H   0  0  0  0  0  0  0  0  0  0  0  0
   -1.3700   -0.0668    2.8659 H   0  0  0  0  0  0  0  0  0  0  0  0
   -2.1313    2.6273    0.2191 H   0  0  0  0  0  0  0  0  0  0  0  0
   -2.4908    4.9277    1.0513 H   0  0  0  0  0  0  0  0  0  0  0  0
    0.0070    7.8199    3.8281 H   0  0  0  0  0  0  0  0  0  0  0  0
   -1.3173    6.5979    3.8724 H   0  0  0  0  0  0  0  0  0  0  0  0
    0.4052    6.0675    3.5923 H   0  0  0  0  0  0  0  0  0  0  0  0
    1.7583    5.5741    1.0496 H   0  0  0  0  0  0  0  0  0  0  0  0
    2.1128    3.2743    0.2708 H   0  0  0  0  0  0  0  0  0  0  0  0
   -0.4230    2.9787   -2.3820 H   0  0  0  0  0  0  0  0  0  0  0  0
    0.8499    3.2313   -4.4661 H   0  0  0  0  0  0  0  0  0  0  0  0
    1.2219    1.3776   -6.5882 H   0  0  0  0  0  0  0  0  0  0  0  0
    2.6802    0.9102   -7.5477 H   0  0  0  0  0  0  0  0  0  0  0  0
    2.1803   -0.1037   -6.1331 H   0  0  0  0  0  0  0  0  0  0  0  0
    3.5104    0.0923   -3.2398 H   0  0  0  0  0  0  0  0  0  0  0  0
    2.2735   -0.1635   -1.1587 H   0  0  0  0  0  0  0  0  0  0  0  0
    5.2046   -3.9028    3.4246 H   0  0  0  0  0  0  0  0  0  0  0  0
    4.9159   -6.1157    4.4578 H   0  0  0  0  0  0  0  0  0  0  0  0
    5.0836   -8.6249    2.7637 H   0  0  0  0  0  0  0  0  0  0  0  0
    3.6103   -8.9948    1.7597 H   0  0  0  0  0  0  0  0  0  0  0  0
    4.1648  -10.1604    3.0263 H   0  0  0  0  0  0  0  0  0  0  0  0
    1.5593   -6.8793    1.8780 H   0  0  0  0  0  0  0  0  0  0  0  0
    1.8658   -4.6790    0.8324 H   0  0  0  0  0  0  0  0  0  0  0  0
    2.8551   -2.5746   -1.0716 H   0  0  0  0  0  0  0  0  0  0  0  0
    4.2550   -2.3859   -3.0920 H   0  0  0  0  0  0  0  0  0  0  0  0
    7.8708   -0.2431   -2.6452 H   0  0  0  0  0  0  0  0  0  0  0  0
    6.1187   -0.1801   -3.1144 H   0  0  0  0  0  0  0  0  0  0  0  0
    7.3946   -0.1589   -4.3927 H   0  0  0  0  0  0  0  0  0  0  0  0
    7.7952   -2.8684   -0.7015 H   0  0  0  0  0  0  0  0  0  0  0  0
    6.4028   -3.0582    1.3304 H   0  0  0  0  0  0  0  0  0  0  0  0
    9.6186    1.4732    3.6524 H   0  0  0  0  0  0  0  0  0  0  0  0
  1  2  2  3
  2  3  1  0
  3  4  2  0
  3  5  1  0
  5  6  2  0
  6  7  1  0
  6  8  1  0
  8  9  1  0
  8 10  2  0
 10 11  1  0
 10 12  1  0
 12 13  1  0
 12 14  2  0
 14 15  1  0
 15 16  2  3
 16 17  1  0
 17 18  3  0
 16 19  1  0
 19 20  3  0
  1 21  1  0
 21 22  2  0
 22 23  1  0
 23 24  1  0
 24 25  2  0
 25 26  1  0
 26 27  2  0
 27 28  1  0
 27 29  1  0
 29 30  2  0
 23 31  1  0
 31 32  2  0
 32 33  1  0
 33 34  2  0
 34 35  1  0
 34 36  1  0
 36 37  2  0
 22 38  1  0
 38 39  1  0
 39 40  1  0
 40 41  2  0
 41 42  1  0
 42 43  1  0
 43 44  2  0
 44 45  1  0
 45 46  2  0
 46 47  1  0
 46 48  1  0
 48 49  2  0
 42 50  1  0
 50 51  2  0
 51 52  1  0
 52 53  2  0
 53 54  1  0
 53 55  1  0
 55 56  2  0
 41 57  1  0
 57 58  1  0
 40 59  1  0
 59 60  2  0
 60 61  1  0
 61 62  1  0
 62 63  2  0
 63 64  1  0
 64 65  2  0
 65 66  1  0
 66 67  1  0
 65 68  1  0
 68 69  2  0
 61 70  1  0
 70 71  2  0
 71 72  1  0
 72 73  2  0
 73 74  1  0
 74 75  1  0
 73 76  1  0
 76 77  2  0
 60 78  1  0
 78 79  1  0
 79 80  1  0
 80 81  2  0
 81 82  1  0
 82 83  1  0
 83 84  2  0
 84 85  1  0
 85 86  2  0
 86 87  1  0
 87 88  1  0
 86 89  1  0
 89 90  2  0
 82 91  1  0
 91 92  2  0
 92 93  1  0
 93 94  2  0
 94 95  1  0
 95 96  1  0
 94 97  1  0
 97 98  2  0
 81 99  1  0
 99100  1  0
 80101  1  0
101102  2  0
102103  1  0
102104  1  0
104105  1  0
104106  2  0
106107  1  0
107108  1  0
107109  2  0
109110  1  0
106111  1  0
111112  2  3
112113  1  0
113114  2  0
113115  1  0
115116  2  0
116117  1  0
116118  1  0
118119  1  0
118120  2  0
120121  1  0
120122  1  0
122123  1  0
122124  2  0
124125  1  0
125126  2  3
126127  1  0
127128  3  0
126129  1  0
129130  3  0
 15  2  1  0
 58 21  1  0
100 59  1  0
109101  1  0
125112  1  0
 14  5  1  0
 30 24  1  0
 37 31  1  0
 57 38  2  0
 69 62  1  0
 77 70  1  0
 99 78  2  0
124115  1  0
 49 43  1  0
 56 50  1  0
 90 83  1  0
 98 91  1  0
  1131  1  0
 25132  1  0
 26133  1  0
 28134  1  0
 28135  1  0
 28136  1  0
 29137  1  0
 30138  1  0
 32139  1  0
 33140  1  0
 35141  1  0
 35142  1  0
 35143  1  0
 36144  1  0
 37145  1  0
 44146  1  0
 45147  1  0
 47148  1  0
 47149  1  0
 47150  1  0
 48151  1  0
 49152  1  0
 51153  1  0
 52154  1  0
 54155  1  0
 54156  1  0
 54157  1  0
 55158  1  0
 56159  1  0
 63160  1  0
 64161  1  0
 67162  1  0
 67163  1  0
 67164  1  0
 68165  1  0
 69166  1  0
 71167  1  0
 72168  1  0
 75169  1  0
 75170  1  0
 75171  1  0
 76172  1  0
 77173  1  0
 84174  1  0
 85175  1  0
 88176  1  0
 88177  1  0
 88178  1  0
 89179  1  0
 90180  1  0
 92181  1  0
 93182  1  0
 96183  1  0
 96184  1  0
 96185  1  0
 97186  1  0
 98187  1  0
111188  1  0
M  END

