
     RDKit          3D

198216  0  0  0  0  0  0  0  0999 V2000
    5.9329   -2.9770    3.6566 C   0  0  0  0  0  0  0  0  0  0  0  0
    6.7566   -2.3975    4.5474 C   0  0  0  0  0  0  0  0  0  0  0  0
    6.3739   -1.4302    5.5781 C   0  0  0  0  0  0  0  0  0  0  0  0
    5.2724   -0.8212    5.6463 O   0  0  0  0  0  0  0  0  0  0  0  0
    7.4576   -1.3299    6.5390 C   0  0  0  0  0  0  0  0  0  0  0  0
    7.4436   -0.7216    7.8003 C   0  0  0  0  0  0  0  0  0  0  0  0
    6.0884    0.2806    8.3206 Cl  0  0  0  0  0  0  0  0  0  0  0  0
    8.5271   -0.9513    8.6667 C   0  0  0  0  0  0  0  0  0  0  0  0
    8.5619   -0.1712   10.2507 Cl  0  0  0  0  0  0  0  0  0  0  0  0
    9.5552   -1.8423    8.2861 C   0  0  0  0  0  0  0  0  0  0  0  0
   10.8708   -2.1915    9.4135 Cl  0  0  0  0  0  0  0  0  0  0  0  0
    9.5197   -2.4827    7.0241 C   0  0  0  0  0  0  0  0  0  0  0  0
   10.6023   -3.8442    6.7182 Cl  0  0  0  0  0  0  0  0  0  0  0  0
    8.4965   -2.1399    6.1237 C   0  0  0  0  0  0  0  0  0  0  0  0
    8.1909   -2.7038    4.7789 C   0  0  0  0  0  0  0  0  0  0  0  0
    9.1092   -2.9423    3.8031 C   0  0  0  0  0  0  0  0  0  0  0  0
   10.4873   -2.5485    3.9618 C   0  0  0  0  0  0  0  0  0  0  0  0
   11.5940   -2.2191    4.0773 N   0  0  0  0  0  0  0  0  0  0  0  0
    8.7503   -3.3984    2.4847 C   0  0  0  0  0  0  0  0  0  0  0  0
    8.4856   -3.7883    1.4238 N   0  0  0  0  0  0  0  0  0  0  0  0
    4.5587   -2.5110    3.4465 C   0  0  0  0  0  0  0  0  0  0  0  0
    4.1548   -1.7050    2.3838 C   0  0  0  0  0  0  0  0  0  0  0  0
    4.9658   -1.4044    1.2384 N   0  0  0  0  0  0  0  0  0  0  0  0
    4.6624   -2.0987    0.0123 C   0  0  0  0  0  0  0  0  0  0  0  0
    4.4461   -1.3944   -1.1860 C   0  0  0  0  0  0  0  0  0  0  0  0
    4.1069   -2.0853   -2.3546 C   0  0  0  0  0  0  0  0  0  0  0  0
    4.0058   -3.4861   -2.3473 C   0  0  0  0  0  0  0  0  0  0  0  0
    3.6046   -4.2261   -3.5875 C   0  0  0  0  0  0  0  0  0  0  0  0
    4.2057   -4.1839   -1.1505 C   0  0  0  0  0  0  0  0  0  0  0  0
    4.5416   -3.4973    0.0164 C   0  0  0  0  0  0  0  0  0  0  0  0
    5.9841   -0.3745    1.2985 C   0  0  0  0  0  0  0  0  0  0  0  0
    5.9272    0.6417    2.2712 C   0  0  0  0  0  0  0  0  0  0  0  0
    6.8650    1.6795    2.2783 C   0  0  0  0  0  0  0  0  0  0  0  0
    7.8846    1.7174    1.3161 C   0  0  0  0  0  0  0  0  0  0  0  0
    8.8856    2.8396    1.3214 C   0  0  0  0  0  0  0  0  0  0  0  0
    7.9878    0.6733    0.3877 C   0  0  0  0  0  0  0  0  0  0  0  0
    7.0526   -0.3669    0.3836 C   0  0  0  0  0  0  0  0  0  0  0  0
    2.8093   -1.3925    2.4802 C   0  0  0  0  0  0  0  0  0  0  0  0
    1.7617   -0.5031    1.5394 S   0  0  0  0  0  0  0  0  0  0  0  0
    0.4179   -0.7693    2.5598 C   0  0  0  0  0  0  0  0  0  0  0  0
    0.7899   -1.6432    3.6060 C   0  0  0  0  0  0  0  0  0  0  0  0
   -0.1222   -2.3620    4.4617 N   0  0  0  0  0  0  0  0  0  0  0  0
   -1.0930   -3.2559    3.8716 C   0  0  0  0  0  0  0  0  0  0  0  0
   -2.3216   -3.4849    4.5124 C   0  0  0  0  0  0  0  0  0  0  0  0
   -3.2568   -4.3623    3.9574 C   0  0  0  0  0  0  0  0  0  0  0  0
   -2.9829   -5.0208    2.7522 C   0  0  0  0  0  0  0  0  0  0  0  0
   -3.9614   -5.9985    2.1734 C   0  0  0  0  0  0  0  0  0  0  0  0
   -1.7509   -4.8120    2.1188 C   0  0  0  0  0  0  0  0  0  0  0  0
   -0.8084   -3.9449    2.6773 C   0  0  0  0  0  0  0  0  0  0  0  0
    0.2280   -2.5263    5.8527 C   0  0  0  0  0  0  0  0  0  0  0  0
    0.4629   -3.8093    6.3841 C   0  0  0  0  0  0  0  0  0  0  0  0
    0.9256   -3.9572    7.6950 C   0  0  0  0  0  0  0  0  0  0  0  0
    1.1353   -2.8336    8.5012 C   0  0  0  0  0  0  0  0  0  0  0  0
    1.7109   -2.9873    9.8788 C   0  0  0  0  0  0  0  0  0  0  0  0
    0.8837   -1.5543    7.9828 C   0  0  0  0  0  0  0  0  0  0  0  0
    0.4298   -1.4036    6.6668 C   0  0  0  0  0  0  0  0  0  0  0  0
    2.1594   -1.9247    3.5445 C   0  0  0  0  0  0  0  0  0  0  0  0
    3.2255   -2.8546    4.4517 S   0  0  0  0  0  0  0  0  0  0  0  0
   -0.8940   -0.1532    2.3019 C   0  0  0  0  0  0  0  0  0  0  0  0
   -1.0540    1.1854    1.8674 C   0  0  0  0  0  0  0  0  0  0  0  0
   -0.2472    2.3302    2.2740 N   0  0  0  0  0  0  0  0  0  0  0  0
   -0.8127    3.6603    2.2320 C   0  0  0  0  0  0  0  0  0  0  0  0
   -2.0635    3.9217    2.8276 C   0  0  0  0  0  0  0  0  0  0  0  0
   -2.5732    5.2273    2.8639 C   0  0  0  0  0  0  0  0  0  0  0  0
   -1.8320    6.2849    2.3291 C   0  0  0  0  0  0  0  0  0  0  0  0
   -2.4587    7.9602    2.4253 S   0  0  0  0  0  0  0  0  0  0  0  0
   -1.7949    8.2502    4.0990 C   0  0  0  0  0  0  0  0  0  0  0  0
   -0.5943    6.0339    1.7235 C   0  0  0  0  0  0  0  0  0  0  0  0
   -0.0958    4.7262    1.6655 C   0  0  0  0  0  0  0  0  0  0  0  0
    0.9095    2.1879    3.1210 C   0  0  0  0  0  0  0  0  0  0  0  0
    2.1739    2.5814    2.6563 C   0  0  0  0  0  0  0  0  0  0  0  0
    3.2598    2.6249    3.5258 C   0  0  0  0  0  0  0  0  0  0  0  0
    3.1127    2.2239    4.8554 C   0  0  0  0  0  0  0  0  0  0  0  0
    4.5212    2.2951    5.9625 S   0  0  0  0  0  0  0  0  0  0  0  0
    3.9179    3.7531    6.8717 C   0  0  0  0  0  0  0  0  0  0  0  0
    1.8681    1.7870    5.3174 C   0  0  0  0  0  0  0  0  0  0  0  0
    0.7598    1.7966    4.4604 C   0  0  0  0  0  0  0  0  0  0  0  0
   -2.1347    1.2911    0.9903 C   0  0  0  0  0  0  0  0  0  0  0  0
   -2.4699    2.3593   -0.2497 S   0  0  0  0  0  0  0  0  0  0  0  0
   -3.6139    1.3557   -1.0251 C   0  0  0  0  0  0  0  0  0  0  0  0
   -3.7318    0.1659   -0.2877 C   0  0  0  0  0  0  0  0  0  0  0  0
   -4.7790   -0.8097   -0.4422 N   0  0  0  0  0  0  0  0  0  0  0  0
   -4.8878   -1.6517   -1.6176 C   0  0  0  0  0  0  0  0  0  0  0  0
   -3.7736   -1.8737   -2.4516 C   0  0  0  0  0  0  0  0  0  0  0  0
   -3.8868   -2.6864   -3.5841 C   0  0  0  0  0  0  0  0  0  0  0  0
   -5.1006   -3.3183   -3.8734 C   0  0  0  0  0  0  0  0  0  0  0  0
   -5.2214   -4.4270   -5.2806 S   0  0  0  0  0  0  0  0  0  0  0  0
   -5.9316   -3.1538   -6.3659 C   0  0  0  0  0  0  0  0  0  0  0  0
   -6.2075   -3.1138   -3.0514 C   0  0  0  0  0  0  0  0  0  0  0  0
   -6.1091   -2.2776   -1.9389 C   0  0  0  0  0  0  0  0  0  0  0  0
   -5.7011   -0.9310    0.6649 C   0  0  0  0  0  0  0  0  0  0  0  0
   -5.9636   -2.1851    1.2446 C   0  0  0  0  0  0  0  0  0  0  0  0
   -6.8128   -2.2852    2.3515 C   0  0  0  0  0  0  0  0  0  0  0  0
   -7.3899   -1.1338    2.8984 C   0  0  0  0  0  0  0  0  0  0  0  0
   -8.4565   -1.2494    4.3382 S   0  0  0  0  0  0  0  0  0  0  0  0
   -9.9903   -1.2838    3.3519 C   0  0  0  0  0  0  0  0  0  0  0  0
   -7.1144    0.1163    2.3399 C   0  0  0  0  0  0  0  0  0  0  0  0
   -6.2765    0.2223    1.2306 C   0  0  0  0  0  0  0  0  0  0  0  0
   -2.8690    0.1655    0.8068 C   0  0  0  0  0  0  0  0  0  0  0  0
   -2.1665   -1.0850    1.6525 S   0  0  0  0  0  0  0  0  0  0  0  0
   -3.9596    1.5303   -2.4478 C   0  0  0  0  0  0  0  0  0  0  0  0
   -2.9311    1.9086   -3.3331 C   0  0  0  0  0  0  0  0  0  0  0  0
   -3.2255    2.0545   -4.6768 C   0  0  0  0  0  0  0  0  0  0  0  0
   -2.3455    2.4521   -5.7615 C   0  0  0  0  0  0  0  0  0  0  0  0
   -1.1216    2.7397   -5.6803 O   0  0  0  0  0  0  0  0  0  0  0  0
   -3.1727    2.5089   -6.9500 C   0  0  0  0  0  0  0  0  0  0  0  0
   -4.4686    2.1614   -6.6134 C   0  0  0  0  0  0  0  0  0  0  0  0
   -4.4988    1.8596   -5.1716 C   0  0  0  0  0  0  0  0  0  0  0  0
   -5.5443    1.4782   -4.3248 C   0  0  0  0  0  0  0  0  0  0  0  0
   -5.2645    1.3062   -2.9506 C   0  0  0  0  0  0  0  0  0  0  0  0
   -5.4901    2.1852   -7.5685 C   0  0  0  0  0  0  0  0  0  0  0  0
   -5.1626    2.5930   -8.8803 C   0  0  0  0  0  0  0  0  0  0  0  0
   -3.8407    2.9965   -9.2055 C   0  0  0  0  0  0  0  0  0  0  0  0
   -2.8274    2.9060   -8.2308 C   0  0  0  0  0  0  0  0  0  0  0  0
   -3.4870    3.3962  -10.5841 C   0  0  0  0  0  0  0  0  0  0  0  0
   -2.7013    4.4632  -10.8686 C   0  0  0  0  0  0  0  0  0  0  0  0
   -2.2804    5.4979   -9.9107 C   0  0  0  0  0  0  0  0  0  0  0  0
   -2.8118    5.7486   -8.7955 O   0  0  0  0  0  0  0  0  0  0  0  0
   -1.1810    6.2364  -10.4769 C   0  0  0  0  0  0  0  0  0  0  0  0
   -0.3689    7.1872   -9.8573 C   0  0  0  0  0  0  0  0  0  0  0  0
    0.7475    7.6714  -10.5587 C   0  0  0  0  0  0  0  0  0  0  0  0
    1.8038    8.8497   -9.7867 Cl  0  0  0  0  0  0  0  0  0  0  0  0
    1.0460    7.1681  -11.8363 C   0  0  0  0  0  0  0  0  0  0  0  0
    2.1422    7.6137  -12.5043 F   0  0  0  0  0  0  0  0  0  0  0  0
    0.2111    6.2158  -12.4403 C   0  0  0  0  0  0  0  0  0  0  0  0
   -0.9369    5.7868  -11.7602 C   0  0  0  0  0  0  0  0  0  0  0  0
   -1.9388    4.7414  -12.1296 C   0  0  0  0  0  0  0  0  0  0  0  0
   -2.1852    4.2788  -13.3848 C   0  0  0  0  0  0  0  0  0  0  0  0
   -3.2070    3.3023  -13.6747 C   0  0  0  0  0  0  0  0  0  0  0  0
   -4.0089    2.5037  -13.9101 N   0  0  0  0  0  0  0  0  0  0  0  0
   -1.5645    4.8465  -14.5511 C   0  0  0  0  0  0  0  0  0  0  0  0
   -1.1079    5.3237  -15.4980 N   0  0  0  0  0  0  0  0  0  0  0  0
    6.2898   -3.7606    3.0052 H   0  0  0  0  0  0  0  0  0  0  0  0
    4.5034   -0.3141   -1.1993 H   0  0  0  0  0  0  0  0  0  0  0  0
    3.9355   -1.5279   -3.2647 H   0  0  0  0  0  0  0  0  0  0  0  0
    2.5199   -4.4619   -3.5401 H   0  0  0  0  0  0  0  0  0  0  0  0
    3.8060   -3.6170   -4.4953 H   0  0  0  0  0  0  0  0  0  0  0  0
    4.1825   -5.1690   -3.6701 H   0  0  0  0  0  0  0  0  0  0  0  0
    4.1075   -5.2606   -1.1236 H   0  0  0  0  0  0  0  0  0  0  0  0
    4.6954   -4.0587    0.9275 H   0  0  0  0  0  0  0  0  0  0  0  0
    5.1448    0.6428    3.0160 H   0  0  0  0  0  0  0  0  0  0  0  0
    6.7979    2.4585    3.0295 H   0  0  0  0  0  0  0  0  0  0  0  0
    9.7094    2.5875    2.0243 H   0  0  0  0  0  0  0  0  0  0  0  0
    9.3041    2.9946    0.3002 H   0  0  0  0  0  0  0  0  0  0  0  0
    8.4013    3.7884    1.6397 H   0  0  0  0  0  0  0  0  0  0  0  0
    8.7963    0.6672   -0.3315 H   0  0  0  0  0  0  0  0  0  0  0  0
    7.1576   -1.1533   -0.3445 H   0  0  0  0  0  0  0  0  0  0  0  0
   -2.5552   -2.9776    5.4408 H   0  0  0  0  0  0  0  0  0  0  0  0
   -4.1943   -4.5315    4.4738 H   0  0  0  0  0  0  0  0  0  0  0  0
   -3.9793   -5.9196    1.0643 H   0  0  0  0  0  0  0  0  0  0  0  0
   -4.9882   -5.8041    2.5486 H   0  0  0  0  0  0  0  0  0  0  0  0
   -3.6644   -7.0298    2.4587 H   0  0  0  0  0  0  0  0  0  0  0  0
   -1.5164   -5.3289    1.1954 H   0  0  0  0  0  0  0  0  0  0  0  0
    0.1447   -3.8175    2.1766 H   0  0  0  0  0  0  0  0  0  0  0  0
    0.3282   -4.6938    5.7680 H   0  0  0  0  0  0  0  0  0  0  0  0
    1.1395   -4.9522    8.0684 H   0  0  0  0  0  0  0  0  0  0  0  0
    2.8107   -2.8428    9.8315 H   0  0  0  0  0  0  0  0  0  0  0  0
    1.4989   -3.9989   10.2916 H   0  0  0  0  0  0  0  0  0  0  0  0
    1.2762   -2.2338   10.5718 H   0  0  0  0  0  0  0  0  0  0  0  0
    1.0302   -0.6727    8.5976 H   0  0  0  0  0  0  0  0  0  0  0  0
    0.2334   -0.4136    6.2803 H   0  0  0  0  0  0  0  0  0  0  0  0
   -2.6202    3.1196    3.2989 H   0  0  0  0  0  0  0  0  0  0  0  0
   -3.5312    5.4176    3.3352 H   0  0  0  0  0  0  0  0  0  0  0  0
   -2.3152    7.5938    4.8284 H   0  0  0  0  0  0  0  0  0  0  0  0
   -0.7077    8.0435    4.1240 H   0  0  0  0  0  0  0  0  0  0  0  0
   -1.9566    9.3126    4.3808 H   0  0  0  0  0  0  0  0  0  0  0  0
   -0.0153    6.8409    1.2990 H   0  0  0  0  0  0  0  0  0  0  0  0
    0.8524    4.5582    1.1796 H   0  0  0  0  0  0  0  0  0  0  0  0
    2.3118    2.8513    1.6203 H   0  0  0  0  0  0  0  0  0  0  0  0
    4.2187    2.9604    3.1581 H   0  0  0  0  0  0  0  0  0  0  0  0
    3.0586    3.4591    7.5126 H   0  0  0  0  0  0  0  0  0  0  0  0
    4.7322    4.1442    7.5197 H   0  0  0  0  0  0  0  0  0  0  0  0
    3.6018    4.5491    6.1625 H   0  0  0  0  0  0  0  0  0  0  0  0
    1.7433    1.4851    6.3477 H   0  0  0  0  0  0  0  0  0  0  0  0
   -0.2176    1.5172    4.8338 H   0  0  0  0  0  0  0  0  0  0  0  0
   -2.8154   -1.4218   -2.2228 H   0  0  0  0  0  0  0  0  0  0  0  0
   -3.0221   -2.8366   -4.2208 H   0  0  0  0  0  0  0  0  0  0  0  0
   -6.2429   -3.6263   -7.3206 H   0  0  0  0  0  0  0  0  0  0  0  0
   -5.1639   -2.3793   -6.5833 H   0  0  0  0  0  0  0  0  0  0  0  0
   -6.8269   -2.6927   -5.8954 H   0  0  0  0  0  0  0  0  0  0  0  0
   -7.1504   -3.5957   -3.2792 H   0  0  0  0  0  0  0  0  0  0  0  0
   -6.9947   -2.1201   -1.3399 H   0  0  0  0  0  0  0  0  0  0  0  0
   -5.5017   -3.0777    0.8433 H   0  0  0  0  0  0  0  0  0  0  0  0
   -7.0122   -3.2578    2.7848 H   0  0  0  0  0  0  0  0  0  0  0  0
   -9.9834   -2.1400    2.6439 H   0  0  0  0  0  0  0  0  0  0  0  0
  -10.8556   -1.3894    4.0378 H   0  0  0  0  0  0  0  0  0  0  0  0
  -10.0976   -0.3327    2.7873 H   0  0  0  0  0  0  0  0  0  0  0  0
   -7.5456    1.0143    2.7715 H   0  0  0  0  0  0  0  0  0  0  0  0
   -6.0766    1.2041    0.8160 H   0  0  0  0  0  0  0  0  0  0  0  0
   -1.9146    2.0688   -2.9882 H   0  0  0  0  0  0  0  0  0  0  0  0
   -6.5427    1.3146   -4.7012 H   0  0  0  0  0  0  0  0  0  0  0  0
   -6.0545    1.0038   -2.2759 H   0  0  0  0  0  0  0  0  0  0  0  0
   -6.5011    1.9061   -7.3079 H   0  0  0  0  0  0  0  0  0  0  0  0
   -5.9381    2.6193   -9.6362 H   0  0  0  0  0  0  0  0  0  0  0  0
   -1.7971    3.1439   -8.4683 H   0  0  0  0  0  0  0  0  0  0  0  0
   -3.7600    2.6924  -11.3438 H   0  0  0  0  0  0  0  0  0  0  0  0
   -0.5803    7.5227   -8.8502 H   0  0  0  0  0  0  0  0  0  0  0  0
    0.4927    5.8037  -13.3944 H   0  0  0  0  0  0  0  0  0  0  0  0
  1  2  2  3
  2  3  1  0
  3  4  2  0
  3  5  1  0
  5  6  2  0
  6  7  1  0
  6  8  1  0
  8  9  1  0
  8 10  2  0
 10 11  1  0
 10 12  1  0
 12 13  1  0
 12 14  2  0
 14 15  1  0
 15 16  2  3
 16 17  1  0
 17 18  3  0
 16 19  1  0
 19 20  3  0
  1 21  1  0
 21 22  2  0
 22 23  1  0
 23 24  1  0
 24 25  2  0
 25 26  1  0
 26 27  2  0
 27 28  1  0
 27 29  1  0
 29 30  2  0
 23 31  1  0
 31 32  2  0
 32 33  1  0
 33 34  2  0
 34 35  1  0
 34 36  1  0
 36 37  2  0
 22 38  1  0
 38 39  1  0
 39 40  1  0
 40 41  2  0
 41 42  1  0
 42 43  1  0
 43 44  2  0
 44 45  1  0
 45 46  2  0
 46 47  1  0
 46 48  1  0
 48 49  2  0
 42 50  1  0
 50 51  2  0
 51 52  1  0
 52 53  2  0
 53 54  1  0
 53 55  1  0
 55 56  2  0
 41 57  1  0
 57 58  1  0
 40 59  1  0
 59 60  2  0
 60 61  1  0
 61 62  1  0
 62 63  2  0
 63 64  1  0
 64 65  2  0
 65 66  1  0
 66 67  1  0
 65 68  1  0
 68 69  2  0
 61 70  1  0
 70 71  2  0
 71 72  1  0
 72 73  2  0
 73 74  1  0
 74 75  1  0
 73 76  1  0
 76 77  2  0
 60 78  1  0
 78 79  1  0
 79 80  1  0
 80 81  2  0
 81 82  1  0
 82 83  1  0
 83 84  2  0
 84 85  1  0
 85 86  2  0
 86 87  1  0
 87 88  1  0
 86 89  1  0
 89 90  2  0
 82 91  1  0
 91 92  2  0
 92 93  1  0
 93 94  2  0
 94 95  1  0
 95 96  1  0
 94 97  1  0
 97 98  2  0
 81 99  1  0
 99100  1  0
 80101  1  0
101102  2  0
102103  1  0
103104  1  0
104105  2  0
104106  1  0
106107  2  0
107108  1  0
108109  1  0
109110  2  0
107111  1  0
111112  2  0
112113  1  0
113114  2  0
113115  1  0
115116  2  3
116117  1  0
117118  2  0
117119  1  0
119120  2  0
120121  1  0
121122  1  0
121123  2  0
123124  1  0
123125  1  0
125126  2  0
126127  1  0
127128  2  3
128129  1  0
129130  3  0
128131  1  0
131132  3  0
 15  2  1  0
 58 21  1  0
100 59  1  0
110101  1  0
127116  1  0
 14  5  1  0
 30 24  1  0
 37 31  1  0
 57 38  2  0
 69 62  1  0
 77 70  1  0
 99 78  2  0
108103  2  0
126119  1  0
 49 43  1  0
 56 50  1  0
 90 83  1  0
 98 91  1  0
114106  1  0
  1133  1  0
 25134  1  0
 26135  1  0
 28136  1  0
 28137  1  0
 28138  1  0
 29139  1  0
 30140  1  0
 32141  1  0
 33142  1  0
 35143  1  0
 35144  1  0
 35145  1  0
 36146  1  0
 37147  1  0
 44148  1  0
 45149  1  0
 47150  1  0
 47151  1  0
 47152  1  0
 48153  1  0
 49154  1  0
 51155  1  0
 52156  1  0
 54157  1  0
 54158  1  0
 54159  1  0
 55160  1  0
 56161  1  0
 63162  1  0
 64163  1  0
 67164  1  0
 67165  1  0
 67166  1  0
 68167  1  0
 69168  1  0
 71169  1  0
 72170  1  0
 75171  1  0
 75172  1  0
 75173  1  0
 76174  1  0
 77175  1  0
 84176  1  0
 85177  1  0
 88178  1  0
 88179  1  0
 88180  1  0
 89181  1  0
 90182  1  0
 92183  1  0
 93184  1  0
 96185  1  0
 96186  1  0
 96187  1  0
 97188  1  0
 98189  1  0
102190  1  0
109191  1  0
110192  1  0
111193  1  0
112194  1  0
114195  1  0
115196  1  0
120197  1  0
125198  1  0
M  END

