
     RDKit          3D

210229  0  0  0  0  0  0  0  0999 V2000
   -1.5224   -6.6912    4.1475 C   0  0  0  0  0  0  0  0  0  0  0  0
   -2.0319   -6.8954    5.3668 C   0  0  0  0  0  0  0  0  0  0  0  0
   -3.1290   -6.0079    5.8133 C   0  0  0  0  0  0  0  0  0  0  0  0
   -3.0190   -4.7838    6.1052 O   0  0  0  0  0  0  0  0  0  0  0  0
   -4.4126   -6.7248    5.7414 C   0  0  0  0  0  0  0  0  0  0  0  0
   -5.6520   -6.1229    5.4309 C   0  0  0  0  0  0  0  0  0  0  0  0
   -5.9389   -4.4107    5.7593 Cl  0  0  0  0  0  0  0  0  0  0  0  0
   -6.6744   -6.9433    4.8677 C   0  0  0  0  0  0  0  0  0  0  0  0
   -8.2817   -6.2911    4.5825 Cl  0  0  0  0  0  0  0  0  0  0  0  0
   -6.3412   -8.2479    4.4323 C   0  0  0  0  0  0  0  0  0  0  0  0
   -7.5189   -9.1724    3.4781 Cl  0  0  0  0  0  0  0  0  0  0  0  0
   -5.0507   -8.8019    4.7220 C   0  0  0  0  0  0  0  0  0  0  0  0
   -4.5213  -10.1719    3.7732 Cl  0  0  0  0  0  0  0  0  0  0  0  0
   -4.1405   -8.0368    5.4546 C   0  0  0  0  0  0  0  0  0  0  0  0
   -2.6677   -8.2219    5.5708 C   0  0  0  0  0  0  0  0  0  0  0  0
   -2.0417   -9.2987    6.1109 C   0  0  0  0  0  0  0  0  0  0  0  0
   -2.7574  -10.4795    6.5251 C   0  0  0  0  0  0  0  0  0  0  0  0
   -3.3476  -11.4488    6.8425 N   0  0  0  0  0  0  0  0  0  0  0  0
   -0.6258   -9.2676    6.4104 C   0  0  0  0  0  0  0  0  0  0  0  0
    0.5066   -9.2298    6.6640 N   0  0  0  0  0  0  0  0  0  0  0  0
   -1.4522   -5.3684    3.4730 C   0  0  0  0  0  0  0  0  0  0  0  0
   -1.1896   -4.1076    4.0420 C   0  0  0  0  0  0  0  0  0  0  0  0
   -0.4060   -3.9266    5.2518 N   0  0  0  0  0  0  0  0  0  0  0  0
    0.7250   -4.7920    5.4076 C   0  0  0  0  0  0  0  0  0  0  0  0
    1.6734   -4.8555    4.3784 C   0  0  0  0  0  0  0  0  0  0  0  0
    2.9141   -5.4377    4.5786 C   0  0  0  0  0  0  0  0  0  0  0  0
    3.2222   -6.0141    5.8206 C   0  0  0  0  0  0  0  0  0  0  0  0
    4.5876   -6.5538    6.0876 C   0  0  0  0  0  0  0  0  0  0  0  0
    2.2554   -6.0216    6.8433 C   0  0  0  0  0  0  0  0  0  0  0  0
    1.0038   -5.4289    6.6342 C   0  0  0  0  0  0  0  0  0  0  0  0
   -0.4361   -2.7095    6.0376 C   0  0  0  0  0  0  0  0  0  0  0  0
    0.7584   -2.2100    6.6248 C   0  0  0  0  0  0  0  0  0  0  0  0
    0.7291   -1.1043    7.4661 C   0  0  0  0  0  0  0  0  0  0  0  0
   -0.4695   -0.4466    7.7122 C   0  0  0  0  0  0  0  0  0  0  0  0
   -0.4954    0.7009    8.6858 C   0  0  0  0  0  0  0  0  0  0  0  0
   -1.6478   -0.8859    7.0942 C   0  0  0  0  0  0  0  0  0  0  0  0
   -1.6373   -2.0152    6.2564 C   0  0  0  0  0  0  0  0  0  0  0  0
   -1.4035   -3.1063    3.0752 C   0  0  0  0  0  0  0  0  0  0  0  0
   -1.2661   -1.4424    3.0163 S   0  0  0  0  0  0  0  0  0  0  0  0
   -1.5783   -1.3095    1.3435 C   0  0  0  0  0  0  0  0  0  0  0  0
   -1.6127   -2.6094    0.8165 C   0  0  0  0  0  0  0  0  0  0  0  0
   -1.1573   -2.9623   -0.4905 N   0  0  0  0  0  0  0  0  0  0  0  0
   -1.9389   -3.8794   -1.2665 C   0  0  0  0  0  0  0  0  0  0  0  0
   -3.2693   -3.5702   -1.6283 C   0  0  0  0  0  0  0  0  0  0  0  0
   -4.0076   -4.4608   -2.4027 C   0  0  0  0  0  0  0  0  0  0  0  0
   -3.4230   -5.6675   -2.8328 C   0  0  0  0  0  0  0  0  0  0  0  0
   -4.1993   -6.6495   -3.6412 C   0  0  0  0  0  0  0  0  0  0  0  0
   -2.0911   -5.9553   -2.5052 C   0  0  0  0  0  0  0  0  0  0  0  0
   -1.3608   -5.0698   -1.7100 C   0  0  0  0  0  0  0  0  0  0  0  0
    0.1466   -2.5236   -0.9871 C   0  0  0  0  0  0  0  0  0  0  0  0
    1.1433   -2.0276   -0.1041 C   0  0  0  0  0  0  0  0  0  0  0  0
    2.3994   -1.6084   -0.5958 C   0  0  0  0  0  0  0  0  0  0  0  0
    2.6776   -1.6878   -1.9694 C   0  0  0  0  0  0  0  0  0  0  0  0
    4.0517   -1.3559   -2.4762 C   0  0  0  0  0  0  0  0  0  0  0  0
    1.6916   -2.1307   -2.8539 C   0  0  0  0  0  0  0  0  0  0  0  0
    0.4289   -2.5321   -2.3705 C   0  0  0  0  0  0  0  0  0  0  0  0
   -1.6675   -3.5496    1.8214 C   0  0  0  0  0  0  0  0  0  0  0  0
   -1.5828   -5.2179    1.8033 S   0  0  0  0  0  0  0  0  0  0  0  0
   -1.7399   -0.0753    0.5441 C   0  0  0  0  0  0  0  0  0  0  0  0
   -2.0423    1.2411    0.9756 C   0  0  0  0  0  0  0  0  0  0  0  0
   -2.3413    1.6556    2.3192 N   0  0  0  0  0  0  0  0  0  0  0  0
   -1.2835    1.7786    3.3080 C   0  0  0  0  0  0  0  0  0  0  0  0
    0.0760    1.7433    2.9153 C   0  0  0  0  0  0  0  0  0  0  0  0
    1.0975    1.9687    3.8508 C   0  0  0  0  0  0  0  0  0  0  0  0
    0.7664    2.3104    5.1673 C   0  0  0  0  0  0  0  0  0  0  0  0
    2.0495    2.6890    6.3573 S   0  0  0  0  0  0  0  0  0  0  0  0
    2.1724    4.4621    5.9511 C   0  0  0  0  0  0  0  0  0  0  0  0
   -0.5686    2.3506    5.5649 C   0  0  0  0  0  0  0  0  0  0  0  0
   -1.5810    2.0254    4.6631 C   0  0  0  0  0  0  0  0  0  0  0  0
   -3.6668    2.2151    2.5256 C   0  0  0  0  0  0  0  0  0  0  0  0
   -3.8231    3.4975    3.0898 C   0  0  0  0  0  0  0  0  0  0  0  0
   -5.0647    4.1192    3.1340 C   0  0  0  0  0  0  0  0  0  0  0  0
   -6.1710    3.5144    2.5116 C   0  0  0  0  0  0  0  0  0  0  0  0
   -7.7360    4.3860    2.4425 S   0  0  0  0  0  0  0  0  0  0  0  0
   -7.2254    5.5783    1.1460 C   0  0  0  0  0  0  0  0  0  0  0  0
   -6.0340    2.2473    1.9238 C   0  0  0  0  0  0  0  0  0  0  0  0
   -4.7973    1.5978    1.9527 C   0  0  0  0  0  0  0  0  0  0  0  0
   -2.2215    2.0907   -0.1080 C   0  0  0  0  0  0  0  0  0  0  0  0
   -2.4373    3.7476   -0.3248 S   0  0  0  0  0  0  0  0  0  0  0  0
   -2.3194    3.7019   -2.0384 C   0  0  0  0  0  0  0  0  0  0  0  0
   -2.1847    2.3496   -2.4299 C   0  0  0  0  0  0  0  0  0  0  0  0
   -1.9404    1.8208   -3.7289 N   0  0  0  0  0  0  0  0  0  0  0  0
   -3.0542    1.0977   -4.3286 C   0  0  0  0  0  0  0  0  0  0  0  0
   -4.3606    1.6563   -4.3343 C   0  0  0  0  0  0  0  0  0  0  0  0
   -5.4492    0.9185   -4.8611 C   0  0  0  0  0  0  0  0  0  0  0  0
   -5.2403   -0.3668   -5.3753 C   0  0  0  0  0  0  0  0  0  0  0  0
   -6.6202   -1.3864   -5.8799 S   0  0  0  0  0  0  0  0  0  0  0  0
   -6.7268   -2.2386   -4.2618 C   0  0  0  0  0  0  0  0  0  0  0  0
   -3.9456   -0.9056   -5.4134 C   0  0  0  0  0  0  0  0  0  0  0  0
   -2.8695   -0.1891   -4.8879 C   0  0  0  0  0  0  0  0  0  0  0  0
   -0.5950    1.5840   -4.2211 C   0  0  0  0  0  0  0  0  0  0  0  0
    0.4951    1.3732   -3.3455 C   0  0  0  0  0  0  0  0  0  0  0  0
    1.7738    1.1091   -3.8700 C   0  0  0  0  0  0  0  0  0  0  0  0
    1.9759    1.0515   -5.2569 C   0  0  0  0  0  0  0  0  0  0  0  0
    3.6290    0.7949   -5.9257 S   0  0  0  0  0  0  0  0  0  0  0  0
    3.2422   -0.8195   -6.6898 C   0  0  0  0  0  0  0  0  0  0  0  0
    0.9046    1.2944   -6.1205 C   0  0  0  0  0  0  0  0  0  0  0  0
   -0.3739    1.5240   -5.6064 C   0  0  0  0  0  0  0  0  0  0  0  0
   -2.1795    1.5228   -1.3215 C   0  0  0  0  0  0  0  0  0  0  0  0
   -1.8134   -0.0855   -1.1510 S   0  0  0  0  0  0  0  0  0  0  0  0
   -2.0890    4.9304   -2.8599 C   0  0  0  0  0  0  0  0  0  0  0  0
   -1.5238    4.8633   -4.1560 C   0  0  0  0  0  0  0  0  0  0  0  0
   -0.8233    5.9669   -4.6227 C   0  0  0  0  0  0  0  0  0  0  0  0
    0.1817    5.9431   -5.5345 N   0  0  0  0  0  0  0  0  0  0  0  0
    0.5908    4.8389   -6.4025 C   0  0  0  0  0  0  0  0  0  0  0  0
    0.1308    5.0940   -7.8343 C   0  0  0  0  0  0  0  0  0  0  0  0
    0.8588    7.0914   -5.3594 C   0  0  0  0  0  0  0  0  0  0  0  0
    0.2526    7.8843   -4.3890 C   0  0  0  0  0  0  0  0  0  0  0  0
   -0.8128    7.1489   -3.9055 C   0  0  0  0  0  0  0  0  0  0  0  0
   -1.5584    7.3240   -2.7399 C   0  0  0  0  0  0  0  0  0  0  0  0
   -2.2079    6.2025   -2.2151 C   0  0  0  0  0  0  0  0  0  0  0  0
    0.8648    9.0302   -3.8780 C   0  0  0  0  0  0  0  0  0  0  0  0
    2.1837    9.3043   -4.2790 C   0  0  0  0  0  0  0  0  0  0  0  0
    2.8643    8.4005   -5.1254 C   0  0  0  0  0  0  0  0  0  0  0  0
    2.1809    7.3580   -5.7639 C   0  0  0  0  0  0  0  0  0  0  0  0
    4.3207    8.4933   -5.2544 C   0  0  0  0  0  0  0  0  0  0  0  0
    5.1579    7.4880   -4.9059 C   0  0  0  0  0  0  0  0  0  0  0  0
    6.5719    7.4465   -5.2926 C   0  0  0  0  0  0  0  0  0  0  0  0
    7.2595    8.4059   -5.7403 O   0  0  0  0  0  0  0  0  0  0  0  0
    7.0637    6.1144   -5.0696 C   0  0  0  0  0  0  0  0  0  0  0  0
    8.3869    5.6554   -5.2230 C   0  0  0  0  0  0  0  0  0  0  0  0
    8.6743    4.3281   -4.8574 C   0  0  0  0  0  0  0  0  0  0  0  0
    9.9920    3.8423   -4.9588 C   0  0  0  0  0  0  0  0  0  0  0  0
   10.2902    2.5373   -4.5744 C   0  0  0  0  0  0  0  0  0  0  0  0
    9.2840    1.6983   -4.0813 C   0  0  0  0  0  0  0  0  0  0  0  0
    9.5678    0.4398   -3.7045 F   0  0  0  0  0  0  0  0  0  0  0  0
    7.9597    2.1613   -3.9748 C   0  0  0  0  0  0  0  0  0  0  0  0
    7.6357    3.4852   -4.3637 C   0  0  0  0  0  0  0  0  0  0  0  0
    6.3296    3.9799   -4.2199 C   0  0  0  0  0  0  0  0  0  0  0  0
    6.0736    5.3168   -4.5440 C   0  0  0  0  0  0  0  0  0  0  0  0
    4.8554    6.1522   -4.2895 C   0  0  0  0  0  0  0  0  0  0  0  0
    3.9825    5.9575   -3.2477 C   0  0  0  0  0  0  0  0  0  0  0  0
    3.7783    4.6803   -2.6394 C   0  0  0  0  0  0  0  0  0  0  0  0
    3.5812    3.6623   -2.0871 N   0  0  0  0  0  0  0  0  0  0  0  0
    3.5272    7.0751   -2.4542 C   0  0  0  0  0  0  0  0  0  0  0  0
    3.1840    7.9630   -1.7963 N   0  0  0  0  0  0  0  0  0  0  0  0
   -1.9621   -7.3463    3.3849 H   0  0  0  0  0  0  0  0  0  0  0  0
    1.4918   -4.3682    3.4308 H   0  0  0  0  0  0  0  0  0  0  0  0
    3.6457   -5.4091    3.7648 H   0  0  0  0  0  0  0  0  0  0  0  0
    5.3407   -6.0860    5.4134 H   0  0  0  0  0  0  0  0  0  0  0  0
    4.8941   -6.3223    7.1316 H   0  0  0  0  0  0  0  0  0  0  0  0
    4.5799   -7.6620    5.9566 H   0  0  0  0  0  0  0  0  0  0  0  0
    2.4769   -6.5195    7.8000 H   0  0  0  0  0  0  0  0  0  0  0  0
    0.2855   -5.3770    7.4475 H   0  0  0  0  0  0  0  0  0  0  0  0
    1.7082   -2.6812    6.4610 H   0  0  0  0  0  0  0  0  0  0  0  0
    1.6837   -0.7683    7.9345 H   0  0  0  0  0  0  0  0  0  0  0  0
   -0.6180    0.3005    9.7165 H   0  0  0  0  0  0  0  0  0  0  0  0
   -1.3303    1.3998    8.4943 H   0  0  0  0  0  0  0  0  0  0  0  0
    0.4723    1.2731    8.6327 H   0  0  0  0  0  0  0  0  0  0  0  0
   -2.5847   -0.3878    7.2706 H   0  0  0  0  0  0  0  0  0  0  0  0
   -2.5730   -2.3221    5.7621 H   0  0  0  0  0  0  0  0  0  0  0  0
   -3.7236   -2.6446   -1.3171 H   0  0  0  0  0  0  0  0  0  0  0  0
   -5.0328   -4.2235   -2.6595 H   0  0  0  0  0  0  0  0  0  0  0  0
   -3.9656   -7.6997   -3.3245 H   0  0  0  0  0  0  0  0  0  0  0  0
   -3.9494   -6.5349   -4.7186 H   0  0  0  0  0  0  0  0  0  0  0  0
   -5.3017   -6.4975   -3.5030 H   0  0  0  0  0  0  0  0  0  0  0  0
   -1.6113   -6.8654   -2.8628 H   0  0  0  0  0  0  0  0  0  0  0  0
   -0.3218   -5.3175   -1.4476 H   0  0  0  0  0  0  0  0  0  0  0  0
    1.0068   -2.0468    0.9578 H   0  0  0  0  0  0  0  0  0  0  0  0
    3.1527   -1.2789    0.0958 H   0  0  0  0  0  0  0  0  0  0  0  0
    4.7691   -2.0584   -2.0053 H   0  0  0  0  0  0  0  0  0  0  0  0
    4.3204   -0.3174   -2.2033 H   0  0  0  0  0  0  0  0  0  0  0  0
    4.1174   -1.4885   -3.5806 H   0  0  0  0  0  0  0  0  0  0  0  0
    1.8711   -2.1419   -3.9108 H   0  0  0  0  0  0  0  0  0  0  0  0
   -0.2901   -2.8607   -3.1158 H   0  0  0  0  0  0  0  0  0  0  0  0
    0.3640    1.5367    1.8941 H   0  0  0  0  0  0  0  0  0  0  0  0
    2.1238    1.9234    3.5216 H   0  0  0  0  0  0  0  0  0  0  0  0
    1.3629    4.7867    5.2612 H   0  0  0  0  0  0  0  0  0  0  0  0
    3.1415    4.6122    5.4260 H   0  0  0  0  0  0  0  0  0  0  0  0
    2.0959    5.0863    6.8673 H   0  0  0  0  0  0  0  0  0  0  0  0
   -0.8449    2.6188    6.5820 H   0  0  0  0  0  0  0  0  0  0  0  0
   -2.5897    2.0281    5.0121 H   0  0  0  0  0  0  0  0  0  0  0  0
   -2.9580    4.0376    3.4952 H   0  0  0  0  0  0  0  0  0  0  0  0
   -5.1449    5.0896    3.6071 H   0  0  0  0  0  0  0  0  0  0  0  0
   -6.1532    5.4778    0.8667 H   0  0  0  0  0  0  0  0  0  0  0  0
   -7.8451    5.3909    0.2438 H   0  0  0  0  0  0  0  0  0  0  0  0
   -7.4123    6.6185    1.4925 H   0  0  0  0  0  0  0  0  0  0  0  0
   -6.8873    1.7560    1.4534 H   0  0  0  0  0  0  0  0  0  0  0  0
   -4.7012    0.6431    1.4811 H   0  0  0  0  0  0  0  0  0  0  0  0
   -4.5298    2.6386   -3.9106 H   0  0  0  0  0  0  0  0  0  0  0  0
   -6.4451    1.3335   -4.7890 H   0  0  0  0  0  0  0  0  0  0  0  0
   -7.6832   -1.9525   -3.7833 H   0  0  0  0  0  0  0  0  0  0  0  0
   -6.7583   -3.3281   -4.4777 H   0  0  0  0  0  0  0  0  0  0  0  0
   -5.8616   -2.0532   -3.5902 H   0  0  0  0  0  0  0  0  0  0  0  0
   -3.7788   -1.8930   -5.7897 H   0  0  0  0  0  0  0  0  0  0  0  0
   -1.9002   -0.6713   -4.8824 H   0  0  0  0  0  0  0  0  0  0  0  0
    0.3662    1.4074   -2.2701 H   0  0  0  0  0  0  0  0  0  0  0  0
    2.5882    0.9478   -3.1810 H   0  0  0  0  0  0  0  0  0  0  0  0
    2.3060   -0.7422   -7.2835 H   0  0  0  0  0  0  0  0  0  0  0  0
    3.0943   -1.5946   -5.8934 H   0  0  0  0  0  0  0  0  0  0  0  0
    4.0977   -1.1269   -7.3322 H   0  0  0  0  0  0  0  0  0  0  0  0
    1.0556    1.3132   -7.1918 H   0  0  0  0  0  0  0  0  0  0  0  0
   -1.1867    1.7114   -6.3120 H   0  0  0  0  0  0  0  0  0  0  0  0
   -1.5355    3.9573   -4.7232 H   0  0  0  0  0  0  0  0  0  0  0  0
    1.6975    4.6862   -6.3731 H   0  0  0  0  0  0  0  0  0  0  0  0
    0.1612    3.9036   -6.0557 H   0  0  0  0  0  0  0  0  0  0  0  0
    0.4153    4.2290   -8.4723 H   0  0  0  0  0  0  0  0  0  0  0  0
    0.5987    6.0128   -8.2297 H   0  0  0  0  0  0  0  0  0  0  0  0
   -0.9756    5.1973   -7.8485 H   0  0  0  0  0  0  0  0  0  0  0  0
   -1.4998    8.2521   -2.1577 H   0  0  0  0  0  0  0  0  0  0  0  0
   -2.6746    6.3030   -1.2494 H   0  0  0  0  0  0  0  0  0  0  0  0
    0.3886    9.6240   -3.0755 H   0  0  0  0  0  0  0  0  0  0  0  0
    2.7067   10.1256   -3.8215 H   0  0  0  0  0  0  0  0  0  0  0  0
    2.7083    6.6745   -6.4183 H   0  0  0  0  0  0  0  0  0  0  0  0
    4.7490    9.4001   -5.6484 H   0  0  0  0  0  0  0  0  0  0  0  0
    9.1529    6.3186   -5.6027 H   0  0  0  0  0  0  0  0  0  0  0  0
   10.8028    4.4685   -5.3272 H   0  0  0  0  0  0  0  0  0  0  0  0
   11.3141    2.1783   -4.6461 H   0  0  0  0  0  0  0  0  0  0  0  0
    7.1897    1.5004   -3.5941 H   0  0  0  0  0  0  0  0  0  0  0  0
    5.5464    3.3303   -3.8519 H   0  0  0  0  0  0  0  0  0  0  0  0
  1  2  2  3
  2  3  1  0
  3  4  2  0
  3  5  1  0
  5  6  2  0
  6  7  1  0
  6  8  1  0
  8  9  1  0
  8 10  2  0
 10 11  1  0
 10 12  1  0
 12 13  1  0
 12 14  2  0
 14 15  1  0
 15 16  2  3
 16 17  1  0
 17 18  3  0
 16 19  1  0
 19 20  3  0
  1 21  1  0
 21 22  2  0
 22 23  1  0
 23 24  1  0
 24 25  2  0
 25 26  1  0
 26 27  2  0
 27 28  1  0
 27 29  1  0
 29 30  2  0
 23 31  1  0
 31 32  2  0
 32 33  1  0
 33 34  2  0
 34 35  1  0
 34 36  1  0
 36 37  2  0
 22 38  1  0
 38 39  1  0
 39 40  1  0
 40 41  2  0
 41 42  1  0
 42 43  1  0
 43 44  2  0
 44 45  1  0
 45 46  2  0
 46 47  1  0
 46 48  1  0
 48 49  2  0
 42 50  1  0
 50 51  2  0
 51 52  1  0
 52 53  2  0
 53 54  1  0
 53 55  1  0
 55 56  2  0
 41 57  1  0
 57 58  1  0
 40 59  1  0
 59 60  2  0
 60 61  1  0
 61 62  1  0
 62 63  2  0
 63 64  1  0
 64 65  2  0
 65 66  1  0
 66 67  1  0
 65 68  1  0
 68 69  2  0
 61 70  1  0
 70 71  2  0
 71 72  1  0
 72 73  2  0
 73 74  1  0
 74 75  1  0
 73 76  1  0
 76 77  2  0
 60 78  1  0
 78 79  1  0
 79 80  1  0
 80 81  2  0
 81 82  1  0
 82 83  1  0
 83 84  2  0
 84 85  1  0
 85 86  2  0
 86 87  1  0
 87 88  1  0
 86 89  1  0
 89 90  2  0
 82 91  1  0
 91 92  2  0
 92 93  1  0
 93 94  2  0
 94 95  1  0
 95 96  1  0
 94 97  1  0
 97 98  2  0
 81 99  1  0
 99100  1  0
 80101  1  0
101102  2  0
102103  1  0
103104  1  0
104105  1  0
105106  1  0
104107  1  0
107108  2  0
108109  1  0
109110  1  0
110111  2  0
108112  1  0
112113  2  0
113114  1  0
114115  2  0
114116  1  0
116117  2  3
117118  1  0
118119  2  0
118120  1  0
120121  2  0
121122  1  0
122123  2  0
123124  1  0
124125  2  0
125126  1  0
125127  1  0
127128  2  0
128129  1  0
129130  2  0
130131  1  0
131132  2  3
132133  1  0
133134  3  0
132135  1  0
135136  3  0
 15  2  1  0
 58 21  1  0
100 59  1  0
111101  1  0
131117  1  0
 14  5  1  0
 30 24  1  0
 37 31  1  0
 57 38  2  0
 69 62  1  0
 77 70  1  0
 99 78  2  0
109103  2  0
130120  1  0
 49 43  1  0
 56 50  1  0
 90 83  1  0
 98 91  1  0
115107  1  0
128122  1  0
  1137  1  0
 25138  1  0
 26139  1  0
 28140  1  0
 28141  1  0
 28142  1  0
 29143  1  0
 30144  1  0
 32145  1  0
 33146  1  0
 35147  1  0
 35148  1  0
 35149  1  0
 36150  1  0
 37151  1  0
 44152  1  0
 45153  1  0
 47154  1  0
 47155  1  0
 47156  1  0
 48157  1  0
 49158  1  0
 51159  1  0
 52160  1  0
 54161  1  0
 54162  1  0
 54163  1  0
 55164  1  0
 56165  1  0
 63166  1  0
 64167  1  0
 67168  1  0
 67169  1  0
 67170  1  0
 68171  1  0
 69172  1  0
 71173  1  0
 72174  1  0
 75175  1  0
 75176  1  0
 75177  1  0
 76178  1  0
 77179  1  0
 84180  1  0
 85181  1  0
 88182  1  0
 88183  1  0
 88184  1  0
 89185  1  0
 90186  1  0
 92187  1  0
 93188  1  0
 96189  1  0
 96190  1  0
 96191  1  0
 97192  1  0
 98193  1  0
102194  1  0
105195  1  0
105196  1  0
106197  1  0
106198  1  0
106199  1  0
110200  1  0
111201  1  0
112202  1  0
113203  1  0
115204  1  0
116205  1  0
121206  1  0
123207  1  0
124208  1  0
127209  1  0
129210  1  0
M  END

