
     RDKit          3D

201219  0  0  0  0  0  0  0  0999 V2000
   -5.0503    5.2172    0.4093 C   0  0  0  0  0  0  0  0  0  0  0  0
   -4.8141    6.5160    0.6536 C   0  0  0  0  0  0  0  0  0  0  0  0
   -4.2136    7.0564    1.8778 C   0  0  0  0  0  0  0  0  0  0  0  0
   -3.8488    6.3825    2.8787 O   0  0  0  0  0  0  0  0  0  0  0  0
   -4.2351    8.5093    1.7990 C   0  0  0  0  0  0  0  0  0  0  0  0
   -3.8384    9.4484    2.7573 C   0  0  0  0  0  0  0  0  0  0  0  0
   -3.0169    8.9407    4.2334 Cl  0  0  0  0  0  0  0  0  0  0  0  0
   -4.1112   10.8097    2.5115 C   0  0  0  0  0  0  0  0  0  0  0  0
   -3.5745   12.0345    3.6616 Cl  0  0  0  0  0  0  0  0  0  0  0  0
   -4.8497   11.1908    1.3645 C   0  0  0  0  0  0  0  0  0  0  0  0
   -5.2847   12.8851    1.1196 Cl  0  0  0  0  0  0  0  0  0  0  0  0
   -5.2641   10.2173    0.4289 C   0  0  0  0  0  0  0  0  0  0  0  0
   -6.4508   10.6457   -0.8050 Cl  0  0  0  0  0  0  0  0  0  0  0  0
   -4.8532    8.8823    0.6163 C   0  0  0  0  0  0  0  0  0  0  0  0
   -5.1203    7.6827   -0.2227 C   0  0  0  0  0  0  0  0  0  0  0  0
   -5.0733    7.6571   -1.5792 C   0  0  0  0  0  0  0  0  0  0  0  0
   -5.2588    6.4490   -2.3408 C   0  0  0  0  0  0  0  0  0  0  0  0
   -5.3998    5.4842   -2.9629 N   0  0  0  0  0  0  0  0  0  0  0  0
   -4.5941    8.7828   -2.3409 C   0  0  0  0  0  0  0  0  0  0  0  0
   -4.1912    9.6684   -2.9711 N   0  0  0  0  0  0  0  0  0  0  0  0
   -4.2742    4.1475    1.0506 C   0  0  0  0  0  0  0  0  0  0  0  0
   -2.8675    4.0830    1.0361 C   0  0  0  0  0  0  0  0  0  0  0  0
   -2.0325    4.9524    0.2495 N   0  0  0  0  0  0  0  0  0  0  0  0
   -1.3791    6.0762    0.8734 C   0  0  0  0  0  0  0  0  0  0  0  0
   -1.3256    7.3123    0.2100 C   0  0  0  0  0  0  0  0  0  0  0  0
   -0.6991    8.4059    0.8087 C   0  0  0  0  0  0  0  0  0  0  0  0
   -0.0902    8.2732    2.0664 C   0  0  0  0  0  0  0  0  0  0  0  0
    0.5498    9.4570    2.7280 C   0  0  0  0  0  0  0  0  0  0  0  0
   -0.1518    7.0431    2.7364 C   0  0  0  0  0  0  0  0  0  0  0  0
   -0.7908    5.9510    2.1435 C   0  0  0  0  0  0  0  0  0  0  0  0
   -1.7009    4.5605   -1.1049 C   0  0  0  0  0  0  0  0  0  0  0  0
   -0.4048    4.7680   -1.6128 C   0  0  0  0  0  0  0  0  0  0  0  0
   -0.0779    4.3756   -2.9119 C   0  0  0  0  0  0  0  0  0  0  0  0
   -1.0420    3.7776   -3.7349 C   0  0  0  0  0  0  0  0  0  0  0  0
   -0.6870    3.3431   -5.1241 C   0  0  0  0  0  0  0  0  0  0  0  0
   -2.3219    3.5252   -3.2234 C   0  0  0  0  0  0  0  0  0  0  0  0
   -2.6479    3.9134   -1.9216 C   0  0  0  0  0  0  0  0  0  0  0  0
   -2.4345    2.8262    1.4197 C   0  0  0  0  0  0  0  0  0  0  0  0
   -0.9571    2.0826    1.3027 S   0  0  0  0  0  0  0  0  0  0  0  0
   -1.5427    0.5190    1.6188 C   0  0  0  0  0  0  0  0  0  0  0  0
   -2.9419    0.5892    1.7666 C   0  0  0  0  0  0  0  0  0  0  0  0
   -3.8134   -0.5475    1.8388 N   0  0  0  0  0  0  0  0  0  0  0  0
   -3.9141   -1.2445    3.0963 C   0  0  0  0  0  0  0  0  0  0  0  0
   -3.7858   -2.6386    3.1529 C   0  0  0  0  0  0  0  0  0  0  0  0
   -3.8457   -3.3096    4.3787 C   0  0  0  0  0  0  0  0  0  0  0  0
   -4.0636   -2.5919    5.5661 C   0  0  0  0  0  0  0  0  0  0  0  0
   -4.0762   -3.2959    6.8923 C   0  0  0  0  0  0  0  0  0  0  0  0
   -4.1877   -1.1964    5.5153 C   0  0  0  0  0  0  0  0  0  0  0  0
   -4.1096   -0.5282    4.2906 C   0  0  0  0  0  0  0  0  0  0  0  0
   -4.5412   -0.9764    0.6620 C   0  0  0  0  0  0  0  0  0  0  0  0
   -4.0490   -0.7031   -0.6300 C   0  0  0  0  0  0  0  0  0  0  0  0
   -4.7463   -1.1231   -1.7652 C   0  0  0  0  0  0  0  0  0  0  0  0
   -5.9620   -1.8064   -1.6346 C   0  0  0  0  0  0  0  0  0  0  0  0
   -6.7301   -2.2454   -2.8440 C   0  0  0  0  0  0  0  0  0  0  0  0
   -6.4668   -2.0750   -0.3547 C   0  0  0  0  0  0  0  0  0  0  0  0
   -5.7634   -1.6654    0.7835 C   0  0  0  0  0  0  0  0  0  0  0  0
   -3.3987    1.9057    1.6631 C   0  0  0  0  0  0  0  0  0  0  0  0
   -4.9066    2.6093    1.4391 S   0  0  0  0  0  0  0  0  0  0  0  0
   -0.7070   -0.6880    1.4705 C   0  0  0  0  0  0  0  0  0  0  0  0
    0.6994   -0.7050    1.5271 C   0  0  0  0  0  0  0  0  0  0  0  0
    1.5337    0.4195    1.8404 N   0  0  0  0  0  0  0  0  0  0  0  0
    2.2845    1.0809    0.7861 C   0  0  0  0  0  0  0  0  0  0  0  0
    1.9265    0.9067   -0.5682 C   0  0  0  0  0  0  0  0  0  0  0  0
    2.7006    1.4608   -1.5876 C   0  0  0  0  0  0  0  0  0  0  0  0
    3.8316    2.2196   -1.2775 C   0  0  0  0  0  0  0  0  0  0  0  0
    4.8592    2.8687   -2.5990 S   0  0  0  0  0  0  0  0  0  0  0  0
    6.0701    1.5133   -2.4845 C   0  0  0  0  0  0  0  0  0  0  0  0
    4.1635    2.4530    0.0576 C   0  0  0  0  0  0  0  0  0  0  0  0
    3.4090    1.8770    1.0847 C   0  0  0  0  0  0  0  0  0  0  0  0
    1.8398    0.6445    3.2291 C   0  0  0  0  0  0  0  0  0  0  0  0
    2.4485   -0.3671    3.9882 C   0  0  0  0  0  0  0  0  0  0  0  0
    2.8183   -0.1292    5.3129 C   0  0  0  0  0  0  0  0  0  0  0  0
    2.5536    1.1083    5.9067 C   0  0  0  0  0  0  0  0  0  0  0  0
    3.0920    1.4307    7.5899 S   0  0  0  0  0  0  0  0  0  0  0  0
    1.6262    0.6619    8.3491 C   0  0  0  0  0  0  0  0  0  0  0  0
    1.9186    2.1148    5.1654 C   0  0  0  0  0  0  0  0  0  0  0  0
    1.5684    1.8842    3.8312 C   0  0  0  0  0  0  0  0  0  0  0  0
    1.2104   -1.8953    1.0487 C   0  0  0  0  0  0  0  0  0  0  0  0
    2.7581   -2.4093    0.7184 S   0  0  0  0  0  0  0  0  0  0  0  0
    2.2550   -3.8635    0.0022 C   0  0  0  0  0  0  0  0  0  0  0  0
    0.8493   -3.9301    0.0064 C   0  0  0  0  0  0  0  0  0  0  0  0
    0.0874   -5.0525   -0.4743 N   0  0  0  0  0  0  0  0  0  0  0  0
   -1.0664   -4.8606   -1.3281 C   0  0  0  0  0  0  0  0  0  0  0  0
   -2.1740   -5.7267   -1.2450 C   0  0  0  0  0  0  0  0  0  0  0  0
   -3.2336   -5.6225   -2.1522 C   0  0  0  0  0  0  0  0  0  0  0  0
   -3.1998   -4.6469   -3.1522 C   0  0  0  0  0  0  0  0  0  0  0  0
   -4.4766   -4.6116   -4.4090 S   0  0  0  0  0  0  0  0  0  0  0  0
   -3.5832   -5.7524   -5.5089 C   0  0  0  0  0  0  0  0  0  0  0  0
   -2.1476   -3.7287   -3.1962 C   0  0  0  0  0  0  0  0  0  0  0  0
   -1.0904   -3.8318   -2.2858 C   0  0  0  0  0  0  0  0  0  0  0  0
    0.5009   -6.3736   -0.0710 C   0  0  0  0  0  0  0  0  0  0  0  0
    0.8880   -6.6219    1.2594 C   0  0  0  0  0  0  0  0  0  0  0  0
    1.3235   -7.8908    1.6421 C   0  0  0  0  0  0  0  0  0  0  0  0
    1.3638   -8.9295    0.7085 C   0  0  0  0  0  0  0  0  0  0  0  0
    1.9005  -10.5621    1.2191 S   0  0  0  0  0  0  0  0  0  0  0  0
    0.2172  -11.1018    1.6626 C   0  0  0  0  0  0  0  0  0  0  0  0
    0.9884   -8.6900   -0.6188 C   0  0  0  0  0  0  0  0  0  0  0  0
    0.5562   -7.4192   -1.0083 C   0  0  0  0  0  0  0  0  0  0  0  0
    0.3025   -2.8007    0.6163 C   0  0  0  0  0  0  0  0  0  0  0  0
   -1.2406   -2.1737    0.8127 S   0  0  0  0  0  0  0  0  0  0  0  0
    3.1962   -4.6844   -0.7723 C   0  0  0  0  0  0  0  0  0  0  0  0
    4.2522   -5.3308   -0.1074 C   0  0  0  0  0  0  0  0  0  0  0  0
    5.5177   -5.5140   -0.7566 C   0  0  0  0  0  0  0  0  0  0  0  0
    6.5166   -6.0258    0.0065 N   0  0  0  0  0  0  0  0  0  0  0  0
    5.7289   -6.2200    1.4448 S   0  0  0  0  0  0  0  0  0  0  0  0
    4.1879   -5.6800    1.2040 N   0  0  0  0  0  0  0  0  0  0  0  0
    5.7270   -5.0390   -2.0649 C   0  0  0  0  0  0  0  0  0  0  0  0
    4.6120   -4.5545   -2.7721 C   0  0  0  0  0  0  0  0  0  0  0  0
    4.6350   -4.0183   -4.0727 C   0  0  0  0  0  0  0  0  0  0  0  0
    3.4230   -3.4491   -4.4470 C   0  0  0  0  0  0  0  0  0  0  0  0
    3.1389   -2.7892   -5.7236 C   0  0  0  0  0  0  0  0  0  0  0  0
    4.0701   -2.6153   -6.5595 O   0  0  0  0  0  0  0  0  0  0  0  0
    1.8355   -2.3674   -6.0083 O   0  0  0  0  0  0  0  0  0  0  0  0
    1.4894   -1.6228   -7.1750 C   0  0  0  0  0  0  0  0  0  0  0  0
    1.7377   -0.1389   -6.9529 C   0  0  0  0  0  0  0  0  0  0  0  0
    2.3397   -3.5844   -3.1697 S   0  0  0  0  0  0  0  0  0  0  0  0
    3.3810   -4.4022   -2.1340 C   0  0  0  0  0  0  0  0  0  0  0  0
    7.0790   -4.6331   -2.4859 C   0  0  0  0  0  0  0  0  0  0  0  0
    7.5536   -3.4107   -2.1680 C   0  0  0  0  0  0  0  0  0  0  0  0
    6.9219   -2.4587   -1.2445 C   0  0  0  0  0  0  0  0  0  0  0  0
    5.7313   -2.4798   -0.8467 O   0  0  0  0  0  0  0  0  0  0  0  0
    7.8989   -1.4514   -0.8808 C   0  0  0  0  0  0  0  0  0  0  0  0
    7.8043   -0.4723    0.1150 C   0  0  0  0  0  0  0  0  0  0  0  0
    6.3047   -0.2360    1.0198 Cl  0  0  0  0  0  0  0  0  0  0  0  0
    8.9446    0.3024    0.3976 C   0  0  0  0  0  0  0  0  0  0  0  0
    8.8581    1.5881    1.6060 Cl  0  0  0  0  0  0  0  0  0  0  0  0
   10.1751    0.0151   -0.2458 C   0  0  0  0  0  0  0  0  0  0  0  0
   11.6269    0.9225    0.1910 Cl  0  0  0  0  0  0  0  0  0  0  0  0
   10.2560   -1.0186   -1.2093 C   0  0  0  0  0  0  0  0  0  0  0  0
   11.8390   -1.5898   -1.7425 Cl  0  0  0  0  0  0  0  0  0  0  0  0
    9.0708   -1.6859   -1.5837 C   0  0  0  0  0  0  0  0  0  0  0  0
    8.8567   -2.8052   -2.5486 C   0  0  0  0  0  0  0  0  0  0  0  0
    9.3873   -2.8704   -3.7968 C   0  0  0  0  0  0  0  0  0  0  0  0
    8.9381   -3.8322   -4.7680 C   0  0  0  0  0  0  0  0  0  0  0  0
    8.5845   -4.6014   -5.5579 N   0  0  0  0  0  0  0  0  0  0  0  0
   10.2331   -1.8259   -4.3176 C   0  0  0  0  0  0  0  0  0  0  0  0
   10.8962   -0.9842   -4.7575 N   0  0  0  0  0  0  0  0  0  0  0  0
   -5.7210    4.9113   -0.3764 H   0  0  0  0  0  0  0  0  0  0  0  0
   -1.7964    7.4300   -0.7588 H   0  0  0  0  0  0  0  0  0  0  0  0
   -0.6905    9.3561    0.2918 H   0  0  0  0  0  0  0  0  0  0  0  0
    1.4554    9.1389    3.2877 H   0  0  0  0  0  0  0  0  0  0  0  0
    0.8565   10.2145    1.9765 H   0  0  0  0  0  0  0  0  0  0  0  0
   -0.1723    9.9172    3.4333 H   0  0  0  0  0  0  0  0  0  0  0  0
    0.2906    6.9318    3.7180 H   0  0  0  0  0  0  0  0  0  0  0  0
   -0.8198    5.0071    2.6723 H   0  0  0  0  0  0  0  0  0  0  0  0
    0.3596    5.2201   -0.9960 H   0  0  0  0  0  0  0  0  0  0  0  0
    0.9300    4.5339   -3.2757 H   0  0  0  0  0  0  0  0  0  0  0  0
    0.0756    4.0209   -5.5605 H   0  0  0  0  0  0  0  0  0  0  0  0
   -0.2862    2.3093   -5.0978 H   0  0  0  0  0  0  0  0  0  0  0  0
   -1.5841    3.3692   -5.7791 H   0  0  0  0  0  0  0  0  0  0  0  0
   -3.0734    3.0346   -3.8310 H   0  0  0  0  0  0  0  0  0  0  0  0
   -3.6457    3.7076   -1.5606 H   0  0  0  0  0  0  0  0  0  0  0  0
   -3.6159   -3.2129    2.2465 H   0  0  0  0  0  0  0  0  0  0  0  0
   -3.7215   -4.3827    4.3995 H   0  0  0  0  0  0  0  0  0  0  0  0
   -3.0775   -3.2019    7.3704 H   0  0  0  0  0  0  0  0  0  0  0  0
   -4.3185   -4.3750    6.7742 H   0  0  0  0  0  0  0  0  0  0  0  0
   -4.8382   -2.8444    7.5625 H   0  0  0  0  0  0  0  0  0  0  0  0
   -4.3399   -0.6177    6.4200 H   0  0  0  0  0  0  0  0  0  0  0  0
   -4.2021    0.5498    4.2702 H   0  0  0  0  0  0  0  0  0  0  0  0
   -3.1125   -0.1795   -0.7645 H   0  0  0  0  0  0  0  0  0  0  0  0
   -4.3378   -0.9076   -2.7451 H   0  0  0  0  0  0  0  0  0  0  0  0
   -6.2058   -1.9741   -3.7847 H   0  0  0  0  0  0  0  0  0  0  0  0
   -7.7334   -1.7651   -2.8468 H   0  0  0  0  0  0  0  0  0  0  0  0
   -6.8656   -3.3481   -2.8217 H   0  0  0  0  0  0  0  0  0  0  0  0
   -7.4076   -2.5992   -0.2344 H   0  0  0  0  0  0  0  0  0  0  0  0
   -6.1838   -1.8701    1.7585 H   0  0  0  0  0  0  0  0  0  0  0  0
    1.0596    0.3211   -0.8433 H   0  0  0  0  0  0  0  0  0  0  0  0
    2.4263    1.2840   -2.6193 H   0  0  0  0  0  0  0  0  0  0  0  0
    6.6847    1.6599   -1.5728 H   0  0  0  0  0  0  0  0  0  0  0  0
    5.5610    0.5269   -2.4387 H   0  0  0  0  0  0  0  0  0  0  0  0
    6.7348    1.5315   -3.3719 H   0  0  0  0  0  0  0  0  0  0  0  0
    5.0381    3.0413    0.3059 H   0  0  0  0  0  0  0  0  0  0  0  0
    3.7365    2.0329    2.1035 H   0  0  0  0  0  0  0  0  0  0  0  0
    2.6652   -1.3299    3.5457 H   0  0  0  0  0  0  0  0  0  0  0  0
    3.3107   -0.9122    5.8759 H   0  0  0  0  0  0  0  0  0  0  0  0
    1.7209    0.7207    9.4546 H   0  0  0  0  0  0  0  0  0  0  0  0
    0.7071    1.2023    8.0373 H   0  0  0  0  0  0  0  0  0  0  0  0
    1.5542   -0.4110    8.0594 H   0  0  0  0  0  0  0  0  0  0  0  0
    1.7077    3.0754    5.6212 H   0  0  0  0  0  0  0  0  0  0  0  0
    1.1089    2.6770    3.2571 H   0  0  0  0  0  0  0  0  0  0  0  0
   -2.2041   -6.5055   -0.4932 H   0  0  0  0  0  0  0  0  0  0  0  0
   -4.0632   -6.3182   -2.0943 H   0  0  0  0  0  0  0  0  0  0  0  0
   -4.2298   -6.0187   -6.3710 H   0  0  0  0  0  0  0  0  0  0  0  0
   -3.3106   -6.6828   -4.9686 H   0  0  0  0  0  0  0  0  0  0  0  0
   -2.6640   -5.2602   -5.8829 H   0  0  0  0  0  0  0  0  0  0  0  0
   -2.1285   -2.9589   -3.9579 H   0  0  0  0  0  0  0  0  0  0  0  0
   -0.2825   -3.1170   -2.3500 H   0  0  0  0  0  0  0  0  0  0  0  0
    0.8487   -5.8309    1.9951 H   0  0  0  0  0  0  0  0  0  0  0  0
    1.6172   -8.0656    2.6693 H   0  0  0  0  0  0  0  0  0  0  0  0
   -0.1858  -10.4908    2.4951 H   0  0  0  0  0  0  0  0  0  0  0  0
   -0.4554  -11.0166    0.7823 H   0  0  0  0  0  0  0  0  0  0  0  0
    0.2485  -12.1652    1.9787 H   0  0  0  0  0  0  0  0  0  0  0  0
    1.0275   -9.4900   -1.3472 H   0  0  0  0  0  0  0  0  0  0  0  0
    0.2776   -7.2469   -2.0419 H   0  0  0  0  0  0  0  0  0  0  0  0
    5.5152   -4.0123   -4.7021 H   0  0  0  0  0  0  0  0  0  0  0  0
    0.4120   -1.7792   -7.3878 H   0  0  0  0  0  0  0  0  0  0  0  0
    2.0629   -1.9806   -8.0549 H   0  0  0  0  0  0  0  0  0  0  0  0
    2.8009    0.0331   -6.6883 H   0  0  0  0  0  0  0  0  0  0  0  0
    1.0924    0.2225   -6.1279 H   0  0  0  0  0  0  0  0  0  0  0  0
    1.5005    0.4288   -7.8764 H   0  0  0  0  0  0  0  0  0  0  0  0
    7.6683   -5.3293   -3.0591 H   0  0  0  0  0  0  0  0  0  0  0  0
  1  2  2  3
  2  3  1  0
  3  4  2  0
  3  5  1  0
  5  6  2  0
  6  7  1  0
  6  8  1  0
  8  9  1  0
  8 10  2  0
 10 11  1  0
 10 12  1  0
 12 13  1  0
 12 14  2  0
 14 15  1  0
 15 16  2  3
 16 17  1  0
 17 18  3  0
 16 19  1  0
 19 20  3  0
  1 21  1  0
 21 22  2  0
 22 23  1  0
 23 24  1  0
 24 25  2  0
 25 26  1  0
 26 27  2  0
 27 28  1  0
 27 29  1  0
 29 30  2  0
 23 31  1  0
 31 32  2  0
 32 33  1  0
 33 34  2  0
 34 35  1  0
 34 36  1  0
 36 37  2  0
 22 38  1  0
 38 39  1  0
 39 40  1  0
 40 41  2  0
 41 42  1  0
 42 43  1  0
 43 44  2  0
 44 45  1  0
 45 46  2  0
 46 47  1  0
 46 48  1  0
 48 49  2  0
 42 50  1  0
 50 51  2  0
 51 52  1  0
 52 53  2  0
 53 54  1  0
 53 55  1  0
 55 56  2  0
 41 57  1  0
 57 58  1  0
 40 59  1  0
 59 60  2  0
 60 61  1  0
 61 62  1  0
 62 63  2  0
 63 64  1  0
 64 65  2  0
 65 66  1  0
 66 67  1  0
 65 68  1  0
 68 69  2  0
 61 70  1  0
 70 71  2  0
 71 72  1  0
 72 73  2  0
 73 74  1  0
 74 75  1  0
 73 76  1  0
 76 77  2  0
 60 78  1  0
 78 79  1  0
 79 80  1  0
 80 81  2  0
 81 82  1  0
 82 83  1  0
 83 84  2  0
 84 85  1  0
 85 86  2  0
 86 87  1  0
 87 88  1  0
 86 89  1  0
 89 90  2  0
 82 91  1  0
 91 92  2  0
 92 93  1  0
 93 94  2  0
 94 95  1  0
 95 96  1  0
 94 97  1  0
 97 98  2  0
 81 99  1  0
 99100  1  0
 80101  1  0
101102  1  0
102103  1  0
103104  2  0
104105  1  0
105106  1  0
103107  1  0
107108  2  0
108109  1  0
109110  2  0
110111  1  0
111112  2  0
111113  1  0
113114  1  0
114115  1  0
110116  1  0
116117  1  0
107118  1  0
118119  2  3
119120  1  0
120121  2  0
120122  1  0
122123  2  0
123124  1  0
123125  1  0
125126  1  0
125127  2  0
127128  1  0
127129  1  0
129130  1  0
129131  2  0
131132  1  0
132133  2  3
133134  1  0
134135  3  0
133136  1  0
136137  3  0
 15  2  1  0
 58 21  1  0
100 59  1  0
117101  2  0
132119  1  0
 14  5  1  0
 30 24  1  0
 37 31  1  0
 57 38  2  0
 69 62  1  0
 77 70  1  0
 99 78  2  0
106102  2  0
117108  1  0
131122  1  0
 49 43  1  0
 56 50  1  0
 90 83  1  0
 98 91  1  0
  1138  1  0
 25139  1  0
 26140  1  0
 28141  1  0
 28142  1  0
 28143  1  0
 29144  1  0
 30145  1  0
 32146  1  0
 33147  1  0
 35148  1  0
 35149  1  0
 35150  1  0
 36151  1  0
 37152  1  0
 44153  1  0
 45154  1  0
 47155  1  0
 47156  1  0
 47157  1  0
 48158  1  0
 49159  1  0
 51160  1  0
 52161  1  0
 54162  1  0
 54163  1  0
 54164  1  0
 55165  1  0
 56166  1  0
 63167  1  0
 64168  1  0
 67169  1  0
 67170  1  0
 67171  1  0
 68172  1  0
 69173  1  0
 71174  1  0
 72175  1  0
 75176  1  0
 75177  1  0
 75178  1  0
 76179  1  0
 77180  1  0
 84181  1  0
 85182  1  0
 88183  1  0
 88184  1  0
 88185  1  0
 89186  1  0
 90187  1  0
 92188  1  0
 93189  1  0
 96190  1  0
 96191  1  0
 96192  1  0
 97193  1  0
 98194  1  0
109195  1  0
114196  1  0
114197  1  0
115198  1  0
115199  1  0
115200  1  0
118201  1  0
M  END

