
     RDKit          3D

217237  0  0  0  0  0  0  0  0999 V2000
    1.8266   -7.5012   -0.6440 C   0  0  0  0  0  0  0  0  0  0  0  0
    1.9510   -8.2919    0.4662 C   0  0  0  0  0  0  0  0  0  0  0  0
    1.2744   -9.5840    0.4360 C   0  0  0  0  0  0  0  0  0  0  0  0
    0.3883   -9.9652   -0.4421 O   0  0  0  0  0  0  0  0  0  0  0  0
    1.6572  -10.3840    1.5648 C   0  0  0  0  0  0  0  0  0  0  0  0
    1.0517  -11.5584    2.0024 C   0  0  0  0  0  0  0  0  0  0  0  0
   -0.1990  -12.3850    1.0639 Cl  0  0  0  0  0  0  0  0  0  0  0  0
    1.4949  -12.1036    3.2182 C   0  0  0  0  0  0  0  0  0  0  0  0
    0.6586  -13.4843    3.9155 Cl  0  0  0  0  0  0  0  0  0  0  0  0
    2.5290  -11.5325    3.9743 C   0  0  0  0  0  0  0  0  0  0  0  0
    3.0558  -12.2656    5.4931 Cl  0  0  0  0  0  0  0  0  0  0  0  0
    3.0572  -10.3116    3.5990 C   0  0  0  0  0  0  0  0  0  0  0  0
    4.1998   -9.5206    4.6802 Cl  0  0  0  0  0  0  0  0  0  0  0  0
    2.6094   -9.7340    2.3848 C   0  0  0  0  0  0  0  0  0  0  0  0
    2.7796   -8.3473    1.7766 C   0  0  0  0  0  0  0  0  0  0  0  0
    3.4508   -7.2593    2.2987 C   0  0  0  0  0  0  0  0  0  0  0  0
    4.7196   -7.5079    2.8269 C   0  0  0  0  0  0  0  0  0  0  0  0
    5.7989   -7.9431    3.1589 N   0  0  0  0  0  0  0  0  0  0  0  0
    2.7015   -6.5705    3.3753 C   0  0  0  0  0  0  0  0  0  0  0  0
    2.1269   -6.0163    4.2184 N   0  0  0  0  0  0  0  0  0  0  0  0
    2.2389   -6.1164   -1.0653 C   0  0  0  0  0  0  0  0  0  0  0  0
    1.4786   -5.4665   -2.0682 C   0  0  0  0  0  0  0  0  0  0  0  0
    0.6806   -6.2521   -3.0493 N   0  0  0  0  0  0  0  0  0  0  0  0
    1.4663   -6.9094   -4.1217 C   0  0  0  0  0  0  0  0  0  0  0  0
    2.3805   -6.1067   -4.7893 C   0  0  0  0  0  0  0  0  0  0  0  0
    3.3112   -6.6753   -5.6725 C   0  0  0  0  0  0  0  0  0  0  0  0
    3.3128   -8.0293   -5.9184 C   0  0  0  0  0  0  0  0  0  0  0  0
    4.3278   -8.6079   -6.8541 C   0  0  0  0  0  0  0  0  0  0  0  0
    2.3799   -8.8526   -5.2851 C   0  0  0  0  0  0  0  0  0  0  0  0
    1.4538   -8.3082   -4.3521 C   0  0  0  0  0  0  0  0  0  0  0  0
   -0.7149   -6.3064   -2.9357 C   0  0  0  0  0  0  0  0  0  0  0  0
   -1.4276   -5.1047   -2.6107 C   0  0  0  0  0  0  0  0  0  0  0  0
   -2.8147   -5.0683   -2.6111 C   0  0  0  0  0  0  0  0  0  0  0  0
   -3.5739   -6.2131   -2.8549 C   0  0  0  0  0  0  0  0  0  0  0  0
   -5.0697   -6.1910   -2.8837 C   0  0  0  0  0  0  0  0  0  0  0  0
   -2.8980   -7.4305   -3.1119 C   0  0  0  0  0  0  0  0  0  0  0  0
   -1.5154   -7.4628   -3.1283 C   0  0  0  0  0  0  0  0  0  0  0  0
    1.8942   -4.2138   -2.2751 C   0  0  0  0  0  0  0  0  0  0  0  0
    1.2481   -2.9496   -3.1643 S   0  0  0  0  0  0  0  0  0  0  0  0
    2.2977   -1.7211   -2.6076 C   0  0  0  0  0  0  0  0  0  0  0  0
    3.3007   -2.4327   -1.8066 C   0  0  0  0  0  0  0  0  0  0  0  0
    4.4810   -1.7627   -1.3423 N   0  0  0  0  0  0  0  0  0  0  0  0
    5.2996   -1.0776   -2.2895 C   0  0  0  0  0  0  0  0  0  0  0  0
    5.8260    0.2332   -2.0141 C   0  0  0  0  0  0  0  0  0  0  0  0
    6.6509    0.8544   -2.9286 C   0  0  0  0  0  0  0  0  0  0  0  0
    6.9683    0.2412   -4.1571 C   0  0  0  0  0  0  0  0  0  0  0  0
    7.8841    0.9545   -5.0993 C   0  0  0  0  0  0  0  0  0  0  0  0
    6.4887   -1.0600   -4.4147 C   0  0  0  0  0  0  0  0  0  0  0  0
    5.6596   -1.7046   -3.5124 C   0  0  0  0  0  0  0  0  0  0  0  0
    4.6331   -1.5914    0.0862 C   0  0  0  0  0  0  0  0  0  0  0  0
    5.9407   -1.6709    0.6104 C   0  0  0  0  0  0  0  0  0  0  0  0
    6.1422   -1.5003    1.9900 C   0  0  0  0  0  0  0  0  0  0  0  0
    5.0358   -1.2662    2.8127 C   0  0  0  0  0  0  0  0  0  0  0  0
    5.2020   -1.1326    4.3026 C   0  0  0  0  0  0  0  0  0  0  0  0
    3.7412   -1.1439    2.2861 C   0  0  0  0  0  0  0  0  0  0  0  0
    3.5438   -1.3287    0.9205 C   0  0  0  0  0  0  0  0  0  0  0  0
    2.9852   -3.7707   -1.5823 C   0  0  0  0  0  0  0  0  0  0  0  0
    3.4953   -5.0462   -0.5308 S   0  0  0  0  0  0  0  0  0  0  0  0
    1.8828   -0.2581   -2.4376 C   0  0  0  0  0  0  0  0  0  0  0  0
    0.5568    0.1684   -2.5458 C   0  0  0  0  0  0  0  0  0  0  0  0
   -0.3521   -0.4248   -3.4832 N   0  0  0  0  0  0  0  0  0  0  0  0
    0.0672   -0.6905   -4.8340 C   0  0  0  0  0  0  0  0  0  0  0  0
    0.9229    0.2178   -5.5184 C   0  0  0  0  0  0  0  0  0  0  0  0
    1.1862   -0.0114   -6.9058 C   0  0  0  0  0  0  0  0  0  0  0  0
    0.6403   -1.1278   -7.6070 C   0  0  0  0  0  0  0  0  0  0  0  0
    0.7480   -1.2501   -9.4358 S   0  0  0  0  0  0  0  0  0  0  0  0
    2.2259   -2.3824   -9.4704 C   0  0  0  0  0  0  0  0  0  0  0  0
   -0.2445   -1.9568   -6.8966 C   0  0  0  0  0  0  0  0  0  0  0  0
   -0.5145   -1.7634   -5.5287 C   0  0  0  0  0  0  0  0  0  0  0  0
   -1.7573   -0.4970   -3.1713 C   0  0  0  0  0  0  0  0  0  0  0  0
   -2.6753   -0.1275   -4.1292 C   0  0  0  0  0  0  0  0  0  0  0  0
   -4.0333   -0.2707   -3.8990 C   0  0  0  0  0  0  0  0  0  0  0  0
   -4.5008   -0.7984   -2.6772 C   0  0  0  0  0  0  0  0  0  0  0  0
   -6.2664   -0.7472   -2.3121 S   0  0  0  0  0  0  0  0  0  0  0  0
   -6.6354   -2.4807   -2.8507 C   0  0  0  0  0  0  0  0  0  0  0  0
   -3.5515   -1.1571   -1.6923 C   0  0  0  0  0  0  0  0  0  0  0  0
   -2.1688   -1.0576   -1.9380 C   0  0  0  0  0  0  0  0  0  0  0  0
    0.2265    1.2002   -1.6354 C   0  0  0  0  0  0  0  0  0  0  0  0
   -1.1873    1.8095   -0.9603 S   0  0  0  0  0  0  0  0  0  0  0  0
   -0.4048    2.8801    0.1879 C   0  0  0  0  0  0  0  0  0  0  0  0
    0.9789    2.6034    0.0646 C   0  0  0  0  0  0  0  0  0  0  0  0
    1.9770    3.6298    0.4120 N   0  0  0  0  0  0  0  0  0  0  0  0
    2.3962    4.4852   -0.6748 C   0  0  0  0  0  0  0  0  0  0  0  0
    1.4430    5.1333   -1.4841 C   0  0  0  0  0  0  0  0  0  0  0  0
    1.8780    5.9264   -2.5361 C   0  0  0  0  0  0  0  0  0  0  0  0
    3.2378    6.1808   -2.7550 C   0  0  0  0  0  0  0  0  0  0  0  0
    3.6375    7.4668   -4.0069 S   0  0  0  0  0  0  0  0  0  0  0  0
    5.3419    7.0103   -4.4755 C   0  0  0  0  0  0  0  0  0  0  0  0
    4.1811    5.5886   -1.8746 C   0  0  0  0  0  0  0  0  0  0  0  0
    3.7522    4.7333   -0.8426 C   0  0  0  0  0  0  0  0  0  0  0  0
    2.3449    3.8890    1.7276 C   0  0  0  0  0  0  0  0  0  0  0  0
    2.6366    5.2192    2.1326 C   0  0  0  0  0  0  0  0  0  0  0  0
    3.1429    5.5023    3.3657 C   0  0  0  0  0  0  0  0  0  0  0  0
    3.3139    4.5309    4.3438 C   0  0  0  0  0  0  0  0  0  0  0  0
    3.6046    5.1034    6.0531 S   0  0  0  0  0  0  0  0  0  0  0  0
    4.6645    3.8106    6.7544 C   0  0  0  0  0  0  0  0  0  0  0  0
    3.0772    3.1763    3.9690 C   0  0  0  0  0  0  0  0  0  0  0  0
    2.6427    2.8609    2.6884 C   0  0  0  0  0  0  0  0  0  0  0  0
    1.3000    1.7470   -0.9703 C   0  0  0  0  0  0  0  0  0  0  0  0
    2.6770    0.8800   -1.4074 S   0  0  0  0  0  0  0  0  0  0  0  0
   -1.1920    3.5047    1.3255 C   0  0  0  0  0  0  0  0  0  0  0  0
   -2.3534    2.9319    1.9082 C   0  0  0  0  0  0  0  0  0  0  0  0
   -3.0097    3.7151    2.8113 C   0  0  0  0  0  0  0  0  0  0  0  0
   -4.2407    3.3752    3.4799 C   0  0  0  0  0  0  0  0  0  0  0  0
   -4.7515    2.0347    3.4238 C   0  0  0  0  0  0  0  0  0  0  0  0
   -5.3488    1.5040    2.2569 C   0  0  0  0  0  0  0  0  0  0  0  0
   -5.7450    0.1882    2.2456 C   0  0  0  0  0  0  0  0  0  0  0  0
   -5.5505   -0.6380    3.3766 C   0  0  0  0  0  0  0  0  0  0  0  0
   -5.9765   -1.9519    3.4150 C   0  0  0  0  0  0  0  0  0  0  0  0
   -5.7849   -2.7449    4.5500 C   0  0  0  0  0  0  0  0  0  0  0  0
   -5.1656   -2.2036    5.6874 C   0  0  0  0  0  0  0  0  0  0  0  0
   -4.7570   -0.8686    5.6793 C   0  0  0  0  0  0  0  0  0  0  0  0
   -4.9386   -0.0718    4.5530 C   0  0  0  0  0  0  0  0  0  0  0  0
   -4.5431    1.2307    4.5602 C   0  0  0  0  0  0  0  0  0  0  0  0
   -4.8399    4.3845    4.2421 C   0  0  0  0  0  0  0  0  0  0  0  0
   -4.1693    5.5722    4.5670 C   0  0  0  0  0  0  0  0  0  0  0  0
   -2.8758    5.8631    3.9860 C   0  0  0  0  0  0  0  0  0  0  0  0
   -2.1878    7.0182    4.3174 O   0  0  0  0  0  0  0  0  0  0  0  0
   -1.2954    7.0858    5.4185 C   0  0  0  0  0  0  0  0  0  0  0  0
   -0.1823    6.0375    5.3207 C   0  0  0  0  0  0  0  0  0  0  0  0
   -2.3737    4.9261    3.0660 C   0  0  0  0  0  0  0  0  0  0  0  0
   -0.9513    5.0327    2.0842 S   0  0  0  0  0  0  0  0  0  0  0  0
   -4.9268    6.4531    5.3090 C   0  0  0  0  0  0  0  0  0  0  0  0
   -6.2673    6.0004    5.4632 C   0  0  0  0  0  0  0  0  0  0  0  0
   -6.4601    4.4732    4.7428 S   0  0  0  0  0  0  0  0  0  0  0  0
   -7.3425    7.0099    5.4533 C   0  0  0  0  0  0  0  0  0  0  0  0
   -7.4159    8.0586    4.5389 C   0  0  0  0  0  0  0  0  0  0  0  0
   -6.6991    8.0147    3.2507 C   0  0  0  0  0  0  0  0  0  0  0  0
   -6.1788    6.9915    2.7578 O   0  0  0  0  0  0  0  0  0  0  0  0
   -6.8224    9.3188    2.6293 C   0  0  0  0  0  0  0  0  0  0  0  0
   -6.0777    9.7041    1.5081 C   0  0  0  0  0  0  0  0  0  0  0  0
   -4.9826    8.5359    0.6573 Cl  0  0  0  0  0  0  0  0  0  0  0  0
   -6.1813   11.0127    1.1545 C   0  0  0  0  0  0  0  0  0  0  0  0
   -5.2605   11.6176   -0.2039 Cl  0  0  0  0  0  0  0  0  0  0  0  0
   -7.0038   11.9657    1.8758 C   0  0  0  0  0  0  0  0  0  0  0  0
   -7.1014   13.6177    1.4826 Cl  0  0  0  0  0  0  0  0  0  0  0  0
   -7.7201   11.5380    2.9982 C   0  0  0  0  0  0  0  0  0  0  0  0
   -8.5491   12.6602    4.0122 Cl  0  0  0  0  0  0  0  0  0  0  0  0
   -7.6480   10.1856    3.4124 C   0  0  0  0  0  0  0  0  0  0  0  0
   -8.1780    9.3961    4.6751 C   0  0  0  0  0  0  0  0  0  0  0  0
   -9.4775    9.5070    5.1820 C   0  0  0  0  0  0  0  0  0  0  0  0
  -10.0918   10.7588    5.6920 C   0  0  0  0  0  0  0  0  0  0  0  0
  -10.8118   11.6232    5.9432 N   0  0  0  0  0  0  0  0  0  0  0  0
   -9.8206    8.6392    6.1920 C   0  0  0  0  0  0  0  0  0  0  0  0
  -10.2504    7.9297    6.9826 N   0  0  0  0  0  0  0  0  0  0  0  0
    1.0793   -7.9509   -1.3746 H   0  0  0  0  0  0  0  0  0  0  0  0
    2.4792   -5.0413   -4.6149 H   0  0  0  0  0  0  0  0  0  0  0  0
    4.0219   -5.9953   -6.1132 H   0  0  0  0  0  0  0  0  0  0  0  0
    5.3125   -8.1416   -6.6818 H   0  0  0  0  0  0  0  0  0  0  0  0
    3.9995   -8.4216   -7.8760 H   0  0  0  0  0  0  0  0  0  0  0  0
    4.4001   -9.6955   -6.6995 H   0  0  0  0  0  0  0  0  0  0  0  0
    2.3601   -9.9195   -5.4574 H   0  0  0  0  0  0  0  0  0  0  0  0
    0.8220   -9.0061   -3.8116 H   0  0  0  0  0  0  0  0  0  0  0  0
   -0.9063   -4.1766   -2.3750 H   0  0  0  0  0  0  0  0  0  0  0  0
   -3.3344   -4.1225   -2.4021 H   0  0  0  0  0  0  0  0  0  0  0  0
   -5.4655   -5.6872   -1.9759 H   0  0  0  0  0  0  0  0  0  0  0  0
   -5.4115   -5.6816   -3.8133 H   0  0  0  0  0  0  0  0  0  0  0  0
   -5.4821   -7.2305   -2.8754 H   0  0  0  0  0  0  0  0  0  0  0  0
   -3.4417   -8.3486   -3.3128 H   0  0  0  0  0  0  0  0  0  0  0  0
   -1.0443   -8.4280   -3.3133 H   0  0  0  0  0  0  0  0  0  0  0  0
    5.5527    0.7321   -1.0775 H   0  0  0  0  0  0  0  0  0  0  0  0
    7.0072    1.8558   -2.7075 H   0  0  0  0  0  0  0  0  0  0  0  0
    7.8428    0.5048   -6.1273 H   0  0  0  0  0  0  0  0  0  0  0  0
    7.5917    2.0381   -5.1731 H   0  0  0  0  0  0  0  0  0  0  0  0
    8.9420    0.8988   -4.7213 H   0  0  0  0  0  0  0  0  0  0  0  0
    6.7575   -1.5465   -5.3370 H   0  0  0  0  0  0  0  0  0  0  0  0
    5.2715   -2.7171   -3.7417 H   0  0  0  0  0  0  0  0  0  0  0  0
    6.7617   -1.8760   -0.0435 H   0  0  0  0  0  0  0  0  0  0  0  0
    7.1463   -1.6076    2.3731 H   0  0  0  0  0  0  0  0  0  0  0  0
    5.8252   -1.9705    4.6985 H   0  0  0  0  0  0  0  0  0  0  0  0
    4.2080   -1.1815    4.8253 H   0  0  0  0  0  0  0  0  0  0  0  0
    5.6609   -0.1426    4.5455 H   0  0  0  0  0  0  0  0  0  0  0  0
    2.8730   -0.9619    2.8955 H   0  0  0  0  0  0  0  0  0  0  0  0
    2.5221   -1.2330    0.5228 H   0  0  0  0  0  0  0  0  0  0  0  0
    1.3374    1.1006   -5.0141 H   0  0  0  0  0  0  0  0  0  0  0  0
    1.7552    0.6937   -7.4359 H   0  0  0  0  0  0  0  0  0  0  0  0
    3.1949   -1.8077   -9.5260 H   0  0  0  0  0  0  0  0  0  0  0  0
    2.1419   -2.9402  -10.4269 H   0  0  0  0  0  0  0  0  0  0  0  0
    2.3092   -3.1575   -8.6353 H   0  0  0  0  0  0  0  0  0  0  0  0
   -0.7936   -2.7721   -7.3687 H   0  0  0  0  0  0  0  0  0  0  0  0
   -1.1920   -2.4485   -5.0035 H   0  0  0  0  0  0  0  0  0  0  0  0
   -2.3599    0.2796   -5.1144 H   0  0  0  0  0  0  0  0  0  0  0  0
   -4.6952    0.0737   -4.6730 H   0  0  0  0  0  0  0  0  0  0  0  0
   -7.7346   -2.6214   -2.8546 H   0  0  0  0  0  0  0  0  0  0  0  0
   -6.1978   -3.2361   -2.1475 H   0  0  0  0  0  0  0  0  0  0  0  0
   -6.2762   -2.7133   -3.8899 H   0  0  0  0  0  0  0  0  0  0  0  0
   -3.8893   -1.4943   -0.7283 H   0  0  0  0  0  0  0  0  0  0  0  0
   -1.4464   -1.3440   -1.1658 H   0  0  0  0  0  0  0  0  0  0  0  0
    0.3616    4.9983   -1.2897 H   0  0  0  0  0  0  0  0  0  0  0  0
    1.0876    6.3925   -3.1389 H   0  0  0  0  0  0  0  0  0  0  0  0
    5.4243    6.0373   -5.0025 H   0  0  0  0  0  0  0  0  0  0  0  0
    6.0613    7.0507   -3.6236 H   0  0  0  0  0  0  0  0  0  0  0  0
    5.6527    7.8106   -5.1642 H   0  0  0  0  0  0  0  0  0  0  0  0
    5.2126    5.7846   -1.9698 H   0  0  0  0  0  0  0  0  0  0  0  0
    4.4677    4.2471   -0.1719 H   0  0  0  0  0  0  0  0  0  0  0  0
    2.4324    6.0646    1.4444 H   0  0  0  0  0  0  0  0  0  0  0  0
    3.2487    6.5620    3.6120 H   0  0  0  0  0  0  0  0  0  0  0  0
    5.6820    3.8262    6.3347 H   0  0  0  0  0  0  0  0  0  0  0  0
    4.2243    2.7961    6.7301 H   0  0  0  0  0  0  0  0  0  0  0  0
    4.7060    4.0553    7.8217 H   0  0  0  0  0  0  0  0  0  0  0  0
    3.2417    2.3627    4.6757 H   0  0  0  0  0  0  0  0  0  0  0  0
    2.4686    1.7782    2.3792 H   0  0  0  0  0  0  0  0  0  0  0  0
   -2.6761    1.9605    1.5375 H   0  0  0  0  0  0  0  0  0  0  0  0
   -5.4424    2.1373    1.3656 H   0  0  0  0  0  0  0  0  0  0  0  0
   -6.2429   -0.2402    1.3701 H   0  0  0  0  0  0  0  0  0  0  0  0
   -6.4629   -2.4188    2.5391 H   0  0  0  0  0  0  0  0  0  0  0  0
   -6.0888   -3.7717    4.5365 H   0  0  0  0  0  0  0  0  0  0  0  0
   -5.0025   -2.8303    6.5691 H   0  0  0  0  0  0  0  0  0  0  0  0
   -4.2599   -0.4631    6.5915 H   0  0  0  0  0  0  0  0  0  0  0  0
   -4.0315    1.6637    5.4242 H   0  0  0  0  0  0  0  0  0  0  0  0
   -0.8582    8.0991    5.3880 H   0  0  0  0  0  0  0  0  0  0  0  0
   -1.8791    6.9241    6.3526 H   0  0  0  0  0  0  0  0  0  0  0  0
    0.5627    6.3340    4.5637 H   0  0  0  0  0  0  0  0  0  0  0  0
   -0.5582    5.0214    5.0422 H   0  0  0  0  0  0  0  0  0  0  0  0
    0.2843    5.9556    6.3180 H   0  0  0  0  0  0  0  0  0  0  0  0
   -4.7109    7.5507    5.4865 H   0  0  0  0  0  0  0  0  0  0  0  0
   -7.8555    7.0637    6.4522 H   0  0  0  0  0  0  0  0  0  0  0  0
  1  2  2  3
  2  3  1  0
  3  4  2  0
  3  5  1  0
  5  6  2  0
  6  7  1  0
  6  8  1  0
  8  9  1  0
  8 10  2  0
 10 11  1  0
 10 12  1  0
 12 13  1  0
 12 14  2  0
 14 15  1  0
 15 16  2  3
 16 17  1  0
 17 18  3  0
 16 19  1  0
 19 20  3  0
  1 21  1  0
 21 22  2  0
 22 23  1  0
 23 24  1  0
 24 25  2  0
 25 26  1  0
 26 27  2  0
 27 28  1  0
 27 29  1  0
 29 30  2  0
 23 31  1  0
 31 32  2  0
 32 33  1  0
 33 34  2  0
 34 35  1  0
 34 36  1  0
 36 37  2  0
 22 38  1  0
 38 39  1  0
 39 40  1  0
 40 41  2  0
 41 42  1  0
 42 43  1  0
 43 44  2  0
 44 45  1  0
 45 46  2  0
 46 47  1  0
 46 48  1  0
 48 49  2  0
 42 50  1  0
 50 51  2  0
 51 52  1  0
 52 53  2  0
 53 54  1  0
 53 55  1  0
 55 56  2  0
 41 57  1  0
 57 58  1  0
 40 59  1  0
 59 60  2  0
 60 61  1  0
 61 62  1  0
 62 63  2  0
 63 64  1  0
 64 65  2  0
 65 66  1  0
 66 67  1  0
 65 68  1  0
 68 69  2  0
 61 70  1  0
 70 71  2  0
 71 72  1  0
 72 73  2  0
 73 74  1  0
 74 75  1  0
 73 76  1  0
 76 77  2  0
 60 78  1  0
 78 79  1  0
 79 80  1  0
 80 81  2  0
 81 82  1  0
 82 83  1  0
 83 84  2  0
 84 85  1  0
 85 86  2  0
 86 87  1  0
 87 88  1  0
 86 89  1  0
 89 90  2  0
 82 91  1  0
 91 92  2  0
 92 93  1  0
 93 94  2  0
 94 95  1  0
 95 96  1  0
 94 97  1  0
 97 98  2  0
 81 99  1  0
 99100  1  0
 80101  1  0
101102  2  0
102103  1  0
103104  2  0
104105  1  0
105106  2  0
106107  1  0
107108  2  0
108109  1  0
109110  2  0
110111  1  0
111112  2  0
112113  1  0
113114  2  0
104115  1  0
115116  2  0
116117  1  0
117118  1  0
118119  1  0
119120  1  0
117121  2  0
121122  1  0
116123  1  0
123124  2  0
124125  1  0
124126  1  0
126127  2  3
127128  1  0
128129  2  0
128130  1  0
130131  2  0
131132  1  0
131133  1  0
133134  1  0
133135  2  0
135136  1  0
135137  1  0
137138  1  0
137139  2  0
139140  1  0
140141  2  3
141142  1  0
142143  3  0
141144  1  0
144145  3  0
 15  2  1  0
 58 21  1  0
100 59  1  0
122101  1  0
140127  1  0
 14  5  1  0
 30 24  1  0
 37 31  1  0
 57 38  2  0
 69 62  1  0
 77 70  1  0
 99 78  2  0
121103  1  0
139130  1  0
 49 43  1  0
 56 50  1  0
 90 83  1  0
 98 91  1  0
114105  1  0
125115  1  0
113108  1  0
  1146  1  0
 25147  1  0
 26148  1  0
 28149  1  0
 28150  1  0
 28151  1  0
 29152  1  0
 30153  1  0
 32154  1  0
 33155  1  0
 35156  1  0
 35157  1  0
 35158  1  0
 36159  1  0
 37160  1  0
 44161  1  0
 45162  1  0
 47163  1  0
 47164  1  0
 47165  1  0
 48166  1  0
 49167  1  0
 51168  1  0
 52169  1  0
 54170  1  0
 54171  1  0
 54172  1  0
 55173  1  0
 56174  1  0
 63175  1  0
 64176  1  0
 67177  1  0
 67178  1  0
 67179  1  0
 68180  1  0
 69181  1  0
 71182  1  0
 72183  1  0
 75184  1  0
 75185  1  0
 75186  1  0
 76187  1  0
 77188  1  0
 84189  1  0
 85190  1  0
 88191  1  0
 88192  1  0
 88193  1  0
 89194  1  0
 90195  1  0
 92196  1  0
 93197  1  0
 96198  1  0
 96199  1  0
 96200  1  0
 97201  1  0
 98202  1  0
102203  1  0
106204  1  0
107205  1  0
109206  1  0
110207  1  0
111208  1  0
112209  1  0
114210  1  0
119211  1  0
119212  1  0
120213  1  0
120214  1  0
120215  1  0
123216  1  0
126217  1  0
M  END

