
     RDKit          3D

191207  0  0  0  0  0  0  0  0999 V2000
    7.4987   -2.5747    0.7138 C   0  0  0  0  0  0  0  0  0  0  0  0
    8.4134   -2.0065    1.5230 C   0  0  0  0  0  0  0  0  0  0  0  0
    9.8431   -2.2240    1.3173 C   0  0  0  0  0  0  0  0  0  0  0  0
   10.3493   -3.0499    0.5103 O   0  0  0  0  0  0  0  0  0  0  0  0
   10.5846   -1.2937    2.1440 C   0  0  0  0  0  0  0  0  0  0  0  0
   11.9606   -1.0334    2.1547 C   0  0  0  0  0  0  0  0  0  0  0  0
   13.0710   -2.0146    1.2010 Cl  0  0  0  0  0  0  0  0  0  0  0  0
   12.4319    0.0441    2.9276 C   0  0  0  0  0  0  0  0  0  0  0  0
   14.1569    0.4199    2.9436 Cl  0  0  0  0  0  0  0  0  0  0  0  0
   11.5243    0.8586    3.6399 C   0  0  0  0  0  0  0  0  0  0  0  0
   12.1193    2.2765    4.5064 Cl  0  0  0  0  0  0  0  0  0  0  0  0
   10.1418    0.5664    3.6269 C   0  0  0  0  0  0  0  0  0  0  0  0
    9.0240    1.6856    4.4080 Cl  0  0  0  0  0  0  0  0  0  0  0  0
    9.6924   -0.5588    2.9029 C   0  0  0  0  0  0  0  0  0  0  0  0
    8.2968   -1.0569    2.6810 C   0  0  0  0  0  0  0  0  0  0  0  0
    7.3714   -1.1434    3.6722 C   0  0  0  0  0  0  0  0  0  0  0  0
    5.9943   -1.4957    3.4665 C   0  0  0  0  0  0  0  0  0  0  0  0
    4.8680   -1.7473    3.3443 N   0  0  0  0  0  0  0  0  0  0  0  0
    7.7346   -0.9589    5.0525 C   0  0  0  0  0  0  0  0  0  0  0  0
    8.0211   -0.8219    6.1664 N   0  0  0  0  0  0  0  0  0  0  0  0
    6.0891   -2.2086    0.6221 C   0  0  0  0  0  0  0  0  0  0  0  0
    5.5802   -0.9647    0.2152 C   0  0  0  0  0  0  0  0  0  0  0  0
    6.3801    0.0378   -0.4295 N   0  0  0  0  0  0  0  0  0  0  0  0
    6.4631    0.0367   -1.8718 C   0  0  0  0  0  0  0  0  0  0  0  0
    6.6486   -1.1667   -2.5756 C   0  0  0  0  0  0  0  0  0  0  0  0
    6.6908   -1.1743   -3.9738 C   0  0  0  0  0  0  0  0  0  0  0  0
    6.5251    0.0185   -4.6924 C   0  0  0  0  0  0  0  0  0  0  0  0
    6.5881    0.0177   -6.1893 C   0  0  0  0  0  0  0  0  0  0  0  0
    6.3572    1.2248   -3.9960 C   0  0  0  0  0  0  0  0  0  0  0  0
    6.3201    1.2335   -2.5978 C   0  0  0  0  0  0  0  0  0  0  0  0
    6.9716    1.1013    0.3389 C   0  0  0  0  0  0  0  0  0  0  0  0
    6.2486    1.7340    1.3633 C   0  0  0  0  0  0  0  0  0  0  0  0
    6.8012    2.8154    2.0520 C   0  0  0  0  0  0  0  0  0  0  0  0
    8.0932    3.2718    1.7380 C   0  0  0  0  0  0  0  0  0  0  0  0
    8.6745    4.4544    2.4560 C   0  0  0  0  0  0  0  0  0  0  0  0
    8.8239    2.6307    0.7264 C   0  0  0  0  0  0  0  0  0  0  0  0
    8.2656    1.5534    0.0344 C   0  0  0  0  0  0  0  0  0  0  0  0
    4.1978   -1.0279    0.0620 C   0  0  0  0  0  0  0  0  0  0  0  0
    3.0337    0.0416   -0.4790 S   0  0  0  0  0  0  0  0  0  0  0  0
    1.7540   -1.0937   -0.4483 C   0  0  0  0  0  0  0  0  0  0  0  0
    2.2810   -2.3513   -0.0646 C   0  0  0  0  0  0  0  0  0  0  0  0
    1.6494   -3.6362   -0.2455 N   0  0  0  0  0  0  0  0  0  0  0  0
    1.8128   -4.6021    0.8238 C   0  0  0  0  0  0  0  0  0  0  0  0
    1.6490   -4.2029    2.1620 C   0  0  0  0  0  0  0  0  0  0  0  0
    1.8500   -5.1027    3.2078 C   0  0  0  0  0  0  0  0  0  0  0  0
    2.2151   -6.4273    2.9371 C   0  0  0  0  0  0  0  0  0  0  0  0
    2.4634   -7.3859    4.0679 C   0  0  0  0  0  0  0  0  0  0  0  0
    2.4350   -6.8244    1.6107 C   0  0  0  0  0  0  0  0  0  0  0  0
    2.2463   -5.9179    0.5630 C   0  0  0  0  0  0  0  0  0  0  0  0
    1.2170   -4.0464   -1.5725 C   0  0  0  0  0  0  0  0  0  0  0  0
    0.3406   -5.1366   -1.7367 C   0  0  0  0  0  0  0  0  0  0  0  0
   -0.0811   -5.5397   -3.0055 C   0  0  0  0  0  0  0  0  0  0  0  0
    0.3783   -4.8716   -4.1469 C   0  0  0  0  0  0  0  0  0  0  0  0
   -0.1113   -5.2868   -5.5025 C   0  0  0  0  0  0  0  0  0  0  0  0
    1.2538   -3.7853   -4.0029 C   0  0  0  0  0  0  0  0  0  0  0  0
    1.6799   -3.3855   -2.7319 C   0  0  0  0  0  0  0  0  0  0  0  0
    3.6401   -2.2474    0.2462 C   0  0  0  0  0  0  0  0  0  0  0  0
    4.8387   -3.3628    0.6120 S   0  0  0  0  0  0  0  0  0  0  0  0
    0.3631   -0.7048   -0.7724 C   0  0  0  0  0  0  0  0  0  0  0  0
   -0.8494   -1.1726   -0.2127 C   0  0  0  0  0  0  0  0  0  0  0  0
   -0.9973   -2.1809    0.8016 N   0  0  0  0  0  0  0  0  0  0  0  0
   -1.6105   -3.4532    0.4518 C   0  0  0  0  0  0  0  0  0  0  0  0
   -2.2586   -3.6404   -0.7897 C   0  0  0  0  0  0  0  0  0  0  0  0
   -2.8541   -4.8630   -1.1102 C   0  0  0  0  0  0  0  0  0  0  0  0
   -2.8162   -5.9229   -0.2014 C   0  0  0  0  0  0  0  0  0  0  0  0
   -3.5223   -7.5084   -0.6489 S   0  0  0  0  0  0  0  0  0  0  0  0
   -5.2121   -7.0301   -0.1781 C   0  0  0  0  0  0  0  0  0  0  0  0
   -2.1850   -5.7563    1.0354 C   0  0  0  0  0  0  0  0  0  0  0  0
   -1.5855   -4.5351    1.3582 C   0  0  0  0  0  0  0  0  0  0  0  0
   -1.0671   -1.6970    2.1624 C   0  0  0  0  0  0  0  0  0  0  0  0
   -0.0289   -0.9093    2.6944 C   0  0  0  0  0  0  0  0  0  0  0  0
   -0.1226   -0.3898    3.9897 C   0  0  0  0  0  0  0  0  0  0  0  0
   -1.2663   -0.6253    4.7599 C   0  0  0  0  0  0  0  0  0  0  0  0
   -1.4118    0.0916    6.3966 S   0  0  0  0  0  0  0  0  0  0  0  0
   -2.2032    1.6117    5.7832 C   0  0  0  0  0  0  0  0  0  0  0  0
   -2.3089   -1.3961    4.2385 C   0  0  0  0  0  0  0  0  0  0  0  0
   -2.2177   -1.9178    2.9460 C   0  0  0  0  0  0  0  0  0  0  0  0
   -1.9245   -0.3678   -0.5882 C   0  0  0  0  0  0  0  0  0  0  0  0
   -3.5343   -0.3166   -0.1320 S   0  0  0  0  0  0  0  0  0  0  0  0
   -3.8653    1.1140   -0.9952 C   0  0  0  0  0  0  0  0  0  0  0  0
   -2.6923    1.5597   -1.6275 C   0  0  0  0  0  0  0  0  0  0  0  0
   -2.5177    2.8762   -2.1710 N   0  0  0  0  0  0  0  0  0  0  0  0
   -2.0763    3.9020   -1.2624 C   0  0  0  0  0  0  0  0  0  0  0  0
   -2.9165    4.3435   -0.2292 C   0  0  0  0  0  0  0  0  0  0  0  0
   -2.4661    5.2859    0.6943 C   0  0  0  0  0  0  0  0  0  0  0  0
   -1.1672    5.7980    0.5980 C   0  0  0  0  0  0  0  0  0  0  0  0
   -0.5665    6.9553    1.8278 S   0  0  0  0  0  0  0  0  0  0  0  0
   -1.1850    8.4167    0.9383 C   0  0  0  0  0  0  0  0  0  0  0  0
   -0.3270    5.3753   -0.4428 C   0  0  0  0  0  0  0  0  0  0  0  0
   -0.7806    4.4293   -1.3687 C   0  0  0  0  0  0  0  0  0  0  0  0
   -2.4925    3.0987   -3.6003 C   0  0  0  0  0  0  0  0  0  0  0  0
   -2.6586    4.3963   -4.1183 C   0  0  0  0  0  0  0  0  0  0  0  0
   -2.5969    4.6263   -5.4936 C   0  0  0  0  0  0  0  0  0  0  0  0
   -2.3546    3.5667   -6.3722 C   0  0  0  0  0  0  0  0  0  0  0  0
   -2.2247    3.8704   -8.1347 S   0  0  0  0  0  0  0  0  0  0  0  0
   -0.4270    4.1550   -8.0719 C   0  0  0  0  0  0  0  0  0  0  0  0
   -2.2089    2.2691   -5.8741 C   0  0  0  0  0  0  0  0  0  0  0  0
   -2.2874    2.0313   -4.4995 C   0  0  0  0  0  0  0  0  0  0  0  0
   -1.6326    0.6912   -1.3753 C   0  0  0  0  0  0  0  0  0  0  0  0
    0.0127    0.7102   -1.6776 S   0  0  0  0  0  0  0  0  0  0  0  0
   -5.1807    1.7722   -1.0165 C   0  0  0  0  0  0  0  0  0  0  0  0
   -5.9157    1.9602    0.1547 C   0  0  0  0  0  0  0  0  0  0  0  0
   -5.5658    1.6950    1.4234 N   0  0  0  0  0  0  0  0  0  0  0  0
   -6.6102    2.0779    2.1527 N   0  0  0  0  0  0  0  0  0  0  0  0
   -6.6251    2.0349    3.6092 C   0  0  0  0  0  0  0  0  0  0  0  0
   -5.9740    3.2893    4.1767 C   0  0  0  0  0  0  0  0  0  0  0  0
   -7.5997    2.5877    1.4215 N   0  0  0  0  0  0  0  0  0  0  0  0
   -7.1578    2.5152    0.1548 C   0  0  0  0  0  0  0  0  0  0  0  0
   -7.8003    2.9016   -1.0213 C   0  0  0  0  0  0  0  0  0  0  0  0
   -7.0729    2.7626   -2.2269 C   0  0  0  0  0  0  0  0  0  0  0  0
   -5.7713    2.2057   -2.2237 C   0  0  0  0  0  0  0  0  0  0  0  0
   -9.1782    3.4298   -0.9909 C   0  0  0  0  0  0  0  0  0  0  0  0
  -10.1780    2.8986   -1.7123 C   0  0  0  0  0  0  0  0  0  0  0  0
  -10.0156    1.4273   -2.7419 S   0  0  0  0  0  0  0  0  0  0  0  0
  -11.7995    1.4440   -2.9548 C   0  0  0  0  0  0  0  0  0  0  0  0
  -12.5236    0.4424   -4.0259 S   0  0  0  0  0  0  0  0  0  0  0  0
  -12.4898    2.5034   -2.2875 N   0  0  0  0  0  0  0  0  0  0  0  0
  -13.9290    2.7682   -2.3672 C   0  0  0  0  0  0  0  0  0  0  0  0
  -14.2316    3.7452   -3.4949 C   0  0  0  0  0  0  0  0  0  0  0  0
  -11.5679    3.3351   -1.5988 C   0  0  0  0  0  0  0  0  0  0  0  0
  -11.9273    4.3537   -0.9470 O   0  0  0  0  0  0  0  0  0  0  0  0
    7.8253   -3.3234    0.0052 H   0  0  0  0  0  0  0  0  0  0  0  0
    6.7752   -2.1018   -2.0504 H   0  0  0  0  0  0  0  0  0  0  0  0
    6.8500   -2.1110   -4.4935 H   0  0  0  0  0  0  0  0  0  0  0  0
    6.2754   -0.9665   -6.6004 H   0  0  0  0  0  0  0  0  0  0  0  0
    7.6277    0.2287   -6.5186 H   0  0  0  0  0  0  0  0  0  0  0  0
    5.9126    0.7941   -6.6091 H   0  0  0  0  0  0  0  0  0  0  0  0
    6.2456    2.1555   -4.5367 H   0  0  0  0  0  0  0  0  0  0  0  0
    6.1617    2.1719   -2.0798 H   0  0  0  0  0  0  0  0  0  0  0  0
    5.2474    1.4006    1.6121 H   0  0  0  0  0  0  0  0  0  0  0  0
    6.2206    3.3025    2.8270 H   0  0  0  0  0  0  0  0  0  0  0  0
    8.4441    5.3796    1.8894 H   0  0  0  0  0  0  0  0  0  0  0  0
    9.7767    4.3488    2.5530 H   0  0  0  0  0  0  0  0  0  0  0  0
    8.2510    4.5368    3.4781 H   0  0  0  0  0  0  0  0  0  0  0  0
    9.8223    2.9668    0.4714 H   0  0  0  0  0  0  0  0  0  0  0  0
    8.8405    1.0698   -0.7464 H   0  0  0  0  0  0  0  0  0  0  0  0
    1.3658   -3.1900    2.3959 H   0  0  0  0  0  0  0  0  0  0  0  0
    1.7193   -4.7699    4.2312 H   0  0  0  0  0  0  0  0  0  0  0  0
    1.7977   -7.1559    4.9254 H   0  0  0  0  0  0  0  0  0  0  0  0
    2.2647   -8.4291    3.7459 H   0  0  0  0  0  0  0  0  0  0  0  0
    3.5196   -7.2998    4.3950 H   0  0  0  0  0  0  0  0  0  0  0  0
    2.7605   -7.8318    1.3892 H   0  0  0  0  0  0  0  0  0  0  0  0
    2.4570   -6.2400   -0.4478 H   0  0  0  0  0  0  0  0  0  0  0  0
   -0.0286   -5.6767   -0.8787 H   0  0  0  0  0  0  0  0  0  0  0  0
   -0.7685   -6.3713   -3.0949 H   0  0  0  0  0  0  0  0  0  0  0  0
   -1.1091   -4.8372   -5.6828 H   0  0  0  0  0  0  0  0  0  0  0  0
    0.5860   -4.9501   -6.3013 H   0  0  0  0  0  0  0  0  0  0  0  0
   -0.1970   -6.3918   -5.5644 H   0  0  0  0  0  0  0  0  0  0  0  0
    1.6208   -3.2563   -4.8752 H   0  0  0  0  0  0  0  0  0  0  0  0
    2.3840   -2.5710   -2.6666 H   0  0  0  0  0  0  0  0  0  0  0  0
   -2.2999   -2.8551   -1.5310 H   0  0  0  0  0  0  0  0  0  0  0  0
   -3.3277   -4.9903   -2.0747 H   0  0  0  0  0  0  0  0  0  0  0  0
   -5.2509   -6.7744    0.9025 H   0  0  0  0  0  0  0  0  0  0  0  0
   -5.8983   -7.8790   -0.3732 H   0  0  0  0  0  0  0  0  0  0  0  0
   -5.5418   -6.1587   -0.7795 H   0  0  0  0  0  0  0  0  0  0  0  0
   -2.1453   -6.5754    1.7401 H   0  0  0  0  0  0  0  0  0  0  0  0
   -1.1021   -4.4357    2.3202 H   0  0  0  0  0  0  0  0  0  0  0  0
    0.8561   -0.6991    2.1107 H   0  0  0  0  0  0  0  0  0  0  0  0
    0.6881    0.2094    4.3889 H   0  0  0  0  0  0  0  0  0  0  0  0
   -3.1631    1.3645    5.2780 H   0  0  0  0  0  0  0  0  0  0  0  0
   -1.5310    2.1371    5.0712 H   0  0  0  0  0  0  0  0  0  0  0  0
   -2.4136    2.2841    6.6435 H   0  0  0  0  0  0  0  0  0  0  0  0
   -3.1997   -1.5758    4.8271 H   0  0  0  0  0  0  0  0  0  0  0  0
   -3.0580   -2.4723    2.5472 H   0  0  0  0  0  0  0  0  0  0  0  0
   -3.9240    3.9677   -0.1416 H   0  0  0  0  0  0  0  0  0  0  0  0
   -3.1214    5.6133    1.4912 H   0  0  0  0  0  0  0  0  0  0  0  0
   -1.0119    9.3209    1.5563 H   0  0  0  0  0  0  0  0  0  0  0  0
   -0.6451    8.5291   -0.0255 H   0  0  0  0  0  0  0  0  0  0  0  0
   -2.2740    8.3165    0.7487 H   0  0  0  0  0  0  0  0  0  0  0  0
    0.6804    5.7631   -0.5225 H   0  0  0  0  0  0  0  0  0  0  0  0
   -0.1164    4.0913   -2.1531 H   0  0  0  0  0  0  0  0  0  0  0  0
   -2.8411    5.2334   -3.4580 H   0  0  0  0  0  0  0  0  0  0  0  0
   -2.7256    5.6342   -5.8764 H   0  0  0  0  0  0  0  0  0  0  0  0
   -0.0533    4.3379   -9.1010 H   0  0  0  0  0  0  0  0  0  0  0  0
    0.0901    3.2654   -7.6533 H   0  0  0  0  0  0  0  0  0  0  0  0
   -0.2038    5.0458   -7.4452 H   0  0  0  0  0  0  0  0  0  0  0  0
   -2.0199    1.4459   -6.5496 H   0  0  0  0  0  0  0  0  0  0  0  0
   -2.1715    1.0182   -4.1466 H   0  0  0  0  0  0  0  0  0  0  0  0
   -6.0737    1.1360    3.9612 H   0  0  0  0  0  0  0  0  0  0  0  0
   -7.6747    1.9614    3.9692 H   0  0  0  0  0  0  0  0  0  0  0  0
   -4.9257    3.3664    3.8217 H   0  0  0  0  0  0  0  0  0  0  0  0
   -5.9766    3.2403    5.2852 H   0  0  0  0  0  0  0  0  0  0  0  0
   -6.5366    4.1915    3.8511 H   0  0  0  0  0  0  0  0  0  0  0  0
   -7.5124    3.0731   -3.1640 H   0  0  0  0  0  0  0  0  0  0  0  0
   -5.2453    2.0810   -3.1610 H   0  0  0  0  0  0  0  0  0  0  0  0
   -9.3950    4.2187   -0.2800 H   0  0  0  0  0  0  0  0  0  0  0  0
  -14.2857    3.1976   -1.4063 H   0  0  0  0  0  0  0  0  0  0  0  0
  -14.4893    1.8226   -2.5272 H   0  0  0  0  0  0  0  0  0  0  0  0
  -13.9355    3.3141   -4.4765 H   0  0  0  0  0  0  0  0  0  0  0  0
  -13.6856    4.6986   -3.3316 H   0  0  0  0  0  0  0  0  0  0  0  0
  -15.3204    3.9572   -3.5140 H   0  0  0  0  0  0  0  0  0  0  0  0
  1  2  2  3
  2  3  1  0
  3  4  2  0
  3  5  1  0
  5  6  2  0
  6  7  1  0
  6  8  1  0
  8  9  1  0
  8 10  2  0
 10 11  1  0
 10 12  1  0
 12 13  1  0
 12 14  2  0
 14 15  1  0
 15 16  2  3
 16 17  1  0
 17 18  3  0
 16 19  1  0
 19 20  3  0
  1 21  1  0
 21 22  2  0
 22 23  1  0
 23 24  1  0
 24 25  2  0
 25 26  1  0
 26 27  2  0
 27 28  1  0
 27 29  1  0
 29 30  2  0
 23 31  1  0
 31 32  2  0
 32 33  1  0
 33 34  2  0
 34 35  1  0
 34 36  1  0
 36 37  2  0
 22 38  1  0
 38 39  1  0
 39 40  1  0
 40 41  2  0
 41 42  1  0
 42 43  1  0
 43 44  2  0
 44 45  1  0
 45 46  2  0
 46 47  1  0
 46 48  1  0
 48 49  2  0
 42 50  1  0
 50 51  2  0
 51 52  1  0
 52 53  2  0
 53 54  1  0
 53 55  1  0
 55 56  2  0
 41 57  1  0
 57 58  1  0
 40 59  1  0
 59 60  2  0
 60 61  1  0
 61 62  1  0
 62 63  2  0
 63 64  1  0
 64 65  2  0
 65 66  1  0
 66 67  1  0
 65 68  1  0
 68 69  2  0
 61 70  1  0
 70 71  2  0
 71 72  1  0
 72 73  2  0
 73 74  1  0
 74 75  1  0
 73 76  1  0
 76 77  2  0
 60 78  1  0
 78 79  1  0
 79 80  1  0
 80 81  2  0
 81 82  1  0
 82 83  1  0
 83 84  2  0
 84 85  1  0
 85 86  2  0
 86 87  1  0
 87 88  1  0
 86 89  1  0
 89 90  2  0
 82 91  1  0
 91 92  2  0
 92 93  1  0
 93 94  2  0
 94 95  1  0
 95 96  1  0
 94 97  1  0
 97 98  2  0
 81 99  1  0
 99100  1  0
 80101  1  0
101102  1  0
102103  2  0
103104  1  0
104105  1  0
105106  1  0
104107  1  0
107108  2  0
108109  1  0
109110  2  0
110111  1  0
109112  1  0
112113  2  3
113114  1  0
114115  1  0
115116  2  0
115117  1  0
117118  1  0
118119  1  0
117120  1  0
120121  2  0
 15  2  1  0
 58 21  1  0
100 59  1  0
111101  2  0
120113  1  0
 14  5  1  0
 30 24  1  0
 37 31  1  0
 57 38  2  0
 69 62  1  0
 77 70  1  0
 99 78  2  0
108102  1  0
 49 43  1  0
 56 50  1  0
 90 83  1  0
 98 91  1  0
  1122  1  0
 25123  1  0
 26124  1  0
 28125  1  0
 28126  1  0
 28127  1  0
 29128  1  0
 30129  1  0
 32130  1  0
 33131  1  0
 35132  1  0
 35133  1  0
 35134  1  0
 36135  1  0
 37136  1  0
 44137  1  0
 45138  1  0
 47139  1  0
 47140  1  0
 47141  1  0
 48142  1  0
 49143  1  0
 51144  1  0
 52145  1  0
 54146  1  0
 54147  1  0
 54148  1  0
 55149  1  0
 56150  1  0
 63151  1  0
 64152  1  0
 67153  1  0
 67154  1  0
 67155  1  0
 68156  1  0
 69157  1  0
 71158  1  0
 72159  1  0
 75160  1  0
 75161  1  0
 75162  1  0
 76163  1  0
 77164  1  0
 84165  1  0
 85166  1  0
 88167  1  0
 88168  1  0
 88169  1  0
 89170  1  0
 90171  1  0
 92172  1  0
 93173  1  0
 96174  1  0
 96175  1  0
 96176  1  0
 97177  1  0
 98178  1  0
105179  1  0
105180  1  0
106181  1  0
106182  1  0
106183  1  0
110184  1  0
111185  1  0
112186  1  0
118187  1  0
118188  1  0
119189  1  0
119190  1  0
119191  1  0
M  END

