
     RDKit          3D

194211  0  0  0  0  0  0  0  0999 V2000
    1.3667   -7.3617    2.9281 C   0  0  0  0  0  0  0  0  0  0  0  0
    2.5893   -7.7626    2.6040 C   0  0  0  0  0  0  0  0  0  0  0  0
    3.4971   -7.1246    1.7027 C   0  0  0  0  0  0  0  0  0  0  0  0
    3.2646   -6.1047    0.9496 O   0  0  0  0  0  0  0  0  0  0  0  0
    4.8115   -7.7514    1.6661 C   0  0  0  0  0  0  0  0  0  0  0  0
    5.9746   -7.4870    0.9838 C   0  0  0  0  0  0  0  0  0  0  0  0
    6.0411   -6.1414   -0.1516 Cl  0  0  0  0  0  0  0  0  0  0  0  0
    7.1286   -8.2401    1.1149 C   0  0  0  0  0  0  0  0  0  0  0  0
    8.5317   -7.8647    0.2047 Cl  0  0  0  0  0  0  0  0  0  0  0  0
    7.0486   -9.2700    1.9799 C   0  0  0  0  0  0  0  0  0  0  0  0
    8.5027  -10.3186    2.2020 Cl  0  0  0  0  0  0  0  0  0  0  0  0
    5.9245   -9.6058    2.7164 C   0  0  0  0  0  0  0  0  0  0  0  0
    6.0637  -10.8638    3.8876 Cl  0  0  0  0  0  0  0  0  0  0  0  0
    4.7701   -8.8385    2.5612 C   0  0  0  0  0  0  0  0  0  0  0  0
    3.4014   -8.9047    3.1652 C   0  0  0  0  0  0  0  0  0  0  0  0
    2.9436   -9.9974    3.6802 C   0  0  0  0  0  0  0  0  0  0  0  0
    1.3446  -10.0389    3.6643 C   0  0  0  0  0  0  0  0  0  0  0  0
    0.2218  -10.0752    3.6561 N   0  0  0  0  0  0  0  0  0  0  0  0
    3.3404  -11.1708    4.0783 C   0  0  0  0  0  0  0  0  0  0  0  0
    3.7277  -12.3860    4.4883 N   0  0  0  0  0  0  0  0  0  0  0  0
    0.9401   -6.1036    2.2436 C   0  0  0  0  0  0  0  0  0  0  0  0
    1.5263   -4.8700    2.3366 C   0  0  0  0  0  0  0  0  0  0  0  0
    2.3421   -4.5809    3.5182 N   0  0  0  0  0  0  0  0  0  0  0  0
    3.7047   -4.4226    3.5509 C   0  0  0  0  0  0  0  0  0  0  0  0
    4.4534   -5.1608    4.5233 C   0  0  0  0  0  0  0  0  0  0  0  0
    5.8113   -4.8805    4.7074 C   0  0  0  0  0  0  0  0  0  0  0  0
    6.4914   -3.9341    4.0044 C   0  0  0  0  0  0  0  0  0  0  0  0
    7.9539   -3.6856    4.2990 C   0  0  0  0  0  0  0  0  0  0  0  0
    5.7679   -3.2076    3.0395 C   0  0  0  0  0  0  0  0  0  0  0  0
    4.3839   -3.5000    2.8690 C   0  0  0  0  0  0  0  0  0  0  0  0
    1.5359   -4.2975    4.6777 C   0  0  0  0  0  0  0  0  0  0  0  0
    0.5014   -3.4235    4.5196 C   0  0  0  0  0  0  0  0  0  0  0  0
   -0.4209   -3.0303    5.4243 C   0  0  0  0  0  0  0  0  0  0  0  0
   -0.2998   -3.6004    6.7089 C   0  0  0  0  0  0  0  0  0  0  0  0
   -1.2738   -3.2246    7.7567 C   0  0  0  0  0  0  0  0  0  0  0  0
    0.7194   -4.5050    6.9367 C   0  0  0  0  0  0  0  0  0  0  0  0
    1.6371   -4.8489    5.9162 C   0  0  0  0  0  0  0  0  0  0  0  0
    1.0489   -3.9033    1.4427 C   0  0  0  0  0  0  0  0  0  0  0  0
    1.3524   -2.2959    0.8663 S   0  0  0  0  0  0  0  0  0  0  0  0
    0.1556   -2.1684   -0.3523 C   0  0  0  0  0  0  0  0  0  0  0  0
   -0.4531   -3.3467   -0.2738 C   0  0  0  0  0  0  0  0  0  0  0  0
   -1.8139   -3.6096   -0.8017 N   0  0  0  0  0  0  0  0  0  0  0  0
   -2.2820   -4.6714   -1.5461 C   0  0  0  0  0  0  0  0  0  0  0  0
   -1.7288   -5.2821   -2.6578 C   0  0  0  0  0  0  0  0  0  0  0  0
   -2.3695   -6.4028   -3.1997 C   0  0  0  0  0  0  0  0  0  0  0  0
   -3.5290   -6.9600   -2.6955 C   0  0  0  0  0  0  0  0  0  0  0  0
   -4.2060   -8.1587   -3.2479 C   0  0  0  0  0  0  0  0  0  0  0  0
   -4.1072   -6.3315   -1.5650 C   0  0  0  0  0  0  0  0  0  0  0  0
   -3.4645   -5.2657   -1.0860 C   0  0  0  0  0  0  0  0  0  0  0  0
   -2.8099   -2.6805   -0.2712 C   0  0  0  0  0  0  0  0  0  0  0  0
   -2.6137   -2.4381    1.1614 C   0  0  0  0  0  0  0  0  0  0  0  0
   -3.5156   -1.6488    1.8171 C   0  0  0  0  0  0  0  0  0  0  0  0
   -4.5838   -1.0917    1.1752 C   0  0  0  0  0  0  0  0  0  0  0  0
   -5.5462   -0.2531    2.0211 C   0  0  0  0  0  0  0  0  0  0  0  0
   -4.7524   -1.3253   -0.1607 C   0  0  0  0  0  0  0  0  0  0  0  0
   -3.8529   -2.1181   -0.8581 C   0  0  0  0  0  0  0  0  0  0  0  0
    0.0261   -4.2645    0.6483 C   0  0  0  0  0  0  0  0  0  0  0  0
   -0.2437   -5.9316    1.0658 S   0  0  0  0  0  0  0  0  0  0  0  0
   -0.0203   -0.9725   -1.1882 C   0  0  0  0  0  0  0  0  0  0  0  0
    0.5049    0.2478   -1.0261 C   0  0  0  0  0  0  0  0  0  0  0  0
    1.5160    0.5426   -0.0178 N   0  0  0  0  0  0  0  0  0  0  0  0
    1.0107    1.1410    1.1972 C   0  0  0  0  0  0  0  0  0  0  0  0
   -0.1475    0.7458    1.7932 C   0  0  0  0  0  0  0  0  0  0  0  0
   -0.6438    1.2681    2.9796 C   0  0  0  0  0  0  0  0  0  0  0  0
    0.1060    2.2724    3.5938 C   0  0  0  0  0  0  0  0  0  0  0  0
   -0.4910    2.9641    5.1384 S   0  0  0  0  0  0  0  0  0  0  0  0
    0.7348    4.1227    5.7722 C   0  0  0  0  0  0  0  0  0  0  0  0
    1.2571    2.6769    3.0044 C   0  0  0  0  0  0  0  0  0  0  0  0
    1.7710    2.1672    1.8272 C   0  0  0  0  0  0  0  0  0  0  0  0
    2.8907    0.4450   -0.2751 C   0  0  0  0  0  0  0  0  0  0  0  0
    3.2709    1.1281   -1.5770 C   0  0  0  0  0  0  0  0  0  0  0  0
    4.6307    1.0303   -1.8140 C   0  0  0  0  0  0  0  0  0  0  0  0
    5.6004    0.4672   -1.1388 C   0  0  0  0  0  0  0  0  0  0  0  0
    7.2992    0.4122   -1.5666 S   0  0  0  0  0  0  0  0  0  0  0  0
    8.2589   -0.5485   -0.3774 C   0  0  0  0  0  0  0  0  0  0  0  0
    5.2090   -0.2083    0.1492 C   0  0  0  0  0  0  0  0  0  0  0  0
    3.8814   -0.0777    0.3285 C   0  0  0  0  0  0  0  0  0  0  0  0
    0.0657    1.2326   -1.8914 C   0  0  0  0  0  0  0  0  0  0  0  0
    0.2409    2.9808   -2.0270 S   0  0  0  0  0  0  0  0  0  0  0  0
   -0.9252    3.2001   -3.3556 C   0  0  0  0  0  0  0  0  0  0  0  0
   -1.3088    1.9843   -3.5793 C   0  0  0  0  0  0  0  0  0  0  0  0
   -2.1524    1.6696   -4.7788 N   0  0  0  0  0  0  0  0  0  0  0  0
   -2.5270    2.6760   -5.6753 C   0  0  0  0  0  0  0  0  0  0  0  0
   -3.8179    2.9000   -6.1089 C   0  0  0  0  0  0  0  0  0  0  0  0
   -4.0052    3.8032   -7.1751 C   0  0  0  0  0  0  0  0  0  0  0  0
   -2.9347    4.4613   -7.7849 C   0  0  0  0  0  0  0  0  0  0  0  0
   -3.1270    5.5939   -9.1229 S   0  0  0  0  0  0  0  0  0  0  0  0
   -1.4576    6.1224   -9.7066 C   0  0  0  0  0  0  0  0  0  0  0  0
   -1.6770    4.1937   -7.3058 C   0  0  0  0  0  0  0  0  0  0  0  0
   -1.5254    3.3334   -6.2985 C   0  0  0  0  0  0  0  0  0  0  0  0
   -2.2113    0.3265   -5.2772 C   0  0  0  0  0  0  0  0  0  0  0  0
   -3.2370   -0.3596   -5.6607 C   0  0  0  0  0  0  0  0  0  0  0  0
   -3.1497   -1.6243   -6.2852 C   0  0  0  0  0  0  0  0  0  0  0  0
   -1.8908   -2.1077   -6.4526 C   0  0  0  0  0  0  0  0  0  0  0  0
   -1.6096   -3.7006   -7.3345 S   0  0  0  0  0  0  0  0  0  0  0  0
    0.1598   -3.7995   -7.7383 C   0  0  0  0  0  0  0  0  0  0  0  0
   -0.8260   -1.4021   -6.0434 C   0  0  0  0  0  0  0  0  0  0  0  0
   -0.8634   -0.1746   -5.4378 C   0  0  0  0  0  0  0  0  0  0  0  0
   -0.8092    0.9630   -2.8203 C   0  0  0  0  0  0  0  0  0  0  0  0
   -1.0591   -0.7450   -2.5328 S   0  0  0  0  0  0  0  0  0  0  0  0
   -1.2872    4.5720   -3.6509 C   0  0  0  0  0  0  0  0  0  0  0  0
   -2.7295    5.2357   -2.5138 Se  0  0  0  0  0  2  0  0  0  0  0  0
   -2.2907    7.0780   -3.0000 C   0  0  0  0  0  0  0  0  0  0  0  0
   -1.2495    6.9127   -3.8610 C   0  0  0  0  0  0  0  0  0  0  0  0
   -0.5777    7.9327   -4.5542 C   0  0  0  0  0  0  0  0  0  0  0  0
    0.4168    7.6424   -5.3918 C   0  0  0  0  0  0  0  0  0  0  0  0
    1.2720    8.5939   -6.2128 C   0  0  0  0  0  0  0  0  0  0  0  0
    2.5880    8.7895   -5.4198 C   0  0  0  0  0  0  0  0  0  0  0  0
    0.5033    5.9447   -5.3042 S   0  0  0  0  0  0  0  0  0  0  0  0
   -0.7988    5.7197   -4.1490 C   0  0  0  0  0  0  0  0  0  0  0  0
   -3.0394    8.0645   -2.1855 C   0  0  0  0  0  0  0  0  0  0  0  0
   -2.3279    8.4932   -1.1587 C   0  0  0  0  0  0  0  0  0  0  0  0
   -0.9069    8.1569   -0.7785 C   0  0  0  0  0  0  0  0  0  0  0  0
   -0.0898    7.5937   -1.5767 O   0  0  0  0  0  0  0  0  0  0  0  0
   -0.6201    8.5482    0.5701 C   0  0  0  0  0  0  0  0  0  0  0  0
   -1.7261    9.0909    1.0933 C   0  0  0  0  0  0  0  0  0  0  0  0
   -1.6485    9.5895    2.4079 C   0  0  0  0  0  0  0  0  0  0  0  0
   -0.4670    9.5092    3.1498 C   0  0  0  0  0  0  0  0  0  0  0  0
   -0.4276    9.9736    4.4009 F   0  0  0  0  0  0  0  0  0  0  0  0
    0.6346    8.9379    2.5702 C   0  0  0  0  0  0  0  0  0  0  0  0
    1.7872    8.8265    3.2974 F   0  0  0  0  0  0  0  0  0  0  0  0
    0.5279    8.4765    1.2949 C   0  0  0  0  0  0  0  0  0  0  0  0
    1.6004    7.8875    0.6744 F   0  0  0  0  0  0  0  0  0  0  0  0
   -2.8385    9.0949    0.1042 C   0  0  0  0  0  0  0  0  0  0  0  0
   -4.0117    9.5145    0.3360 C   0  0  0  0  0  0  0  0  0  0  0  0
   -5.1242    9.7473    0.0551 C   0  0  0  0  0  0  0  0  0  0  0  0
   -6.5555   10.0400   -0.2900 N   0  0  0  0  0  0  0  0  0  0  0  0
   -4.1982    8.9804    1.9845 C   0  0  0  0  0  0  0  0  0  0  0  0
   -4.3351    8.6122    3.0928 N   0  0  0  0  0  0  0  0  0  0  0  0
    0.7545   -7.7795    3.6645 H   0  0  0  0  0  0  0  0  0  0  0  0
    3.9961   -5.9171    5.0628 H   0  0  0  0  0  0  0  0  0  0  0  0
    6.2797   -5.4663    5.4463 H   0  0  0  0  0  0  0  0  0  0  0  0
    8.2564   -2.7842    3.6629 H   0  0  0  0  0  0  0  0  0  0  0  0
    8.5618   -4.5393    4.1407 H   0  0  0  0  0  0  0  0  0  0  0  0
    8.0193   -3.3746    5.3977 H   0  0  0  0  0  0  0  0  0  0  0  0
    6.1600   -2.4701    2.4287 H   0  0  0  0  0  0  0  0  0  0  0  0
    3.8947   -2.8878    2.0911 H   0  0  0  0  0  0  0  0  0  0  0  0
    0.3692   -2.9682    3.5107 H   0  0  0  0  0  0  0  0  0  0  0  0
   -1.2249   -2.2986    5.2953 H   0  0  0  0  0  0  0  0  0  0  0  0
   -1.0132   -3.5801    8.7326 H   0  0  0  0  0  0  0  0  0  0  0  0
   -1.3467   -2.0799    7.7443 H   0  0  0  0  0  0  0  0  0  0  0  0
   -2.3022   -3.5791    7.4617 H   0  0  0  0  0  0  0  0  0  0  0  0
    0.8131   -4.9621    7.9021 H   0  0  0  0  0  0  0  0  0  0  0  0
    2.3565   -5.5702    6.1702 H   0  0  0  0  0  0  0  0  0  0  0  0
   -0.8448   -4.8316   -3.0465 H   0  0  0  0  0  0  0  0  0  0  0  0
   -1.9330   -6.8694   -4.0452 H   0  0  0  0  0  0  0  0  0  0  0  0
   -3.9702   -8.9820   -2.4903 H   0  0  0  0  0  0  0  0  0  0  0  0
   -3.8397   -8.4124   -4.2269 H   0  0  0  0  0  0  0  0  0  0  0  0
   -5.2846   -8.0205   -3.1230 H   0  0  0  0  0  0  0  0  0  0  0  0
   -5.0087   -6.7031   -1.1193 H   0  0  0  0  0  0  0  0  0  0  0  0
   -3.9311   -4.7589   -0.1864 H   0  0  0  0  0  0  0  0  0  0  0  0
   -1.7474   -2.9163    1.6129 H   0  0  0  0  0  0  0  0  0  0  0  0
   -3.3976   -1.4962    2.8655 H   0  0  0  0  0  0  0  0  0  0  0  0
   -6.5481   -0.3285    1.5812 H   0  0  0  0  0  0  0  0  0  0  0  0
   -5.2808    0.8248    2.0306 H   0  0  0  0  0  0  0  0  0  0  0  0
   -5.5191   -0.6622    3.0748 H   0  0  0  0  0  0  0  0  0  0  0  0
   -5.5883   -0.8682   -0.6721 H   0  0  0  0  0  0  0  0  0  0  0  0
   -3.9962   -2.2896   -1.9391 H   0  0  0  0  0  0  0  0  0  0  0  0
   -0.7631   -0.0562    1.3259 H   0  0  0  0  0  0  0  0  0  0  0  0
   -1.5408    0.9159    3.3761 H   0  0  0  0  0  0  0  0  0  0  0  0
    0.3094    4.7038    6.6181 H   0  0  0  0  0  0  0  0  0  0  0  0
    1.6389    3.5501    6.1289 H   0  0  0  0  0  0  0  0  0  0  0  0
    1.0854    4.8241    4.9846 H   0  0  0  0  0  0  0  0  0  0  0  0
    1.8078    3.5082    3.5216 H   0  0  0  0  0  0  0  0  0  0  0  0
    2.6734    2.5028    1.4077 H   0  0  0  0  0  0  0  0  0  0  0  0
    2.5581    1.5894   -2.0799 H   0  0  0  0  0  0  0  0  0  0  0  0
    4.9809    1.5568   -2.8141 H   0  0  0  0  0  0  0  0  0  0  0  0
    8.1067   -1.6655   -0.5133 H   0  0  0  0  0  0  0  0  0  0  0  0
    9.3585   -0.4349   -0.6463 H   0  0  0  0  0  0  0  0  0  0  0  0
    8.1399   -0.2008    0.6379 H   0  0  0  0  0  0  0  0  0  0  0  0
    5.9583   -0.6684    0.6577 H   0  0  0  0  0  0  0  0  0  0  0  0
    3.5996   -0.6252    1.3709 H   0  0  0  0  0  0  0  0  0  0  0  0
   -4.6712    2.4493   -5.7156 H   0  0  0  0  0  0  0  0  0  0  0  0
   -5.0188    4.0319   -7.5593 H   0  0  0  0  0  0  0  0  0  0  0  0
   -0.8461    6.3834   -8.8545 H   0  0  0  0  0  0  0  0  0  0  0  0
   -0.9774    5.2292  -10.2052 H   0  0  0  0  0  0  0  0  0  0  0  0
   -1.5879    6.9494  -10.4649 H   0  0  0  0  0  0  0  0  0  0  0  0
   -0.8156    4.7083   -7.7890 H   0  0  0  0  0  0  0  0  0  0  0  0
   -0.4810    3.1268   -5.9446 H   0  0  0  0  0  0  0  0  0  0  0  0
   -4.2766   -0.0010   -5.5443 H   0  0  0  0  0  0  0  0  0  0  0  0
   -3.9999   -2.1958   -6.6264 H   0  0  0  0  0  0  0  0  0  0  0  0
    0.5896   -2.8039   -7.9762 H   0  0  0  0  0  0  0  0  0  0  0  0
    0.8091   -4.3269   -7.0055 H   0  0  0  0  0  0  0  0  0  0  0  0
    0.2630   -4.3823   -8.7004 H   0  0  0  0  0  0  0  0  0  0  0  0
    0.1768   -1.8756   -6.1953 H   0  0  0  0  0  0  0  0  0  0  0  0
   -0.0417    0.4111   -5.1287 H   0  0  0  0  0  0  0  0  0  0  0  0
   -0.8619    9.0196   -4.4560 H   0  0  0  0  0  0  0  0  0  0  0  0
    0.7193    9.5419   -6.3216 H   0  0  0  0  0  0  0  0  0  0  0  0
    1.4714    8.0770   -7.1382 H   0  0  0  0  0  0  0  0  0  0  0  0
    3.3229    7.9254   -5.6344 H   0  0  0  0  0  0  0  0  0  0  0  0
    2.4023    8.6976   -4.3003 H   0  0  0  0  0  0  0  0  0  0  0  0
    3.1225    9.7128   -5.7262 H   0  0  0  0  0  0  0  0  0  0  0  0
   -4.0194    8.3786   -2.4180 H   0  0  0  0  0  0  0  0  0  0  0  0
   -2.4170   10.1225    2.8775 H   0  0  0  0  0  0  0  0  0  0  0  0
  1  2  2  3
  2  3  1  0
  3  4  2  0
  3  5  1  0
  5  6  2  0
  6  7  1  0
  6  8  1  0
  8  9  1  0
  8 10  2  0
 10 11  1  0
 10 12  1  0
 12 13  1  0
 12 14  2  0
 14 15  1  0
 15 16  2  3
 16 17  1  0
 17 18  3  0
 16 19  1  0
 19 20  3  0
  1 21  1  0
 21 22  2  0
 22 23  1  0
 23 24  1  0
 24 25  2  0
 25 26  1  0
 26 27  2  0
 27 28  1  0
 27 29  1  0
 29 30  2  0
 23 31  1  0
 31 32  2  0
 32 33  1  0
 33 34  2  0
 34 35  1  0
 34 36  1  0
 36 37  2  0
 22 38  1  0
 38 39  1  0
 39 40  1  0
 40 41  2  0
 41 42  1  0
 42 43  1  0
 43 44  2  0
 44 45  1  0
 45 46  2  0
 46 47  1  0
 46 48  1  0
 48 49  2  0
 42 50  1  0
 50 51  2  0
 51 52  1  0
 52 53  2  0
 53 54  1  0
 53 55  1  0
 55 56  2  0
 41 57  1  0
 57 58  1  0
 40 59  1  0
 59 60  2  0
 60 61  1  0
 61 62  1  0
 62 63  2  0
 63 64  1  0
 64 65  2  0
 65 66  1  0
 66 67  1  0
 65 68  1  0
 68 69  2  0
 61 70  1  0
 70 71  2  0
 71 72  1  0
 72 73  2  0
 73 74  1  0
 74 75  1  0
 73 76  1  0
 76 77  2  0
 60 78  1  0
 78 79  1  0
 79 80  1  0
 80 81  2  0
 81 82  1  0
 82 83  1  0
 83 84  2  0
 84 85  1  0
 85 86  2  0
 86 87  1  0
 87 88  1  0
 86 89  1  0
 89 90  2  0
 82 91  1  0
 91 92  2  0
 92 93  1  0
 93 94  2  0
 94 95  1  0
 95 96  1  0
 94 97  1  0
 97 98  2  0
 81 99  1  0
 99100  1  0
 80101  1  0
101102  1  0
102103  1  0
103104  2  0
104105  1  0
105106  2  0
106107  1  0
107108  1  0
106109  1  0
109110  1  0
103111  1  0
111112  2  3
112113  1  0
113114  2  0
113115  1  0
115116  2  0
116117  1  0
117118  2  0
118119  1  0
118120  1  0
120121  1  0
120122  2  0
122123  1  0
116124  1  0
124125  2  3
125126  1  0
126127  3  0
125128  1  0
128129  3  0
 15  2  1  0
 58 21  1  0
100 59  1  0
110101  2  0
124112  1  0
 14  5  1  0
 30 24  1  0
 37 31  1  0
 57 38  2  0
 69 62  1  0
 77 70  1  0
 99 78  2  0
110104  1  0
122115  1  0
 49 43  1  0
 56 50  1  0
 90 83  1  0
 98 91  1  0
  1130  1  0
 25131  1  0
 26132  1  0
 28133  1  0
 28134  1  0
 28135  1  0
 29136  1  0
 30137  1  0
 32138  1  0
 33139  1  0
 35140  1  0
 35141  1  0
 35142  1  0
 36143  1  0
 37144  1  0
 44145  1  0
 45146  1  0
 47147  1  0
 47148  1  0
 47149  1  0
 48150  1  0
 49151  1  0
 51152  1  0
 52153  1  0
 54154  1  0
 54155  1  0
 54156  1  0
 55157  1  0
 56158  1  0
 63159  1  0
 64160  1  0
 67161  1  0
 67162  1  0
 67163  1  0
 68164  1  0
 69165  1  0
 71166  1  0
 72167  1  0
 75168  1  0
 75169  1  0
 75170  1  0
 76171  1  0
 77172  1  0
 84173  1  0
 85174  1  0
 88175  1  0
 88176  1  0
 88177  1  0
 89178  1  0
 90179  1  0
 92180  1  0
 93181  1  0
 96182  1  0
 96183  1  0
 96184  1  0
 97185  1  0
 98186  1  0
105187  1  0
107188  1  0
107189  1  0
108190  1  0
108191  1  0
108192  1  0
111193  1  0
117194  1  0
M  END

