
     RDKit          3D

244265  0  0  0  0  0  0  0  0999 V2000
   -3.8825   -4.3285   -5.5742 C   0  0  0  0  0  0  0  0  0  0  0  0
   -3.7239   -5.6457   -5.8212 C   0  0  0  0  0  0  0  0  0  0  0  0
   -3.7118   -6.1374   -7.2004 C   0  0  0  0  0  0  0  0  0  0  0  0
   -3.8750   -5.4223   -8.2236 O   0  0  0  0  0  0  0  0  0  0  0  0
   -3.4413   -7.5627   -7.2063 C   0  0  0  0  0  0  0  0  0  0  0  0
   -3.4188   -8.4384   -8.2977 C   0  0  0  0  0  0  0  0  0  0  0  0
   -3.5236   -7.8254   -9.9493 Cl  0  0  0  0  0  0  0  0  0  0  0  0
   -3.3275   -9.8177   -8.0469 C   0  0  0  0  0  0  0  0  0  0  0  0
   -3.2327  -10.9557   -9.3946 Cl  0  0  0  0  0  0  0  0  0  0  0  0
   -3.3534  -10.2948   -6.7133 C   0  0  0  0  0  0  0  0  0  0  0  0
   -3.3845  -12.0380   -6.4129 Cl  0  0  0  0  0  0  0  0  0  0  0  0
   -3.4095   -9.3870   -5.6287 C   0  0  0  0  0  0  0  0  0  0  0  0
   -3.8604   -9.9944   -4.0350 Cl  0  0  0  0  0  0  0  0  0  0  0  0
   -3.3320   -8.0034   -5.8990 C   0  0  0  0  0  0  0  0  0  0  0  0
   -3.4044   -6.8367   -4.9616 C   0  0  0  0  0  0  0  0  0  0  0  0
   -2.9582   -6.8455   -3.6847 C   0  0  0  0  0  0  0  0  0  0  0  0
   -3.5210   -6.0233   -2.6538 C   0  0  0  0  0  0  0  0  0  0  0  0
   -3.9642   -5.3926   -1.7902 N   0  0  0  0  0  0  0  0  0  0  0  0
   -1.9521   -7.7876   -3.2573 C   0  0  0  0  0  0  0  0  0  0  0  0
   -1.1388   -8.5395   -2.9173 N   0  0  0  0  0  0  0  0  0  0  0  0
   -3.6832   -3.6206   -4.3127 C   0  0  0  0  0  0  0  0  0  0  0  0
   -2.4542   -3.1108   -3.8542 C   0  0  0  0  0  0  0  0  0  0  0  0
   -1.1775   -3.3590   -4.4724 N   0  0  0  0  0  0  0  0  0  0  0  0
   -0.3766   -4.4750   -4.0369 C   0  0  0  0  0  0  0  0  0  0  0  0
   -0.1878   -4.7381   -2.6697 C   0  0  0  0  0  0  0  0  0  0  0  0
    0.7087   -5.7264   -2.2524 C   0  0  0  0  0  0  0  0  0  0  0  0
    1.4319   -6.4705   -3.1951 C   0  0  0  0  0  0  0  0  0  0  0  0
    2.4095   -7.5208   -2.7443 C   0  0  0  0  0  0  0  0  0  0  0  0
    1.1992   -6.2597   -4.5611 C   0  0  0  0  0  0  0  0  0  0  0  0
    0.3069   -5.2683   -4.9772 C   0  0  0  0  0  0  0  0  0  0  0  0
   -0.6544   -2.4262   -5.4475 C   0  0  0  0  0  0  0  0  0  0  0  0
   -1.5101   -1.7683   -6.3546 C   0  0  0  0  0  0  0  0  0  0  0  0
   -0.9890   -0.9349   -7.3462 C   0  0  0  0  0  0  0  0  0  0  0  0
    0.3943   -0.7262   -7.4496 C   0  0  0  0  0  0  0  0  0  0  0  0
    0.9430    0.1714   -8.5211 C   0  0  0  0  0  0  0  0  0  0  0  0
    1.2496   -1.3252   -6.5102 C   0  0  0  0  0  0  0  0  0  0  0  0
    0.7284   -2.1595   -5.5179 C   0  0  0  0  0  0  0  0  0  0  0  0
   -2.6449   -2.2606   -2.7685 C   0  0  0  0  0  0  0  0  0  0  0  0
   -1.6249   -1.4456   -1.7248 S   0  0  0  0  0  0  0  0  0  0  0  0
   -2.8841   -0.8625   -0.7336 C   0  0  0  0  0  0  0  0  0  0  0  0
   -4.1106   -1.3201   -1.2337 C   0  0  0  0  0  0  0  0  0  0  0  0
   -5.3868   -1.0397   -0.6514 N   0  0  0  0  0  0  0  0  0  0  0  0
   -5.8461   -1.9260    0.3792 C   0  0  0  0  0  0  0  0  0  0  0  0
   -5.5209   -1.6847    1.7183 C   0  0  0  0  0  0  0  0  0  0  0  0
   -5.9783   -2.5346    2.7254 C   0  0  0  0  0  0  0  0  0  0  0  0
   -6.7562   -3.6557    2.4004 C   0  0  0  0  0  0  0  0  0  0  0  0
   -7.2988   -4.5362    3.4886 C   0  0  0  0  0  0  0  0  0  0  0  0
   -7.0903   -3.8970    1.0604 C   0  0  0  0  0  0  0  0  0  0  0  0
   -6.6346   -3.0404    0.0526 C   0  0  0  0  0  0  0  0  0  0  0  0
   -6.2618   -0.0471   -1.2476 C   0  0  0  0  0  0  0  0  0  0  0  0
   -7.5808    0.1354   -0.7831 C   0  0  0  0  0  0  0  0  0  0  0  0
   -8.4137    1.1027   -1.3503 C   0  0  0  0  0  0  0  0  0  0  0  0
   -7.9438    1.9243   -2.3806 C   0  0  0  0  0  0  0  0  0  0  0  0
   -8.8216    2.9817   -2.9835 C   0  0  0  0  0  0  0  0  0  0  0  0
   -6.6365    1.7511   -2.8563 C   0  0  0  0  0  0  0  0  0  0  0  0
   -5.8042    0.7823   -2.2960 C   0  0  0  0  0  0  0  0  0  0  0  0
   -3.9352   -2.0810   -2.3860 C   0  0  0  0  0  0  0  0  0  0  0  0
   -4.9564   -2.9254   -3.4147 S   0  0  0  0  0  0  0  0  0  0  0  0
   -2.6260   -0.3501    0.6121 C   0  0  0  0  0  0  0  0  0  0  0  0
   -2.3016    0.9877    0.8969 C   0  0  0  0  0  0  0  0  0  0  0  0
   -2.9479    2.1287    0.3116 N   0  0  0  0  0  0  0  0  0  0  0  0
   -2.1386    3.1207   -0.3397 C   0  0  0  0  0  0  0  0  0  0  0  0
   -2.0178    4.4075    0.2117 C   0  0  0  0  0  0  0  0  0  0  0  0
   -1.2720    5.3879   -0.4475 C   0  0  0  0  0  0  0  0  0  0  0  0
   -0.6545    5.0925   -1.6664 C   0  0  0  0  0  0  0  0  0  0  0  0
    0.2481    6.3691   -2.5489 S   0  0  0  0  0  0  0  0  0  0  0  0
    1.8246    6.0135   -1.7176 C   0  0  0  0  0  0  0  0  0  0  0  0
   -0.7655    3.8073   -2.2139 C   0  0  0  0  0  0  0  0  0  0  0  0
   -1.4909    2.8176   -1.5427 C   0  0  0  0  0  0  0  0  0  0  0  0
   -4.3234    2.4276    0.6577 C   0  0  0  0  0  0  0  0  0  0  0  0
   -4.9021    1.9178    1.8354 C   0  0  0  0  0  0  0  0  0  0  0  0
   -6.2468    2.1590    2.1304 C   0  0  0  0  0  0  0  0  0  0  0  0
   -7.0212    2.9498    1.2770 C   0  0  0  0  0  0  0  0  0  0  0  0
   -8.7641    3.1946    1.6209 S   0  0  0  0  0  0  0  0  0  0  0  0
   -8.4931    4.6825    2.6283 C   0  0  0  0  0  0  0  0  0  0  0  0
   -6.4405    3.5163    0.1394 C   0  0  0  0  0  0  0  0  0  0  0  0
   -5.1060    3.2468   -0.1790 C   0  0  0  0  0  0  0  0  0  0  0  0
   -1.4252    1.0788    1.9745 C   0  0  0  0  0  0  0  0  0  0  0  0
   -0.4390    2.3034    2.5336 S   0  0  0  0  0  0  0  0  0  0  0  0
    0.5050    1.2939    3.5354 C   0  0  0  0  0  0  0  0  0  0  0  0
    0.0121   -0.0237    3.4369 C   0  0  0  0  0  0  0  0  0  0  0  0
    0.5707   -1.1417    4.1586 N   0  0  0  0  0  0  0  0  0  0  0  0
    0.8554   -0.9790    5.5592 C   0  0  0  0  0  0  0  0  0  0  0  0
    2.0655   -1.4477    6.0939 C   0  0  0  0  0  0  0  0  0  0  0  0
    2.3287   -1.3075    7.4631 C   0  0  0  0  0  0  0  0  0  0  0  0
    1.3815   -0.7057    8.3005 C   0  0  0  0  0  0  0  0  0  0  0  0
    1.7029   -0.5387   10.0565 S   0  0  0  0  0  0  0  0  0  0  0  0
    0.7820   -2.0482   10.4822 C   0  0  0  0  0  0  0  0  0  0  0  0
    0.1754   -0.2429    7.7706 C   0  0  0  0  0  0  0  0  0  0  0  0
   -0.0836   -0.3676    6.4028 C   0  0  0  0  0  0  0  0  0  0  0  0
    0.5851   -2.4630    3.5777 C   0  0  0  0  0  0  0  0  0  0  0  0
    0.0380   -3.5545    4.2780 C   0  0  0  0  0  0  0  0  0  0  0  0
   -0.1321   -4.7873    3.6406 C   0  0  0  0  0  0  0  0  0  0  0  0
    0.2413   -4.9400    2.3025 C   0  0  0  0  0  0  0  0  0  0  0  0
   -0.1163   -6.4729    1.4453 S   0  0  0  0  0  0  0  0  0  0  0  0
   -1.7270   -5.8832    0.8246 C   0  0  0  0  0  0  0  0  0  0  0  0
    0.8608   -3.8847    1.6267 C   0  0  0  0  0  0  0  0  0  0  0  0
    1.0453   -2.6511    2.2628 C   0  0  0  0  0  0  0  0  0  0  0  0
   -1.0552   -0.0973    2.5402 C   0  0  0  0  0  0  0  0  0  0  0  0
   -1.8180   -1.3427    1.7276 S   0  0  0  0  0  0  0  0  0  0  0  0
    1.9166    1.6234    3.8029 C   0  0  0  0  0  0  0  0  0  0  0  0
    2.3745    2.9552    3.8506 C   0  0  0  0  0  0  0  0  0  0  0  0
    1.5851    4.0419    4.3936 N   0  0  0  0  0  0  0  0  0  0  0  0
    1.8914    5.4091    4.1029 C   0  0  0  0  0  0  0  0  0  0  0  0
    2.7844    6.1084    4.9264 C   0  0  0  0  0  0  0  0  0  0  0  0
    3.0721    7.4503    4.6673 C   0  0  0  0  0  0  0  0  0  0  0  0
    2.4535    8.1096    3.5955 C   0  0  0  0  0  0  0  0  0  0  0  0
    2.7832    9.5409    3.2969 C   0  0  0  0  0  0  0  0  0  0  0  0
    1.5633    7.4040    2.7669 C   0  0  0  0  0  0  0  0  0  0  0  0
    1.2827    6.0567    3.0233 C   0  0  0  0  0  0  0  0  0  0  0  0
    0.7031    3.7983    5.5036 C   0  0  0  0  0  0  0  0  0  0  0  0
   -0.6231    4.2560    5.4637 C   0  0  0  0  0  0  0  0  0  0  0  0
   -1.4721    4.0528    6.5561 C   0  0  0  0  0  0  0  0  0  0  0  0
   -1.0007    3.4016    7.7062 C   0  0  0  0  0  0  0  0  0  0  0  0
   -1.9090    3.2127    8.8859 C   0  0  0  0  0  0  0  0  0  0  0  0
    0.3367    2.9831    7.7614 C   0  0  0  0  0  0  0  0  0  0  0  0
    1.1767    3.1586    6.6578 C   0  0  0  0  0  0  0  0  0  0  0  0
    3.6151    3.0907    3.2083 C   0  0  0  0  0  0  0  0  0  0  0  0
    4.3297    4.3850    2.4062 S   0  0  0  0  0  0  0  0  0  0  0  0
    5.3615    3.4363    1.4584 C   0  0  0  0  0  0  0  0  0  0  0  0
    5.1717    2.0733    1.7757 C   0  0  0  0  0  0  0  0  0  0  0  0
    5.8588    0.9877    1.0995 N   0  0  0  0  0  0  0  0  0  0  0  0
    5.2961   -0.3321    0.9640 C   0  0  0  0  0  0  0  0  0  0  0  0
    5.9774   -1.4350    1.4999 C   0  0  0  0  0  0  0  0  0  0  0  0
    5.5396   -2.7356    1.2347 C   0  0  0  0  0  0  0  0  0  0  0  0
    4.4261   -2.9531    0.4103 C   0  0  0  0  0  0  0  0  0  0  0  0
    4.0104   -4.3558    0.0784 C   0  0  0  0  0  0  0  0  0  0  0  0
    3.7298   -1.8494   -0.1105 C   0  0  0  0  0  0  0  0  0  0  0  0
    4.1647   -0.5481    0.1637 C   0  0  0  0  0  0  0  0  0  0  0  0
    7.1845    1.2000    0.5764 C   0  0  0  0  0  0  0  0  0  0  0  0
    7.4932    0.8083   -0.7384 C   0  0  0  0  0  0  0  0  0  0  0  0
    8.7582    1.0623   -1.2687 C   0  0  0  0  0  0  0  0  0  0  0  0
    9.7386    1.6949   -0.4918 C   0  0  0  0  0  0  0  0  0  0  0  0
   11.0775    2.0177   -1.0821 C   0  0  0  0  0  0  0  0  0  0  0  0
    9.4317    2.0859    0.8227 C   0  0  0  0  0  0  0  0  0  0  0  0
    8.1664    1.8329    1.3543 C   0  0  0  0  0  0  0  0  0  0  0  0
    4.1694    1.9264    2.7505 C   0  0  0  0  0  0  0  0  0  0  0  0
    3.1286    0.6637    3.0943 S   0  0  0  0  0  0  0  0  0  0  0  0
    5.9065    3.9167    0.1768 C   0  0  0  0  0  0  0  0  0  0  0  0
    5.3227    3.6152   -1.0029 C   0  0  0  0  0  0  0  0  0  0  0  0
    3.9994    2.9886   -1.1431 C   0  0  0  0  0  0  0  0  0  0  0  0
    3.1657    2.7731   -0.2218 O   0  0  0  0  0  0  0  0  0  0  0  0
    3.7145    2.8104   -2.5426 C   0  0  0  0  0  0  0  0  0  0  0  0
    2.5254    2.3408   -3.1060 C   0  0  0  0  0  0  0  0  0  0  0  0
    2.3753    2.4113   -4.4936 C   0  0  0  0  0  0  0  0  0  0  0  0
    0.8676    1.8831   -5.2213 Cl  0  0  0  0  0  0  0  0  0  0  0  0
    3.3998    2.9615   -5.2871 C   0  0  0  0  0  0  0  0  0  0  0  0
    3.2346    3.0698   -6.6326 F   0  0  0  0  0  0  0  0  0  0  0  0
    4.5817    3.4416   -4.6920 C   0  0  0  0  0  0  0  0  0  0  0  0
    4.7430    3.3381   -3.2995 C   0  0  0  0  0  0  0  0  0  0  0  0
    5.8365    3.8290   -2.4001 C   0  0  0  0  0  0  0  0  0  0  0  0
    7.0814    4.2245   -2.7843 C   0  0  0  0  0  0  0  0  0  0  0  0
    7.5138    4.1885   -4.1548 C   0  0  0  0  0  0  0  0  0  0  0  0
    7.8762    4.1639   -5.2529 N   0  0  0  0  0  0  0  0  0  0  0  0
    8.0810    4.7036   -1.8646 C   0  0  0  0  0  0  0  0  0  0  0  0
    8.8941    5.1070   -1.1446 N   0  0  0  0  0  0  0  0  0  0  0  0
   -4.1343   -3.6852   -6.4058 H   0  0  0  0  0  0  0  0  0  0  0  0
   -0.7045   -4.1575   -1.9181 H   0  0  0  0  0  0  0  0  0  0  0  0
    0.8562   -5.8930   -1.1963 H   0  0  0  0  0  0  0  0  0  0  0  0
    2.7677   -7.3096   -1.7141 H   0  0  0  0  0  0  0  0  0  0  0  0
    3.2927   -7.5308   -3.4185 H   0  0  0  0  0  0  0  0  0  0  0  0
    1.9228   -8.5189   -2.7632 H   0  0  0  0  0  0  0  0  0  0  0  0
    1.7308   -6.8430   -5.3015 H   0  0  0  0  0  0  0  0  0  0  0  0
    0.1651   -5.0964   -6.0362 H   0  0  0  0  0  0  0  0  0  0  0  0
   -2.5798   -1.9159   -6.3122 H   0  0  0  0  0  0  0  0  0  0  0  0
   -1.6690   -0.4575   -8.0415 H   0  0  0  0  0  0  0  0  0  0  0  0
    2.0424    0.0444   -8.6309 H   0  0  0  0  0  0  0  0  0  0  0  0
    0.7291    1.2293   -8.2621 H   0  0  0  0  0  0  0  0  0  0  0  0
    0.4686   -0.0634   -9.5014 H   0  0  0  0  0  0  0  0  0  0  0  0
    2.3145   -1.1413   -6.5412 H   0  0  0  0  0  0  0  0  0  0  0  0
    1.4119   -2.6097   -4.8039 H   0  0  0  0  0  0  0  0  0  0  0  0
   -4.9197   -0.8334    1.9849 H   0  0  0  0  0  0  0  0  0  0  0  0
   -5.7310   -2.3156    3.7563 H   0  0  0  0  0  0  0  0  0  0  0  0
   -7.3169   -5.5970    3.1582 H   0  0  0  0  0  0  0  0  0  0  0  0
   -6.6707   -4.4725    4.4039 H   0  0  0  0  0  0  0  0  0  0  0  0
   -8.3328   -4.2169    3.7384 H   0  0  0  0  0  0  0  0  0  0  0  0
   -7.7091   -4.7450    0.7954 H   0  0  0  0  0  0  0  0  0  0  0  0
   -6.8994   -3.2347   -0.9770 H   0  0  0  0  0  0  0  0  0  0  0  0
   -7.9721   -0.4613    0.0289 H   0  0  0  0  0  0  0  0  0  0  0  0
   -9.4156    1.2316   -0.9594 H   0  0  0  0  0  0  0  0  0  0  0  0
   -9.1008    2.6889   -4.0182 H   0  0  0  0  0  0  0  0  0  0  0  0
   -8.2787    3.9506   -3.0112 H   0  0  0  0  0  0  0  0  0  0  0  0
   -9.7510    3.1223   -2.3904 H   0  0  0  0  0  0  0  0  0  0  0  0
   -6.2555    2.3847   -3.6456 H   0  0  0  0  0  0  0  0  0  0  0  0
   -4.7906    0.6998   -2.6736 H   0  0  0  0  0  0  0  0  0  0  0  0
   -2.4959    4.6425    1.1528 H   0  0  0  0  0  0  0  0  0  0  0  0
   -1.1889    6.3763   -0.0164 H   0  0  0  0  0  0  0  0  0  0  0  0
    2.0526    4.9354   -1.7973 H   0  0  0  0  0  0  0  0  0  0  0  0
    2.6326    6.5895   -2.2115 H   0  0  0  0  0  0  0  0  0  0  0  0
    1.7636    6.3041   -0.6491 H   0  0  0  0  0  0  0  0  0  0  0  0
   -0.3032    3.5814   -3.1625 H   0  0  0  0  0  0  0  0  0  0  0  0
   -1.5781    1.8267   -1.9774 H   0  0  0  0  0  0  0  0  0  0  0  0
   -4.3179    1.3332    2.5358 H   0  0  0  0  0  0  0  0  0  0  0  0
   -6.6852    1.7276    3.0205 H   0  0  0  0  0  0  0  0  0  0  0  0
   -8.0235    5.4768    2.0101 H   0  0  0  0  0  0  0  0  0  0  0  0
   -7.8406    4.4460    3.4939 H   0  0  0  0  0  0  0  0  0  0  0  0
   -9.4716    5.0444    3.0028 H   0  0  0  0  0  0  0  0  0  0  0  0
   -7.0330    4.1307   -0.5251 H   0  0  0  0  0  0  0  0  0  0  0  0
   -4.6889    3.6598   -1.0865 H   0  0  0  0  0  0  0  0  0  0  0  0
    2.8018   -1.9161    5.4527 H   0  0  0  0  0  0  0  0  0  0  0  0
    3.2649   -1.6687    7.8697 H   0  0  0  0  0  0  0  0  0  0  0  0
    0.8205   -2.1992   11.5771 H   0  0  0  0  0  0  0  0  0  0  0  0
    1.2356   -2.9278    9.9783 H   0  0  0  0  0  0  0  0  0  0  0  0
   -0.2779   -1.9483   10.1703 H   0  0  0  0  0  0  0  0  0  0  0  0
   -0.5660    0.2085    8.4141 H   0  0  0  0  0  0  0  0  0  0  0  0
   -1.0291   -0.0116    6.0134 H   0  0  0  0  0  0  0  0  0  0  0  0
   -0.3113   -3.4402    5.2955 H   0  0  0  0  0  0  0  0  0  0  0  0
   -0.6007   -5.6049    4.1760 H   0  0  0  0  0  0  0  0  0  0  0  0
   -1.6155   -4.9062    0.3123 H   0  0  0  0  0  0  0  0  0  0  0  0
   -2.1300   -6.6245    0.1020 H   0  0  0  0  0  0  0  0  0  0  0  0
   -2.4433   -5.7770    1.6679 H   0  0  0  0  0  0  0  0  0  0  0  0
    1.1434   -3.9917    0.5912 H   0  0  0  0  0  0  0  0  0  0  0  0
    1.4760   -1.8256    1.7152 H   0  0  0  0  0  0  0  0  0  0  0  0
    3.2579    5.6087    5.7611 H   0  0  0  0  0  0  0  0  0  0  0  0
    3.7817    7.9685    5.3023 H   0  0  0  0  0  0  0  0  0  0  0  0
    1.8759   10.0849    2.9572 H   0  0  0  0  0  0  0  0  0  0  0  0
    3.1705   10.0538    4.2045 H   0  0  0  0  0  0  0  0  0  0  0  0
    3.5564    9.5844    2.5038 H   0  0  0  0  0  0  0  0  0  0  0  0
    1.0874    7.8941    1.9266 H   0  0  0  0  0  0  0  0  0  0  0  0
    0.5870    5.5194    2.3882 H   0  0  0  0  0  0  0  0  0  0  0  0
   -0.9984    4.7625    4.5846 H   0  0  0  0  0  0  0  0  0  0  0  0
   -2.4957    4.4085    6.5068 H   0  0  0  0  0  0  0  0  0  0  0  0
   -1.9856    4.1674    9.4455 H   0  0  0  0  0  0  0  0  0  0  0  0
   -1.5221    2.4239    9.5660 H   0  0  0  0  0  0  0  0  0  0  0  0
   -2.9208    2.9066    8.5436 H   0  0  0  0  0  0  0  0  0  0  0  0
    0.7289    2.5133    8.6537 H   0  0  0  0  0  0  0  0  0  0  0  0
    2.2041    2.8226    6.7157 H   0  0  0  0  0  0  0  0  0  0  0  0
    6.8663   -1.2868    2.1005 H   0  0  0  0  0  0  0  0  0  0  0  0
    6.0909   -3.5739    1.6432 H   0  0  0  0  0  0  0  0  0  0  0  0
    4.8793   -4.9170   -0.3246 H   0  0  0  0  0  0  0  0  0  0  0  0
    3.2053   -4.3750   -0.6870 H   0  0  0  0  0  0  0  0  0  0  0  0
    3.6475   -4.8698    0.9935 H   0  0  0  0  0  0  0  0  0  0  0  0
    2.8655   -1.9924   -0.7501 H   0  0  0  0  0  0  0  0  0  0  0  0
    3.6459    0.2862   -0.2826 H   0  0  0  0  0  0  0  0  0  0  0  0
    6.7408    0.3443   -1.3602 H   0  0  0  0  0  0  0  0  0  0  0  0
    8.9700    0.7722   -2.2913 H   0  0  0  0  0  0  0  0  0  0  0  0
   11.8592    2.0478   -0.2914 H   0  0  0  0  0  0  0  0  0  0  0  0
   11.3693    1.2442   -1.8270 H   0  0  0  0  0  0  0  0  0  0  0  0
   11.0351    3.0078   -1.5870 H   0  0  0  0  0  0  0  0  0  0  0  0
   10.1693    2.5961    1.4304 H   0  0  0  0  0  0  0  0  0  0  0  0
    7.9439    2.1426    2.3663 H   0  0  0  0  0  0  0  0  0  0  0  0
    6.7991    4.5100    0.2410 H   0  0  0  0  0  0  0  0  0  0  0  0
    1.7200    1.9756   -2.4773 H   0  0  0  0  0  0  0  0  0  0  0  0
    5.3026    3.9237   -5.3221 H   0  0  0  0  0  0  0  0  0  0  0  0
  1  2  2  3
  2  3  1  0
  3  4  2  0
  3  5  1  0
  5  6  2  0
  6  7  1  0
  6  8  1  0
  8  9  1  0
  8 10  2  0
 10 11  1  0
 10 12  1  0
 12 13  1  0
 12 14  2  0
 14 15  1  0
 15 16  2  3
 16 17  1  0
 17 18  3  0
 16 19  1  0
 19 20  3  0
  1 21  1  0
 21 22  2  0
 22 23  1  0
 23 24  1  0
 24 25  2  0
 25 26  1  0
 26 27  2  0
 27 28  1  0
 27 29  1  0
 29 30  2  0
 23 31  1  0
 31 32  2  0
 32 33  1  0
 33 34  2  0
 34 35  1  0
 34 36  1  0
 36 37  2  0
 22 38  1  0
 38 39  1  0
 39 40  1  0
 40 41  2  0
 41 42  1  0
 42 43  1  0
 43 44  2  0
 44 45  1  0
 45 46  2  0
 46 47  1  0
 46 48  1  0
 48 49  2  0
 42 50  1  0
 50 51  2  0
 51 52  1  0
 52 53  2  0
 53 54  1  0
 53 55  1  0
 55 56  2  0
 41 57  1  0
 57 58  1  0
 40 59  1  0
 59 60  2  0
 60 61  1  0
 61 62  1  0
 62 63  2  0
 63 64  1  0
 64 65  2  0
 65 66  1  0
 66 67  1  0
 65 68  1  0
 68 69  2  0
 61 70  1  0
 70 71  2  0
 71 72  1  0
 72 73  2  0
 73 74  1  0
 74 75  1  0
 73 76  1  0
 76 77  2  0
 60 78  1  0
 78 79  1  0
 79 80  1  0
 80 81  2  0
 81 82  1  0
 82 83  1  0
 83 84  2  0
 84 85  1  0
 85 86  2  0
 86 87  1  0
 87 88  1  0
 86 89  1  0
 89 90  2  0
 82 91  1  0
 91 92  2  0
 92 93  1  0
 93 94  2  0
 94 95  1  0
 95 96  1  0
 94 97  1  0
 97 98  2  0
 81 99  1  0
 99100  1  0
 80101  1  0
101102  2  0
102103  1  0
103104  1  0
104105  2  0
105106  1  0
106107  2  0
107108  1  0
107109  1  0
109110  2  0
103111  1  0
111112  2  0
112113  1  0
113114  2  0
114115  1  0
114116  1  0
116117  2  0
102118  1  0
118119  1  0
119120  1  0
120121  2  0
121122  1  0
122123  1  0
123124  2  0
124125  1  0
125126  2  0
126127  1  0
126128  1  0
128129  2  0
122130  1  0
130131  2  0
131132  1  0
132133  2  0
133134  1  0
133135  1  0
135136  2  0
121137  1  0
137138  1  0
120139  1  0
139140  2  3
140141  1  0
141142  2  0
141143  1  0
143144  2  0
144145  1  0
145146  1  0
145147  2  0
147148  1  0
147149  1  0
149150  2  0
150151  1  0
151152  2  3
152153  1  0
153154  3  0
152155  1  0
155156  3  0
 15  2  1  0
 58 21  1  0
100 59  1  0
138101  1  0
151140  1  0
 14  5  1  0
 30 24  1  0
 37 31  1  0
 57 38  2  0
 69 62  1  0
 77 70  1  0
 99 78  2  0
110104  1  0
117111  1  0
137118  2  0
150143  1  0
 49 43  1  0
 56 50  1  0
 90 83  1  0
 98 91  1  0
129123  1  0
136130  1  0
  1157  1  0
 25158  1  0
 26159  1  0
 28160  1  0
 28161  1  0
 28162  1  0
 29163  1  0
 30164  1  0
 32165  1  0
 33166  1  0
 35167  1  0
 35168  1  0
 35169  1  0
 36170  1  0
 37171  1  0
 44172  1  0
 45173  1  0
 47174  1  0
 47175  1  0
 47176  1  0
 48177  1  0
 49178  1  0
 51179  1  0
 52180  1  0
 54181  1  0
 54182  1  0
 54183  1  0
 55184  1  0
 56185  1  0
 63186  1  0
 64187  1  0
 67188  1  0
 67189  1  0
 67190  1  0
 68191  1  0
 69192  1  0
 71193  1  0
 72194  1  0
 75195  1  0
 75196  1  0
 75197  1  0
 76198  1  0
 77199  1  0
 84200  1  0
 85201  1  0
 88202  1  0
 88203  1  0
 88204  1  0
 89205  1  0
 90206  1  0
 92207  1  0
 93208  1  0
 96209  1  0
 96210  1  0
 96211  1  0
 97212  1  0
 98213  1  0
105214  1  0
106215  1  0
108216  1  0
108217  1  0
108218  1  0
109219  1  0
110220  1  0
112221  1  0
113222  1  0
115223  1  0
115224  1  0
115225  1  0
116226  1  0
117227  1  0
124228  1  0
125229  1  0
127230  1  0
127231  1  0
127232  1  0
128233  1  0
129234  1  0
131235  1  0
132236  1  0
134237  1  0
134238  1  0
134239  1  0
135240  1  0
136241  1  0
139242  1  0
144243  1  0
149244  1  0
M  END

