
     RDKit          3D

250272  0  0  0  0  0  0  0  0999 V2000
    1.4540    9.5759    1.6751 C   0  0  0  0  0  0  0  0  0  0  0  0
    2.2637   10.1268    0.7483 C   0  0  0  0  0  0  0  0  0  0  0  0
    2.7204    9.4815   -0.4885 C   0  0  0  0  0  0  0  0  0  0  0  0
    2.5337    8.2742   -0.8096 O   0  0  0  0  0  0  0  0  0  0  0  0
    3.4215   10.4586   -1.2991 C   0  0  0  0  0  0  0  0  0  0  0  0
    4.0104   10.2994   -2.5559 C   0  0  0  0  0  0  0  0  0  0  0  0
    4.1237    8.7066   -3.3017 Cl  0  0  0  0  0  0  0  0  0  0  0  0
    4.5473   11.4335   -3.1973 C   0  0  0  0  0  0  0  0  0  0  0  0
    5.4184   11.2553   -4.7174 Cl  0  0  0  0  0  0  0  0  0  0  0  0
    4.3873   12.7114   -2.6125 C   0  0  0  0  0  0  0  0  0  0  0  0
    4.9640   14.1413   -3.4653 Cl  0  0  0  0  0  0  0  0  0  0  0  0
    3.7475   12.8507   -1.3593 C   0  0  0  0  0  0  0  0  0  0  0  0
    3.2144   14.4527   -0.8289 Cl  0  0  0  0  0  0  0  0  0  0  0  0
    3.3900   11.6822   -0.6587 C   0  0  0  0  0  0  0  0  0  0  0  0
    2.8435   11.5033    0.7230 C   0  0  0  0  0  0  0  0  0  0  0  0
    3.2319   12.2166    1.8142 C   0  0  0  0  0  0  0  0  0  0  0  0
    4.2712   13.2141    1.7384 C   0  0  0  0  0  0  0  0  0  0  0  0
    5.1080   14.0121    1.6823 N   0  0  0  0  0  0  0  0  0  0  0  0
    2.7708   11.9183    3.1521 C   0  0  0  0  0  0  0  0  0  0  0  0
    2.4346   11.7148    4.2396 N   0  0  0  0  0  0  0  0  0  0  0  0
    0.8529    8.2522    1.4908 C   0  0  0  0  0  0  0  0  0  0  0  0
    1.2598    7.0557    2.1049 C   0  0  0  0  0  0  0  0  0  0  0  0
    2.3073    6.9395    3.0842 N   0  0  0  0  0  0  0  0  0  0  0  0
    3.6670    7.2696    2.7217 C   0  0  0  0  0  0  0  0  0  0  0  0
    4.1662    6.9416    1.4485 C   0  0  0  0  0  0  0  0  0  0  0  0
    5.4792    7.2743    1.0993 C   0  0  0  0  0  0  0  0  0  0  0  0
    6.3163    7.9234    2.0197 C   0  0  0  0  0  0  0  0  0  0  0  0
    7.7389    8.2369    1.6699 C   0  0  0  0  0  0  0  0  0  0  0  0
    5.8322    8.2143    3.3045 C   0  0  0  0  0  0  0  0  0  0  0  0
    4.5122    7.9065    3.6442 C   0  0  0  0  0  0  0  0  0  0  0  0
    2.0009    6.3026    4.3412 C   0  0  0  0  0  0  0  0  0  0  0  0
    2.8659    5.3392    4.8916 C   0  0  0  0  0  0  0  0  0  0  0  0
    2.5040    4.6488    6.0543 C   0  0  0  0  0  0  0  0  0  0  0  0
    1.2755    4.9169    6.6813 C   0  0  0  0  0  0  0  0  0  0  0  0
    0.8591    4.1374    7.8913 C   0  0  0  0  0  0  0  0  0  0  0  0
    0.4010    5.8588    6.1214 C   0  0  0  0  0  0  0  0  0  0  0  0
    0.7678    6.5560    4.9718 C   0  0  0  0  0  0  0  0  0  0  0  0
    0.4804    5.9845    1.6772 C   0  0  0  0  0  0  0  0  0  0  0  0
    0.5149    4.3204    1.9251 S   0  0  0  0  0  0  0  0  0  0  0  0
   -0.7579    3.9993    0.8346 C   0  0  0  0  0  0  0  0  0  0  0  0
   -1.2002    5.2102    0.2854 C   0  0  0  0  0  0  0  0  0  0  0  0
   -2.3096    5.3380   -0.6142 N   0  0  0  0  0  0  0  0  0  0  0  0
   -3.6374    5.0055   -0.1486 C   0  0  0  0  0  0  0  0  0  0  0  0
   -3.9844    5.1909    1.2044 C   0  0  0  0  0  0  0  0  0  0  0  0
   -5.2668    4.8787    1.6599 C   0  0  0  0  0  0  0  0  0  0  0  0
   -6.2315    4.3877    0.7696 C   0  0  0  0  0  0  0  0  0  0  0  0
   -7.6144    4.0471    1.2473 C   0  0  0  0  0  0  0  0  0  0  0  0
   -5.8857    4.1736   -0.5723 C   0  0  0  0  0  0  0  0  0  0  0  0
   -4.6034    4.4921   -1.0339 C   0  0  0  0  0  0  0  0  0  0  0  0
   -2.1021    6.0668   -1.8406 C   0  0  0  0  0  0  0  0  0  0  0  0
   -0.9524    5.8217   -2.6114 C   0  0  0  0  0  0  0  0  0  0  0  0
   -0.6538    6.6207   -3.7150 C   0  0  0  0  0  0  0  0  0  0  0  0
   -1.4837    7.7032   -4.0469 C   0  0  0  0  0  0  0  0  0  0  0  0
   -1.0711    8.6370   -5.1412 C   0  0  0  0  0  0  0  0  0  0  0  0
   -2.6308    7.9570   -3.2790 C   0  0  0  0  0  0  0  0  0  0  0  0
   -2.9524    7.1286   -2.1959 C   0  0  0  0  0  0  0  0  0  0  0  0
   -0.4810    6.2934    0.7739 C   0  0  0  0  0  0  0  0  0  0  0  0
   -0.4639    7.9383    0.4543 S   0  0  0  0  0  0  0  0  0  0  0  0
   -0.9958    2.6748    0.2489 C   0  0  0  0  0  0  0  0  0  0  0  0
   -0.9081    1.4532    0.9291 C   0  0  0  0  0  0  0  0  0  0  0  0
   -1.1970    1.2728    2.3260 N   0  0  0  0  0  0  0  0  0  0  0  0
   -2.5076    1.6360    2.8016 C   0  0  0  0  0  0  0  0  0  0  0  0
   -3.6400    1.3820    2.0036 C   0  0  0  0  0  0  0  0  0  0  0  0
   -4.9229    1.6136    2.4986 C   0  0  0  0  0  0  0  0  0  0  0  0
   -5.0971    2.0960    3.7992 C   0  0  0  0  0  0  0  0  0  0  0  0
   -6.7549    2.3575    4.4356 S   0  0  0  0  0  0  0  0  0  0  0  0
   -6.9950    0.6160    4.9136 C   0  0  0  0  0  0  0  0  0  0  0  0
   -3.9790    2.3794    4.5965 C   0  0  0  0  0  0  0  0  0  0  0  0
   -2.6857    2.1441    4.1038 C   0  0  0  0  0  0  0  0  0  0  0  0
   -0.4345    0.2976    3.0648 C   0  0  0  0  0  0  0  0  0  0  0  0
   -1.0779   -0.7538    3.7555 C   0  0  0  0  0  0  0  0  0  0  0  0
   -0.3267   -1.7553    4.3714 C   0  0  0  0  0  0  0  0  0  0  0  0
    1.0686   -1.7300    4.3121 C   0  0  0  0  0  0  0  0  0  0  0  0
    2.0184   -3.0230    5.1116 S   0  0  0  0  0  0  0  0  0  0  0  0
    2.2050   -2.0762    6.6556 C   0  0  0  0  0  0  0  0  0  0  0  0
    1.7149   -0.7109    3.6089 C   0  0  0  0  0  0  0  0  0  0  0  0
    0.9690    0.3024    2.9947 C   0  0  0  0  0  0  0  0  0  0  0  0
   -0.8463    0.3934    0.0307 C   0  0  0  0  0  0  0  0  0  0  0  0
   -0.8696   -1.2607    0.1922 S   0  0  0  0  0  0  0  0  0  0  0  0
   -0.8510   -1.5730   -1.4820 C   0  0  0  0  0  0  0  0  0  0  0  0
   -0.8710   -0.3583   -2.1744 C   0  0  0  0  0  0  0  0  0  0  0  0
   -0.9662   -0.2228   -3.5947 N   0  0  0  0  0  0  0  0  0  0  0  0
    0.2526   -0.1605   -4.3633 C   0  0  0  0  0  0  0  0  0  0  0  0
    0.4029   -0.9679   -5.4977 C   0  0  0  0  0  0  0  0  0  0  0  0
    1.5633   -0.8827   -6.2736 C   0  0  0  0  0  0  0  0  0  0  0  0
    2.5641    0.0441   -5.9474 C   0  0  0  0  0  0  0  0  0  0  0  0
    4.0283    0.1934   -6.9653 S   0  0  0  0  0  0  0  0  0  0  0  0
    3.2222    1.2831   -8.1822 C   0  0  0  0  0  0  0  0  0  0  0  0
    2.4154    0.8510   -4.8136 C   0  0  0  0  0  0  0  0  0  0  0  0
    1.2719    0.7428   -4.0207 C   0  0  0  0  0  0  0  0  0  0  0  0
   -2.2364    0.0941   -4.2037 C   0  0  0  0  0  0  0  0  0  0  0  0
   -2.3160    0.9959   -5.2857 C   0  0  0  0  0  0  0  0  0  0  0  0
   -3.5506    1.3140   -5.8570 C   0  0  0  0  0  0  0  0  0  0  0  0
   -4.7212    0.7240   -5.3681 C   0  0  0  0  0  0  0  0  0  0  0  0
   -6.2918    1.0796   -6.1544 S   0  0  0  0  0  0  0  0  0  0  0  0
   -6.1183   -0.2833   -7.3541 C   0  0  0  0  0  0  0  0  0  0  0  0
   -4.6570   -0.1529   -4.2820 C   0  0  0  0  0  0  0  0  0  0  0  0
   -3.4231   -0.4727   -3.7092 C   0  0  0  0  0  0  0  0  0  0  0  0
   -0.8719    0.7171   -1.2844 C   0  0  0  0  0  0  0  0  0  0  0  0
   -0.9829    2.3813   -1.4391 S   0  0  0  0  0  0  0  0  0  0  0  0
   -1.0739   -2.9258   -1.9926 C   0  0  0  0  0  0  0  0  0  0  0  0
   -0.0447   -3.8424   -2.3019 C   0  0  0  0  0  0  0  0  0  0  0  0
    1.2403   -3.5131   -2.8733 N   0  0  0  0  0  0  0  0  0  0  0  0
    1.6712   -4.2537   -4.0405 C   0  0  0  0  0  0  0  0  0  0  0  0
    2.9855   -4.7454   -4.1373 C   0  0  0  0  0  0  0  0  0  0  0  0
    3.4122   -5.4056   -5.2905 C   0  0  0  0  0  0  0  0  0  0  0  0
    2.5233   -5.6230   -6.3541 C   0  0  0  0  0  0  0  0  0  0  0  0
    3.0080   -6.2585   -7.6233 C   0  0  0  0  0  0  0  0  0  0  0  0
    1.2028   -5.1533   -6.2507 C   0  0  0  0  0  0  0  0  0  0  0  0
    0.7756   -4.4794   -5.1023 C   0  0  0  0  0  0  0  0  0  0  0  0
    2.1343   -2.5657   -2.2378 C   0  0  0  0  0  0  0  0  0  0  0  0
    2.1487   -2.4045   -0.8398 C   0  0  0  0  0  0  0  0  0  0  0  0
    3.0552   -1.5344   -0.2267 C   0  0  0  0  0  0  0  0  0  0  0  0
    3.9684   -0.8092   -1.0030 C   0  0  0  0  0  0  0  0  0  0  0  0
    4.9905    0.0699   -0.3457 C   0  0  0  0  0  0  0  0  0  0  0  0
    3.9912   -0.9880   -2.3932 C   0  0  0  0  0  0  0  0  0  0  0  0
    3.0720   -1.8456   -3.0024 C   0  0  0  0  0  0  0  0  0  0  0  0
   -0.4006   -5.1493   -1.9523 C   0  0  0  0  0  0  0  0  0  0  0  0
    0.4840   -6.5603   -1.7699 S   0  0  0  0  0  0  0  0  0  0  0  0
   -0.7128   -7.3528   -0.8554 C   0  0  0  0  0  0  0  0  0  0  0  0
   -1.8579   -6.5371   -0.7632 C   0  0  0  0  0  0  0  0  0  0  0  0
   -3.1140   -6.9354   -0.1561 N   0  0  0  0  0  0  0  0  0  0  0  0
   -4.0044   -5.9539    0.4154 C   0  0  0  0  0  0  0  0  0  0  0  0
   -3.5425   -5.0398    1.3773 C   0  0  0  0  0  0  0  0  0  0  0  0
   -4.3875   -4.0327    1.8563 C   0  0  0  0  0  0  0  0  0  0  0  0
   -5.7022   -3.9241    1.3794 C   0  0  0  0  0  0  0  0  0  0  0  0
   -6.6102   -2.8451    1.8846 C   0  0  0  0  0  0  0  0  0  0  0  0
   -6.1803   -4.8653    0.4577 C   0  0  0  0  0  0  0  0  0  0  0  0
   -5.3344   -5.8661   -0.0303 C   0  0  0  0  0  0  0  0  0  0  0  0
   -3.5928   -8.2868   -0.3225 C   0  0  0  0  0  0  0  0  0  0  0  0
   -4.1916   -8.9679    0.7523 C   0  0  0  0  0  0  0  0  0  0  0  0
   -4.6802  -10.2678    0.5875 C   0  0  0  0  0  0  0  0  0  0  0  0
   -4.6006  -10.9010   -0.6592 C   0  0  0  0  0  0  0  0  0  0  0  0
   -5.0871  -12.3107   -0.8231 C   0  0  0  0  0  0  0  0  0  0  0  0
   -4.0013  -10.2315   -1.7353 C   0  0  0  0  0  0  0  0  0  0  0  0
   -3.5151   -8.9308   -1.5721 C   0  0  0  0  0  0  0  0  0  0  0  0
   -1.6243   -5.2968   -1.3867 C   0  0  0  0  0  0  0  0  0  0  0  0
   -2.3775   -3.8098   -1.3460 S   0  0  0  0  0  0  0  0  0  0  0  0
   -0.5394   -8.7088   -0.3271 C   0  0  0  0  0  0  0  0  0  0  0  0
   -0.3435   -9.0753    0.9614 C   0  0  0  0  0  0  0  0  0  0  0  0
   -0.2748  -10.4920    1.3429 C   0  0  0  0  0  0  0  0  0  0  0  0
   -0.3797  -11.4715    0.5578 O   0  0  0  0  0  0  0  0  0  0  0  0
   -0.0690  -10.5947    2.7705 C   0  0  0  0  0  0  0  0  0  0  0  0
    0.2381  -11.7349    3.5120 C   0  0  0  0  0  0  0  0  0  0  0  0
    0.6515  -11.5796    4.8483 C   0  0  0  0  0  0  0  0  0  0  0  0
    1.0052  -12.6922    5.6308 C   0  0  0  0  0  0  0  0  0  0  0  0
    1.4631  -12.5129    6.9436 C   0  0  0  0  0  0  0  0  0  0  0  0
    1.8082  -13.5899    7.6910 F   0  0  0  0  0  0  0  0  0  0  0  0
    1.5570  -11.2260    7.4934 C   0  0  0  0  0  0  0  0  0  0  0  0
    1.9953  -11.0588    8.7653 F   0  0  0  0  0  0  0  0  0  0  0  0
    1.2040  -10.1108    6.7276 C   0  0  0  0  0  0  0  0  0  0  0  0
    0.7570  -10.2720    5.4051 C   0  0  0  0  0  0  0  0  0  0  0  0
    0.4224   -9.1475    4.6325 C   0  0  0  0  0  0  0  0  0  0  0  0
   -0.0317   -9.3263    3.3129 C   0  0  0  0  0  0  0  0  0  0  0  0
   -0.2337   -8.3016    2.2432 C   0  0  0  0  0  0  0  0  0  0  0  0
   -0.3001   -6.9684    2.4653 C   0  0  0  0  0  0  0  0  0  0  0  0
   -0.7338   -6.4360    3.7371 C   0  0  0  0  0  0  0  0  0  0  0  0
   -1.0851   -5.9889    4.7457 N   0  0  0  0  0  0  0  0  0  0  0  0
    0.3489   -6.0224    1.6035 C   0  0  0  0  0  0  0  0  0  0  0  0
    0.8913   -5.2359    0.9485 N   0  0  0  0  0  0  0  0  0  0  0  0
    1.0964   10.1563    2.5090 H   0  0  0  0  0  0  0  0  0  0  0  0
    3.5478    6.4245    0.7336 H   0  0  0  0  0  0  0  0  0  0  0  0
    5.8460    7.0215    0.1127 H   0  0  0  0  0  0  0  0  0  0  0  0
    8.4003    7.4374    2.0630 H   0  0  0  0  0  0  0  0  0  0  0  0
    8.0381    9.2083    2.1126 H   0  0  0  0  0  0  0  0  0  0  0  0
    7.8724    8.3118    0.5672 H   0  0  0  0  0  0  0  0  0  0  0  0
    6.4728    8.6842    4.0391 H   0  0  0  0  0  0  0  0  0  0  0  0
    4.1419    8.1711    4.6290 H   0  0  0  0  0  0  0  0  0  0  0  0
    3.8016    5.0990    4.4096 H   0  0  0  0  0  0  0  0  0  0  0  0
    3.1730    3.8965    6.4515 H   0  0  0  0  0  0  0  0  0  0  0  0
    1.7497    3.8679    8.5005 H   0  0  0  0  0  0  0  0  0  0  0  0
    0.1777    4.7386    8.5239 H   0  0  0  0  0  0  0  0  0  0  0  0
    0.3422    3.2108    7.5628 H   0  0  0  0  0  0  0  0  0  0  0  0
   -0.5612    6.0467    6.5757 H   0  0  0  0  0  0  0  0  0  0  0  0
    0.0806    7.2832    4.5655 H   0  0  0  0  0  0  0  0  0  0  0  0
   -3.2657    5.5881    1.9097 H   0  0  0  0  0  0  0  0  0  0  0  0
   -5.5108    5.0261    2.7030 H   0  0  0  0  0  0  0  0  0  0  0  0
   -7.7957    4.4367    2.2700 H   0  0  0  0  0  0  0  0  0  0  0  0
   -8.3634    4.4964    0.5643 H   0  0  0  0  0  0  0  0  0  0  0  0
   -7.7488    2.9449    1.2595 H   0  0  0  0  0  0  0  0  0  0  0  0
   -6.6131    3.7678   -1.2638 H   0  0  0  0  0  0  0  0  0  0  0  0
   -4.3582    4.3267   -2.0756 H   0  0  0  0  0  0  0  0  0  0  0  0
   -0.2602    5.0436   -2.3304 H   0  0  0  0  0  0  0  0  0  0  0  0
    0.2451    6.4276   -4.2866 H   0  0  0  0  0  0  0  0  0  0  0  0
   -0.3171    9.3508   -4.7484 H   0  0  0  0  0  0  0  0  0  0  0  0
   -1.9425    9.2011   -5.5291 H   0  0  0  0  0  0  0  0  0  0  0  0
   -0.6132    8.0699   -5.9817 H   0  0  0  0  0  0  0  0  0  0  0  0
   -3.2736    8.7979   -3.5156 H   0  0  0  0  0  0  0  0  0  0  0  0
   -3.8306    7.3576   -1.6041 H   0  0  0  0  0  0  0  0  0  0  0  0
   -3.5376    0.9595    1.0143 H   0  0  0  0  0  0  0  0  0  0  0  0
   -5.7775    1.3997    1.8657 H   0  0  0  0  0  0  0  0  0  0  0  0
   -6.7636   -0.0590    4.0626 H   0  0  0  0  0  0  0  0  0  0  0  0
   -8.0595    0.4763    5.1963 H   0  0  0  0  0  0  0  0  0  0  0  0
   -6.3491    0.3643    5.7798 H   0  0  0  0  0  0  0  0  0  0  0  0
   -4.1088    2.7707    5.6031 H   0  0  0  0  0  0  0  0  0  0  0  0
   -1.8322    2.3344    4.7427 H   0  0  0  0  0  0  0  0  0  0  0  0
   -2.1603   -0.8179    3.7954 H   0  0  0  0  0  0  0  0  0  0  0  0
   -0.8422   -2.5631    4.8827 H   0  0  0  0  0  0  0  0  0  0  0  0
    2.7370   -1.1243    6.4572 H   0  0  0  0  0  0  0  0  0  0  0  0
    1.2142   -1.8677    7.1057 H   0  0  0  0  0  0  0  0  0  0  0  0
    2.8075   -2.6729    7.3677 H   0  0  0  0  0  0  0  0  0  0  0  0
    2.7980   -0.6990    3.5380 H   0  0  0  0  0  0  0  0  0  0  0  0
    1.4860    1.0864    2.4525 H   0  0  0  0  0  0  0  0  0  0  0  0
   -0.3792   -1.6626   -5.7833 H   0  0  0  0  0  0  0  0  0  0  0  0
    1.6803   -1.5232   -7.1425 H   0  0  0  0  0  0  0  0  0  0  0  0
    2.4025    0.7351   -8.6933 H   0  0  0  0  0  0  0  0  0  0  0  0
    2.8114    2.1884   -7.6919 H   0  0  0  0  0  0  0  0  0  0  0  0
    3.9728    1.5873   -8.9409 H   0  0  0  0  0  0  0  0  0  0  0  0
    3.1915    1.5526   -4.5342 H   0  0  0  0  0  0  0  0  0  0  0  0
    1.1733    1.3755   -3.1497 H   0  0  0  0  0  0  0  0  0  0  0  0
   -1.4269    1.4749   -5.6717 H   0  0  0  0  0  0  0  0  0  0  0  0
   -3.6010    2.0127   -6.6785 H   0  0  0  0  0  0  0  0  0  0  0  0
   -6.0722   -1.2525   -6.8152 H   0  0  0  0  0  0  0  0  0  0  0  0
   -6.9962   -0.2917   -8.0380 H   0  0  0  0  0  0  0  0  0  0  0  0
   -5.1904   -0.1517   -7.9578 H   0  0  0  0  0  0  0  0  0  0  0  0
   -5.5626   -0.5989   -3.8883 H   0  0  0  0  0  0  0  0  0  0  0  0
   -3.3947   -1.1721   -2.8839 H   0  0  0  0  0  0  0  0  0  0  0  0
    3.6848   -4.6035   -3.3217 H   0  0  0  0  0  0  0  0  0  0  0  0
    4.4372   -5.7366   -5.3619 H   0  0  0  0  0  0  0  0  0  0  0  0
    3.4673   -5.4843   -8.2746 H   0  0  0  0  0  0  0  0  0  0  0  0
    2.1733   -6.7436   -8.1703 H   0  0  0  0  0  0  0  0  0  0  0  0
    3.7716   -7.0343   -7.3987 H   0  0  0  0  0  0  0  0  0  0  0  0
    0.5046   -5.3014   -7.0649 H   0  0  0  0  0  0  0  0  0  0  0  0
   -0.2426   -4.1213   -5.0437 H   0  0  0  0  0  0  0  0  0  0  0  0
    1.4740   -2.9667   -0.2139 H   0  0  0  0  0  0  0  0  0  0  0  0
    3.0589   -1.4358    0.8510 H   0  0  0  0  0  0  0  0  0  0  0  0
    5.3559    0.8461   -1.0537 H   0  0  0  0  0  0  0  0  0  0  0  0
    4.5405    0.5849    0.5248 H   0  0  0  0  0  0  0  0  0  0  0  0
    5.8444   -0.5535   -0.0098 H   0  0  0  0  0  0  0  0  0  0  0  0
    4.7119   -0.4678   -3.0075 H   0  0  0  0  0  0  0  0  0  0  0  0
    3.1104   -1.9632   -4.0724 H   0  0  0  0  0  0  0  0  0  0  0  0
   -2.5190   -5.0888    1.7224 H   0  0  0  0  0  0  0  0  0  0  0  0
   -4.0126   -3.3245    2.5880 H   0  0  0  0  0  0  0  0  0  0  0  0
   -6.0318   -1.9395    2.1781 H   0  0  0  0  0  0  0  0  0  0  0  0
   -7.3365   -2.5379    1.0987 H   0  0  0  0  0  0  0  0  0  0  0  0
   -7.1736   -3.2169    2.7690 H   0  0  0  0  0  0  0  0  0  0  0  0
   -7.2013   -4.8160    0.1055 H   0  0  0  0  0  0  0  0  0  0  0  0
   -5.7109   -6.5593   -0.7743 H   0  0  0  0  0  0  0  0  0  0  0  0
   -4.2698   -8.4841    1.7189 H   0  0  0  0  0  0  0  0  0  0  0  0
   -5.1260  -10.7784    1.4347 H   0  0  0  0  0  0  0  0  0  0  0  0
   -5.4540  -12.4848   -1.8572 H   0  0  0  0  0  0  0  0  0  0  0  0
   -4.2514  -13.0117   -0.6168 H   0  0  0  0  0  0  0  0  0  0  0  0
   -5.9205  -12.5253   -0.1201 H   0  0  0  0  0  0  0  0  0  0  0  0
   -3.9221  -10.7085   -2.7073 H   0  0  0  0  0  0  0  0  0  0  0  0
   -3.0806   -8.4195   -2.4221 H   0  0  0  0  0  0  0  0  0  0  0  0
   -0.5682   -9.4854   -1.0764 H   0  0  0  0  0  0  0  0  0  0  0  0
    0.2066  -12.7110    3.0492 H   0  0  0  0  0  0  0  0  0  0  0  0
    0.9163  -13.6926    5.2365 H   0  0  0  0  0  0  0  0  0  0  0  0
    1.2759   -9.1204    7.1702 H   0  0  0  0  0  0  0  0  0  0  0  0
    0.5857   -8.1605    5.0399 H   0  0  0  0  0  0  0  0  0  0  0  0
  1  2  2  3
  2  3  1  0
  3  4  2  0
  3  5  1  0
  5  6  2  0
  6  7  1  0
  6  8  1  0
  8  9  1  0
  8 10  2  0
 10 11  1  0
 10 12  1  0
 12 13  1  0
 12 14  2  0
 14 15  1  0
 15 16  2  3
 16 17  1  0
 17 18  3  0
 16 19  1  0
 19 20  3  0
  1 21  1  0
 21 22  2  0
 22 23  1  0
 23 24  1  0
 24 25  2  0
 25 26  1  0
 26 27  2  0
 27 28  1  0
 27 29  1  0
 29 30  2  0
 23 31  1  0
 31 32  2  0
 32 33  1  0
 33 34  2  0
 34 35  1  0
 34 36  1  0
 36 37  2  0
 22 38  1  0
 38 39  1  0
 39 40  1  0
 40 41  2  0
 41 42  1  0
 42 43  1  0
 43 44  2  0
 44 45  1  0
 45 46  2  0
 46 47  1  0
 46 48  1  0
 48 49  2  0
 42 50  1  0
 50 51  2  0
 51 52  1  0
 52 53  2  0
 53 54  1  0
 53 55  1  0
 55 56  2  0
 41 57  1  0
 57 58  1  0
 40 59  1  0
 59 60  2  0
 60 61  1  0
 61 62  1  0
 62 63  2  0
 63 64  1  0
 64 65  2  0
 65 66  1  0
 66 67  1  0
 65 68  1  0
 68 69  2  0
 61 70  1  0
 70 71  2  0
 71 72  1  0
 72 73  2  0
 73 74  1  0
 74 75  1  0
 73 76  1  0
 76 77  2  0
 60 78  1  0
 78 79  1  0
 79 80  1  0
 80 81  2  0
 81 82  1  0
 82 83  1  0
 83 84  2  0
 84 85  1  0
 85 86  2  0
 86 87  1  0
 87 88  1  0
 86 89  1  0
 89 90  2  0
 82 91  1  0
 91 92  2  0
 92 93  1  0
 93 94  2  0
 94 95  1  0
 95 96  1  0
 94 97  1  0
 97 98  2  0
 81 99  1  0
 99100  1  0
 80101  1  0
101102  2  0
102103  1  0
103104  1  0
104105  2  0
105106  1  0
106107  2  0
107108  1  0
107109  1  0
109110  2  0
103111  1  0
111112  2  0
112113  1  0
113114  2  0
114115  1  0
114116  1  0
116117  2  0
102118  1  0
118119  1  0
119120  1  0
120121  2  0
121122  1  0
122123  1  0
123124  2  0
124125  1  0
125126  2  0
126127  1  0
126128  1  0
128129  2  0
122130  1  0
130131  2  0
131132  1  0
132133  2  0
133134  1  0
133135  1  0
135136  2  0
121137  1  0
137138  1  0
120139  1  0
139140  2  3
140141  1  0
141142  2  0
141143  1  0
143144  2  0
144145  1  0
145146  2  0
146147  1  0
147148  1  0
147149  2  0
149150  1  0
149151  1  0
151152  2  0
152153  1  0
153154  2  0
154155  1  0
155156  2  3
156157  1  0
157158  3  0
156159  1  0
159160  3  0
 15  2  1  0
 58 21  1  0
100 59  1  0
138101  1  0
155140  1  0
 14  5  1  0
 30 24  1  0
 37 31  1  0
 57 38  2  0
 69 62  1  0
 77 70  1  0
 99 78  2  0
110104  1  0
117111  1  0
137118  2  0
154143  1  0
 49 43  1  0
 56 50  1  0
 90 83  1  0
 98 91  1  0
129123  1  0
136130  1  0
152145  1  0
  1161  1  0
 25162  1  0
 26163  1  0
 28164  1  0
 28165  1  0
 28166  1  0
 29167  1  0
 30168  1  0
 32169  1  0
 33170  1  0
 35171  1  0
 35172  1  0
 35173  1  0
 36174  1  0
 37175  1  0
 44176  1  0
 45177  1  0
 47178  1  0
 47179  1  0
 47180  1  0
 48181  1  0
 49182  1  0
 51183  1  0
 52184  1  0
 54185  1  0
 54186  1  0
 54187  1  0
 55188  1  0
 56189  1  0
 63190  1  0
 64191  1  0
 67192  1  0
 67193  1  0
 67194  1  0
 68195  1  0
 69196  1  0
 71197  1  0
 72198  1  0
 75199  1  0
 75200  1  0
 75201  1  0
 76202  1  0
 77203  1  0
 84204  1  0
 85205  1  0
 88206  1  0
 88207  1  0
 88208  1  0
 89209  1  0
 90210  1  0
 92211  1  0
 93212  1  0
 96213  1  0
 96214  1  0
 96215  1  0
 97216  1  0
 98217  1  0
105218  1  0
106219  1  0
108220  1  0
108221  1  0
108222  1  0
109223  1  0
110224  1  0
112225  1  0
113226  1  0
115227  1  0
115228  1  0
115229  1  0
116230  1  0
117231  1  0
124232  1  0
125233  1  0
127234  1  0
127235  1  0
127236  1  0
128237  1  0
129238  1  0
131239  1  0
132240  1  0
134241  1  0
134242  1  0
134243  1  0
135244  1  0
136245  1  0
139246  1  0
144247  1  0
146248  1  0
151249  1  0
153250  1  0
M  END

