
     RDKit          3D

250270  0  0  0  0  0  0  0  0999 V2000
   -1.6127    6.0884    5.1088 C   0  0  0  0  0  0  0  0  0  0  0  0
   -2.5194    6.6918    5.8976 C   0  0  0  0  0  0  0  0  0  0  0  0
   -3.8261    6.1541    6.2862 C   0  0  0  0  0  0  0  0  0  0  0  0
   -4.2488    4.9914    6.0478 O   0  0  0  0  0  0  0  0  0  0  0  0
   -4.6140    7.2288    6.8742 C   0  0  0  0  0  0  0  0  0  0  0  0
   -5.9430    7.2094    7.3152 C   0  0  0  0  0  0  0  0  0  0  0  0
   -6.8496    5.7020    7.3660 Cl  0  0  0  0  0  0  0  0  0  0  0  0
   -6.5372    8.4234    7.7107 C   0  0  0  0  0  0  0  0  0  0  0  0
   -8.1879    8.4337    8.3337 Cl  0  0  0  0  0  0  0  0  0  0  0  0
   -5.8333    9.6427    7.5470 C   0  0  0  0  0  0  0  0  0  0  0  0
   -6.6252   11.1750    7.9304 Cl  0  0  0  0  0  0  0  0  0  0  0  0
   -4.5117    9.6394    7.0483 C   0  0  0  0  0  0  0  0  0  0  0  0
   -3.7881   11.1546    6.4981 Cl  0  0  0  0  0  0  0  0  0  0  0  0
   -3.8744    8.3995    6.8363 C   0  0  0  0  0  0  0  0  0  0  0  0
   -2.4836    8.0972    6.3941 C   0  0  0  0  0  0  0  0  0  0  0  0
   -1.3645    8.7382    6.8256 C   0  0  0  0  0  0  0  0  0  0  0  0
   -0.0345    8.2839    6.5046 C   0  0  0  0  0  0  0  0  0  0  0  0
    1.0404    7.9278    6.2466 N   0  0  0  0  0  0  0  0  0  0  0  0
   -1.4169    9.7856    7.8104 C   0  0  0  0  0  0  0  0  0  0  0  0
   -1.4502   10.6296    8.6089 N   0  0  0  0  0  0  0  0  0  0  0  0
   -1.6647    4.6574    4.7506 C   0  0  0  0  0  0  0  0  0  0  0  0
   -1.6703    4.0896    3.4507 C   0  0  0  0  0  0  0  0  0  0  0  0
   -1.3482    4.7944    2.2182 N   0  0  0  0  0  0  0  0  0  0  0  0
   -1.2919    4.1100    0.9548 C   0  0  0  0  0  0  0  0  0  0  0  0
   -0.0911    3.5052    0.5436 C   0  0  0  0  0  0  0  0  0  0  0  0
    0.0544    3.0415   -0.7649 C   0  0  0  0  0  0  0  0  0  0  0  0
   -0.9896    3.1878   -1.6857 C   0  0  0  0  0  0  0  0  0  0  0  0
   -0.7445    2.8564   -3.1287 C   0  0  0  0  0  0  0  0  0  0  0  0
   -2.2099    3.7450   -1.2630 C   0  0  0  0  0  0  0  0  0  0  0  0
   -2.3588    4.2035    0.0519 C   0  0  0  0  0  0  0  0  0  0  0  0
   -0.5595    5.9915    2.2600 C   0  0  0  0  0  0  0  0  0  0  0  0
   -1.0706    7.1903    1.7475 C   0  0  0  0  0  0  0  0  0  0  0  0
   -0.2865    8.3448    1.7498 C   0  0  0  0  0  0  0  0  0  0  0  0
    1.0210    8.3128    2.2654 C   0  0  0  0  0  0  0  0  0  0  0  0
    1.8851    9.5400    2.2361 C   0  0  0  0  0  0  0  0  0  0  0  0
    1.5438    7.1037    2.7466 C   0  0  0  0  0  0  0  0  0  0  0  0
    0.7607    5.9485    2.7426 C   0  0  0  0  0  0  0  0  0  0  0  0
   -1.8243    2.6984    3.5523 C   0  0  0  0  0  0  0  0  0  0  0  0
   -1.9013    1.4336    2.4551 S   0  0  0  0  0  0  0  0  0  0  0  0
   -1.7874    0.1989    3.6211 C   0  0  0  0  0  0  0  0  0  0  0  0
   -1.6243    0.7870    4.8854 C   0  0  0  0  0  0  0  0  0  0  0  0
   -1.0703    0.0973    6.0223 N   0  0  0  0  0  0  0  0  0  0  0  0
   -1.5694   -1.2021    6.3760 C   0  0  0  0  0  0  0  0  0  0  0  0
   -2.9059   -1.3580    6.7626 C   0  0  0  0  0  0  0  0  0  0  0  0
   -3.3833   -2.6177    7.1250 C   0  0  0  0  0  0  0  0  0  0  0  0
   -2.5460   -3.7408    7.0681 C   0  0  0  0  0  0  0  0  0  0  0  0
   -3.0807   -5.1029    7.4039 C   0  0  0  0  0  0  0  0  0  0  0  0
   -1.2131   -3.5882    6.6557 C   0  0  0  0  0  0  0  0  0  0  0  0
   -0.7260   -2.3221    6.3252 C   0  0  0  0  0  0  0  0  0  0  0  0
    0.1078    0.6034    6.6802 C   0  0  0  0  0  0  0  0  0  0  0  0
    0.2055    0.5588    8.0787 C   0  0  0  0  0  0  0  0  0  0  0  0
    1.3440    1.0495    8.7255 C   0  0  0  0  0  0  0  0  0  0  0  0
    2.4072    1.5824    7.9780 C   0  0  0  0  0  0  0  0  0  0  0  0
    3.6108    2.1549    8.6631 C   0  0  0  0  0  0  0  0  0  0  0  0
    2.3069    1.6328    6.5794 C   0  0  0  0  0  0  0  0  0  0  0  0
    1.1664    1.1473    5.9341 C   0  0  0  0  0  0  0  0  0  0  0  0
   -1.7356    2.1792    4.8083 C   0  0  0  0  0  0  0  0  0  0  0  0
   -1.6111    3.4164    5.9237 S   0  0  0  0  0  0  0  0  0  0  0  0
   -1.3206   -1.1313    3.2419 C   0  0  0  0  0  0  0  0  0  0  0  0
   -2.0323   -1.9826    2.3820 C   0  0  0  0  0  0  0  0  0  0  0  0
   -3.4575   -1.9080    2.1875 N   0  0  0  0  0  0  0  0  0  0  0  0
   -4.0316   -1.9194    0.8685 C   0  0  0  0  0  0  0  0  0  0  0  0
   -3.7230   -0.9028   -0.0505 C   0  0  0  0  0  0  0  0  0  0  0  0
   -4.3315   -0.8840   -1.3094 C   0  0  0  0  0  0  0  0  0  0  0  0
   -5.2210   -1.9010   -1.6774 C   0  0  0  0  0  0  0  0  0  0  0  0
   -5.9990   -1.8783   -3.2943 S   0  0  0  0  0  0  0  0  0  0  0  0
   -4.7364   -2.9499   -4.0525 C   0  0  0  0  0  0  0  0  0  0  0  0
   -5.5243   -2.9219   -0.7707 C   0  0  0  0  0  0  0  0  0  0  0  0
   -4.9417   -2.9259    0.4988 C   0  0  0  0  0  0  0  0  0  0  0  0
   -4.3360   -2.0521    3.3139 C   0  0  0  0  0  0  0  0  0  0  0  0
   -4.4952   -3.3061    3.9263 C   0  0  0  0  0  0  0  0  0  0  0  0
   -5.5596   -3.5283    4.8093 C   0  0  0  0  0  0  0  0  0  0  0  0
   -6.4538   -2.4925    5.1055 C   0  0  0  0  0  0  0  0  0  0  0  0
   -7.9422   -2.8276    6.0538 S   0  0  0  0  0  0  0  0  0  0  0  0
   -7.2232   -2.3724    7.6606 C   0  0  0  0  0  0  0  0  0  0  0  0
   -6.2518   -1.2217    4.5493 C   0  0  0  0  0  0  0  0  0  0  0  0
   -5.1998   -1.0027    3.6551 C   0  0  0  0  0  0  0  0  0  0  0  0
   -1.1663   -2.7648    1.6089 C   0  0  0  0  0  0  0  0  0  0  0  0
   -1.3563   -3.5032    0.1179 S   0  0  0  0  0  0  0  0  0  0  0  0
    0.2996   -3.5348   -0.2628 C   0  0  0  0  0  0  0  0  0  0  0  0
    1.0191   -2.9487    0.8009 C   0  0  0  0  0  0  0  0  0  0  0  0
    2.3990   -2.5147    0.7511 N   0  0  0  0  0  0  0  0  0  0  0  0
    2.8788   -1.7270   -0.3578 C   0  0  0  0  0  0  0  0  0  0  0  0
    2.0537   -0.7683   -0.9735 C   0  0  0  0  0  0  0  0  0  0  0  0
    2.5217   -0.0245   -2.0609 C   0  0  0  0  0  0  0  0  0  0  0  0
    3.8253   -0.2157   -2.5305 C   0  0  0  0  0  0  0  0  0  0  0  0
    4.4292    0.7406   -3.9233 S   0  0  0  0  0  0  0  0  0  0  0  0
    3.9795   -0.5431   -5.1246 C   0  0  0  0  0  0  0  0  0  0  0  0
    4.6574   -1.1543   -1.9132 C   0  0  0  0  0  0  0  0  0  0  0  0
    4.1882   -1.9073   -0.8351 C   0  0  0  0  0  0  0  0  0  0  0  0
    3.1869   -2.6238    1.9614 C   0  0  0  0  0  0  0  0  0  0  0  0
    4.0027   -1.5550    2.3891 C   0  0  0  0  0  0  0  0  0  0  0  0
    4.6243   -1.5942    3.6421 C   0  0  0  0  0  0  0  0  0  0  0  0
    4.4439   -2.7003    4.4817 C   0  0  0  0  0  0  0  0  0  0  0  0
    5.1712   -2.7201    6.1200 S   0  0  0  0  0  0  0  0  0  0  0  0
    6.6796   -3.5771    5.5760 C   0  0  0  0  0  0  0  0  0  0  0  0
    3.6596   -3.7776    4.0542 C   0  0  0  0  0  0  0  0  0  0  0  0
    3.0497   -3.7468    2.7962 C   0  0  0  0  0  0  0  0  0  0  0  0
    0.1586   -2.5535    1.8302 C   0  0  0  0  0  0  0  0  0  0  0  0
    0.3405   -1.3695    2.9979 S   0  0  0  0  0  0  0  0  0  0  0  0
    0.7291   -3.5801   -1.6588 C   0  0  0  0  0  0  0  0  0  0  0  0
    1.9185   -4.0750   -2.1822 C   0  0  0  0  0  0  0  0  0  0  0  0
    1.8758   -3.7580   -3.5374 C   0  0  0  0  0  0  0  0  0  0  0  0
    2.7995   -3.9295   -4.6016 C   0  0  0  0  0  0  0  0  0  0  0  0
    4.2131   -4.3861   -4.4146 C   0  0  0  0  0  0  0  0  0  0  0  0
    5.2298   -4.3539   -5.3823 C   0  0  0  0  0  0  0  0  0  0  0  0
    6.4908   -4.7142   -4.9057 C   0  0  0  0  0  0  0  0  0  0  0  0
    6.5057   -5.0155   -3.5586 C   0  0  0  0  0  0  0  0  0  0  0  0
    8.0131   -5.4585   -2.5968 Si  0  0  0  0  0  4  0  0  0  0  0  0
    9.2989   -4.1208   -2.9132 C   0  0  0  0  0  0  0  0  0  0  0  0
    8.7662   -2.7391   -2.5553 C   0  0  0  0  0  0  0  0  0  0  0  0
    8.5817   -7.1301   -3.2548 C   0  0  0  0  0  0  0  0  0  0  0  0
   10.0972   -7.2697   -3.2762 C   0  0  0  0  0  0  0  0  0  0  0  0
    7.5966   -5.5666   -0.7653 C   0  0  0  0  0  0  0  0  0  0  0  0
    8.8266   -5.8728    0.0810 C   0  0  0  0  0  0  0  0  0  0  0  0
    4.9497   -4.8437   -2.9625 S   0  0  0  0  0  0  0  0  0  0  0  0
    2.3254   -3.4876   -5.8621 C   0  0  0  0  0  0  0  0  0  0  0  0
    1.1104   -2.8296   -6.0279 C   0  0  0  0  0  0  0  0  0  0  0  0
    0.2576   -2.5503   -4.9463 C   0  0  0  0  0  0  0  0  0  0  0  0
   -0.8950   -1.6140   -5.0022 C   0  0  0  0  0  0  0  0  0  0  0  0
   -1.2906   -0.7832   -3.9528 C   0  0  0  0  0  0  0  0  0  0  0  0
   -2.3460    0.0688   -4.2725 C   0  0  0  0  0  0  0  0  0  0  0  0
   -2.7917   -0.0617   -5.5771 C   0  0  0  0  0  0  0  0  0  0  0  0
   -4.0447    1.0081   -6.4074 Si  0  0  0  0  0  4  0  0  0  0  0  0
   -4.8660    2.1554   -5.1494 C   0  0  0  0  0  0  0  0  0  0  0  0
   -5.4531    3.4150   -5.7810 C   0  0  0  0  0  0  0  0  0  0  0  0
   -3.1546    1.9950   -7.7381 C   0  0  0  0  0  0  0  0  0  0  0  0
   -1.9790    2.7710   -7.1544 C   0  0  0  0  0  0  0  0  0  0  0  0
   -5.2991   -0.1469   -7.1976 C   0  0  0  0  0  0  0  0  0  0  0  0
   -6.5148    0.5943   -7.7352 C   0  0  0  0  0  0  0  0  0  0  0  0
   -1.8722   -1.2495   -6.3317 S   0  0  0  0  0  0  0  0  0  0  0  0
    0.6673   -3.0976   -3.7220 C   0  0  0  0  0  0  0  0  0  0  0  0
    0.0076   -3.0261   -2.6012 O   0  0  0  0  0  0  0  0  0  0  0  0
    1.0302   -2.4872   -7.3631 C   0  0  0  0  0  0  0  0  0  0  0  0
    2.1992   -2.9766   -7.9292 C   0  0  0  0  0  0  0  0  0  0  0  0
    2.9386   -3.5722   -7.0174 O   0  0  0  0  0  0  0  0  0  0  0  0
    2.5746   -2.9150   -9.3486 C   0  0  0  0  0  0  0  0  0  0  0  0
    2.3432   -1.8595  -10.1442 C   0  0  0  0  0  0  0  0  0  0  0  0
    2.5648   -1.8743  -11.5822 C   0  0  0  0  0  0  0  0  0  0  0  0
    2.9984   -2.8509  -12.2499 O   0  0  0  0  0  0  0  0  0  0  0  0
    2.1896   -0.5795  -12.1059 C   0  0  0  0  0  0  0  0  0  0  0  0
    2.2149   -0.1143  -13.4240 C   0  0  0  0  0  0  0  0  0  0  0  0
    2.7245   -1.1669  -14.7456 Cl  0  0  0  0  0  0  0  0  0  0  0  0
    1.8138    1.2139  -13.6724 C   0  0  0  0  0  0  0  0  0  0  0  0
    1.8398    1.8418  -15.3209 Cl  0  0  0  0  0  0  0  0  0  0  0  0
    1.3858    2.0384  -12.6047 C   0  0  0  0  0  0  0  0  0  0  0  0
    0.8858    3.7021  -12.9255 Cl  0  0  0  0  0  0  0  0  0  0  0  0
    1.3607    1.5390  -11.2853 C   0  0  0  0  0  0  0  0  0  0  0  0
    0.7959    2.5589   -9.9609 Cl  0  0  0  0  0  0  0  0  0  0  0  0
    1.7818    0.2182  -11.0500 C   0  0  0  0  0  0  0  0  0  0  0  0
    1.8810   -0.5002   -9.7464 C   0  0  0  0  0  0  0  0  0  0  0  0
    2.4896    0.1070   -8.7182 C   0  0  0  0  0  0  0  0  0  0  0  0
    1.7245    0.5694   -7.5917 C   0  0  0  0  0  0  0  0  0  0  0  0
    1.1199    0.9454   -6.6809 N   0  0  0  0  0  0  0  0  0  0  0  0
    3.8738    0.4910   -8.8115 C   0  0  0  0  0  0  0  0  0  0  0  0
    4.9862    0.8105   -8.8750 N   0  0  0  0  0  0  0  0  0  0  0  0
   -0.7845    6.6578    4.7381 H   0  0  0  0  0  0  0  0  0  0  0  0
    0.7462    3.4289    1.2241 H   0  0  0  0  0  0  0  0  0  0  0  0
    1.0003    2.6184   -1.0779 H   0  0  0  0  0  0  0  0  0  0  0  0
   -1.6787    2.9044   -3.7205 H   0  0  0  0  0  0  0  0  0  0  0  0
   -0.0246    3.5866   -3.5557 H   0  0  0  0  0  0  0  0  0  0  0  0
   -0.3053    1.8414   -3.2089 H   0  0  0  0  0  0  0  0  0  0  0  0
   -3.0268    3.8647   -1.9645 H   0  0  0  0  0  0  0  0  0  0  0  0
   -3.2813    4.6848    0.3518 H   0  0  0  0  0  0  0  0  0  0  0  0
   -2.0769    7.2205    1.3537 H   0  0  0  0  0  0  0  0  0  0  0  0
   -0.6934    9.2646    1.3487 H   0  0  0  0  0  0  0  0  0  0  0  0
    1.2705   10.4641    2.1912 H   0  0  0  0  0  0  0  0  0  0  0  0
    2.5092    9.5915    3.1554 H   0  0  0  0  0  0  0  0  0  0  0  0
    2.5511    9.5031    1.3477 H   0  0  0  0  0  0  0  0  0  0  0  0
    2.5597    7.0576    3.1241 H   0  0  0  0  0  0  0  0  0  0  0  0
    1.1742    5.0219    3.1233 H   0  0  0  0  0  0  0  0  0  0  0  0
   -3.5656   -0.5023    6.8021 H   0  0  0  0  0  0  0  0  0  0  0  0
   -4.4087   -2.7186    7.4434 H   0  0  0  0  0  0  0  0  0  0  0  0
   -3.3586   -5.6310    6.4681 H   0  0  0  0  0  0  0  0  0  0  0  0
   -3.9768   -5.0274    8.0567 H   0  0  0  0  0  0  0  0  0  0  0  0
   -2.3100   -5.6950    7.9417 H   0  0  0  0  0  0  0  0  0  0  0  0
   -0.5576   -4.4473    6.5899 H   0  0  0  0  0  0  0  0  0  0  0  0
    0.3043   -2.2147    6.0086 H   0  0  0  0  0  0  0  0  0  0  0  0
   -0.6138    0.1609    8.6657 H   0  0  0  0  0  0  0  0  0  0  0  0
    1.3918    1.0186    9.8067 H   0  0  0  0  0  0  0  0  0  0  0  0
    3.5067    3.2584    8.7347 H   0  0  0  0  0  0  0  0  0  0  0  0
    3.7280    1.7382    9.6859 H   0  0  0  0  0  0  0  0  0  0  0  0
    4.5305    1.9187    8.0864 H   0  0  0  0  0  0  0  0  0  0  0  0
    3.1137    2.0516    5.9916 H   0  0  0  0  0  0  0  0  0  0  0  0
    1.1143    1.1951    4.8536 H   0  0  0  0  0  0  0  0  0  0  0  0
   -3.0279   -0.1173    0.2169 H   0  0  0  0  0  0  0  0  0  0  0  0
   -4.1346   -0.0661   -1.9886 H   0  0  0  0  0  0  0  0  0  0  0  0
   -3.7615   -2.4188   -4.0717 H   0  0  0  0  0  0  0  0  0  0  0  0
   -4.6271   -3.8907   -3.4742 H   0  0  0  0  0  0  0  0  0  0  0  0
   -5.0348   -3.1876   -5.0938 H   0  0  0  0  0  0  0  0  0  0  0  0
   -6.2184   -3.7014   -1.0477 H   0  0  0  0  0  0  0  0  0  0  0  0
   -5.1943   -3.7166    1.1889 H   0  0  0  0  0  0  0  0  0  0  0  0
   -3.8477   -4.1334    3.6493 H   0  0  0  0  0  0  0  0  0  0  0  0
   -5.7123   -4.5186    5.2227 H   0  0  0  0  0  0  0  0  0  0  0  0
   -6.5941   -3.2033    8.0373 H   0  0  0  0  0  0  0  0  0  0  0  0
   -6.6258   -1.4418    7.5756 H   0  0  0  0  0  0  0  0  0  0  0  0
   -8.0461   -2.2032    8.3861 H   0  0  0  0  0  0  0  0  0  0  0  0
   -6.9434   -0.4170    4.7620 H   0  0  0  0  0  0  0  0  0  0  0  0
   -5.0941   -0.0385    3.1721 H   0  0  0  0  0  0  0  0  0  0  0  0
    1.0442   -0.6014   -0.6205 H   0  0  0  0  0  0  0  0  0  0  0  0
    1.8710    0.6989   -2.5357 H   0  0  0  0  0  0  0  0  0  0  0  0
    4.2829   -0.2121   -6.1372 H   0  0  0  0  0  0  0  0  0  0  0  0
    2.8821   -0.7130   -5.1014 H   0  0  0  0  0  0  0  0  0  0  0  0
    4.5124   -1.4822   -4.8780 H   0  0  0  0  0  0  0  0  0  0  0  0
    5.6669   -1.3101   -2.2745 H   0  0  0  0  0  0  0  0  0  0  0  0
    4.8389   -2.6419   -0.3763 H   0  0  0  0  0  0  0  0  0  0  0  0
    4.1105   -0.6647    1.7830 H   0  0  0  0  0  0  0  0  0  0  0  0
    5.2232   -0.7525    3.9699 H   0  0  0  0  0  0  0  0  0  0  0  0
    7.3281   -3.7454    6.4621 H   0  0  0  0  0  0  0  0  0  0  0  0
    7.2227   -2.9480    4.8366 H   0  0  0  0  0  0  0  0  0  0  0  0
    6.4197   -4.5598    5.1245 H   0  0  0  0  0  0  0  0  0  0  0  0
    3.5173   -4.6348    4.7013 H   0  0  0  0  0  0  0  0  0  0  0  0
    2.4317   -4.5820    2.4909 H   0  0  0  0  0  0  0  0  0  0  0  0
    2.6872   -4.5773   -1.6169 H   0  0  0  0  0  0  0  0  0  0  0  0
    5.1164   -4.0345   -6.4050 H   0  0  0  0  0  0  0  0  0  0  0  0
    7.3794   -4.7268   -5.5230 H   0  0  0  0  0  0  0  0  0  0  0  0
   10.2093   -4.3381   -2.3177 H   0  0  0  0  0  0  0  0  0  0  0  0
    9.5680   -4.1426   -3.9896 H   0  0  0  0  0  0  0  0  0  0  0  0
    7.8613   -2.5027   -3.1560 H   0  0  0  0  0  0  0  0  0  0  0  0
    9.5403   -1.9767   -2.7765 H   0  0  0  0  0  0  0  0  0  0  0  0
    8.5148   -2.6872   -1.4752 H   0  0  0  0  0  0  0  0  0  0  0  0
    8.1988   -7.2371   -4.2911 H   0  0  0  0  0  0  0  0  0  0  0  0
    8.1354   -7.9315   -2.6315 H   0  0  0  0  0  0  0  0  0  0  0  0
   10.3643   -8.2426   -3.7426 H   0  0  0  0  0  0  0  0  0  0  0  0
   10.5533   -6.4630   -3.8859 H   0  0  0  0  0  0  0  0  0  0  0  0
   10.5107   -7.2450   -2.2479 H   0  0  0  0  0  0  0  0  0  0  0  0
    7.1590   -4.5990   -0.4425 H   0  0  0  0  0  0  0  0  0  0  0  0
    6.8386   -6.3653   -0.6199 H   0  0  0  0  0  0  0  0  0  0  0  0
    9.2556   -6.8563   -0.1988 H   0  0  0  0  0  0  0  0  0  0  0  0
    9.5946   -5.0818   -0.0466 H   0  0  0  0  0  0  0  0  0  0  0  0
    8.5413   -5.9088    1.1516 H   0  0  0  0  0  0  0  0  0  0  0  0
   -0.8065   -0.7469   -2.9849 H   0  0  0  0  0  0  0  0  0  0  0  0
   -2.7408    0.7872   -3.5760 H   0  0  0  0  0  0  0  0  0  0  0  0
   -5.6683    1.5893   -4.6318 H   0  0  0  0  0  0  0  0  0  0  0  0
   -4.1123    2.4665   -4.3984 H   0  0  0  0  0  0  0  0  0  0  0  0
   -4.6504    4.0392   -6.2284 H   0  0  0  0  0  0  0  0  0  0  0  0
   -5.9510    4.0170   -4.9907 H   0  0  0  0  0  0  0  0  0  0  0  0
   -6.2005    3.1686   -6.5612 H   0  0  0  0  0  0  0  0  0  0  0  0
   -2.7825    1.2938   -8.5136 H   0  0  0  0  0  0  0  0  0  0  0  0
   -3.8709    2.6952   -8.2140 H   0  0  0  0  0  0  0  0  0  0  0  0
   -1.4709    3.3399   -7.9603 H   0  0  0  0  0  0  0  0  0  0  0  0
   -2.3244    3.4850   -6.3778 H   0  0  0  0  0  0  0  0  0  0  0  0
   -1.2489    2.0729   -6.6982 H   0  0  0  0  0  0  0  0  0  0  0  0
   -5.6266   -0.8867   -6.4362 H   0  0  0  0  0  0  0  0  0  0  0  0
   -4.8024   -0.6922   -8.0282 H   0  0  0  0  0  0  0  0  0  0  0  0
   -7.0970    1.0359   -6.8986 H   0  0  0  0  0  0  0  0  0  0  0  0
   -7.1743   -0.1186   -8.2747 H   0  0  0  0  0  0  0  0  0  0  0  0
   -6.2043    1.3931   -8.4429 H   0  0  0  0  0  0  0  0  0  0  0  0
    0.2316   -1.9765   -7.8803 H   0  0  0  0  0  0  0  0  0  0  0  0
    3.0593   -3.7840   -9.7639 H   0  0  0  0  0  0  0  0  0  0  0  0
  1  2  2  3
  2  3  1  0
  3  4  2  0
  3  5  1  0
  5  6  2  0
  6  7  1  0
  6  8  1  0
  8  9  1  0
  8 10  2  0
 10 11  1  0
 10 12  1  0
 12 13  1  0
 12 14  2  0
 14 15  1  0
 15 16  2  3
 16 17  1  0
 17 18  3  0
 16 19  1  0
 19 20  3  0
  1 21  1  0
 21 22  2  0
 22 23  1  0
 23 24  1  0
 24 25  2  0
 25 26  1  0
 26 27  2  0
 27 28  1  0
 27 29  1  0
 29 30  2  0
 23 31  1  0
 31 32  2  0
 32 33  1  0
 33 34  2  0
 34 35  1  0
 34 36  1  0
 36 37  2  0
 22 38  1  0
 38 39  1  0
 39 40  1  0
 40 41  2  0
 41 42  1  0
 42 43  1  0
 43 44  2  0
 44 45  1  0
 45 46  2  0
 46 47  1  0
 46 48  1  0
 48 49  2  0
 42 50  1  0
 50 51  2  0
 51 52  1  0
 52 53  2  0
 53 54  1  0
 53 55  1  0
 55 56  2  0
 41 57  1  0
 57 58  1  0
 40 59  1  0
 59 60  2  0
 60 61  1  0
 61 62  1  0
 62 63  2  0
 63 64  1  0
 64 65  2  0
 65 66  1  0
 66 67  1  0
 65 68  1  0
 68 69  2  0
 61 70  1  0
 70 71  2  0
 71 72  1  0
 72 73  2  0
 73 74  1  0
 74 75  1  0
 73 76  1  0
 76 77  2  0
 60 78  1  0
 78 79  1  0
 79 80  1  0
 80 81  2  0
 81 82  1  0
 82 83  1  0
 83 84  2  0
 84 85  1  0
 85 86  2  0
 86 87  1  0
 87 88  1  0
 86 89  1  0
 89 90  2  0
 82 91  1  0
 91 92  2  0
 92 93  1  0
 93 94  2  0
 94 95  1  0
 95 96  1  0
 94 97  1  0
 97 98  2  0
 81 99  1  0
 99100  1  0
 80101  1  0
101102  2  0
102103  1  0
103104  2  0
104105  1  0
105106  2  0
106107  1  0
107108  2  0
108109  1  0
109110  1  0
110111  1  0
109112  1  0
112113  1  0
109114  1  0
114115  1  0
108116  1  0
104117  1  0
117118  2  0
118119  1  0
119120  1  0
120121  2  0
121122  1  0
122123  2  0
123124  1  0
124125  1  0
125126  1  0
124127  1  0
127128  1  0
124129  1  0
129130  1  0
123131  1  0
119132  2  0
132133  1  0
118134  1  0
134135  2  0
135136  1  0
135137  1  0
137138  2  3
138139  1  0
139140  2  0
139141  1  0
141142  2  0
142143  1  0
142144  1  0
144145  1  0
144146  2  0
146147  1  0
146148  1  0
148149  1  0
148150  2  0
150151  1  0
151152  2  3
152153  1  0
153154  3  0
152155  1  0
155156  3  0
 15  2  1  0
 58 21  1  0
100 59  1  0
133101  1  0
151138  1  0
 14  5  1  0
 30 24  1  0
 37 31  1  0
 57 38  2  0
 69 62  1  0
 77 70  1  0
 99 78  2  0
132103  1  0
150141  1  0
 49 43  1  0
 56 50  1  0
 90 83  1  0
 98 91  1  0
116105  1  0
136117  1  0
131120  1  0
  1157  1  0
 25158  1  0
 26159  1  0
 28160  1  0
 28161  1  0
 28162  1  0
 29163  1  0
 30164  1  0
 32165  1  0
 33166  1  0
 35167  1  0
 35168  1  0
 35169  1  0
 36170  1  0
 37171  1  0
 44172  1  0
 45173  1  0
 47174  1  0
 47175  1  0
 47176  1  0
 48177  1  0
 49178  1  0
 51179  1  0
 52180  1  0
 54181  1  0
 54182  1  0
 54183  1  0
 55184  1  0
 56185  1  0
 63186  1  0
 64187  1  0
 67188  1  0
 67189  1  0
 67190  1  0
 68191  1  0
 69192  1  0
 71193  1  0
 72194  1  0
 75195  1  0
 75196  1  0
 75197  1  0
 76198  1  0
 77199  1  0
 84200  1  0
 85201  1  0
 88202  1  0
 88203  1  0
 88204  1  0
 89205  1  0
 90206  1  0
 92207  1  0
 93208  1  0
 96209  1  0
 96210  1  0
 96211  1  0
 97212  1  0
 98213  1  0
102214  1  0
106215  1  0
107216  1  0
110217  1  0
110218  1  0
111219  1  0
111220  1  0
111221  1  0
112222  1  0
112223  1  0
113224  1  0
113225  1  0
113226  1  0
114227  1  0
114228  1  0
115229  1  0
115230  1  0
115231  1  0
121232  1  0
122233  1  0
125234  1  0
125235  1  0
126236  1  0
126237  1  0
126238  1  0
127239  1  0
127240  1  0
128241  1  0
128242  1  0
128243  1  0
129244  1  0
129245  1  0
130246  1  0
130247  1  0
130248  1  0
134249  1  0
137250  1  0
M  END

