
     RDKit          3D

147161  0  0  0  0  0  0  0  0999 V2000
   -7.5658    0.7262   -1.4800 C   0  0  0  0  0  0  0  0  0  0  0  0
   -7.7203   -0.5820   -1.2199 C   0  0  0  0  0  0  0  0  0  0  0  0
   -8.9677   -1.3135   -1.4259 C   0  0  0  0  0  0  0  0  0  0  0  0
  -10.1105   -0.7997   -1.5587 O   0  0  0  0  0  0  0  0  0  0  0  0
   -8.6470   -2.7303   -1.5302 C   0  0  0  0  0  0  0  0  0  0  0  0
   -9.4741   -3.8030   -1.8841 C   0  0  0  0  0  0  0  0  0  0  0  0
  -11.2135   -3.5800   -2.0460 Cl  0  0  0  0  0  0  0  0  0  0  0  0
   -8.8777   -5.0622   -2.1068 C   0  0  0  0  0  0  0  0  0  0  0  0
   -9.8847   -6.4494   -2.5214 Cl  0  0  0  0  0  0  0  0  0  0  0  0
   -7.4708   -5.2013   -2.0546 C   0  0  0  0  0  0  0  0  0  0  0  0
   -6.7221   -6.7497   -2.4487 Cl  0  0  0  0  0  0  0  0  0  0  0  0
   -6.6589   -4.0980   -1.7128 C   0  0  0  0  0  0  0  0  0  0  0  0
   -4.9125   -4.1874   -1.9457 Cl  0  0  0  0  0  0  0  0  0  0  0  0
   -7.2810   -2.8908   -1.3536 C   0  0  0  0  0  0  0  0  0  0  0  0
   -6.6845   -1.6018   -0.9140 C   0  0  0  0  0  0  0  0  0  0  0  0
   -5.7885   -1.4856    0.1009 C   0  0  0  0  0  0  0  0  0  0  0  0
   -5.6320   -0.2600    0.8451 C   0  0  0  0  0  0  0  0  0  0  0  0
   -5.5158    0.7137    1.4599 N   0  0  0  0  0  0  0  0  0  0  0  0
   -5.1499   -2.6327    0.6950 C   0  0  0  0  0  0  0  0  0  0  0  0
   -4.6393   -3.5475    1.1881 N   0  0  0  0  0  0  0  0  0  0  0  0
   -6.2604    1.3836   -1.6314 C   0  0  0  0  0  0  0  0  0  0  0  0
   -5.9353    2.6366   -1.1433 C   0  0  0  0  0  0  0  0  0  0  0  0
   -4.5801    2.9823   -1.3315 C   0  0  0  0  0  0  0  0  0  0  0  0
   -4.0268    4.1815   -0.8709 O   0  0  0  0  0  0  0  0  0  0  0  0
   -4.7463    5.1085   -0.0623 C   0  0  0  0  0  0  0  0  0  0  0  0
   -3.8422    2.0034   -2.0146 C   0  0  0  0  0  0  0  0  0  0  0  0
   -4.8951    0.7341   -2.3612 S   0  0  0  0  0  0  0  0  0  0  0  0
   -2.3790    1.8731   -2.2217 C   0  0  0  0  0  0  0  0  0  0  0  0
   -1.3340    2.3645   -1.4058 C   0  0  0  0  0  0  0  0  0  0  0  0
   -1.3596    3.5855   -0.6505 N   0  0  0  0  0  0  0  0  0  0  0  0
   -1.2597    3.4756    0.7845 C   0  0  0  0  0  0  0  0  0  0  0  0
   -0.2492    4.1526    1.4934 C   0  0  0  0  0  0  0  0  0  0  0  0
   -0.1278    3.9924    2.8767 C   0  0  0  0  0  0  0  0  0  0  0  0
   -1.0009    3.1418    3.5651 C   0  0  0  0  0  0  0  0  0  0  0  0
   -0.8198    2.9150    5.3372 S   0  0  0  0  0  0  0  0  0  0  0  0
   -2.0708    4.1682    5.7559 C   0  0  0  0  0  0  0  0  0  0  0  0
   -1.9939    2.4480    2.8668 C   0  0  0  0  0  0  0  0  0  0  0  0
   -2.1244    2.6143    1.4839 C   0  0  0  0  0  0  0  0  0  0  0  0
   -1.1642    4.8493   -1.3506 C   0  0  0  0  0  0  0  0  0  0  0  0
   -0.7485    4.8754   -2.7018 C   0  0  0  0  0  0  0  0  0  0  0  0
   -0.6181    6.0824   -3.3900 C   0  0  0  0  0  0  0  0  0  0  0  0
   -0.8933    7.2899   -2.7483 C   0  0  0  0  0  0  0  0  0  0  0  0
   -0.7742    8.8311   -3.6613 S   0  0  0  0  0  0  0  0  0  0  0  0
    0.9961    9.0553   -3.3085 C   0  0  0  0  0  0  0  0  0  0  0  0
   -1.2946    7.2891   -1.4097 C   0  0  0  0  0  0  0  0  0  0  0  0
   -1.4248    6.0806   -0.7126 C   0  0  0  0  0  0  0  0  0  0  0  0
   -0.1438    1.6805   -1.6341 C   0  0  0  0  0  0  0  0  0  0  0  0
    1.3714    1.7317   -0.9365 S   0  0  0  0  0  0  0  0  0  0  0  0
    2.0115    0.4761   -1.9012 C   0  0  0  0  0  0  0  0  0  0  0  0
    1.0252    0.0553   -2.8227 C   0  0  0  0  0  0  0  0  0  0  0  0
    1.2500   -0.8385   -3.9353 N   0  0  0  0  0  0  0  0  0  0  0  0
    0.2143   -1.7619   -4.3253 C   0  0  0  0  0  0  0  0  0  0  0  0
   -0.4426   -2.5446   -3.3597 C   0  0  0  0  0  0  0  0  0  0  0  0
   -1.4653   -3.4188   -3.7370 C   0  0  0  0  0  0  0  0  0  0  0  0
   -1.8429   -3.5201   -5.0802 C   0  0  0  0  0  0  0  0  0  0  0  0
   -3.1375   -4.6590   -5.5728 S   0  0  0  0  0  0  0  0  0  0  0  0
   -1.9811   -6.0413   -5.8191 C   0  0  0  0  0  0  0  0  0  0  0  0
   -1.2042   -2.7359   -6.0464 C   0  0  0  0  0  0  0  0  0  0  0  0
   -0.1807   -1.8610   -5.6725 C   0  0  0  0  0  0  0  0  0  0  0  0
    2.4442   -0.7098   -4.7419 C   0  0  0  0  0  0  0  0  0  0  0  0
    3.0551   -1.8522   -5.2938 C   0  0  0  0  0  0  0  0  0  0  0  0
    4.2260   -1.7367   -6.0436 C   0  0  0  0  0  0  0  0  0  0  0  0
    4.8103   -0.4829   -6.2467 C   0  0  0  0  0  0  0  0  0  0  0  0
    6.3032   -0.3359   -7.2319 S   0  0  0  0  0  0  0  0  0  0  0  0
    7.4144   -0.6961   -5.8361 C   0  0  0  0  0  0  0  0  0  0  0  0
    4.2091    0.6597   -5.7093 C   0  0  0  0  0  0  0  0  0  0  0  0
    3.0288    0.5498   -4.9678 C   0  0  0  0  0  0  0  0  0  0  0  0
   -0.1742    0.7402   -2.6061 C   0  0  0  0  0  0  0  0  0  0  0  0
   -1.7245    0.6592   -3.2337 S   0  0  0  0  0  0  0  0  0  0  0  0
    3.2914   -0.1879   -1.5922 C   0  0  0  0  0  0  0  0  0  0  0  0
    3.6334   -1.5063   -1.8907 C   0  0  0  0  0  0  0  0  0  0  0  0
    4.7862   -1.9507   -1.2225 C   0  0  0  0  0  0  0  0  0  0  0  0
    5.3169   -3.2434   -1.3217 O   0  0  0  0  0  0  0  0  0  0  0  0
    4.7936   -4.2381   -2.1948 C   0  0  0  0  0  0  0  0  0  0  0  0
    5.3376   -0.9909   -0.3837 C   0  0  0  0  0  0  0  0  0  0  0  0
    4.4074    0.4028   -0.4786 S   0  0  0  0  0  0  0  0  0  0  0  0
    6.3291   -1.2248    0.6718 C   0  0  0  0  0  0  0  0  0  0  0  0
    6.0392   -1.9135    1.7936 C   0  0  0  0  0  0  0  0  0  0  0  0
    4.7135   -2.4455    2.1486 C   0  0  0  0  0  0  0  0  0  0  0  0
    3.7386   -2.6196    1.3693 O   0  0  0  0  0  0  0  0  0  0  0  0
    4.6780   -2.7011    3.5692 C   0  0  0  0  0  0  0  0  0  0  0  0
    3.5593   -3.1184    4.3280 C   0  0  0  0  0  0  0  0  0  0  0  0
    3.7974   -3.1702    5.6878 C   0  0  0  0  0  0  0  0  0  0  0  0
    5.0504   -2.8021    6.2798 C   0  0  0  0  0  0  0  0  0  0  0  0
    6.1468   -2.3897    5.5388 C   0  0  0  0  0  0  0  0  0  0  0  0
    5.9392   -2.3743    4.1299 C   0  0  0  0  0  0  0  0  0  0  0  0
    6.8739   -1.9920    3.0327 C   0  0  0  0  0  0  0  0  0  0  0  0
    8.2299   -1.9609    3.0969 C   0  0  0  0  0  0  0  0  0  0  0  0
    9.0517   -1.8290    1.9210 C   0  0  0  0  0  0  0  0  0  0  0  0
    9.7177   -1.7299    0.9807 N   0  0  0  0  0  0  0  0  0  0  0  0
    8.9551   -2.1968    4.3194 C   0  0  0  0  0  0  0  0  0  0  0  0
    9.5523   -2.3908    5.2921 N   0  0  0  0  0  0  0  0  0  0  0  0
    4.4961   -3.0639    7.6490 C   0  0  0  0  0  0  0  0  0  0  0  0
    4.1166   -1.8184    8.5037 C   0  0  0  0  0  0  0  0  0  0  0  0
    3.2528   -2.3361    9.6280 C   0  0  0  0  0  0  0  0  0  0  0  0
    2.0911   -2.7022    9.0741 C   0  0  0  0  0  0  0  0  0  0  0  0
    2.2097   -2.4193    7.5978 C   0  0  0  0  0  0  0  0  0  0  0  0
    3.0346   -1.1452    7.6736 C   0  0  0  0  0  0  0  0  0  0  0  0
    3.2228   -3.4592    7.0390 C   0  0  0  0  0  0  0  0  0  0  0  0
   -8.4459    1.3407   -1.6358 H   0  0  0  0  0  0  0  0  0  0  0  0
   -6.6518    3.2566   -0.6197 H   0  0  0  0  0  0  0  0  0  0  0  0
   -5.6464    5.4710   -0.6010 H   0  0  0  0  0  0  0  0  0  0  0  0
   -4.1051    5.9822    0.1650 H   0  0  0  0  0  0  0  0  0  0  0  0
   -5.0377    4.6264    0.8957 H   0  0  0  0  0  0  0  0  0  0  0  0
    0.4583    4.7830    0.9699 H   0  0  0  0  0  0  0  0  0  0  0  0
    0.6541    4.5175    3.4091 H   0  0  0  0  0  0  0  0  0  0  0  0
   -1.8329    5.1361    5.2617 H   0  0  0  0  0  0  0  0  0  0  0  0
   -2.0834    4.3159    6.8538 H   0  0  0  0  0  0  0  0  0  0  0  0
   -3.0739    3.8184    5.4264 H   0  0  0  0  0  0  0  0  0  0  0  0
   -2.6688    1.7866    3.3929 H   0  0  0  0  0  0  0  0  0  0  0  0
   -2.8955    2.0680    0.9576 H   0  0  0  0  0  0  0  0  0  0  0  0
   -0.5159    3.9639   -3.2396 H   0  0  0  0  0  0  0  0  0  0  0  0
   -0.3026    6.0736   -4.4279 H   0  0  0  0  0  0  0  0  0  0  0  0
    1.5723    8.1723   -3.6535 H   0  0  0  0  0  0  0  0  0  0  0  0
    1.3615    9.9512   -3.8536 H   0  0  0  0  0  0  0  0  0  0  0  0
    1.1506    9.2046   -2.2206 H   0  0  0  0  0  0  0  0  0  0  0  0
   -1.5211    8.2232   -0.9127 H   0  0  0  0  0  0  0  0  0  0  0  0
   -1.7509    6.1136    0.3163 H   0  0  0  0  0  0  0  0  0  0  0  0
   -0.1592   -2.4773   -2.3173 H   0  0  0  0  0  0  0  0  0  0  0  0
   -1.9624   -4.0213   -2.9858 H   0  0  0  0  0  0  0  0  0  0  0  0
   -2.5346   -6.9203   -6.2040 H   0  0  0  0  0  0  0  0  0  0  0  0
   -1.4990   -6.3189   -4.8538 H   0  0  0  0  0  0  0  0  0  0  0  0
   -1.1975   -5.7627   -6.5569 H   0  0  0  0  0  0  0  0  0  0  0  0
   -1.4934   -2.8078   -7.0857 H   0  0  0  0  0  0  0  0  0  0  0  0
    0.2978   -1.2514   -6.4281 H   0  0  0  0  0  0  0  0  0  0  0  0
    2.6303   -2.8344   -5.1290 H   0  0  0  0  0  0  0  0  0  0  0  0
    4.6862   -2.6267   -6.4587 H   0  0  0  0  0  0  0  0  0  0  0  0
    7.2178   -1.7186   -5.4498 H   0  0  0  0  0  0  0  0  0  0  0  0
    7.2669    0.0479   -5.0262 H   0  0  0  0  0  0  0  0  0  0  0  0
    8.4646   -0.6415   -6.1897 H   0  0  0  0  0  0  0  0  0  0  0  0
    4.6457    1.6364   -5.8786 H   0  0  0  0  0  0  0  0  0  0  0  0
    2.5650    1.4485   -4.5777 H   0  0  0  0  0  0  0  0  0  0  0  0
    3.0166   -2.1599   -2.4889 H   0  0  0  0  0  0  0  0  0  0  0  0
    3.7454   -4.4704   -1.9162 H   0  0  0  0  0  0  0  0  0  0  0  0
    5.4020   -5.1647   -2.0937 H   0  0  0  0  0  0  0  0  0  0  0  0
    4.8381   -3.8887   -3.2482 H   0  0  0  0  0  0  0  0  0  0  0  0
    7.2401   -0.6521    0.6007 H   0  0  0  0  0  0  0  0  0  0  0  0
    2.5950   -3.3438    3.8939 H   0  0  0  0  0  0  0  0  0  0  0  0
    7.0511   -2.0775    6.0302 H   0  0  0  0  0  0  0  0  0  0  0  0
    5.0236   -3.8785    8.1917 H   0  0  0  0  0  0  0  0  0  0  0  0
    4.9637   -1.1674    8.8162 H   0  0  0  0  0  0  0  0  0  0  0  0
    3.4813   -2.3391   10.6874 H   0  0  0  0  0  0  0  0  0  0  0  0
    1.2159   -3.0558    9.6055 H   0  0  0  0  0  0  0  0  0  0  0  0
    1.2465   -2.3420    7.0490 H   0  0  0  0  0  0  0  0  0  0  0  0
    2.5171   -0.3132    8.2114 H   0  0  0  0  0  0  0  0  0  0  0  0
    3.3828   -0.7652    6.6859 H   0  0  0  0  0  0  0  0  0  0  0  0
    2.9501   -4.5267    7.1899 H   0  0  0  0  0  0  0  0  0  0  0  0
  1  2  2  3
  2  3  1  0
  3  4  2  0
  3  5  1  0
  5  6  2  0
  6  7  1  0
  6  8  1  0
  8  9  1  0
  8 10  2  0
 10 11  1  0
 10 12  1  0
 12 13  1  0
 12 14  2  0
 14 15  1  0
 15 16  2  3
 16 17  1  0
 17 18  3  0
 16 19  1  0
 19 20  3  0
  1 21  1  0
 21 22  2  0
 22 23  1  0
 23 24  1  0
 24 25  1  0
 23 26  2  0
 26 27  1  0
 26 28  1  0
 28 29  2  0
 29 30  1  0
 30 31  1  0
 31 32  2  0
 32 33  1  0
 33 34  2  0
 34 35  1  0
 35 36  1  0
 34 37  1  0
 37 38  2  0
 30 39  1  0
 39 40  2  0
 40 41  1  0
 41 42  2  0
 42 43  1  0
 43 44  1  0
 42 45  1  0
 45 46  2  0
 29 47  1  0
 47 48  1  0
 48 49  1  0
 49 50  2  0
 50 51  1  0
 51 52  1  0
 52 53  2  0
 53 54  1  0
 54 55  2  0
 55 56  1  0
 56 57  1  0
 55 58  1  0
 58 59  2  0
 51 60  1  0
 60 61  2  0
 61 62  1  0
 62 63  2  0
 63 64  1  0
 64 65  1  0
 63 66  1  0
 66 67  2  0
 50 68  1  0
 68 69  1  0
 49 70  1  0
 70 71  2  0
 71 72  1  0
 72 73  1  0
 73 74  1  0
 72 75  2  0
 75 76  1  0
 75 77  1  0
 77 78  2  3
 78 79  1  0
 79 80  2  0
 79 81  1  0
 81 82  2  0
 82 83  1  0
 83 84  2  0
 84 85  1  0
 85 86  2  0
 86 87  1  0
 87 88  2  3
 88 89  1  0
 89 90  3  0
 88 91  1  0
 91 92  3  0
 84 93  1  0
 93 94  1  0
 94 95  1  0
 95 96  2  0
 96 97  1  0
 97 98  1  0
 97 99  1  0
 15  2  1  0
 27 21  1  0
 69 28  1  0
 76 70  1  0
 87 78  1  0
 99 93  1  0
 14  5  1  0
 38 31  1  0
 46 39  1  0
 68 47  2  0
 86 81  1  0
 98 94  1  0
 59 52  1  0
 67 60  1  0
 99 83  1  0
  1100  1  0
 22101  1  0
 25102  1  0
 25103  1  0
 25104  1  0
 32105  1  0
 33106  1  0
 36107  1  0
 36108  1  0
 36109  1  0
 37110  1  0
 38111  1  0
 40112  1  0
 41113  1  0
 44114  1  0
 44115  1  0
 44116  1  0
 45117  1  0
 46118  1  0
 53119  1  0
 54120  1  0
 57121  1  0
 57122  1  0
 57123  1  0
 58124  1  0
 59125  1  0
 61126  1  0
 62127  1  0
 65128  1  0
 65129  1  0
 65130  1  0
 66131  1  0
 67132  1  0
 71133  1  0
 74134  1  0
 74135  1  0
 74136  1  0
 77137  1  0
 82138  1  0
 85139  1  0
 93140  1  0
 94141  1  0
 95142  1  0
 96143  1  0
 97144  1  0
 98145  1  0
 98146  1  0
 99147  1  0
M  END

