
     RDKit          3D

164178  0  0  0  0  0  0  0  0999 V2000
   10.0090   -1.1663   -3.3298 C   0  0  0  0  0  0  0  0  0  0  0  0
    9.0868   -1.3748   -4.2961 C   0  0  0  0  0  0  0  0  0  0  0  0
    7.6315   -1.4715   -4.1121 C   0  0  0  0  0  0  0  0  0  0  0  0
    6.9919   -1.2072   -3.0566 O   0  0  0  0  0  0  0  0  0  0  0  0
    7.0456   -2.0372   -5.3116 C   0  0  0  0  0  0  0  0  0  0  0  0
    5.7189   -2.4262   -5.5414 C   0  0  0  0  0  0  0  0  0  0  0  0
    4.4440   -2.0008   -4.4025 Cl  0  0  0  0  0  0  0  0  0  0  0  0
    5.4328   -3.1669   -6.7036 C   0  0  0  0  0  0  0  0  0  0  0  0
    3.7724   -3.6639   -7.0405 Cl  0  0  0  0  0  0  0  0  0  0  0  0
    6.4810   -3.5719   -7.5629 C   0  0  0  0  0  0  0  0  0  0  0  0
    6.1333   -4.6229   -8.9390 Cl  0  0  0  0  0  0  0  0  0  0  0  0
    7.8114   -3.1731   -7.2981 C   0  0  0  0  0  0  0  0  0  0  0  0
    9.1401   -3.9440   -8.1699 Cl  0  0  0  0  0  0  0  0  0  0  0  0
    8.0583   -2.3077   -6.2170 C   0  0  0  0  0  0  0  0  0  0  0  0
    9.3409   -1.7404   -5.7190 C   0  0  0  0  0  0  0  0  0  0  0  0
   10.3069   -1.1846   -6.4945 C   0  0  0  0  0  0  0  0  0  0  0  0
   11.4155   -0.4524   -5.9345 C   0  0  0  0  0  0  0  0  0  0  0  0
   12.3098    0.1391   -5.4962 N   0  0  0  0  0  0  0  0  0  0  0  0
   10.1662   -1.0819   -7.9258 C   0  0  0  0  0  0  0  0  0  0  0  0
   10.0564   -0.9784   -9.0723 N   0  0  0  0  0  0  0  0  0  0  0  0
    9.6243   -0.8310   -1.9504 C   0  0  0  0  0  0  0  0  0  0  0  0
    8.9008    0.3552   -1.7086 C   0  0  0  0  0  0  0  0  0  0  0  0
    8.1652    0.4521   -0.5222 C   0  0  0  0  0  0  0  0  0  0  0  0
    7.0967    1.2621   -0.2935 N   0  0  0  0  0  0  0  0  0  0  0  0
    6.6270    2.3940   -1.1050 C   0  0  0  0  0  0  0  0  0  0  0  0
    6.7414    3.6900   -0.3120 C   0  0  0  0  0  0  0  0  0  0  0  0
    6.4451    0.6986    0.7563 C   0  0  0  0  0  0  0  0  0  0  0  0
    7.1354   -0.3916    1.2474 C   0  0  0  0  0  0  0  0  0  0  0  0
    8.2276   -0.5580    0.4248 C   0  0  0  0  0  0  0  0  0  0  0  0
    9.0564   -1.6711    0.2698 C   0  0  0  0  0  0  0  0  0  0  0  0
    9.7653   -1.8018   -0.9355 C   0  0  0  0  0  0  0  0  0  0  0  0
    6.5703   -1.2758    2.1678 C   0  0  0  0  0  0  0  0  0  0  0  0
    5.2290   -1.0784    2.5299 C   0  0  0  0  0  0  0  0  0  0  0  0
    4.4809   -0.0245    1.9566 C   0  0  0  0  0  0  0  0  0  0  0  0
    5.1074    0.9125    1.1128 C   0  0  0  0  0  0  0  0  0  0  0  0
    3.0102   -0.1003    1.9588 C   0  0  0  0  0  0  0  0  0  0  0  0
    2.3608   -0.4915    0.7727 C   0  0  0  0  0  0  0  0  0  0  0  0
    3.0802   -0.7766   -0.3451 F   0  0  0  0  0  0  0  0  0  0  0  0
    0.9736   -0.6147    0.7354 C   0  0  0  0  0  0  0  0  0  0  0  0
    0.3754   -1.0286   -0.4084 F   0  0  0  0  0  0  0  0  0  0  0  0
    0.2059   -0.2964    1.8655 C   0  0  0  0  0  0  0  0  0  0  0  0
    0.8468    0.0533    3.0658 C   0  0  0  0  0  0  0  0  0  0  0  0
    0.1332    0.2636    4.2034 N   0  0  0  0  0  0  0  0  0  0  0  0
    0.7281    0.5541    5.3916 C   0  0  0  0  0  0  0  0  0  0  0  0
   -0.1516    0.7106    6.6058 C   0  0  0  0  0  0  0  0  0  0  0  0
   -0.6442    2.1453    6.7521 C   0  0  0  0  0  0  0  0  0  0  0  0
    2.1384    0.6836    5.4365 C   0  0  0  0  0  0  0  0  0  0  0  0
    2.8483    0.4609    4.2929 N   0  0  0  0  0  0  0  0  0  0  0  0
    2.2503    0.1415    3.1156 C   0  0  0  0  0  0  0  0  0  0  0  0
    2.8734    0.9902    6.7222 C   0  0  0  0  0  0  0  0  0  0  0  0
    4.3528    1.3240    6.5053 C   0  0  0  0  0  0  0  0  0  0  0  0
   -1.2575   -0.3004    1.7649 C   0  0  0  0  0  0  0  0  0  0  0  0
   -2.0362    0.8050    1.4010 C   0  0  0  0  0  0  0  0  0  0  0  0
   -1.4845    2.0116    0.8490 N   0  0  0  0  0  0  0  0  0  0  0  0
   -0.7774    1.9399   -0.4075 C   0  0  0  0  0  0  0  0  0  0  0  0
    0.4835    2.5462   -0.5463 C   0  0  0  0  0  0  0  0  0  0  0  0
    1.2076    2.4062   -1.7339 C   0  0  0  0  0  0  0  0  0  0  0  0
    0.6742    1.6714   -2.7988 C   0  0  0  0  0  0  0  0  0  0  0  0
    1.6082    1.4785   -4.3170 S   0  0  0  0  0  0  0  0  0  0  0  0
    0.7865    2.8825   -5.1300 C   0  0  0  0  0  0  0  0  0  0  0  0
   -0.5863    1.0748   -2.6733 C   0  0  0  0  0  0  0  0  0  0  0  0
   -1.3127    1.2137   -1.4881 C   0  0  0  0  0  0  0  0  0  0  0  0
   -1.6725    3.2706    1.5228 C   0  0  0  0  0  0  0  0  0  0  0  0
   -1.8635    4.4553    0.7866 C   0  0  0  0  0  0  0  0  0  0  0  0
   -2.0061    5.6816    1.4416 C   0  0  0  0  0  0  0  0  0  0  0  0
   -1.9499    5.7400    2.8389 C   0  0  0  0  0  0  0  0  0  0  0  0
   -2.0797    7.3165    3.6846 S   0  0  0  0  0  0  0  0  0  0  0  0
   -0.2922    7.6592    3.5574 C   0  0  0  0  0  0  0  0  0  0  0  0
   -1.7824    4.5638    3.5777 C   0  0  0  0  0  0  0  0  0  0  0  0
   -1.6536    3.3344    2.9247 C   0  0  0  0  0  0  0  0  0  0  0  0
   -3.3546    0.4314    1.1961 C   0  0  0  0  0  0  0  0  0  0  0  0
   -4.6677    1.2034    0.5108 S   0  0  0  0  0  0  0  0  0  0  0  0
   -5.5631   -0.2300    0.2553 C   0  0  0  0  0  0  0  0  0  0  0  0
   -4.8182   -1.3083    0.7610 C   0  0  0  0  0  0  0  0  0  0  0  0
   -5.1826   -2.6897    0.6279 N   0  0  0  0  0  0  0  0  0  0  0  0
   -4.8618   -3.4026   -0.5905 C   0  0  0  0  0  0  0  0  0  0  0  0
   -5.6473   -4.4975   -1.0028 C   0  0  0  0  0  0  0  0  0  0  0  0
   -5.3007   -5.2354   -2.1407 C   0  0  0  0  0  0  0  0  0  0  0  0
   -4.1695   -4.8852   -2.8894 C   0  0  0  0  0  0  0  0  0  0  0  0
   -3.7074   -5.8405   -4.3406 S   0  0  0  0  0  0  0  0  0  0  0  0
   -2.5501   -6.9125   -3.4253 C   0  0  0  0  0  0  0  0  0  0  0  0
   -3.4018   -3.7794   -2.5075 C   0  0  0  0  0  0  0  0  0  0  0  0
   -3.7450   -3.0405   -1.3754 C   0  0  0  0  0  0  0  0  0  0  0  0
   -5.6038   -3.3853    1.8217 C   0  0  0  0  0  0  0  0  0  0  0  0
   -5.0933   -4.6616    2.1309 C   0  0  0  0  0  0  0  0  0  0  0  0
   -5.4840   -5.3163    3.3010 C   0  0  0  0  0  0  0  0  0  0  0  0
   -6.3849   -4.6981    4.1805 C   0  0  0  0  0  0  0  0  0  0  0  0
   -6.9125   -5.5433    5.6750 S   0  0  0  0  0  0  0  0  0  0  0  0
   -8.4367   -6.1809    4.9159 C   0  0  0  0  0  0  0  0  0  0  0  0
   -6.8702   -3.4216    3.9020 C   0  0  0  0  0  0  0  0  0  0  0  0
   -6.4872   -2.7692    2.7294 C   0  0  0  0  0  0  0  0  0  0  0  0
   -3.5993   -0.8964    1.2874 C   0  0  0  0  0  0  0  0  0  0  0  0
   -2.1987   -1.7177    1.7175 S   0  0  0  0  0  0  0  0  0  0  0  0
   -6.9544   -0.3220   -0.2388 C   0  0  0  0  0  0  0  0  0  0  0  0
   -7.6284    0.6722   -0.8540 C   0  0  0  0  0  0  0  0  0  0  0  0
   -9.0043    0.9747   -0.4784 C   0  0  0  0  0  0  0  0  0  0  0  0
   -9.7954    0.1811    0.1025 O   0  0  0  0  0  0  0  0  0  0  0  0
   -9.2795    2.3722   -0.7758 C   0  0  0  0  0  0  0  0  0  0  0  0
  -10.4445    3.1028   -0.5018 C   0  0  0  0  0  0  0  0  0  0  0  0
  -11.7708    2.3918    0.4150 Cl  0  0  0  0  0  0  0  0  0  0  0  0
  -10.5350    4.4247   -0.9690 C   0  0  0  0  0  0  0  0  0  0  0  0
  -11.9604    5.3983   -0.5976 Cl  0  0  0  0  0  0  0  0  0  0  0  0
   -9.5090    4.9609   -1.7737 C   0  0  0  0  0  0  0  0  0  0  0  0
   -9.6806    6.5904   -2.4377 Cl  0  0  0  0  0  0  0  0  0  0  0  0
   -8.3593    4.1929   -2.0753 C   0  0  0  0  0  0  0  0  0  0  0  0
   -7.3109    4.7691   -3.3687 Cl  0  0  0  0  0  0  0  0  0  0  0  0
   -8.1991    2.9260   -1.4583 C   0  0  0  0  0  0  0  0  0  0  0  0
   -7.1112    1.8921   -1.5415 C   0  0  0  0  0  0  0  0  0  0  0  0
   -5.9438    1.9626   -2.2173 C   0  0  0  0  0  0  0  0  0  0  0  0
   -5.1362    3.1526   -2.2015 C   0  0  0  0  0  0  0  0  0  0  0  0
   -4.4694    4.0961   -2.1749 N   0  0  0  0  0  0  0  0  0  0  0  0
   -5.2890    0.7705   -2.6936 C   0  0  0  0  0  0  0  0  0  0  0  0
   -4.7618   -0.1849   -3.0826 N   0  0  0  0  0  0  0  0  0  0  0  0
   11.0573   -1.3404   -3.5261 H   0  0  0  0  0  0  0  0  0  0  0  0
    8.7714    1.0721   -2.5106 H   0  0  0  0  0  0  0  0  0  0  0  0
    5.5737    2.2310   -1.4171 H   0  0  0  0  0  0  0  0  0  0  0  0
    7.2239    2.5037   -2.0299 H   0  0  0  0  0  0  0  0  0  0  0  0
    6.0584    3.6708    0.5626 H   0  0  0  0  0  0  0  0  0  0  0  0
    6.4588    4.5494   -0.9596 H   0  0  0  0  0  0  0  0  0  0  0  0
    7.7883    3.8339    0.0394 H   0  0  0  0  0  0  0  0  0  0  0  0
    9.0548   -2.4750    0.9942 H   0  0  0  0  0  0  0  0  0  0  0  0
   10.3104   -2.7176   -1.1293 H   0  0  0  0  0  0  0  0  0  0  0  0
    7.1055   -2.1527    2.5075 H   0  0  0  0  0  0  0  0  0  0  0  0
    4.7344   -1.8179    3.1451 H   0  0  0  0  0  0  0  0  0  0  0  0
    4.5221    1.6827    0.6247 H   0  0  0  0  0  0  0  0  0  0  0  0
   -1.0301    0.0370    6.4989 H   0  0  0  0  0  0  0  0  0  0  0  0
    0.3786    0.4013    7.5322 H   0  0  0  0  0  0  0  0  0  0  0  0
   -1.0618    2.5010    5.7914 H   0  0  0  0  0  0  0  0  0  0  0  0
    0.1912    2.8216    7.0432 H   0  0  0  0  0  0  0  0  0  0  0  0
   -1.4434    2.1883    7.5177 H   0  0  0  0  0  0  0  0  0  0  0  0
    2.8071    0.1032    7.3879 H   0  0  0  0  0  0  0  0  0  0  0  0
    2.4009    1.8550    7.2285 H   0  0  0  0  0  0  0  0  0  0  0  0
    4.8857    0.4559    6.0655 H   0  0  0  0  0  0  0  0  0  0  0  0
    4.8238    1.5677    7.4783 H   0  0  0  0  0  0  0  0  0  0  0  0
    4.4546    2.2037    5.8326 H   0  0  0  0  0  0  0  0  0  0  0  0
    0.9216    3.0888    0.2827 H   0  0  0  0  0  0  0  0  0  0  0  0
    2.1879    2.8588   -1.8200 H   0  0  0  0  0  0  0  0  0  0  0  0
    1.2183    3.0087   -6.1446 H   0  0  0  0  0  0  0  0  0  0  0  0
    0.9474    3.8154   -4.5507 H   0  0  0  0  0  0  0  0  0  0  0  0
   -0.2978    2.6896   -5.2330 H   0  0  0  0  0  0  0  0  0  0  0  0
   -1.0017    0.5005   -3.4894 H   0  0  0  0  0  0  0  0  0  0  0  0
   -2.2816    0.7352   -1.4077 H   0  0  0  0  0  0  0  0  0  0  0  0
   -1.9019    4.4277   -0.2958 H   0  0  0  0  0  0  0  0  0  0  0  0
   -2.1476    6.5878    0.8604 H   0  0  0  0  0  0  0  0  0  0  0  0
   -0.0080    7.7620    2.4889 H   0  0  0  0  0  0  0  0  0  0  0  0
   -0.0603    8.6132    4.0790 H   0  0  0  0  0  0  0  0  0  0  0  0
    0.2892    6.8388    4.0241 H   0  0  0  0  0  0  0  0  0  0  0  0
   -1.7471    4.5995    4.6599 H   0  0  0  0  0  0  0  0  0  0  0  0
   -1.5182    2.4326    3.5025 H   0  0  0  0  0  0  0  0  0  0  0  0
   -6.5246   -4.7813   -0.4359 H   0  0  0  0  0  0  0  0  0  0  0  0
   -5.9126   -6.0780   -2.4379 H   0  0  0  0  0  0  0  0  0  0  0  0
   -1.9478   -7.4952   -4.1496 H   0  0  0  0  0  0  0  0  0  0  0  0
   -3.1165   -7.6199   -2.7842 H   0  0  0  0  0  0  0  0  0  0  0  0
   -1.8613   -6.3140   -2.7948 H   0  0  0  0  0  0  0  0  0  0  0  0
   -2.5256   -3.5050   -3.0794 H   0  0  0  0  0  0  0  0  0  0  0  0
   -3.1115   -2.2073   -1.0987 H   0  0  0  0  0  0  0  0  0  0  0  0
   -4.3674   -5.1338    1.4800 H   0  0  0  0  0  0  0  0  0  0  0  0
   -5.0846   -6.2947    3.5282 H   0  0  0  0  0  0  0  0  0  0  0  0
   -8.9838   -6.8123    5.6508 H   0  0  0  0  0  0  0  0  0  0  0  0
   -8.1812   -6.7996    4.0297 H   0  0  0  0  0  0  0  0  0  0  0  0
   -9.0972   -5.3378    4.6169 H   0  0  0  0  0  0  0  0  0  0  0  0
   -7.5570   -2.9343    4.5856 H   0  0  0  0  0  0  0  0  0  0  0  0
   -6.8775   -1.7799    2.5247 H   0  0  0  0  0  0  0  0  0  0  0  0
   -7.5279   -1.1690    0.1246 H   0  0  0  0  0  0  0  0  0  0  0  0
  1  2  2  3
  2  3  1  0
  3  4  2  0
  3  5  1  0
  5  6  2  0
  6  7  1  0
  6  8  1  0
  8  9  1  0
  8 10  2  0
 10 11  1  0
 10 12  1  0
 12 13  1  0
 12 14  2  0
 14 15  1  0
 15 16  2  3
 16 17  1  0
 17 18  3  0
 16 19  1  0
 19 20  3  0
  1 21  1  0
 21 22  2  0
 22 23  1  0
 23 24  1  0
 24 25  1  0
 25 26  1  0
 24 27  1  0
 27 28  2  0
 28 29  1  0
 29 30  1  0
 30 31  2  0
 28 32  1  0
 32 33  2  0
 33 34  1  0
 34 35  2  0
 34 36  1  0
 36 37  2  0
 37 38  1  0
 37 39  1  0
 39 40  1  0
 39 41  2  0
 41 42  1  0
 42 43  2  0
 43 44  1  0
 44 45  1  0
 45 46  1  0
 44 47  2  0
 47 48  1  0
 48 49  2  0
 47 50  1  0
 50 51  1  0
 41 52  1  0
 52 53  2  0
 53 54  1  0
 54 55  1  0
 55 56  2  0
 56 57  1  0
 57 58  2  0
 58 59  1  0
 59 60  1  0
 58 61  1  0
 61 62  2  0
 54 63  1  0
 63 64  2  0
 64 65  1  0
 65 66  2  0
 66 67  1  0
 67 68  1  0
 66 69  1  0
 69 70  2  0
 53 71  1  0
 71 72  1  0
 72 73  1  0
 73 74  2  0
 74 75  1  0
 75 76  1  0
 76 77  2  0
 77 78  1  0
 78 79  2  0
 79 80  1  0
 80 81  1  0
 79 82  1  0
 82 83  2  0
 75 84  1  0
 84 85  2  0
 85 86  1  0
 86 87  2  0
 87 88  1  0
 88 89  1  0
 87 90  1  0
 90 91  2  0
 74 92  1  0
 92 93  1  0
 73 94  1  0
 94 95  2  3
 95 96  1  0
 96 97  2  0
 96 98  1  0
 98 99  2  0
 99100  1  0
 99101  1  0
101102  1  0
101103  2  0
103104  1  0
103105  1  0
105106  1  0
105107  2  0
107108  1  0
108109  2  3
109110  1  0
110111  3  0
109112  1  0
112113  3  0
 15  2  1  0
 31 21  1  0
 49 36  1  0
 93 52  1  0
108 95  1  0
 14  5  1  0
 29 23  2  0
 49 42  1  0
 62 55  1  0
 70 63  1  0
 92 71  2  0
107 98  1  0
 35 27  1  0
 83 76  1  0
 91 84  1  0
  1114  1  0
 22115  1  0
 25116  1  0
 25117  1  0
 26118  1  0
 26119  1  0
 26120  1  0
 30121  1  0
 31122  1  0
 32123  1  0
 33124  1  0
 35125  1  0
 45126  1  0
 45127  1  0
 46128  1  0
 46129  1  0
 46130  1  0
 50131  1  0
 50132  1  0
 51133  1  0
 51134  1  0
 51135  1  0
 56136  1  0
 57137  1  0
 60138  1  0
 60139  1  0
 60140  1  0
 61141  1  0
 62142  1  0
 64143  1  0
 65144  1  0
 68145  1  0
 68146  1  0
 68147  1  0
 69148  1  0
 70149  1  0
 77150  1  0
 78151  1  0
 81152  1  0
 81153  1  0
 81154  1  0
 82155  1  0
 83156  1  0
 85157  1  0
 86158  1  0
 89159  1  0
 89160  1  0
 89161  1  0
 90162  1  0
 91163  1  0
 94164  1  0
M  END

