
     RDKit          3D

153167  0  0  0  0  0  0  0  0999 V2000
   -5.4989    2.1848    5.2490 C   0  0  0  0  0  0  0  0  0  0  0  0
   -5.3414    2.6443    6.5041 C   0  0  0  0  0  0  0  0  0  0  0  0
   -4.0779    3.0259    7.1535 C   0  0  0  0  0  0  0  0  0  0  0  0
   -2.9586    3.1475    6.5903 O   0  0  0  0  0  0  0  0  0  0  0  0
   -4.2953    3.0608    8.5951 C   0  0  0  0  0  0  0  0  0  0  0  0
   -3.3567    3.2527    9.6171 C   0  0  0  0  0  0  0  0  0  0  0  0
   -1.7039    3.7347    9.2467 Cl  0  0  0  0  0  0  0  0  0  0  0  0
   -3.7642    3.0388   10.9495 C   0  0  0  0  0  0  0  0  0  0  0  0
   -2.6251    3.3045   12.2698 Cl  0  0  0  0  0  0  0  0  0  0  0  0
   -5.0607    2.5457   11.2253 C   0  0  0  0  0  0  0  0  0  0  0  0
   -5.5258    2.1719   12.8891 Cl  0  0  0  0  0  0  0  0  0  0  0  0
   -5.9788    2.3251   10.1737 C   0  0  0  0  0  0  0  0  0  0  0  0
   -7.4351    1.3761   10.4859 Cl  0  0  0  0  0  0  0  0  0  0  0  0
   -5.6067    2.6993    8.8651 C   0  0  0  0  0  0  0  0  0  0  0  0
   -6.3614    2.5993    7.5868 C   0  0  0  0  0  0  0  0  0  0  0  0
   -7.6786    2.9058    7.4165 C   0  0  0  0  0  0  0  0  0  0  0  0
   -8.2717    3.0297    6.1077 C   0  0  0  0  0  0  0  0  0  0  0  0
   -8.7496    3.1356    5.0593 N   0  0  0  0  0  0  0  0  0  0  0  0
   -8.4876    3.4164    8.4956 C   0  0  0  0  0  0  0  0  0  0  0  0
   -9.1409    3.8425    9.3521 N   0  0  0  0  0  0  0  0  0  0  0  0
   -4.5182    2.3270    4.1577 C   0  0  0  0  0  0  0  0  0  0  0  0
   -3.7440    3.4460    3.8697 C   0  0  0  0  0  0  0  0  0  0  0  0
   -3.0133    3.3261    2.6821 C   0  0  0  0  0  0  0  0  0  0  0  0
   -1.8552    4.5968    2.1511 S   0  0  0  0  0  0  0  0  0  0  0  0
   -0.3635    3.7046    2.7173 C   0  0  0  0  0  0  0  0  0  0  0  0
   -0.2638    3.6850    4.2392 C   0  0  0  0  0  0  0  0  0  0  0  0
   -3.2412    2.1235    2.0037 C   0  0  0  0  0  0  0  0  0  0  0  0
   -4.3387    1.2211    2.9018 S   0  0  0  0  0  0  0  0  0  0  0  0
   -2.5783    1.6668    0.7729 C   0  0  0  0  0  0  0  0  0  0  0  0
   -2.0700    0.3774    0.5427 C   0  0  0  0  0  0  0  0  0  0  0  0
   -2.0870   -0.7036    1.4838 N   0  0  0  0  0  0  0  0  0  0  0  0
   -2.9834   -1.8178    1.2510 C   0  0  0  0  0  0  0  0  0  0  0  0
   -4.1815   -1.6247    0.5327 C   0  0  0  0  0  0  0  0  0  0  0  0
   -5.0031   -2.7053    0.2039 C   0  0  0  0  0  0  0  0  0  0  0  0
   -4.6475   -4.0005    0.5892 C   0  0  0  0  0  0  0  0  0  0  0  0
   -5.6667   -5.3964    0.1082 S   0  0  0  0  0  0  0  0  0  0  0  0
   -6.5658   -5.4484    1.6888 C   0  0  0  0  0  0  0  0  0  0  0  0
   -3.4821   -4.2058    1.3300 C   0  0  0  0  0  0  0  0  0  0  0  0
   -2.6650   -3.1247    1.6797 C   0  0  0  0  0  0  0  0  0  0  0  0
   -0.9333   -0.8197    2.3377 C   0  0  0  0  0  0  0  0  0  0  0  0
    0.1860   -1.5606    1.9232 C   0  0  0  0  0  0  0  0  0  0  0  0
    1.3487   -1.5778    2.6906 C   0  0  0  0  0  0  0  0  0  0  0  0
    1.4127   -0.8478    3.8824 C   0  0  0  0  0  0  0  0  0  0  0  0
    2.9272   -0.8334    4.8425 S   0  0  0  0  0  0  0  0  0  0  0  0
    3.6203    0.5966    3.9553 C   0  0  0  0  0  0  0  0  0  0  0  0
    0.2966   -0.1178    4.3146 C   0  0  0  0  0  0  0  0  0  0  0  0
   -0.8696   -0.1023    3.5437 C   0  0  0  0  0  0  0  0  0  0  0  0
   -1.4338    0.3007   -0.6867 C   0  0  0  0  0  0  0  0  0  0  0  0
   -0.5242   -0.8771   -1.4369 S   0  0  0  0  0  0  0  0  0  0  0  0
   -0.0405    0.1023   -2.7490 C   0  0  0  0  0  0  0  0  0  0  0  0
   -0.6241    1.3833   -2.5873 C   0  0  0  0  0  0  0  0  0  0  0  0
   -0.4279    2.5176   -3.4490 N   0  0  0  0  0  0  0  0  0  0  0  0
    0.0736    3.7259   -2.8450 C   0  0  0  0  0  0  0  0  0  0  0  0
    1.2439    3.6966   -2.0688 C   0  0  0  0  0  0  0  0  0  0  0  0
    1.6978    4.8546   -1.4290 C   0  0  0  0  0  0  0  0  0  0  0  0
    0.9778    6.0516   -1.5456 C   0  0  0  0  0  0  0  0  0  0  0  0
    1.5608    7.5363   -0.7297 S   0  0  0  0  0  0  0  0  0  0  0  0
    0.6449    7.2069    0.8095 C   0  0  0  0  0  0  0  0  0  0  0  0
   -0.1925    6.0876   -2.3131 C   0  0  0  0  0  0  0  0  0  0  0  0
   -0.6453    4.9308   -2.9570 C   0  0  0  0  0  0  0  0  0  0  0  0
   -0.9938    2.5317   -4.7794 C   0  0  0  0  0  0  0  0  0  0  0  0
   -2.0646    1.6810   -5.1241 C   0  0  0  0  0  0  0  0  0  0  0  0
   -2.5876    1.6863   -6.4220 C   0  0  0  0  0  0  0  0  0  0  0  0
   -2.0541    2.5441   -7.3896 C   0  0  0  0  0  0  0  0  0  0  0  0
   -2.7430    2.5756   -9.0470 S   0  0  0  0  0  0  0  0  0  0  0  0
   -1.5808    1.3294   -9.6936 C   0  0  0  0  0  0  0  0  0  0  0  0
   -0.9934    3.3973   -7.0556 C   0  0  0  0  0  0  0  0  0  0  0  0
   -0.4611    3.3859   -5.7642 C   0  0  0  0  0  0  0  0  0  0  0  0
   -1.3931    1.4405   -1.4152 C   0  0  0  0  0  0  0  0  0  0  0  0
   -2.1930    2.6549   -0.5715 S   0  0  0  0  0  0  0  0  0  0  0  0
    1.0039   -0.3638   -3.6907 C   0  0  0  0  0  0  0  0  0  0  0  0
    1.2822    0.0233   -5.0055 C   0  0  0  0  0  0  0  0  0  0  0  0
    2.2532   -0.7858   -5.6285 C   0  0  0  0  0  0  0  0  0  0  0  0
    2.6649   -0.6485   -7.3702 S   0  0  0  0  0  0  0  0  0  0  0  0
    4.1760    0.3437   -7.0991 C   0  0  0  0  0  0  0  0  0  0  0  0
    5.2000    0.0052   -8.1727 C   0  0  0  0  0  0  0  0  0  0  0  0
    2.7881   -1.7714   -4.8026 C   0  0  0  0  0  0  0  0  0  0  0  0
    1.9796   -1.6867   -3.3383 S   0  0  0  0  0  0  0  0  0  0  0  0
    3.6353   -2.9138   -5.2054 C   0  0  0  0  0  0  0  0  0  0  0  0
    4.5013   -3.5021   -4.3542 C   0  0  0  0  0  0  0  0  0  0  0  0
    4.8932   -2.9643   -3.0448 C   0  0  0  0  0  0  0  0  0  0  0  0
    5.0153   -1.7433   -2.7504 O   0  0  0  0  0  0  0  0  0  0  0  0
    5.1744   -4.0665   -2.1555 C   0  0  0  0  0  0  0  0  0  0  0  0
    5.3830   -3.9933   -0.7592 C   0  0  0  0  0  0  0  0  0  0  0  0
    5.4657   -5.2313   -0.1475 C   0  0  0  0  0  0  0  0  0  0  0  0
    5.3453   -6.4695   -0.8624 C   0  0  0  0  0  0  0  0  0  0  0  0
    5.1464   -6.5441   -2.2330 C   0  0  0  0  0  0  0  0  0  0  0  0
    5.0716   -5.2808   -2.8856 C   0  0  0  0  0  0  0  0  0  0  0  0
    4.8070   -4.9579   -4.3187 C   0  0  0  0  0  0  0  0  0  0  0  0
    4.9893   -5.7679   -5.3914 C   0  0  0  0  0  0  0  0  0  0  0  0
    5.3122   -7.1648   -5.2576 C   0  0  0  0  0  0  0  0  0  0  0  0
    5.5694   -8.2880   -5.1624 N   0  0  0  0  0  0  0  0  0  0  0  0
    5.0856   -5.2314   -6.7242 C   0  0  0  0  0  0  0  0  0  0  0  0
    5.2139   -4.8049   -7.7931 N   0  0  0  0  0  0  0  0  0  0  0  0
    5.4851   -7.2402    0.4190 C   0  0  0  0  0  0  0  0  0  0  0  0
    6.8358   -7.9578    0.7105 C   0  0  0  0  0  0  0  0  0  0  0  0
    7.9688   -7.2022    0.0504 C   0  0  0  0  0  0  0  0  0  0  0  0
    8.0869   -6.0427    0.7054 C   0  0  0  0  0  0  0  0  0  0  0  0
    7.0274   -6.0491    1.7851 C   0  0  0  0  0  0  0  0  0  0  0  0
    7.0617   -7.5217    2.1493 C   0  0  0  0  0  0  0  0  0  0  0  0
    5.6126   -5.9698    1.1447 C   0  0  0  0  0  0  0  0  0  0  0  0
   -6.4007    1.6486    4.9965 H   0  0  0  0  0  0  0  0  0  0  0  0
   -3.7215    4.3366    4.4841 H   0  0  0  0  0  0  0  0  0  0  0  0
   -0.3541    2.6677    2.3258 H   0  0  0  0  0  0  0  0  0  0  0  0
    0.5290    4.2199    2.3105 H   0  0  0  0  0  0  0  0  0  0  0  0
   -1.0230    2.9959    4.6597 H   0  0  0  0  0  0  0  0  0  0  0  0
    0.7392    3.3199    4.5433 H   0  0  0  0  0  0  0  0  0  0  0  0
   -0.4173    4.7046    4.6479 H   0  0  0  0  0  0  0  0  0  0  0  0
   -4.4845   -0.6317    0.2148 H   0  0  0  0  0  0  0  0  0  0  0  0
   -5.9107   -2.5356   -0.3631 H   0  0  0  0  0  0  0  0  0  0  0  0
   -5.8654   -5.6758    2.5182 H   0  0  0  0  0  0  0  0  0  0  0  0
   -7.3338   -6.2527    1.6429 H   0  0  0  0  0  0  0  0  0  0  0  0
   -7.0700   -4.4756    1.8687 H   0  0  0  0  0  0  0  0  0  0  0  0
   -3.1925   -5.2101    1.6255 H   0  0  0  0  0  0  0  0  0  0  0  0
   -1.7724   -3.3285    2.2535 H   0  0  0  0  0  0  0  0  0  0  0  0
    0.1595   -2.1307    1.0026 H   0  0  0  0  0  0  0  0  0  0  0  0
    2.2084   -2.1389    2.3423 H   0  0  0  0  0  0  0  0  0  0  0  0
    2.9995    1.4951    4.1479 H   0  0  0  0  0  0  0  0  0  0  0  0
    3.6693    0.3955    2.8650 H   0  0  0  0  0  0  0  0  0  0  0  0
    4.6488    0.7825    4.3236 H   0  0  0  0  0  0  0  0  0  0  0  0
    0.3434    0.4623    5.2258 H   0  0  0  0  0  0  0  0  0  0  0  0
   -1.7136    0.4885    3.8726 H   0  0  0  0  0  0  0  0  0  0  0  0
    1.7999    2.7745   -1.9602 H   0  0  0  0  0  0  0  0  0  0  0  0
    2.6087    4.8224   -0.8377 H   0  0  0  0  0  0  0  0  0  0  0  0
    0.8546    8.0146    1.5413 H   0  0  0  0  0  0  0  0  0  0  0  0
    0.9733    6.2413    1.2421 H   0  0  0  0  0  0  0  0  0  0  0  0
   -0.4447    7.1808    0.6055 H   0  0  0  0  0  0  0  0  0  0  0  0
   -0.7579    7.0080   -2.4063 H   0  0  0  0  0  0  0  0  0  0  0  0
   -1.5675    4.9685   -3.5287 H   0  0  0  0  0  0  0  0  0  0  0  0
   -2.5025    1.0139   -4.3918 H   0  0  0  0  0  0  0  0  0  0  0  0
   -3.4123    1.0297   -6.6733 H   0  0  0  0  0  0  0  0  0  0  0  0
   -1.8398    0.3248   -9.2965 H   0  0  0  0  0  0  0  0  0  0  0  0
   -1.6461    1.3185  -10.7968 H   0  0  0  0  0  0  0  0  0  0  0  0
   -0.5390    1.5841   -9.4093 H   0  0  0  0  0  0  0  0  0  0  0  0
   -0.5752    4.0656   -7.8018 H   0  0  0  0  0  0  0  0  0  0  0  0
    0.3738    4.0354   -5.5399 H   0  0  0  0  0  0  0  0  0  0  0  0
    0.7566    0.7942   -5.5378 H   0  0  0  0  0  0  0  0  0  0  0  0
    4.6261    0.1379   -6.1057 H   0  0  0  0  0  0  0  0  0  0  0  0
    3.9202    1.4234   -7.1591 H   0  0  0  0  0  0  0  0  0  0  0  0
    4.7617    0.1234   -9.1843 H   0  0  0  0  0  0  0  0  0  0  0  0
    5.5479   -1.0395   -8.0397 H   0  0  0  0  0  0  0  0  0  0  0  0
    6.0828    0.6744   -8.0765 H   0  0  0  0  0  0  0  0  0  0  0  0
    3.3523   -3.4044   -6.1262 H   0  0  0  0  0  0  0  0  0  0  0  0
    5.4258   -3.0600   -0.2019 H   0  0  0  0  0  0  0  0  0  0  0  0
    4.9989   -7.4982   -2.7180 H   0  0  0  0  0  0  0  0  0  0  0  0
    4.5739   -7.8192    0.7001 H   0  0  0  0  0  0  0  0  0  0  0  0
    6.8418   -9.0521    0.5385 H   0  0  0  0  0  0  0  0  0  0  0  0
    8.6369   -7.5655   -0.7240 H   0  0  0  0  0  0  0  0  0  0  0  0
    8.8791   -5.3097    0.5528 H   0  0  0  0  0  0  0  0  0  0  0  0
    7.2080   -5.3473    2.6217 H   0  0  0  0  0  0  0  0  0  0  0  0
    6.2456   -7.8299    2.8453 H   0  0  0  0  0  0  0  0  0  0  0  0
    8.0430   -7.8526    2.5664 H   0  0  0  0  0  0  0  0  0  0  0  0
    4.7837   -5.7811    1.8632 H   0  0  0  0  0  0  0  0  0  0  0  0
  1  2  2  3
  2  3  1  0
  3  4  2  0
  3  5  1  0
  5  6  2  0
  6  7  1  0
  6  8  1  0
  8  9  1  0
  8 10  2  0
 10 11  1  0
 10 12  1  0
 12 13  1  0
 12 14  2  0
 14 15  1  0
 15 16  2  3
 16 17  1  0
 17 18  3  0
 16 19  1  0
 19 20  3  0
  1 21  1  0
 21 22  2  0
 22 23  1  0
 23 24  1  0
 24 25  1  0
 25 26  1  0
 23 27  2  0
 27 28  1  0
 27 29  1  0
 29 30  2  0
 30 31  1  0
 31 32  1  0
 32 33  2  0
 33 34  1  0
 34 35  2  0
 35 36  1  0
 36 37  1  0
 35 38  1  0
 38 39  2  0
 31 40  1  0
 40 41  2  0
 41 42  1  0
 42 43  2  0
 43 44  1  0
 44 45  1  0
 43 46  1  0
 46 47  2  0
 30 48  1  0
 48 49  1  0
 49 50  1  0
 50 51  2  0
 51 52  1  0
 52 53  1  0
 53 54  2  0
 54 55  1  0
 55 56  2  0
 56 57  1  0
 57 58  1  0
 56 59  1  0
 59 60  2  0
 52 61  1  0
 61 62  2  0
 62 63  1  0
 63 64  2  0
 64 65  1  0
 65 66  1  0
 64 67  1  0
 67 68  2  0
 51 69  1  0
 69 70  1  0
 50 71  1  0
 71 72  2  0
 72 73  1  0
 73 74  1  0
 74 75  1  0
 75 76  1  0
 73 77  2  0
 77 78  1  0
 77 79  1  0
 79 80  2  3
 80 81  1  0
 81 82  2  0
 81 83  1  0
 83 84  2  0
 84 85  1  0
 85 86  2  0
 86 87  1  0
 87 88  2  0
 88 89  1  0
 89 90  2  3
 90 91  1  0
 91 92  3  0
 90 93  1  0
 93 94  3  0
 86 95  1  0
 95 96  1  0
 96 97  1  0
 97 98  2  0
 98 99  1  0
 99100  1  0
 99101  1  0
 15  2  1  0
 28 21  1  0
 70 29  1  0
 78 71  1  0
 89 80  1  0
101 95  1  0
 14  5  1  0
 39 32  1  0
 47 40  1  0
 69 48  2  0
 88 83  1  0
100 96  1  0
 60 53  1  0
 68 61  1  0
101 85  1  0
  1102  1  0
 22103  1  0
 25104  1  0
 25105  1  0
 26106  1  0
 26107  1  0
 26108  1  0
 33109  1  0
 34110  1  0
 37111  1  0
 37112  1  0
 37113  1  0
 38114  1  0
 39115  1  0
 41116  1  0
 42117  1  0
 45118  1  0
 45119  1  0
 45120  1  0
 46121  1  0
 47122  1  0
 54123  1  0
 55124  1  0
 58125  1  0
 58126  1  0
 58127  1  0
 59128  1  0
 60129  1  0
 62130  1  0
 63131  1  0
 66132  1  0
 66133  1  0
 66134  1  0
 67135  1  0
 68136  1  0
 72137  1  0
 75138  1  0
 75139  1  0
 76140  1  0
 76141  1  0
 76142  1  0
 79143  1  0
 84144  1  0
 87145  1  0
 95146  1  0
 96147  1  0
 97148  1  0
 98149  1  0
 99150  1  0
100151  1  0
100152  1  0
101153  1  0
M  END

