
     RDKit          3D

174191  0  0  0  0  0  0  0  0999 V2000
    5.5588   -5.3491    2.6321 C   0  0  0  0  0  0  0  0  0  0  0  0
    6.8091   -4.9260    2.3612 C   0  0  0  0  0  0  0  0  0  0  0  0
    7.3658   -3.5982    2.6518 C   0  0  0  0  0  0  0  0  0  0  0  0
    6.7781   -2.6677    3.2614 O   0  0  0  0  0  0  0  0  0  0  0  0
    8.7833   -3.6130    2.3299 C   0  0  0  0  0  0  0  0  0  0  0  0
    9.7322   -2.5986    2.5064 C   0  0  0  0  0  0  0  0  0  0  0  0
    9.2403   -0.9774    3.0030 Cl  0  0  0  0  0  0  0  0  0  0  0  0
   11.0881   -2.9027    2.2798 C   0  0  0  0  0  0  0  0  0  0  0  0
   12.3108   -1.6392    2.4455 Cl  0  0  0  0  0  0  0  0  0  0  0  0
   11.4752   -4.2264    1.9590 C   0  0  0  0  0  0  0  0  0  0  0  0
   13.1865   -4.6201    1.7735 Cl  0  0  0  0  0  0  0  0  0  0  0  0
   10.5001   -5.2397    1.8159 C   0  0  0  0  0  0  0  0  0  0  0  0
   11.0092   -6.9269    1.7236 Cl  0  0  0  0  0  0  0  0  0  0  0  0
    9.1387   -4.8829    1.9114 C   0  0  0  0  0  0  0  0  0  0  0  0
    7.9228   -5.7272    1.7685 C   0  0  0  0  0  0  0  0  0  0  0  0
    7.7549   -6.6840    0.8156 C   0  0  0  0  0  0  0  0  0  0  0  0
    6.5158   -7.3940    0.6463 C   0  0  0  0  0  0  0  0  0  0  0  0
    5.5144   -7.9545    0.4992 N   0  0  0  0  0  0  0  0  0  0  0  0
    8.7027   -6.8358   -0.2588 C   0  0  0  0  0  0  0  0  0  0  0  0
    9.4558   -6.9307   -1.1375 N   0  0  0  0  0  0  0  0  0  0  0  0
    4.3961   -4.4467    2.7613 C   0  0  0  0  0  0  0  0  0  0  0  0
    3.1834   -4.7907    3.3624 C   0  0  0  0  0  0  0  0  0  0  0  0
    2.1733   -3.8308    3.1495 C   0  0  0  0  0  0  0  0  0  0  0  0
    0.8306   -3.8928    3.6036 C   0  0  0  0  0  0  0  0  0  0  0  0
    0.3120   -5.0708    4.3407 C   0  0  0  0  0  0  0  0  0  0  0  0
   -0.2462   -4.9164    5.6189 C   0  0  0  0  0  0  0  0  0  0  0  0
   -0.7028   -6.0316    6.3246 C   0  0  0  0  0  0  0  0  0  0  0  0
   -0.6358   -7.3047    5.7498 C   0  0  0  0  0  0  0  0  0  0  0  0
   -0.0940   -7.4684    4.4677 C   0  0  0  0  0  0  0  0  0  0  0  0
   -0.1356   -9.0839    3.6793 S   0  0  0  0  0  0  0  0  0  0  0  0
    1.4008   -9.7116    4.4461 C   0  0  0  0  0  0  0  0  0  0  0  0
    2.6204   -9.2918    3.6366 C   0  0  0  0  0  0  0  0  0  0  0  0
    0.3814   -6.3538    3.7661 C   0  0  0  0  0  0  0  0  0  0  0  0
    0.0032   -2.7906    3.2848 C   0  0  0  0  0  0  0  0  0  0  0  0
    0.4726   -1.6960    2.5500 C   0  0  0  0  0  0  0  0  0  0  0  0
    1.7882   -1.6632    2.0626 C   0  0  0  0  0  0  0  0  0  0  0  0
    2.2517   -0.5711    1.1845 C   0  0  0  0  0  0  0  0  0  0  0  0
    2.3788   -0.7892   -0.1973 C   0  0  0  0  0  0  0  0  0  0  0  0
    2.7459    0.2608   -1.0401 C   0  0  0  0  0  0  0  0  0  0  0  0
    2.9836    1.5344   -0.5095 C   0  0  0  0  0  0  0  0  0  0  0  0
    2.8663    1.7526    0.8696 C   0  0  0  0  0  0  0  0  0  0  0  0
    3.1914    3.3832    1.5447 S   0  0  0  0  0  0  0  0  0  0  0  0
    4.9818    3.0955    1.7983 C   0  0  0  0  0  0  0  0  0  0  0  0
    5.2602    2.6873    3.2401 C   0  0  0  0  0  0  0  0  0  0  0  0
    2.4872    0.7040    1.7137 C   0  0  0  0  0  0  0  0  0  0  0  0
    2.6083   -2.7474    2.3805 C   0  0  0  0  0  0  0  0  0  0  0  0
    4.2001   -2.9911    1.9271 S   0  0  0  0  0  0  0  0  0  0  0  0
   -0.5059   -0.7376    2.2766 C   0  0  0  0  0  0  0  0  0  0  0  0
   -1.7606   -1.0877    2.7500 C   0  0  0  0  0  0  0  0  0  0  0  0
   -1.6614   -2.5896    3.5336 S   0  0  0  0  0  0  0  0  0  0  0  0
   -2.9697   -0.3698    2.3138 C   0  0  0  0  0  0  0  0  0  0  0  0
   -3.4774   -0.5170    1.0038 C   0  0  0  0  0  0  0  0  0  0  0  0
   -3.1432   -1.6276    0.1430 N   0  0  0  0  0  0  0  0  0  0  0  0
   -3.3575   -2.9745    0.5979 C   0  0  0  0  0  0  0  0  0  0  0  0
   -4.5368   -3.3141    1.2793 C   0  0  0  0  0  0  0  0  0  0  0  0
   -4.7383   -4.6215    1.7229 C   0  0  0  0  0  0  0  0  0  0  0  0
   -3.7567   -5.5936    1.5175 C   0  0  0  0  0  0  0  0  0  0  0  0
   -4.0066   -7.2566    2.1355 S   0  0  0  0  0  0  0  0  0  0  0  0
   -3.4779   -6.8223    3.8219 C   0  0  0  0  0  0  0  0  0  0  0  0
   -2.5749   -5.2596    0.8409 C   0  0  0  0  0  0  0  0  0  0  0  0
   -2.3794   -3.9592    0.3748 C   0  0  0  0  0  0  0  0  0  0  0  0
   -2.6393   -1.3898   -1.1866 C   0  0  0  0  0  0  0  0  0  0  0  0
   -1.5959   -0.4752   -1.3943 C   0  0  0  0  0  0  0  0  0  0  0  0
   -1.2044   -0.1400   -2.6899 C   0  0  0  0  0  0  0  0  0  0  0  0
   -1.8452   -0.7124   -3.7917 C   0  0  0  0  0  0  0  0  0  0  0  0
   -1.3946   -0.2050   -5.4525 S   0  0  0  0  0  0  0  0  0  0  0  0
   -0.1467   -1.5156   -5.6433 C   0  0  0  0  0  0  0  0  0  0  0  0
   -2.8639   -1.6518   -3.5927 C   0  0  0  0  0  0  0  0  0  0  0  0
   -3.2562   -1.9967   -2.2941 C   0  0  0  0  0  0  0  0  0  0  0  0
   -4.0491    0.6697    0.5363 C   0  0  0  0  0  0  0  0  0  0  0  0
   -4.4638    1.1880   -0.9934 S   0  0  0  0  0  0  0  0  0  0  0  0
   -4.5264    2.8391   -0.6086 C   0  0  0  0  0  0  0  0  0  0  0  0
   -4.2293    2.9935    0.7675 C   0  0  0  0  0  0  0  0  0  0  0  0
   -4.1572    4.2603    1.4581 N   0  0  0  0  0  0  0  0  0  0  0  0
   -3.1775    4.4658    2.4982 C   0  0  0  0  0  0  0  0  0  0  0  0
   -1.8206    4.1672    2.2696 C   0  0  0  0  0  0  0  0  0  0  0  0
   -0.8789    4.3481    3.2802 C   0  0  0  0  0  0  0  0  0  0  0  0
   -1.2766    4.8238    4.5362 C   0  0  0  0  0  0  0  0  0  0  0  0
   -0.0664    5.0122    5.8451 S   0  0  0  0  0  0  0  0  0  0  0  0
   -0.2391    3.2893    6.4120 C   0  0  0  0  0  0  0  0  0  0  0  0
   -2.6210    5.1341    4.7685 C   0  0  0  0  0  0  0  0  0  0  0  0
   -3.5689    4.9637    3.7518 C   0  0  0  0  0  0  0  0  0  0  0  0
   -5.0800    5.3232    1.1268 C   0  0  0  0  0  0  0  0  0  0  0  0
   -4.6504    6.6641    1.1310 C   0  0  0  0  0  0  0  0  0  0  0  0
   -5.5381    7.6930    0.8042 C   0  0  0  0  0  0  0  0  0  0  0  0
   -6.8641    7.3951    0.4650 C   0  0  0  0  0  0  0  0  0  0  0  0
   -8.0040    8.7187    0.0615 S   0  0  0  0  0  0  0  0  0  0  0  0
   -7.5705    8.7272   -1.7070 C   0  0  0  0  0  0  0  0  0  0  0  0
   -7.3010    6.0677    0.4634 C   0  0  0  0  0  0  0  0  0  0  0  0
   -6.4161    5.0369    0.7978 C   0  0  0  0  0  0  0  0  0  0  0  0
   -3.9807    1.7420    1.3704 C   0  0  0  0  0  0  0  0  0  0  0  0
   -3.2321    1.2474    2.7900 S   0  0  0  0  0  0  0  0  0  0  0  0
   -4.4503    3.8498   -1.6985 C   0  0  0  0  0  0  0  0  0  0  0  0
   -5.2537    3.6818   -2.8447 C   0  0  0  0  0  0  0  0  0  0  0  0
   -4.9022    4.2685   -4.0839 C   0  0  0  0  0  0  0  0  0  0  0  0
   -5.7258    3.8803   -5.1903 N   0  0  0  0  0  0  0  0  0  0  0  0
   -6.7467    2.8962   -4.4579 S   0  0  0  0  0  4  0  0  0  0  0  0
   -6.3853    2.8040   -2.9041 N   0  0  0  0  0  0  0  0  0  0  0  0
   -3.7507    5.0526   -4.2096 C   0  0  0  0  0  0  0  0  0  0  0  0
   -3.0409    5.3803   -3.0439 C   0  0  0  0  0  0  0  0  0  0  0  0
   -1.9420    6.1801   -3.0555 N   0  0  0  0  0  0  0  0  0  0  0  0
   -1.4483    6.0467   -1.4866 S   0  0  0  0  0  0  0  0  0  0  0  0
   -2.5255    5.0203   -0.7649 N   0  0  0  0  0  0  0  0  0  0  0  0
   -3.3734    4.7629   -1.7945 C   0  0  0  0  0  0  0  0  0  0  0  0
   -3.2059    5.3548   -5.5456 C   0  0  0  0  0  0  0  0  0  0  0  0
   -2.0798    4.7762   -6.0216 C   0  0  0  0  0  0  0  0  0  0  0  0
   -1.1876    3.8980   -5.2503 C   0  0  0  0  0  0  0  0  0  0  0  0
   -1.4927    3.2590   -4.2111 O   0  0  0  0  0  0  0  0  0  0  0  0
    0.0643    3.7442   -5.9692 C   0  0  0  0  0  0  0  0  0  0  0  0
    1.1977    3.0191   -5.5848 C   0  0  0  0  0  0  0  0  0  0  0  0
    1.3510    2.3815   -3.9513 Cl  0  0  0  0  0  0  0  0  0  0  0  0
    2.2230    2.8353   -6.5237 C   0  0  0  0  0  0  0  0  0  0  0  0
    3.6811    1.9512   -6.0609 Cl  0  0  0  0  0  0  0  0  0  0  0  0
    2.0596    3.2977   -7.8477 C   0  0  0  0  0  0  0  0  0  0  0  0
    3.3081    2.9536   -9.0520 Cl  0  0  0  0  0  0  0  0  0  0  0  0
    0.8938    4.0074   -8.2165 C   0  0  0  0  0  0  0  0  0  0  0  0
    0.5422    4.1868   -9.9348 Cl  0  0  0  0  0  0  0  0  0  0  0  0
   -0.0453    4.3436   -7.2101 C   0  0  0  0  0  0  0  0  0  0  0  0
   -1.3578    5.0572   -7.3017 C   0  0  0  0  0  0  0  0  0  0  0  0
   -1.7243    5.9531   -8.2512 C   0  0  0  0  0  0  0  0  0  0  0  0
   -0.7523    6.7078   -9.0013 C   0  0  0  0  0  0  0  0  0  0  0  0
    0.0075    7.3308   -9.6143 N   0  0  0  0  0  0  0  0  0  0  0  0
   -3.1066    6.2743   -8.5163 C   0  0  0  0  0  0  0  0  0  0  0  0
   -4.2156    6.5268   -8.7402 N   0  0  0  0  0  0  0  0  0  0  0  0
    5.3427   -6.4035    2.6661 H   0  0  0  0  0  0  0  0  0  0  0  0
    3.0424   -5.7104    3.9131 H   0  0  0  0  0  0  0  0  0  0  0  0
   -0.3057   -3.9364    6.0739 H   0  0  0  0  0  0  0  0  0  0  0  0
   -1.1240   -5.9106    7.3142 H   0  0  0  0  0  0  0  0  0  0  0  0
   -1.0246   -8.1563    6.2883 H   0  0  0  0  0  0  0  0  0  0  0  0
    1.4962   -9.3603    5.4948 H   0  0  0  0  0  0  0  0  0  0  0  0
    1.3478  -10.8193    4.4546 H   0  0  0  0  0  0  0  0  0  0  0  0
    3.5184   -9.8158    4.0221 H   0  0  0  0  0  0  0  0  0  0  0  0
    2.4826   -9.5626    2.5685 H   0  0  0  0  0  0  0  0  0  0  0  0
    2.7793   -8.2004    3.7215 H   0  0  0  0  0  0  0  0  0  0  0  0
    0.7847   -6.4816    2.7700 H   0  0  0  0  0  0  0  0  0  0  0  0
    2.1661   -1.7637   -0.6198 H   0  0  0  0  0  0  0  0  0  0  0  0
    2.8335    0.0941   -2.1054 H   0  0  0  0  0  0  0  0  0  0  0  0
    3.2502    2.3498   -1.1678 H   0  0  0  0  0  0  0  0  0  0  0  0
    5.3836    2.3247    1.1027 H   0  0  0  0  0  0  0  0  0  0  0  0
    5.5165    4.0456    1.5853 H   0  0  0  0  0  0  0  0  0  0  0  0
    6.3485    2.4975    3.3689 H   0  0  0  0  0  0  0  0  0  0  0  0
    4.9605    3.5024    3.9299 H   0  0  0  0  0  0  0  0  0  0  0  0
    4.7048    1.7618    3.4973 H   0  0  0  0  0  0  0  0  0  0  0  0
    2.3708    0.8823    2.7743 H   0  0  0  0  0  0  0  0  0  0  0  0
   -0.3328    0.1460    1.6787 H   0  0  0  0  0  0  0  0  0  0  0  0
   -5.2992   -2.5646    1.4602 H   0  0  0  0  0  0  0  0  0  0  0  0
   -5.6499   -4.8724    2.2514 H   0  0  0  0  0  0  0  0  0  0  0  0
   -4.2550   -6.2032    4.3189 H   0  0  0  0  0  0  0  0  0  0  0  0
   -2.5276   -6.2511    3.7889 H   0  0  0  0  0  0  0  0  0  0  0  0
   -3.3264   -7.7508    4.4082 H   0  0  0  0  0  0  0  0  0  0  0  0
   -1.8088   -6.0091    0.6815 H   0  0  0  0  0  0  0  0  0  0  0  0
   -1.4568   -3.7082   -0.1369 H   0  0  0  0  0  0  0  0  0  0  0  0
   -1.1123    0.0066   -0.5542 H   0  0  0  0  0  0  0  0  0  0  0  0
   -0.4131    0.5811   -2.8338 H   0  0  0  0  0  0  0  0  0  0  0  0
    0.3268   -1.4221   -6.6408 H   0  0  0  0  0  0  0  0  0  0  0  0
   -0.6283   -2.5130   -5.5662 H   0  0  0  0  0  0  0  0  0  0  0  0
    0.6368   -1.4130   -4.8646 H   0  0  0  0  0  0  0  0  0  0  0  0
   -3.3690   -2.0950   -4.4392 H   0  0  0  0  0  0  0  0  0  0  0  0
   -4.0702   -2.6929   -2.1501 H   0  0  0  0  0  0  0  0  0  0  0  0
   -1.4984    3.7799    1.3131 H   0  0  0  0  0  0  0  0  0  0  0  0
    0.1616    4.1135    3.0940 H   0  0  0  0  0  0  0  0  0  0  0  0
   -1.2868    3.0976    6.7280 H   0  0  0  0  0  0  0  0  0  0  0  0
    0.4354    3.1190    7.2766 H   0  0  0  0  0  0  0  0  0  0  0  0
    0.0397    2.5884    5.5954 H   0  0  0  0  0  0  0  0  0  0  0  0
   -2.9325    5.5050    5.7373 H   0  0  0  0  0  0  0  0  0  0  0  0
   -4.6052    5.2047    3.9482 H   0  0  0  0  0  0  0  0  0  0  0  0
   -3.6265    6.9108    1.3741 H   0  0  0  0  0  0  0  0  0  0  0  0
   -5.1925    8.7184    0.8099 H   0  0  0  0  0  0  0  0  0  0  0  0
   -6.5040    9.0080   -1.8316 H   0  0  0  0  0  0  0  0  0  0  0  0
   -7.7542    7.7278   -2.1538 H   0  0  0  0  0  0  0  0  0  0  0  0
   -8.2011    9.4748   -2.2286 H   0  0  0  0  0  0  0  0  0  0  0  0
   -8.3286    5.8316    0.2135 H   0  0  0  0  0  0  0  0  0  0  0  0
   -6.7766    4.0184    0.8064 H   0  0  0  0  0  0  0  0  0  0  0  0
   -3.7839    6.0422   -6.1371 H   0  0  0  0  0  0  0  0  0  0  0  0
  1  2  2  3
  2  3  1  0
  3  4  2  0
  3  5  1  0
  5  6  2  0
  6  7  1  0
  6  8  1  0
  8  9  1  0
  8 10  2  0
 10 11  1  0
 10 12  1  0
 12 13  1  0
 12 14  2  0
 14 15  1  0
 15 16  2  3
 16 17  1  0
 17 18  3  0
 16 19  1  0
 19 20  3  0
  1 21  1  0
 21 22  2  0
 22 23  1  0
 23 24  2  0
 24 25  1  0
 25 26  2  0
 26 27  1  0
 27 28  2  0
 28 29  1  0
 29 30  1  0
 30 31  1  0
 31 32  1  0
 29 33  2  0
 24 34  1  0
 34 35  2  0
 35 36  1  0
 36 37  1  0
 37 38  2  0
 38 39  1  0
 39 40  2  0
 40 41  1  0
 41 42  1  0
 42 43  1  0
 43 44  1  0
 41 45  2  0
 36 46  2  0
 46 47  1  0
 35 48  1  0
 48 49  2  0
 49 50  1  0
 49 51  1  0
 51 52  2  0
 52 53  1  0
 53 54  1  0
 54 55  2  0
 55 56  1  0
 56 57  2  0
 57 58  1  0
 58 59  1  0
 57 60  1  0
 60 61  2  0
 53 62  1  0
 62 63  2  0
 63 64  1  0
 64 65  2  0
 65 66  1  0
 66 67  1  0
 65 68  1  0
 68 69  2  0
 52 70  1  0
 70 71  1  0
 71 72  1  0
 72 73  2  0
 73 74  1  0
 74 75  1  0
 75 76  2  0
 76 77  1  0
 77 78  2  0
 78 79  1  0
 79 80  1  0
 78 81  1  0
 81 82  2  0
 74 83  1  0
 83 84  2  0
 84 85  1  0
 85 86  2  0
 86 87  1  0
 87 88  1  0
 86 89  1  0
 89 90  2  0
 73 91  1  0
 91 92  1  0
 72 93  1  0
 93 94  2  0
 94 95  1  0
 95 96  1  0
 96 97  2  0
 97 98  2  0
 95 99  2  0
 99100  1  0
100101  2  0
101102  1  0
102103  1  0
103104  2  0
 99105  1  0
105106  2  3
106107  1  0
107108  2  0
107109  1  0
109110  2  0
110111  1  0
110112  1  0
112113  1  0
112114  2  0
114115  1  0
114116  1  0
116117  1  0
116118  2  0
118119  1  0
119120  2  3
120121  1  0
121122  3  0
120123  1  0
123124  3  0
 15  2  1  0
 47 21  1  0
 92 51  1  0
104 93  1  0
119106  1  0
 14  5  1  0
 46 23  1  0
 61 54  1  0
 69 62  1  0
 91 70  2  0
 98 94  1  0
104100  1  0
118109  1  0
 33 25  1  0
 50 34  1  0
 82 75  1  0
 90 83  1  0
 45 37  1  0
  1125  1  0
 22126  1  0
 26127  1  0
 27128  1  0
 28129  1  0
 31130  1  0
 31131  1  0
 32132  1  0
 32133  1  0
 32134  1  0
 33135  1  0
 38136  1  0
 39137  1  0
 40138  1  0
 43139  1  0
 43140  1  0
 44141  1  0
 44142  1  0
 44143  1  0
 45144  1  0
 48145  1  0
 55146  1  0
 56147  1  0
 59148  1  0
 59149  1  0
 59150  1  0
 60151  1  0
 61152  1  0
 63153  1  0
 64154  1  0
 67155  1  0
 67156  1  0
 67157  1  0
 68158  1  0
 69159  1  0
 76160  1  0
 77161  1  0
 80162  1  0
 80163  1  0
 80164  1  0
 81165  1  0
 82166  1  0
 84167  1  0
 85168  1  0
 88169  1  0
 88170  1  0
 88171  1  0
 89172  1  0
 90173  1  0
105174  1  0
M  END

