
     RDKit          3D

159172  0  0  0  0  0  0  0  0999 V2000
   -4.3297   -3.4847    4.4949 C   0  0  0  0  0  0  0  0  0  0  0  0
   -4.2090   -4.7855    4.2423 C   0  0  0  0  0  0  0  0  0  0  0  0
   -3.5083   -5.2970    3.0548 C   0  0  0  0  0  0  0  0  0  0  0  0
   -2.5168   -4.7276    2.5318 O   0  0  0  0  0  0  0  0  0  0  0  0
   -4.2141   -6.4369    2.5187 C   0  0  0  0  0  0  0  0  0  0  0  0
   -3.8365   -7.2211    1.3939 C   0  0  0  0  0  0  0  0  0  0  0  0
   -2.4171   -6.8181    0.3952 Cl  0  0  0  0  0  0  0  0  0  0  0  0
   -4.5983   -8.3519    1.1239 C   0  0  0  0  0  0  0  0  0  0  0  0
   -4.1931   -9.4246   -0.2121 Cl  0  0  0  0  0  0  0  0  0  0  0  0
   -5.7089   -8.7088    1.9478 C   0  0  0  0  0  0  0  0  0  0  0  0
   -6.6040  -10.1622    1.5801 Cl  0  0  0  0  0  0  0  0  0  0  0  0
   -6.0684   -7.9165    3.0727 C   0  0  0  0  0  0  0  0  0  0  0  0
   -7.2930   -8.5687    4.1424 Cl  0  0  0  0  0  0  0  0  0  0  0  0
   -5.3144   -6.7296    3.3370 C   0  0  0  0  0  0  0  0  0  0  0  0
   -5.2995   -5.7826    4.4897 C   0  0  0  0  0  0  0  0  0  0  0  0
   -6.1728   -5.6393    5.5294 C   0  0  0  0  0  0  0  0  0  0  0  0
   -5.7649   -4.9939    6.7102 C   0  0  0  0  0  0  0  0  0  0  0  0
   -5.4331   -4.4436    7.7388 N   0  0  0  0  0  0  0  0  0  0  0  0
   -7.5698   -5.9114    5.4326 C   0  0  0  0  0  0  0  0  0  0  0  0
   -8.7258   -6.1044    5.3886 N   0  0  0  0  0  0  0  0  0  0  0  0
   -3.8849   -2.3897    3.6206 C   0  0  0  0  0  0  0  0  0  0  0  0
   -4.3873   -2.2986    2.2756 C   0  0  0  0  0  0  0  0  0  0  0  0
   -5.6214   -3.4297    1.5837 S   0  0  0  0  0  0  0  0  0  0  0  0
   -6.9927   -2.6837    2.4762 C   0  0  0  0  0  0  0  0  0  0  0  0
   -7.2897   -1.2455    2.0025 C   0  0  0  0  0  0  0  0  0  0  0  0
   -3.8802   -1.3299    1.4249 C   0  0  0  0  0  0  0  0  0  0  0  0
   -3.7837   -1.7050   -0.3472 S   0  0  0  0  0  0  0  0  0  0  0  0
   -5.4636   -1.1990   -0.9655 C   0  0  0  0  0  0  0  0  0  0  0  0
   -5.4191   -1.3887   -2.4664 C   0  0  0  0  0  0  0  0  0  0  0  0
   -3.0739   -0.2904    1.9555 C   0  0  0  0  0  0  0  0  0  0  0  0
   -2.6954   -0.2431    3.3362 C   0  0  0  0  0  0  0  0  0  0  0  0
   -3.0789   -1.3545    4.1831 C   0  0  0  0  0  0  0  0  0  0  0  0
   -2.6193   -1.3392    5.6291 C   0  0  0  0  0  0  0  0  0  0  0  0
   -2.9322   -2.2443    6.4779 O   0  0  0  0  0  0  0  0  0  0  0  0
   -1.7876   -0.2347    6.1258 C   0  0  0  0  0  0  0  0  0  0  0  0
   -1.4072    0.7892    5.2787 C   0  0  0  0  0  0  0  0  0  0  0  0
   -1.8533    0.8759    3.9076 C   0  0  0  0  0  0  0  0  0  0  0  0
   -1.5292    1.9134    3.2656 O   0  0  0  0  0  0  0  0  0  0  0  0
   -0.5996    1.7492    5.9138 C   0  0  0  0  0  0  0  0  0  0  0  0
   -0.3835    1.2977    7.5125 S   0  0  0  0  0  0  0  0  0  0  0  0
   -1.3059   -0.1149    7.4202 C   0  0  0  0  0  0  0  0  0  0  0  0
   -2.4945    0.6482    1.0281 C   0  0  0  0  0  0  0  0  0  0  0  0
   -1.0754    0.5893    0.7736 C   0  0  0  0  0  0  0  0  0  0  0  0
   -0.2775   -0.3112    1.3665 N   0  0  0  0  0  0  0  0  0  0  0  0
    1.0812   -0.1795    1.2881 C   0  0  0  0  0  0  0  0  0  0  0  0
    1.9630   -1.2838    1.6186 C   0  0  0  0  0  0  0  0  0  0  0  0
    2.0201   -1.9124    2.8802 C   0  0  0  0  0  0  0  0  0  0  0  0
    2.9287   -2.9707    3.1065 C   0  0  0  0  0  0  0  0  0  0  0  0
    3.7885   -3.3581    2.0570 C   0  0  0  0  0  0  0  0  0  0  0  0
    4.6232   -4.4739    2.1594 O   0  0  0  0  0  0  0  0  0  0  0  0
    4.1281   -5.7986    1.8855 C   0  0  0  0  0  0  0  0  0  0  0  0
    3.5839   -5.9287    0.4429 C   0  0  0  0  0  0  0  0  0  0  0  0
    3.7835   -2.6701    0.8274 C   0  0  0  0  0  0  0  0  0  0  0  0
    2.8788   -1.7077    0.6097 C   0  0  0  0  0  0  0  0  0  0  0  0
    2.8445   -1.1225   -0.6223 F   0  0  0  0  0  0  0  0  0  0  0  0
    4.5989   -3.0772   -0.1875 F   0  0  0  0  0  0  0  0  0  0  0  0
    2.9723   -3.6292    4.2919 F   0  0  0  0  0  0  0  0  0  0  0  0
    1.2295   -1.4465    3.8930 F   0  0  0  0  0  0  0  0  0  0  0  0
    1.5970    0.9601    0.6146 C   0  0  0  0  0  0  0  0  0  0  0  0
    2.9458    1.4584    0.9287 C   0  0  0  0  0  0  0  0  0  0  0  0
    3.8421    1.9218   -0.0650 C   0  0  0  0  0  0  0  0  0  0  0  0
    3.6298    1.6465   -1.3866 F   0  0  0  0  0  0  0  0  0  0  0  0
    4.9864    2.6371    0.3108 C   0  0  0  0  0  0  0  0  0  0  0  0
    5.8130    3.1146   -0.6731 F   0  0  0  0  0  0  0  0  0  0  0  0
    5.2052    2.9079    1.6573 C   0  0  0  0  0  0  0  0  0  0  0  0
    6.1908    3.8022    2.0726 O   0  0  0  0  0  0  0  0  0  0  0  0
    5.9438    5.1944    2.0159 C   0  0  0  0  0  0  0  0  0  0  0  0
    4.8085    5.6130    2.9562 C   0  0  0  0  0  0  0  0  0  0  0  0
    4.3686    2.3597    2.6497 C   0  0  0  0  0  0  0  0  0  0  0  0
    4.5203    2.6851    3.9541 F   0  0  0  0  0  0  0  0  0  0  0  0
    3.2270    1.6959    2.2864 C   0  0  0  0  0  0  0  0  0  0  0  0
    2.3223    1.3793    3.2636 F   0  0  0  0  0  0  0  0  0  0  0  0
    0.8126    1.7282   -0.0986 N   0  0  0  0  0  0  0  0  0  0  0  0
   -0.5567    1.5417   -0.0789 C   0  0  0  0  0  0  0  0  0  0  0  0
   -1.3515    2.4390   -0.8440 C   0  0  0  0  0  0  0  0  0  0  0  0
   -2.7366    2.4915   -0.5217 C   0  0  0  0  0  0  0  0  0  0  0  0
   -3.2937    1.5876    0.4168 C   0  0  0  0  0  0  0  0  0  0  0  0
   -4.6347    1.6246    0.6795 F   0  0  0  0  0  0  0  0  0  0  0  0
   -3.5058    3.4360   -1.1178 F   0  0  0  0  0  0  0  0  0  0  0  0
   -0.7387    3.1332   -2.0054 C   0  0  0  0  0  0  0  0  0  0  0  0
   -0.8183    2.4664   -3.2513 C   0  0  0  0  0  0  0  0  0  0  0  0
   -2.0376    1.0841   -3.4507 S   0  0  0  0  0  0  0  0  0  0  0  0
   -3.6220    1.9282   -4.0358 C   0  0  0  0  0  0  0  0  0  0  0  0
   -3.6722    1.8555   -5.5605 C   0  0  0  0  0  0  0  0  0  0  0  0
    0.3150    2.4670   -4.0907 C   0  0  0  0  0  0  0  0  0  0  0  0
    0.3460    1.3377   -5.5163 S   0  0  0  0  0  0  0  0  0  0  0  0
   -0.3757    2.3382   -6.8933 C   0  0  0  0  0  0  0  0  0  0  0  0
    0.6574    3.2252   -7.5207 C   0  0  0  0  0  0  0  0  0  0  0  0
    1.5602    3.0639   -3.6520 C   0  0  0  0  0  0  0  0  0  0  0  0
    1.5517    3.9032   -2.4788 C   0  0  0  0  0  0  0  0  0  0  0  0
    0.3751    4.0386   -1.6561 C   0  0  0  0  0  0  0  0  0  0  0  0
    0.3572    4.8395   -0.3500 C   0  0  0  0  0  0  0  0  0  0  0  0
   -0.5939    4.8032    0.4592 O   0  0  0  0  0  0  0  0  0  0  0  0
    1.5606    5.6707   -0.0308 C   0  0  0  0  0  0  0  0  0  0  0  0
    2.6919    5.6392   -0.8756 C   0  0  0  0  0  0  0  0  0  0  0  0
    2.7936    4.6757   -2.0458 C   0  0  0  0  0  0  0  0  0  0  0  0
    3.8999    4.5765   -2.6264 O   0  0  0  0  0  0  0  0  0  0  0  0
    3.6034    6.6393   -0.4241 C   0  0  0  0  0  0  0  0  0  0  0  0
    2.9671    7.4891    0.9179 S   0  0  0  0  0  0  0  0  0  0  0  0
    1.5763    6.5926    1.0402 C   0  0  0  0  0  0  0  0  0  0  0  0
    2.6870    2.8978   -4.6143 C   0  0  0  0  0  0  0  0  0  0  0  0
    3.6759    1.9591   -4.6474 C   0  0  0  0  0  0  0  0  0  0  0  0
    4.9581    2.2992   -5.2736 C   0  0  0  0  0  0  0  0  0  0  0  0
    5.3406    3.4677   -5.4468 O   0  0  0  0  0  0  0  0  0  0  0  0
    5.7321    1.1288   -5.5474 C   0  0  0  0  0  0  0  0  0  0  0  0
    7.1012    1.1008   -5.9114 C   0  0  0  0  0  0  0  0  0  0  0  0
    7.6992   -0.1659   -5.9639 C   0  0  0  0  0  0  0  0  0  0  0  0
    6.9581   -1.3357   -5.6379 C   0  0  0  0  0  0  0  0  0  0  0  0
    7.6394   -2.6552   -5.5216 C   0  0  0  0  0  0  0  0  0  0  0  0
    5.6190   -1.2628   -5.2749 C   0  0  0  0  0  0  0  0  0  0  0  0
    4.9981   -0.0172   -5.1865 C   0  0  0  0  0  0  0  0  0  0  0  0
    3.6912    0.3930   -4.5587 C   0  0  0  0  0  0  0  0  0  0  0  0
    2.7341   -0.5248   -4.1600 C   0  0  0  0  0  0  0  0  0  0  0  0
    2.8046   -1.9280   -4.3629 C   0  0  0  0  0  0  0  0  0  0  0  0
    2.8006   -3.1084   -4.4741 N   0  0  0  0  0  0  0  0  0  0  0  0
    1.6176   -0.2025   -3.2314 C   0  0  0  0  0  0  0  0  0  0  0  0
    0.8063   -0.0168   -2.4994 N   0  0  0  0  0  0  0  0  0  0  0  0
   -4.9757   -3.0846    5.2784 H   0  0  0  0  0  0  0  0  0  0  0  0
   -6.8102   -2.7257    3.5584 H   0  0  0  0  0  0  0  0  0  0  0  0
   -7.8845   -3.2996    2.2612 H   0  0  0  0  0  0  0  0  0  0  0  0
   -7.8664   -1.2697    1.0680 H   0  0  0  0  0  0  0  0  0  0  0  0
   -6.3553   -0.6673    1.7860 H   0  0  0  0  0  0  0  0  0  0  0  0
   -7.8202   -0.7272    2.8050 H   0  0  0  0  0  0  0  0  0  0  0  0
   -5.7293   -0.1626   -0.7161 H   0  0  0  0  0  0  0  0  0  0  0  0
   -6.2723   -1.8481   -0.5930 H   0  0  0  0  0  0  0  0  0  0  0  0
   -5.5458   -2.4615   -2.6976 H   0  0  0  0  0  0  0  0  0  0  0  0
   -6.2517   -0.8279   -2.9641 H   0  0  0  0  0  0  0  0  0  0  0  0
   -4.4789   -1.0242   -2.8748 H   0  0  0  0  0  0  0  0  0  0  0  0
   -0.2055    2.6107    5.4418 H   0  0  0  0  0  0  0  0  0  0  0  0
   -1.4632   -0.7818    8.2239 H   0  0  0  0  0  0  0  0  0  0  0  0
    4.9983   -6.4849    1.9971 H   0  0  0  0  0  0  0  0  0  0  0  0
    3.3472   -6.0514    2.6008 H   0  0  0  0  0  0  0  0  0  0  0  0
    2.8815   -5.1162    0.1874 H   0  0  0  0  0  0  0  0  0  0  0  0
    4.4275   -5.9945   -0.2691 H   0  0  0  0  0  0  0  0  0  0  0  0
    3.0410   -6.8904    0.3526 H   0  0  0  0  0  0  0  0  0  0  0  0
    5.6929    5.4909    0.9770 H   0  0  0  0  0  0  0  0  0  0  0  0
    6.8983    5.6972    2.3188 H   0  0  0  0  0  0  0  0  0  0  0  0
    4.6262    6.6914    2.9121 H   0  0  0  0  0  0  0  0  0  0  0  0
    5.0788    5.3284    4.0060 H   0  0  0  0  0  0  0  0  0  0  0  0
    3.8497    5.0904    2.6844 H   0  0  0  0  0  0  0  0  0  0  0  0
   -4.4764    1.3323   -3.6564 H   0  0  0  0  0  0  0  0  0  0  0  0
   -3.7032    2.9330   -3.6766 H   0  0  0  0  0  0  0  0  0  0  0  0
   -2.8983    1.1693   -5.9651 H   0  0  0  0  0  0  0  0  0  0  0  0
   -3.4896    2.8565   -6.0194 H   0  0  0  0  0  0  0  0  0  0  0  0
   -4.6761    1.5061   -5.8766 H   0  0  0  0  0  0  0  0  0  0  0  0
   -1.2603    2.8857   -6.6107 H   0  0  0  0  0  0  0  0  0  0  0  0
   -0.6989    1.5771   -7.6402 H   0  0  0  0  0  0  0  0  0  0  0  0
    0.9646    4.0598   -6.8109 H   0  0  0  0  0  0  0  0  0  0  0  0
    0.1991    3.7432   -8.3854 H   0  0  0  0  0  0  0  0  0  0  0  0
    1.5325    2.6706   -7.8625 H   0  0  0  0  0  0  0  0  0  0  0  0
    4.5170    6.7704   -0.8625 H   0  0  0  0  0  0  0  0  0  0  0  0
    0.8034    6.7177    1.7478 H   0  0  0  0  0  0  0  0  0  0  0  0
    2.7477    3.7858   -5.2605 H   0  0  0  0  0  0  0  0  0  0  0  0
    7.6333    2.0391   -6.0752 H   0  0  0  0  0  0  0  0  0  0  0  0
    8.7273   -0.2655   -6.2418 H   0  0  0  0  0  0  0  0  0  0  0  0
    8.2260   -2.8294   -6.4528 H   0  0  0  0  0  0  0  0  0  0  0  0
    6.8947   -3.5096   -5.5108 H   0  0  0  0  0  0  0  0  0  0  0  0
    8.2357   -2.6822   -4.6154 H   0  0  0  0  0  0  0  0  0  0  0  0
    5.1422   -2.1669   -4.9892 H   0  0  0  0  0  0  0  0  0  0  0  0
  1  2  2  3
  2  3  1  0
  3  4  2  0
  3  5  1  0
  5  6  2  0
  6  7  1  0
  6  8  1  0
  8  9  1  0
  8 10  2  0
 10 11  1  0
 10 12  1  0
 12 13  1  0
 12 14  2  0
 14 15  1  0
 15 16  2  3
 16 17  1  0
 17 18  3  0
 16 19  1  0
 19 20  3  0
  1 21  1  0
 21 22  2  0
 22 23  1  0
 23 24  1  0
 24 25  1  0
 22 26  1  0
 26 27  1  0
 27 28  1  0
 28 29  1  0
 26 30  2  0
 30 31  1  0
 31 32  2  0
 32 33  1  0
 33 34  2  0
 33 35  1  0
 35 36  1  0
 36 37  1  0
 37 38  2  0
 36 39  2  0
 39 40  1  0
 40 41  1  0
 30 42  1  0
 42 43  1  0
 43 44  2  0
 44 45  1  0
 45 46  1  0
 46 47  2  0
 47 48  1  0
 48 49  2  0
 49 50  1  0
 50 51  1  0
 51 52  1  0
 49 53  1  0
 53 54  2  0
 54 55  1  0
 53 56  1  0
 48 57  1  0
 47 58  1  0
 45 59  2  0
 59 60  1  0
 60 61  2  0
 61 62  1  0
 61 63  1  0
 63 64  1  0
 63 65  2  0
 65 66  1  0
 66 67  1  0
 67 68  1  0
 65 69  1  0
 69 70  1  0
 69 71  2  0
 71 72  1  0
 59 73  1  0
 73 74  2  0
 74 75  1  0
 75 76  2  0
 76 77  1  0
 77 78  1  0
 76 79  1  0
 75 80  1  0
 80 81  2  0
 81 82  1  0
 82 83  1  0
 83 84  1  0
 81 85  1  0
 85 86  1  0
 86 87  1  0
 87 88  1  0
 85 89  2  0
 89 90  1  0
 90 91  2  0
 91 92  1  0
 92 93  2  0
 92 94  1  0
 94 95  1  0
 95 96  1  0
 96 97  2  0
 95 98  2  0
 98 99  1  0
 99100  1  0
 89101  1  0
101102  2  3
102103  1  0
103104  2  0
103105  1  0
105106  2  0
106107  1  0
107108  2  0
108109  1  0
108110  1  0
110111  2  0
111112  1  0
112113  2  3
113114  1  0
114115  3  0
113116  1  0
116117  3  0
 15  2  1  0
 32 21  1  0
 41 35  2  0
 77 42  2  0
 91 80  1  0
100 94  2  0
112102  1  0
 14  5  1  0
 37 31  1  0
 74 43  1  0
 96 90  1  0
111105  1  0
 54 46  1  0
 71 60  1  0
  1118  1  0
 24119  1  0
 24120  1  0
 25121  1  0
 25122  1  0
 25123  1  0
 28124  1  0
 28125  1  0
 29126  1  0
 29127  1  0
 29128  1  0
 39129  1  0
 41130  1  0
 51131  1  0
 51132  1  0
 52133  1  0
 52134  1  0
 52135  1  0
 67136  1  0
 67137  1  0
 68138  1  0
 68139  1  0
 68140  1  0
 83141  1  0
 83142  1  0
 84143  1  0
 84144  1  0
 84145  1  0
 87146  1  0
 87147  1  0
 88148  1  0
 88149  1  0
 88150  1  0
 98151  1  0
100152  1  0
101153  1  0
106154  1  0
107155  1  0
109156  1  0
109157  1  0
109158  1  0
110159  1  0
M  END

