
     RDKit          3D

177191  0  0  0  0  0  0  0  0999 V2000
    0.4583   -7.5883   -0.7489 C   0  0  0  0  0  0  0  0  0  0  0  0
    1.7737   -7.6092   -1.0654 C   0  0  0  0  0  0  0  0  0  0  0  0
    2.6323   -6.4338   -1.2892 C   0  0  0  0  0  0  0  0  0  0  0  0
    2.2602   -5.2357   -1.2871 O   0  0  0  0  0  0  0  0  0  0  0  0
    3.9968   -6.8721   -1.5182 C   0  0  0  0  0  0  0  0  0  0  0  0
    5.1582   -6.0950   -1.6396 C   0  0  0  0  0  0  0  0  0  0  0  0
    5.0667   -4.3329   -1.6963 Cl  0  0  0  0  0  0  0  0  0  0  0  0
    6.4017   -6.7523   -1.6635 C   0  0  0  0  0  0  0  0  0  0  0  0
    7.8857   -5.8161   -1.8574 Cl  0  0  0  0  0  0  0  0  0  0  0  0
    6.4658   -8.1489   -1.4613 C   0  0  0  0  0  0  0  0  0  0  0  0
    8.0366   -8.9466   -1.3439 Cl  0  0  0  0  0  0  0  0  0  0  0  0
    5.2824   -8.9043   -1.3052 C   0  0  0  0  0  0  0  0  0  0  0  0
    5.3883  -10.5574   -0.7030 Cl  0  0  0  0  0  0  0  0  0  0  0  0
    4.0401   -8.2533   -1.4509 C   0  0  0  0  0  0  0  0  0  0  0  0
    2.6560   -8.7954   -1.3065 C   0  0  0  0  0  0  0  0  0  0  0  0
    2.2528  -10.0187   -1.7342 C   0  0  0  0  0  0  0  0  0  0  0  0
    0.9789  -10.5909   -1.3863 C   0  0  0  0  0  0  0  0  0  0  0  0
   -0.0357  -11.0693   -1.0937 N   0  0  0  0  0  0  0  0  0  0  0  0
    3.0612  -10.8107   -2.6242 C   0  0  0  0  0  0  0  0  0  0  0  0
    3.6993  -11.4512   -3.3506 N   0  0  0  0  0  0  0  0  0  0  0  0
   -0.3075   -6.3322   -0.5484 C   0  0  0  0  0  0  0  0  0  0  0  0
   -1.3375   -5.9877   -1.4468 C   0  0  0  0  0  0  0  0  0  0  0  0
   -1.8573   -7.1708   -2.7191 S   0  0  0  0  0  0  0  0  0  0  0  0
   -3.3226   -7.8279   -1.8450 C   0  0  0  0  0  0  0  0  0  0  0  0
   -2.9444   -8.8910   -0.8267 C   0  0  0  0  0  0  0  0  0  0  0  0
   -1.8462   -4.6734   -1.4531 C   0  0  0  0  0  0  0  0  0  0  0  0
   -3.2653   -4.2517   -2.4879 S   0  0  0  0  0  0  0  0  0  0  0  0
   -4.6381   -4.3544   -1.2568 C   0  0  0  0  0  0  0  0  0  0  0  0
   -4.2423   -4.5787    0.2070 C   0  0  0  0  0  0  0  0  0  0  0  0
   -1.2139   -3.6684   -0.6905 C   0  0  0  0  0  0  0  0  0  0  0  0
   -0.2372   -4.0384    0.2814 C   0  0  0  0  0  0  0  0  0  0  0  0
    0.0783   -5.4125    0.4555 C   0  0  0  0  0  0  0  0  0  0  0  0
    0.8818   -5.8481    1.6439 C   0  0  0  0  0  0  0  0  0  0  0  0
    1.0206   -7.0685    1.9287 O   0  0  0  0  0  0  0  0  0  0  0  0
    1.4519   -4.8318    2.5359 C   0  0  0  0  0  0  0  0  0  0  0  0
    1.2833   -3.4765    2.2661 C   0  0  0  0  0  0  0  0  0  0  0  0
    0.5337   -3.0326    1.0857 C   0  0  0  0  0  0  0  0  0  0  0  0
    0.6389   -1.8359    0.7210 O   0  0  0  0  0  0  0  0  0  0  0  0
    1.8996   -2.6345    3.1859 C   0  0  0  0  0  0  0  0  0  0  0  0
    2.6403   -3.6110    4.3385 S   0  0  0  0  0  0  0  0  0  0  0  0
    2.1975   -5.0931    3.6788 C   0  0  0  0  0  0  0  0  0  0  0  0
   -1.5358   -2.2375   -0.9471 C   0  0  0  0  0  0  0  0  0  0  0  0
   -0.7762   -1.4412   -1.8142 C   0  0  0  0  0  0  0  0  0  0  0  0
   -0.4950   -1.8420   -3.1653 N   0  0  0  0  0  0  0  0  0  0  0  0
   -1.5449   -1.8339   -4.1735 C   0  0  0  0  0  0  0  0  0  0  0  0
   -1.3426   -2.4282   -5.4383 C   0  0  0  0  0  0  0  0  0  0  0  0
   -2.3690   -2.4612   -6.3863 C   0  0  0  0  0  0  0  0  0  0  0  0
   -3.6131   -1.9004   -6.0943 C   0  0  0  0  0  0  0  0  0  0  0  0
   -4.9369   -1.9619   -7.3047 S   0  0  0  0  0  0  0  0  0  0  0  0
   -4.5288   -0.3405   -8.0161 C   0  0  0  0  0  0  0  0  0  0  0  0
   -3.8307   -1.3007   -4.8529 C   0  0  0  0  0  0  0  0  0  0  0  0
   -2.8078   -1.2592   -3.9044 C   0  0  0  0  0  0  0  0  0  0  0  0
    0.8494   -2.1869   -3.5226 C   0  0  0  0  0  0  0  0  0  0  0  0
    1.7189   -1.2010   -4.0064 C   0  0  0  0  0  0  0  0  0  0  0  0
    2.9666   -1.5590   -4.5252 C   0  0  0  0  0  0  0  0  0  0  0  0
    3.3401   -2.9071   -4.5887 C   0  0  0  0  0  0  0  0  0  0  0  0
    4.9077   -3.3782   -5.3204 S   0  0  0  0  0  0  0  0  0  0  0  0
    4.2142   -3.5256   -6.9999 C   0  0  0  0  0  0  0  0  0  0  0  0
    2.4783   -3.8913   -4.0929 C   0  0  0  0  0  0  0  0  0  0  0  0
    1.2360   -3.5330   -3.5629 C   0  0  0  0  0  0  0  0  0  0  0  0
   -0.8295   -0.0969   -1.4485 C   0  0  0  0  0  0  0  0  0  0  0  0
    0.4027    1.0245   -1.4648 S   0  0  0  0  0  0  0  0  0  0  0  0
   -0.2103    2.0142   -0.2220 C   0  0  0  0  0  0  0  0  0  0  0  0
   -1.4457    1.4541    0.2091 C   0  0  0  0  0  0  0  0  0  0  0  0
   -2.3454    2.0289    1.2006 N   0  0  0  0  0  0  0  0  0  0  0  0
   -3.5937    1.3795    1.4789 C   0  0  0  0  0  0  0  0  0  0  0  0
   -4.6952    1.6082    0.6418 C   0  0  0  0  0  0  0  0  0  0  0  0
   -5.9044    0.9493    0.8771 C   0  0  0  0  0  0  0  0  0  0  0  0
   -6.0161    0.0474    1.9443 C   0  0  0  0  0  0  0  0  0  0  0  0
   -7.5482   -0.8508    2.1914 S   0  0  0  0  0  0  0  0  0  0  0  0
   -7.0150   -2.2547    1.1670 C   0  0  0  0  0  0  0  0  0  0  0  0
   -4.9222   -0.1657    2.7966 C   0  0  0  0  0  0  0  0  0  0  0  0
   -3.7137    0.5023    2.5676 C   0  0  0  0  0  0  0  0  0  0  0  0
   -2.2833    3.4153    1.5788 C   0  0  0  0  0  0  0  0  0  0  0  0
   -2.3789    4.4261    0.6072 C   0  0  0  0  0  0  0  0  0  0  0  0
   -2.3981    5.7712    0.9887 C   0  0  0  0  0  0  0  0  0  0  0  0
   -2.3333    6.1162    2.3389 C   0  0  0  0  0  0  0  0  0  0  0  0
   -2.3412    7.8431    2.8275 S   0  0  0  0  0  0  0  0  0  0  0  0
   -4.1513    7.9335    2.9690 C   0  0  0  0  0  0  0  0  0  0  0  0
   -2.2760    5.1130    3.3146 C   0  0  0  0  0  0  0  0  0  0  0  0
   -2.2666    3.7704    2.9350 C   0  0  0  0  0  0  0  0  0  0  0  0
   -1.6718    0.2155   -0.4231 C   0  0  0  0  0  0  0  0  0  0  0  0
   -2.2972   -1.2216    0.1833 S   0  0  0  0  0  0  0  0  0  0  0  0
    0.6508    2.9928    0.5222 C   0  0  0  0  0  0  0  0  0  0  0  0
    1.4254    3.9615   -0.1737 C   0  0  0  0  0  0  0  0  0  0  0  0
    1.5539    3.9518   -1.9910 S   0  0  0  0  0  0  0  0  0  0  0  0
   -0.1028    4.6161   -2.3883 C   0  0  0  0  0  0  0  0  0  0  0  0
   -0.2980    6.0488   -1.9148 C   0  0  0  0  0  0  0  0  0  0  0  0
    2.2237    4.8804    0.5476 C   0  0  0  0  0  0  0  0  0  0  0  0
    3.7221    5.5694   -0.2254 S   0  0  0  0  0  0  0  0  0  0  0  0
    2.9792    6.9293   -1.1799 C   0  0  0  0  0  0  0  0  0  0  0  0
    4.0035    8.0414   -1.3649 C   0  0  0  0  0  0  0  0  0  0  0  0
    2.0768    4.9944    1.9502 C   0  0  0  0  0  0  0  0  0  0  0  0
    1.4274    3.9497    2.6668 C   0  0  0  0  0  0  0  0  0  0  0  0
    0.8087    2.8898    1.9357 C   0  0  0  0  0  0  0  0  0  0  0  0
    0.4057    1.6537    2.6867 C   0  0  0  0  0  0  0  0  0  0  0  0
    0.3104    0.5322    2.1159 O   0  0  0  0  0  0  0  0  0  0  0  0
    0.2103    1.7220    4.1354 C   0  0  0  0  0  0  0  0  0  0  0  0
    0.6946    2.8062    4.8516 C   0  0  0  0  0  0  0  0  0  0  0  0
    1.4601    3.8584    4.1712 C   0  0  0  0  0  0  0  0  0  0  0  0
    2.1785    4.6193    4.8711 O   0  0  0  0  0  0  0  0  0  0  0  0
    0.4599    2.7323    6.2223 C   0  0  0  0  0  0  0  0  0  0  0  0
   -0.3567    1.2884    6.5094 S   0  0  0  0  0  0  0  0  0  0  0  0
   -0.4077    0.7514    4.9150 C   0  0  0  0  0  0  0  0  0  0  0  0
    2.7801    6.1010    2.6665 C   0  0  0  0  0  0  0  0  0  0  0  0
    4.0253    6.0099    3.1344 C   0  0  0  0  0  0  0  0  0  0  0  0
    4.8574    4.8347    3.0076 C   0  0  0  0  0  0  0  0  0  0  0  0
    5.5161    3.8876    2.9086 N   0  0  0  0  0  0  0  0  0  0  0  0
    4.3067    7.2184    3.9039 C   0  0  0  0  0  0  0  0  0  0  0  0
    5.4017    7.5255    4.6133 C   0  0  0  0  0  0  0  0  0  0  0  0
    6.5203    6.6257    4.7342 C   0  0  0  0  0  0  0  0  0  0  0  0
    7.4210    5.9023    4.8396 N   0  0  0  0  0  0  0  0  0  0  0  0
    5.4751    8.7800    5.3099 C   0  0  0  0  0  0  0  0  0  0  0  0
    5.5391    9.7971    5.8628 N   0  0  0  0  0  0  0  0  0  0  0  0
    3.1953    8.0503    3.8311 O   0  0  0  0  0  0  0  0  0  0  0  0
    2.1528    7.4264    3.0880 C   0  0  0  0  0  0  0  0  0  0  0  0
    1.7972    8.2987    1.8858 C   0  0  0  0  0  0  0  0  0  0  0  0
    0.9323    7.2391    3.9927 C   0  0  0  0  0  0  0  0  0  0  0  0
   -0.0932   -8.4985   -0.6428 H   0  0  0  0  0  0  0  0  0  0  0  0
   -3.8840   -7.0225   -1.3452 H   0  0  0  0  0  0  0  0  0  0  0  0
   -3.9996   -8.2786   -2.5990 H   0  0  0  0  0  0  0  0  0  0  0  0
   -2.3541   -9.6935   -1.3137 H   0  0  0  0  0  0  0  0  0  0  0  0
   -2.3608   -8.4440    0.0028 H   0  0  0  0  0  0  0  0  0  0  0  0
   -3.8664   -9.3428   -0.4024 H   0  0  0  0  0  0  0  0  0  0  0  0
   -5.3196   -5.1707   -1.5718 H   0  0  0  0  0  0  0  0  0  0  0  0
   -5.2159   -3.4095   -1.3187 H   0  0  0  0  0  0  0  0  0  0  0  0
   -5.1604   -4.7333    0.8117 H   0  0  0  0  0  0  0  0  0  0  0  0
   -3.6155   -5.4827    0.3343 H   0  0  0  0  0  0  0  0  0  0  0  0
   -3.7122   -3.6949    0.6106 H   0  0  0  0  0  0  0  0  0  0  0  0
    1.9023   -1.5536    3.1702 H   0  0  0  0  0  0  0  0  0  0  0  0
    2.4490   -6.0662    4.0724 H   0  0  0  0  0  0  0  0  0  0  0  0
   -0.3956   -2.8774   -5.7032 H   0  0  0  0  0  0  0  0  0  0  0  0
   -2.1941   -2.9237   -7.3483 H   0  0  0  0  0  0  0  0  0  0  0  0
   -5.1787   -0.1608   -8.8973 H   0  0  0  0  0  0  0  0  0  0  0  0
   -4.7215    0.4540   -7.2675 H   0  0  0  0  0  0  0  0  0  0  0  0
   -3.4665   -0.3170   -8.3421 H   0  0  0  0  0  0  0  0  0  0  0  0
   -4.7957   -0.8609   -4.6234 H   0  0  0  0  0  0  0  0  0  0  0  0
   -3.0211   -0.7804   -2.9605 H   0  0  0  0  0  0  0  0  0  0  0  0
    1.4123   -0.1641   -4.0241 H   0  0  0  0  0  0  0  0  0  0  0  0
    3.6270   -0.7927   -4.9124 H   0  0  0  0  0  0  0  0  0  0  0  0
    3.8401   -2.5372   -7.3419 H   0  0  0  0  0  0  0  0  0  0  0  0
    3.3858   -4.2645   -7.0100 H   0  0  0  0  0  0  0  0  0  0  0  0
    5.0102   -3.8666   -7.6922 H   0  0  0  0  0  0  0  0  0  0  0  0
    2.7604   -4.9369   -4.1351 H   0  0  0  0  0  0  0  0  0  0  0  0
    0.5541   -4.3030   -3.2229 H   0  0  0  0  0  0  0  0  0  0  0  0
   -4.6113    2.2946   -0.1920 H   0  0  0  0  0  0  0  0  0  0  0  0
   -6.7474    1.1251    0.2189 H   0  0  0  0  0  0  0  0  0  0  0  0
   -7.8627   -2.9621    1.0437 H   0  0  0  0  0  0  0  0  0  0  0  0
   -6.6949   -1.9025    0.1649 H   0  0  0  0  0  0  0  0  0  0  0  0
   -6.1751   -2.7735    1.6692 H   0  0  0  0  0  0  0  0  0  0  0  0
   -5.0027   -0.8611    3.6216 H   0  0  0  0  0  0  0  0  0  0  0  0
   -2.8650    0.3179    3.2138 H   0  0  0  0  0  0  0  0  0  0  0  0
   -2.4869    4.1607   -0.4336 H   0  0  0  0  0  0  0  0  0  0  0  0
   -2.4691    6.5423    0.2318 H   0  0  0  0  0  0  0  0  0  0  0  0
   -4.4199    8.8601    3.5161 H   0  0  0  0  0  0  0  0  0  0  0  0
   -4.6081    7.9635    1.9580 H   0  0  0  0  0  0  0  0  0  0  0  0
   -4.5406    7.0639    3.5366 H   0  0  0  0  0  0  0  0  0  0  0  0
   -2.2623    5.3783    4.3657 H   0  0  0  0  0  0  0  0  0  0  0  0
   -2.2680    3.0031    3.6999 H   0  0  0  0  0  0  0  0  0  0  0  0
   -0.2212    4.5886   -3.4928 H   0  0  0  0  0  0  0  0  0  0  0  0
   -0.8759    3.9594   -1.9589 H   0  0  0  0  0  0  0  0  0  0  0  0
    0.3738    6.7335   -2.4731 H   0  0  0  0  0  0  0  0  0  0  0  0
   -1.3446    6.3608   -2.1174 H   0  0  0  0  0  0  0  0  0  0  0  0
   -0.1113    6.1371   -0.8256 H   0  0  0  0  0  0  0  0  0  0  0  0
    2.0762    7.3251   -0.6822 H   0  0  0  0  0  0  0  0  0  0  0  0
    2.6997    6.5498   -2.1839 H   0  0  0  0  0  0  0  0  0  0  0  0
    3.5324    8.9008   -1.8895 H   0  0  0  0  0  0  0  0  0  0  0  0
    4.8563    7.6743   -1.9768 H   0  0  0  0  0  0  0  0  0  0  0  0
    4.3920    8.3865   -0.3850 H   0  0  0  0  0  0  0  0  0  0  0  0
    0.7563    3.4610    6.9606 H   0  0  0  0  0  0  0  0  0  0  0  0
   -0.8387   -0.1759    4.5674 H   0  0  0  0  0  0  0  0  0  0  0  0
    2.6996    8.4785    1.2674 H   0  0  0  0  0  0  0  0  0  0  0  0
    1.0015    7.8151    1.2824 H   0  0  0  0  0  0  0  0  0  0  0  0
    1.4267    9.2934    2.2255 H   0  0  0  0  0  0  0  0  0  0  0  0
    1.2314    6.8764    4.9957 H   0  0  0  0  0  0  0  0  0  0  0  0
    0.4109    8.2089    4.1487 H   0  0  0  0  0  0  0  0  0  0  0  0
    0.2244    6.5200    3.5395 H   0  0  0  0  0  0  0  0  0  0  0  0
  1  2  2  3
  2  3  1  0
  3  4  2  0
  3  5  1  0
  5  6  2  0
  6  7  1  0
  6  8  1  0
  8  9  1  0
  8 10  2  0
 10 11  1  0
 10 12  1  0
 12 13  1  0
 12 14  2  0
 14 15  1  0
 15 16  2  3
 16 17  1  0
 17 18  3  0
 16 19  1  0
 19 20  3  0
  1 21  1  0
 21 22  2  0
 22 23  1  0
 23 24  1  0
 24 25  1  0
 22 26  1  0
 26 27  1  0
 27 28  1  0
 28 29  1  0
 26 30  2  0
 30 31  1  0
 31 32  2  0
 32 33  1  0
 33 34  2  0
 33 35  1  0
 35 36  1  0
 36 37  1  0
 37 38  2  0
 36 39  2  0
 39 40  1  0
 40 41  1  0
 30 42  1  0
 42 43  2  0
 43 44  1  0
 44 45  1  0
 45 46  2  0
 46 47  1  0
 47 48  2  0
 48 49  1  0
 49 50  1  0
 48 51  1  0
 51 52  2  0
 44 53  1  0
 53 54  2  0
 54 55  1  0
 55 56  2  0
 56 57  1  0
 57 58  1  0
 56 59  1  0
 59 60  2  0
 43 61  1  0
 61 62  1  0
 62 63  1  0
 63 64  2  0
 64 65  1  0
 65 66  1  0
 66 67  2  0
 67 68  1  0
 68 69  2  0
 69 70  1  0
 70 71  1  0
 69 72  1  0
 72 73  2  0
 65 74  1  0
 74 75  2  0
 75 76  1  0
 76 77  2  0
 77 78  1  0
 78 79  1  0
 77 80  1  0
 80 81  2  0
 64 82  1  0
 82 83  1  0
 63 84  1  0
 84 85  2  0
 85 86  1  0
 86 87  1  0
 87 88  1  0
 85 89  1  0
 89 90  1  0
 90 91  1  0
 91 92  1  0
 89 93  2  0
 93 94  1  0
 94 95  2  0
 95 96  1  0
 96 97  2  0
 96 98  1  0
 98 99  1  0
 99100  1  0
100101  2  0
 99102  2  0
102103  1  0
103104  1  0
 93105  1  0
105106  2  0
106107  1  0
107108  3  0
106109  1  0
109110  2  3
110111  1  0
111112  3  0
110113  1  0
113114  3  0
109115  1  0
115116  1  0
116117  1  0
116118  1  0
 15  2  1  0
 32 21  1  0
 41 35  2  0
 83 42  1  0
 95 84  1  0
104 98  2  0
116105  1  0
 14  5  1  0
 37 31  1  0
 52 45  1  0
 60 53  1  0
 82 61  2  0
100 94  1  0
 73 66  1  0
 81 74  1  0
  1119  1  0
 24120  1  0
 24121  1  0
 25122  1  0
 25123  1  0
 25124  1  0
 28125  1  0
 28126  1  0
 29127  1  0
 29128  1  0
 29129  1  0
 39130  1  0
 41131  1  0
 46132  1  0
 47133  1  0
 50134  1  0
 50135  1  0
 50136  1  0
 51137  1  0
 52138  1  0
 54139  1  0
 55140  1  0
 58141  1  0
 58142  1  0
 58143  1  0
 59144  1  0
 60145  1  0
 67146  1  0
 68147  1  0
 71148  1  0
 71149  1  0
 71150  1  0
 72151  1  0
 73152  1  0
 75153  1  0
 76154  1  0
 79155  1  0
 79156  1  0
 79157  1  0
 80158  1  0
 81159  1  0
 87160  1  0
 87161  1  0
 88162  1  0
 88163  1  0
 88164  1  0
 91165  1  0
 91166  1  0
 92167  1  0
 92168  1  0
 92169  1  0
102170  1  0
104171  1  0
117172  1  0
117173  1  0
117174  1  0
118175  1  0
118176  1  0
118177  1  0
M  END

