
     RDKit          3D

133145  0  0  0  0  0  0  0  0999 V2000
   -3.6177   -7.6443    1.1699 C   0  0  0  0  0  0  0  0  0  0  0  0
   -4.7914   -7.0976    1.5510 C   0  0  0  0  0  0  0  0  0  0  0  0
   -5.2369   -5.7262    1.2581 C   0  0  0  0  0  0  0  0  0  0  0  0
   -4.6592   -4.9025    0.5087 O   0  0  0  0  0  0  0  0  0  0  0  0
   -6.5223   -5.5013    1.8977 C   0  0  0  0  0  0  0  0  0  0  0  0
   -7.2539   -4.3117    1.9876 C   0  0  0  0  0  0  0  0  0  0  0  0
   -6.7853   -2.8892    1.0606 Cl  0  0  0  0  0  0  0  0  0  0  0  0
   -8.3805   -4.2813    2.8304 C   0  0  0  0  0  0  0  0  0  0  0  0
   -9.3535   -2.8175    2.9442 Cl  0  0  0  0  0  0  0  0  0  0  0  0
   -8.7073   -5.4076    3.6197 C   0  0  0  0  0  0  0  0  0  0  0  0
  -10.0150   -5.3112    4.7955 Cl  0  0  0  0  0  0  0  0  0  0  0  0
   -7.9362   -6.5910    3.5260 C   0  0  0  0  0  0  0  0  0  0  0  0
   -8.1459   -7.8597    4.7381 Cl  0  0  0  0  0  0  0  0  0  0  0  0
   -6.8955   -6.6479    2.5713 C   0  0  0  0  0  0  0  0  0  0  0  0
   -5.9203   -7.7464    2.2905 C   0  0  0  0  0  0  0  0  0  0  0  0
   -6.2077   -9.0676    2.2919 C   0  0  0  0  0  0  0  0  0  0  0  0
   -5.1964  -10.0924    2.2813 C   0  0  0  0  0  0  0  0  0  0  0  0
   -4.3929  -10.9306    2.2966 N   0  0  0  0  0  0  0  0  0  0  0  0
   -7.5716   -9.5301    2.2497 C   0  0  0  0  0  0  0  0  0  0  0  0
   -8.6659   -9.9061    2.2041 N   0  0  0  0  0  0  0  0  0  0  0  0
   -2.5581   -6.8398    0.5223 C   0  0  0  0  0  0  0  0  0  0  0  0
   -2.6601   -6.5585   -0.8570 C   0  0  0  0  0  0  0  0  0  0  0  0
   -3.9648   -7.3566   -1.8367 S   0  0  0  0  0  0  0  0  0  0  0  0
   -3.1331   -8.9785   -2.0037 C   0  0  0  0  0  0  0  0  0  0  0  0
   -4.0778  -10.0899   -1.5591 C   0  0  0  0  0  0  0  0  0  0  0  0
   -1.8829   -5.5310   -1.4237 C   0  0  0  0  0  0  0  0  0  0  0  0
   -2.2094   -4.9895   -3.1217 S   0  0  0  0  0  0  0  0  0  0  0  0
   -0.7139   -5.7206   -3.8710 C   0  0  0  0  0  0  0  0  0  0  0  0
   -0.8325   -7.2305   -4.0022 C   0  0  0  0  0  0  0  0  0  0  0  0
   -0.9813   -4.8025   -0.6150 C   0  0  0  0  0  0  0  0  0  0  0  0
   -0.7166   -5.2223    0.7225 C   0  0  0  0  0  0  0  0  0  0  0  0
   -1.5223   -6.2531    1.2977 C   0  0  0  0  0  0  0  0  0  0  0  0
   -1.3108   -6.6411    2.7369 C   0  0  0  0  0  0  0  0  0  0  0  0
   -1.9050   -7.6256    3.2555 O   0  0  0  0  0  0  0  0  0  0  0  0
   -0.3619   -5.8868    3.5599 C   0  0  0  0  0  0  0  0  0  0  0  0
    0.4336   -4.8903    3.0008 C   0  0  0  0  0  0  0  0  0  0  0  0
    0.3352   -4.5618    1.5751 C   0  0  0  0  0  0  0  0  0  0  0  0
    1.1662   -3.7496    1.1019 O   0  0  0  0  0  0  0  0  0  0  0  0
    1.3149   -4.2961    3.8986 C   0  0  0  0  0  0  0  0  0  0  0  0
    1.0735   -5.0242    5.3970 S   0  0  0  0  0  0  0  0  0  0  0  0
   -0.1363   -6.0949    4.9178 C   0  0  0  0  0  0  0  0  0  0  0  0
   -0.5561   -3.4556   -1.0696 C   0  0  0  0  0  0  0  0  0  0  0  0
   -1.4489   -2.3908   -0.9061 C   0  0  0  0  0  0  0  0  0  0  0  0
   -1.0142   -1.0739   -1.0625 C   0  0  0  0  0  0  0  0  0  0  0  0
    0.3286   -0.8130   -1.3476 C   0  0  0  0  0  0  0  0  0  0  0  0
    1.1970   -1.8786   -1.6433 C   0  0  0  0  0  0  0  0  0  0  0  0
    2.5089   -1.6428   -1.9102 F   0  0  0  0  0  0  0  0  0  0  0  0
    0.7474   -3.2019   -1.5420 C   0  0  0  0  0  0  0  0  0  0  0  0
    1.6309   -4.2207   -1.6912 F   0  0  0  0  0  0  0  0  0  0  0  0
    0.8699    0.4963   -0.9904 C   0  0  0  0  0  0  0  0  0  0  0  0
    1.5394    0.7335    0.1990 C   0  0  0  0  0  0  0  0  0  0  0  0
    1.7888    2.0848    0.1942 C   0  0  0  0  0  0  0  0  0  0  0  0
    2.3588    2.9181    1.1763 C   0  0  0  0  0  0  0  0  0  0  0  0
    2.7297    2.4125    2.5146 C   0  0  0  0  0  0  0  0  0  0  0  0
    3.5912    1.3088    2.6567 C   0  0  0  0  0  0  0  0  0  0  0  0
    3.8291    0.7526    3.9165 C   0  0  0  0  0  0  0  0  0  0  0  0
    4.6623   -0.3164    4.0249 F   0  0  0  0  0  0  0  0  0  0  0  0
    3.1896    1.2821    5.0558 C   0  0  0  0  0  0  0  0  0  0  0  0
    3.4004    0.6526    6.4126 C   0  0  0  0  0  0  0  0  0  0  0  0
    4.5044    1.3680    7.1832 C   0  0  0  0  0  0  0  0  0  0  0  0
    2.3609    2.4069    4.9186 C   0  0  0  0  0  0  0  0  0  0  0  0
    1.7508    2.9471    6.0019 F   0  0  0  0  0  0  0  0  0  0  0  0
    2.1384    2.9705    3.6582 C   0  0  0  0  0  0  0  0  0  0  0  0
    2.4258    4.2823    0.8455 C   0  0  0  0  0  0  0  0  0  0  0  0
    1.9134    4.7784   -0.3397 C   0  0  0  0  0  0  0  0  0  0  0  0
    1.2959    3.9490   -1.2985 C   0  0  0  0  0  0  0  0  0  0  0  0
    0.6781    4.4836   -2.5261 C   0  0  0  0  0  0  0  0  0  0  0  0
    1.2233    4.1770   -3.7812 C   0  0  0  0  0  0  0  0  0  0  0  0
    0.6282    4.6672   -4.9481 C   0  0  0  0  0  0  0  0  0  0  0  0
   -0.5409    5.4556   -4.8734 C   0  0  0  0  0  0  0  0  0  0  0  0
   -1.2121    5.9372   -6.1393 C   0  0  0  0  0  0  0  0  0  0  0  0
   -1.8842    4.7844   -6.8750 C   0  0  0  0  0  0  0  0  0  0  0  0
   -1.0876    5.7521   -3.6085 C   0  0  0  0  0  0  0  0  0  0  0  0
   -0.4719    5.2830   -2.4445 C   0  0  0  0  0  0  0  0  0  0  0  0
   -2.2106    6.5033   -3.5026 F   0  0  0  0  0  0  0  0  0  0  0  0
    1.1867    4.3753   -6.1529 F   0  0  0  0  0  0  0  0  0  0  0  0
    1.2583    2.5786   -0.9870 C   0  0  0  0  0  0  0  0  0  0  0  0
    0.7113    1.6068   -1.6837 O   0  0  0  0  0  0  0  0  0  0  0  0
    2.1685    6.1311   -0.3429 C   0  0  0  0  0  0  0  0  0  0  0  0
    2.8624    6.3597    0.8455 C   0  0  0  0  0  0  0  0  0  0  0  0
    2.9740    5.2469    1.5426 O   0  0  0  0  0  0  0  0  0  0  0  0
    3.4050    7.6492    1.2977 C   0  0  0  0  0  0  0  0  0  0  0  0
    4.1257    8.4767    0.5159 C   0  0  0  0  0  0  0  0  0  0  0  0
    4.6061    8.2271   -0.8494 C   0  0  0  0  0  0  0  0  0  0  0  0
    4.5520    7.1334   -1.4731 O   0  0  0  0  0  0  0  0  0  0  0  0
    5.3170    9.4114   -1.2931 C   0  0  0  0  0  0  0  0  0  0  0  0
    5.9007    9.6806   -2.5336 C   0  0  0  0  0  0  0  0  0  0  0  0
    5.8429    8.4872   -3.8340 Cl  0  0  0  0  0  0  0  0  0  0  0  0
    6.5018   10.9382   -2.7276 C   0  0  0  0  0  0  0  0  0  0  0  0
    7.2199   11.3308   -4.2894 Cl  0  0  0  0  0  0  0  0  0  0  0  0
    6.5076   11.8948   -1.6858 C   0  0  0  0  0  0  0  0  0  0  0  0
    7.2230   13.4878   -1.9535 Cl  0  0  0  0  0  0  0  0  0  0  0  0
    5.9137   11.5947   -0.4401 C   0  0  0  0  0  0  0  0  0  0  0  0
    5.8512   12.8044    0.8481 Cl  0  0  0  0  0  0  0  0  0  0  0  0
    5.3372   10.3293   -0.2592 C   0  0  0  0  0  0  0  0  0  0  0  0
    4.6055    9.8177    0.9283 C   0  0  0  0  0  0  0  0  0  0  0  0
    5.0836   10.0168    2.1613 C   0  0  0  0  0  0  0  0  0  0  0  0
    6.3313    9.4163    2.5735 C   0  0  0  0  0  0  0  0  0  0  0  0
    7.3411    8.9536    2.8951 N   0  0  0  0  0  0  0  0  0  0  0  0
    4.2627   10.6740    3.1438 C   0  0  0  0  0  0  0  0  0  0  0  0
    3.6004   11.2021    3.9341 N   0  0  0  0  0  0  0  0  0  0  0  0
   -3.3555   -8.6578    1.4186 H   0  0  0  0  0  0  0  0  0  0  0  0
   -2.2064   -9.0309   -1.3990 H   0  0  0  0  0  0  0  0  0  0  0  0
   -2.8770   -9.1459   -3.0717 H   0  0  0  0  0  0  0  0  0  0  0  0
   -5.0020  -10.0865   -2.1824 H   0  0  0  0  0  0  0  0  0  0  0  0
   -4.3420   -9.9726   -0.4888 H   0  0  0  0  0  0  0  0  0  0  0  0
   -3.5731  -11.0697   -1.6888 H   0  0  0  0  0  0  0  0  0  0  0  0
    0.1845   -5.4732   -3.2765 H   0  0  0  0  0  0  0  0  0  0  0  0
   -0.5806   -5.2870   -4.8877 H   0  0  0  0  0  0  0  0  0  0  0  0
   -1.7673   -7.4977   -4.5381 H   0  0  0  0  0  0  0  0  0  0  0  0
   -0.8295   -7.6925   -2.9956 H   0  0  0  0  0  0  0  0  0  0  0  0
    0.0352   -7.6283   -4.5704 H   0  0  0  0  0  0  0  0  0  0  0  0
    2.0264   -3.5129    3.6807 H   0  0  0  0  0  0  0  0  0  0  0  0
   -0.6364   -6.8138    5.5542 H   0  0  0  0  0  0  0  0  0  0  0  0
   -2.4667   -2.5709   -0.5773 H   0  0  0  0  0  0  0  0  0  0  0  0
   -1.6930   -0.2628   -0.8364 H   0  0  0  0  0  0  0  0  0  0  0  0
    1.7604    0.0193    0.9794 H   0  0  0  0  0  0  0  0  0  0  0  0
    4.0605    0.8640    1.7869 H   0  0  0  0  0  0  0  0  0  0  0  0
    2.4570    0.6934    7.0007 H   0  0  0  0  0  0  0  0  0  0  0  0
    3.6653   -0.4221    6.3107 H   0  0  0  0  0  0  0  0  0  0  0  0
    5.4703    1.2963    6.6321 H   0  0  0  0  0  0  0  0  0  0  0  0
    4.6280    0.8893    8.1760 H   0  0  0  0  0  0  0  0  0  0  0  0
    4.2415    2.4384    7.3376 H   0  0  0  0  0  0  0  0  0  0  0  0
    1.4648    3.8130    3.5679 H   0  0  0  0  0  0  0  0  0  0  0  0
    2.1102    3.5640   -3.8500 H   0  0  0  0  0  0  0  0  0  0  0  0
   -1.9740    6.7137   -5.9272 H   0  0  0  0  0  0  0  0  0  0  0  0
   -0.4526    6.4063   -6.8047 H   0  0  0  0  0  0  0  0  0  0  0  0
   -1.1343    4.0369   -7.2075 H   0  0  0  0  0  0  0  0  0  0  0  0
   -2.6363    4.2938   -6.2191 H   0  0  0  0  0  0  0  0  0  0  0  0
   -2.4063    5.1801   -7.7818 H   0  0  0  0  0  0  0  0  0  0  0  0
   -0.8986    5.5263   -1.4764 H   0  0  0  0  0  0  0  0  0  0  0  0
    1.9121    6.8480   -1.1128 H   0  0  0  0  0  0  0  0  0  0  0  0
    3.2352    7.9166    2.3349 H   0  0  0  0  0  0  0  0  0  0  0  0
  1  2  2  3
  2  3  1  0
  3  4  2  0
  3  5  1  0
  5  6  2  0
  6  7  1  0
  6  8  1  0
  8  9  1  0
  8 10  2  0
 10 11  1  0
 10 12  1  0
 12 13  1  0
 12 14  2  0
 14 15  1  0
 15 16  2  3
 16 17  1  0
 17 18  3  0
 16 19  1  0
 19 20  3  0
  1 21  1  0
 21 22  2  0
 22 23  1  0
 23 24  1  0
 24 25  1  0
 22 26  1  0
 26 27  1  0
 27 28  1  0
 28 29  1  0
 26 30  2  0
 30 31  1  0
 31 32  2  0
 32 33  1  0
 33 34  2  0
 33 35  1  0
 35 36  1  0
 36 37  1  0
 37 38  2  0
 36 39  2  0
 39 40  1  0
 40 41  1  0
 30 42  1  0
 42 43  2  0
 43 44  1  0
 44 45  2  0
 45 46  1  0
 46 47  1  0
 46 48  2  0
 48 49  1  0
 45 50  1  0
 50 51  2  0
 51 52  1  0
 52 53  2  0
 53 54  1  0
 54 55  2  0
 55 56  1  0
 56 57  1  0
 56 58  2  0
 58 59  1  0
 59 60  1  0
 58 61  1  0
 61 62  1  0
 61 63  2  0
 53 64  1  0
 64 65  2  0
 65 66  1  0
 66 67  1  0
 67 68  2  0
 68 69  1  0
 69 70  2  0
 70 71  1  0
 71 72  1  0
 70 73  1  0
 73 74  2  0
 73 75  1  0
 69 76  1  0
 66 77  2  0
 77 78  1  0
 65 79  1  0
 79 80  2  0
 80 81  1  0
 80 82  1  0
 82 83  2  3
 83 84  1  0
 84 85  2  0
 84 86  1  0
 86 87  2  0
 87 88  1  0
 87 89  1  0
 89 90  1  0
 89 91  2  0
 91 92  1  0
 91 93  1  0
 93 94  1  0
 93 95  2  0
 95 96  1  0
 96 97  2  3
 97 98  1  0
 98 99  3  0
 97100  1  0
100101  3  0
 15  2  1  0
 32 21  1  0
 41 35  2  0
 48 42  1  0
 78 50  1  0
 96 83  1  0
 14  5  1  0
 37 31  1  0
 77 52  1  0
 95 86  1  0
 63 54  1  0
 81 64  1  0
 74 67  1  0
  1102  1  0
 24103  1  0
 24104  1  0
 25105  1  0
 25106  1  0
 25107  1  0
 28108  1  0
 28109  1  0
 29110  1  0
 29111  1  0
 29112  1  0
 39113  1  0
 41114  1  0
 43115  1  0
 44116  1  0
 51117  1  0
 55118  1  0
 59119  1  0
 59120  1  0
 60121  1  0
 60122  1  0
 60123  1  0
 63124  1  0
 68125  1  0
 71126  1  0
 71127  1  0
 72128  1  0
 72129  1  0
 72130  1  0
 74131  1  0
 79132  1  0
 82133  1  0
M  END

