
     RDKit          3D

128138  0  0  0  0  0  0  0  0999 V2000
    2.0494   -2.1338    5.1920 C   0  0  0  0  0  0  0  0  0  0  0  0
    2.9207   -1.5579    6.0887 C   0  0  0  0  0  0  0  0  0  0  0  0
    3.7762   -2.5277    6.8901 C   0  0  0  0  0  0  0  0  0  0  0  0
    3.7000   -3.8011    6.8269 O   0  0  0  0  0  0  0  0  0  0  0  0
    4.8705   -1.7939    7.4653 C   0  0  0  0  0  0  0  0  0  0  0  0
    5.7210   -2.1430    8.5391 C   0  0  0  0  0  0  0  0  0  0  0  0
    5.4453   -3.6432    9.3301 Cl  0  0  0  0  0  0  0  0  0  0  0  0
    6.8008   -1.3135    8.7653 C   0  0  0  0  0  0  0  0  0  0  0  0
    8.0031   -1.8344   10.0291 Cl  0  0  0  0  0  0  0  0  0  0  0  0
    6.9738   -0.0991    8.1141 C   0  0  0  0  0  0  0  0  0  0  0  0
    8.3260    0.9361    8.5950 Cl  0  0  0  0  0  0  0  0  0  0  0  0
    6.0206    0.3223    7.1581 C   0  0  0  0  0  0  0  0  0  0  0  0
    6.2001    1.8928    6.3626 Cl  0  0  0  0  0  0  0  0  0  0  0  0
    4.9664   -0.5240    6.8464 C   0  0  0  0  0  0  0  0  0  0  0  0
    3.7772   -0.3165    5.9736 C   0  0  0  0  0  0  0  0  0  0  0  0
    3.1571    0.8090    5.8931 C   0  0  0  0  0  0  0  0  0  0  0  0
    3.2289    1.6243    4.6689 C   0  0  0  0  0  0  0  0  0  0  0  0
    3.1676    2.4309    3.7988 N   0  0  0  0  0  0  0  0  0  0  0  0
    2.9043    1.5907    7.1265 C   0  0  0  0  0  0  0  0  0  0  0  0
    2.5900    2.1279    8.1084 N   0  0  0  0  0  0  0  0  0  0  0  0
    0.6606   -2.0475    4.5872 C   0  0  0  0  0  0  0  0  0  0  0  0
   -0.0607   -0.8508    4.5914 C   0  0  0  0  0  0  0  0  0  0  0  0
   -1.1716   -0.6811    3.7545 C   0  0  0  0  0  0  0  0  0  0  0  0
   -1.5074   -1.6638    2.7962 C   0  0  0  0  0  0  0  0  0  0  0  0
   -0.9177   -2.9309    2.9231 C   0  0  0  0  0  0  0  0  0  0  0  0
   -1.1172   -3.8574    1.9377 F   0  0  0  0  0  0  0  0  0  0  0  0
    0.1670   -3.1192    3.7923 C   0  0  0  0  0  0  0  0  0  0  0  0
    0.6414   -4.3655    3.9624 F   0  0  0  0  0  0  0  0  0  0  0  0
   -1.9340   -1.2853    1.4104 C   0  0  0  0  0  0  0  0  0  0  0  0
   -1.0131   -0.8116    0.4239 C   0  0  0  0  0  0  0  0  0  0  0  0
   -0.1288    0.2839    0.7464 N   0  0  0  0  0  0  0  0  0  0  0  0
    1.2990    0.2205    0.3490 C   0  0  0  0  0  0  0  0  0  0  0  0
    2.2697   -0.0752    1.3092 C   0  0  0  0  0  0  0  0  0  0  0  0
    3.6387    0.1265    1.0297 C   0  0  0  0  0  0  0  0  0  0  0  0
    4.0246    0.5595   -0.2631 C   0  0  0  0  0  0  0  0  0  0  0  0
    5.7370    1.0660   -0.5556 S   0  0  0  0  0  0  0  0  0  0  0  0
    6.3308   -0.5797   -0.9659 C   0  0  0  0  0  0  0  0  0  0  0  0
    3.0471    0.7550   -1.2475 C   0  0  0  0  0  0  0  0  0  0  0  0
    1.6760    0.6191   -0.9455 C   0  0  0  0  0  0  0  0  0  0  0  0
   -0.6558    1.4173    1.4811 C   0  0  0  0  0  0  0  0  0  0  0  0
    0.0436    2.0146    2.5483 C   0  0  0  0  0  0  0  0  0  0  0  0
   -0.6146    2.8313    3.4744 C   0  0  0  0  0  0  0  0  0  0  0  0
   -1.9580    3.1401    3.2782 C   0  0  0  0  0  0  0  0  0  0  0  0
   -2.9148    3.9164    4.5963 S   0  0  0  0  0  0  0  0  0  0  0  0
   -2.3916    5.6407    4.2611 C   0  0  0  0  0  0  0  0  0  0  0  0
   -2.6394    2.6770    2.1376 C   0  0  0  0  0  0  0  0  0  0  0  0
   -1.9836    1.8646    1.2258 C   0  0  0  0  0  0  0  0  0  0  0  0
   -1.5303   -1.0357   -0.8542 C   0  0  0  0  0  0  0  0  0  0  0  0
   -0.8701   -0.9163   -2.4238 S   0  0  0  0  0  0  0  0  0  0  0  0
   -2.3407   -1.3608   -3.2185 C   0  0  0  0  0  0  0  0  0  0  0  0
   -3.3246   -1.5427   -2.2498 C   0  0  0  0  0  0  0  0  0  0  0  0
   -4.7669   -1.7048   -2.4864 N   0  0  0  0  0  0  0  0  0  0  0  0
   -5.3941   -2.9679   -2.2838 C   0  0  0  0  0  0  0  0  0  0  0  0
   -4.5977   -4.0900   -1.8757 C   0  0  0  0  0  0  0  0  0  0  0  0
   -5.1815   -5.3250   -1.5461 C   0  0  0  0  0  0  0  0  0  0  0  0
   -6.5610   -5.4598   -1.6135 C   0  0  0  0  0  0  0  0  0  0  0  0
   -7.2897   -7.0759   -1.2832 S   0  0  0  0  0  0  0  0  0  0  0  0
   -7.5002   -6.8438    0.5000 C   0  0  0  0  0  0  0  0  0  0  0  0
   -7.3685   -4.4208   -2.0723 C   0  0  0  0  0  0  0  0  0  0  0  0
   -6.7739   -3.2268   -2.4475 C   0  0  0  0  0  0  0  0  0  0  0  0
   -5.4764   -0.4101   -2.8091 C   0  0  0  0  0  0  0  0  0  0  0  0
   -4.8623    0.5871   -3.5627 C   0  0  0  0  0  0  0  0  0  0  0  0
   -5.5410    1.7446   -3.9138 C   0  0  0  0  0  0  0  0  0  0  0  0
   -6.7896    2.0365   -3.3565 C   0  0  0  0  0  0  0  0  0  0  0  0
   -7.6510    3.5536   -3.8264 S   0  0  0  0  0  0  0  0  0  0  0  0
   -6.7045    4.6214   -2.7488 C   0  0  0  0  0  0  0  0  0  0  0  0
   -7.3354    1.1013   -2.4541 C   0  0  0  0  0  0  0  0  0  0  0  0
   -6.6745   -0.0862   -2.1484 C   0  0  0  0  0  0  0  0  0  0  0  0
   -2.8033   -1.4421   -0.9218 C   0  0  0  0  0  0  0  0  0  0  0  0
   -3.3670   -1.8053    0.6274 S   0  0  0  0  0  0  0  0  0  0  0  0
   -2.2975   -1.8702   -4.6202 C   0  0  0  0  0  0  0  0  0  0  0  0
   -2.5928   -1.1098   -5.7636 C   0  0  0  0  0  0  0  0  0  0  0  0
   -1.7821   -1.2940   -6.8942 C   0  0  0  0  0  0  0  0  0  0  0  0
   -0.7779   -2.2364   -6.6956 C   0  0  0  0  0  0  0  0  0  0  0  0
   -0.9240   -2.7912   -5.1043 S   0  0  0  0  0  0  0  0  0  0  0  0
    0.5144   -2.2223   -7.3475 C   0  0  0  0  0  0  0  0  0  0  0  0
    1.4275   -1.2750   -7.1407 C   0  0  0  0  0  0  0  0  0  0  0  0
    1.1783    0.0597   -6.2025 S   0  0  0  0  0  0  0  0  0  0  0  0
    2.7602    0.6561   -6.2556 C   0  0  0  0  0  0  0  0  0  0  0  0
    3.1486    1.7551   -5.5544 C   0  0  0  0  0  0  0  0  0  0  0  0
    2.1420    2.5099   -4.8120 C   0  0  0  0  0  0  0  0  0  0  0  0
    1.3010    3.1050   -4.2189 N   0  0  0  0  0  0  0  0  0  0  0  0
    4.4499    2.1988   -5.4380 C   0  0  0  0  0  0  0  0  0  0  0  0
    5.5636    2.5978   -5.2582 N   0  0  0  0  0  0  0  0  0  0  0  0
    3.4592   -0.1276   -7.1325 N   0  0  0  0  0  0  0  0  0  0  0  0
    4.8130    0.2086   -7.6725 C   0  0  0  0  0  0  0  0  0  0  0  0
    5.8950   -0.4632   -6.8532 C   0  0  0  0  0  0  0  0  0  0  0  0
    2.7575   -1.2154   -7.5846 C   0  0  0  0  0  0  0  0  0  0  0  0
    3.2648   -2.0757   -8.3479 O   0  0  0  0  0  0  0  0  0  0  0  0
    2.3774   -3.0500    4.7048 H   0  0  0  0  0  0  0  0  0  0  0  0
    0.2783    0.0137    5.2018 H   0  0  0  0  0  0  0  0  0  0  0  0
   -1.6922    0.2574    3.7524 H   0  0  0  0  0  0  0  0  0  0  0  0
    2.0104   -0.3777    2.3197 H   0  0  0  0  0  0  0  0  0  0  0  0
    4.3667    0.0033    1.8236 H   0  0  0  0  0  0  0  0  0  0  0  0
    5.7732   -0.9943   -1.8268 H   0  0  0  0  0  0  0  0  0  0  0  0
    7.3997   -0.5031   -1.2344 H   0  0  0  0  0  0  0  0  0  0  0  0
    6.2546   -1.2345   -0.0691 H   0  0  0  0  0  0  0  0  0  0  0  0
    3.3362    1.0949   -2.2412 H   0  0  0  0  0  0  0  0  0  0  0  0
    0.9755    0.8885   -1.6983 H   0  0  0  0  0  0  0  0  0  0  0  0
    1.0225    1.6931    2.8039 H   0  0  0  0  0  0  0  0  0  0  0  0
   -0.0953    3.1610    4.3799 H   0  0  0  0  0  0  0  0  0  0  0  0
   -1.3414    5.6577    3.8433 H   0  0  0  0  0  0  0  0  0  0  0  0
   -3.1305    6.1481    3.5649 H   0  0  0  0  0  0  0  0  0  0  0  0
   -2.3001    6.1988    5.2186 H   0  0  0  0  0  0  0  0  0  0  0  0
   -3.6992    2.9050    1.9938 H   0  0  0  0  0  0  0  0  0  0  0  0
   -2.5450    1.4878    0.3925 H   0  0  0  0  0  0  0  0  0  0  0  0
   -3.4919   -4.0707   -1.8573 H   0  0  0  0  0  0  0  0  0  0  0  0
   -4.5503   -6.1650   -1.2988 H   0  0  0  0  0  0  0  0  0  0  0  0
   -6.5202   -6.6644    0.9946 H   0  0  0  0  0  0  0  0  0  0  0  0
   -8.1698   -5.9836    0.6806 H   0  0  0  0  0  0  0  0  0  0  0  0
   -7.9644   -7.7510    0.9366 H   0  0  0  0  0  0  0  0  0  0  0  0
   -8.4365   -4.5435   -2.1992 H   0  0  0  0  0  0  0  0  0  0  0  0
   -7.4375   -2.4340   -2.8843 H   0  0  0  0  0  0  0  0  0  0  0  0
   -3.8733    0.4815   -3.9552 H   0  0  0  0  0  0  0  0  0  0  0  0
   -5.0808    2.4384   -4.6317 H   0  0  0  0  0  0  0  0  0  0  0  0
   -7.2129    5.6358   -2.6296 H   0  0  0  0  0  0  0  0  0  0  0  0
   -6.6023    4.1938   -1.7122 H   0  0  0  0  0  0  0  0  0  0  0  0
   -5.6437    4.7889   -3.1606 H   0  0  0  0  0  0  0  0  0  0  0  0
   -8.3298    1.3499   -1.9879 H   0  0  0  0  0  0  0  0  0  0  0  0
   -7.1617   -0.7196   -1.4180 H   0  0  0  0  0  0  0  0  0  0  0  0
   -3.5711   -0.5338   -5.7827 H   0  0  0  0  0  0  0  0  0  0  0  0
   -2.0154   -0.7983   -7.8469 H   0  0  0  0  0  0  0  0  0  0  0  0
    0.7897   -3.0604   -7.9802 H   0  0  0  0  0  0  0  0  0  0  0  0
    4.9944    1.3165   -7.7315 H   0  0  0  0  0  0  0  0  0  0  0  0
    4.8874   -0.1841   -8.7150 H   0  0  0  0  0  0  0  0  0  0  0  0
    6.1333    0.1426   -5.9183 H   0  0  0  0  0  0  0  0  0  0  0  0
    6.8806   -0.6207   -7.4656 H   0  0  0  0  0  0  0  0  0  0  0  0
    5.5685   -1.4983   -6.5120 H   0  0  0  0  0  0  0  0  0  0  0  0
  1  2  2  3
  2  3  1  0
  3  4  2  0
  3  5  1  0
  5  6  2  0
  6  7  1  0
  6  8  1  0
  8  9  1  0
  8 10  2  0
 10 11  1  0
 10 12  1  0
 12 13  1  0
 12 14  2  0
 14 15  1  0
 15 16  2  3
 16 17  1  0
 17 18  3  0
 16 19  1  0
 19 20  3  0
  1 21  1  0
 21 22  2  0
 22 23  1  0
 23 24  2  0
 24 25  1  0
 25 26  1  0
 25 27  2  0
 27 28  1  0
 24 29  1  0
 29 30  2  0
 30 31  1  0
 31 32  1  0
 32 33  2  0
 33 34  1  0
 34 35  2  0
 35 36  1  0
 36 37  1  0
 35 38  1  0
 38 39  2  0
 31 40  1  0
 40 41  2  0
 41 42  1  0
 42 43  2  0
 43 44  1  0
 44 45  1  0
 43 46  1  0
 46 47  2  0
 30 48  1  0
 48 49  1  0
 49 50  1  0
 50 51  2  0
 51 52  1  0
 52 53  1  0
 53 54  2  0
 54 55  1  0
 55 56  2  0
 56 57  1  0
 57 58  1  0
 56 59  1  0
 59 60  2  0
 52 61  1  0
 61 62  2  0
 62 63  1  0
 63 64  2  0
 64 65  1  0
 65 66  1  0
 64 67  1  0
 67 68  2  0
 51 69  1  0
 69 70  1  0
 50 71  1  0
 71 72  2  0
 72 73  1  0
 73 74  2  0
 74 75  1  0
 74 76  1  0
 76 77  2  3
 77 78  1  0
 78 79  1  0
 79 80  2  3
 80 81  1  0
 81 82  3  0
 80 83  1  0
 83 84  3  0
 79 85  1  0
 85 86  1  0
 86 87  1  0
 85 88  1  0
 88 89  2  0
 15  2  1  0
 27 21  1  0
 70 29  1  0
 75 71  1  0
 88 77  1  0
 14  5  1  0
 39 32  1  0
 47 40  1  0
 69 48  2  0
 60 53  1  0
 68 61  1  0
  1 90  1  0
 22 91  1  0
 23 92  1  0
 33 93  1  0
 34 94  1  0
 37 95  1  0
 37 96  1  0
 37 97  1  0
 38 98  1  0
 39 99  1  0
 41100  1  0
 42101  1  0
 45102  1  0
 45103  1  0
 45104  1  0
 46105  1  0
 47106  1  0
 54107  1  0
 55108  1  0
 58109  1  0
 58110  1  0
 58111  1  0
 59112  1  0
 60113  1  0
 62114  1  0
 63115  1  0
 66116  1  0
 66117  1  0
 66118  1  0
 67119  1  0
 68120  1  0
 72121  1  0
 73122  1  0
 76123  1  0
 86124  1  0
 86125  1  0
 87126  1  0
 87127  1  0
 87128  1  0
M  END

