
     RDKit          3D

221241  0  0  0  0  0  0  0  0999 V2000
   -8.7775    7.8548    0.4376 C   0  0  0  0  0  0  0  0  0  0  0  0
   -9.3702    6.8271    1.0822 C   0  0  0  0  0  0  0  0  0  0  0  0
   -8.8424    5.4655    1.1915 C   0  0  0  0  0  0  0  0  0  0  0  0
   -8.0981    4.8840    0.3545 O   0  0  0  0  0  0  0  0  0  0  0  0
   -9.2818    4.8974    2.4550 C   0  0  0  0  0  0  0  0  0  0  0  0
   -8.8835    3.7013    3.0651 C   0  0  0  0  0  0  0  0  0  0  0  0
   -7.8803    2.5394    2.1932 Cl  0  0  0  0  0  0  0  0  0  0  0  0
   -9.2897    3.4573    4.3911 C   0  0  0  0  0  0  0  0  0  0  0  0
   -8.8473    1.9461    5.1791 Cl  0  0  0  0  0  0  0  0  0  0  0  0
  -10.0111    4.4491    5.0984 C   0  0  0  0  0  0  0  0  0  0  0  0
  -10.4134    4.1811    6.7876 Cl  0  0  0  0  0  0  0  0  0  0  0  0
  -10.3707    5.6614    4.4687 C   0  0  0  0  0  0  0  0  0  0  0  0
  -10.9495    7.0040    5.4521 Cl  0  0  0  0  0  0  0  0  0  0  0  0
  -10.0943    5.8187    3.0941 C   0  0  0  0  0  0  0  0  0  0  0  0
  -10.3577    6.9718    2.1823 C   0  0  0  0  0  0  0  0  0  0  0  0
  -11.5166    7.6622    2.0772 C   0  0  0  0  0  0  0  0  0  0  0  0
  -12.6424    7.3957    2.9340 C   0  0  0  0  0  0  0  0  0  0  0  0
  -13.5380    7.1762    3.6289 N   0  0  0  0  0  0  0  0  0  0  0  0
  -11.7664    8.5556    0.9703 C   0  0  0  0  0  0  0  0  0  0  0  0
  -11.9756    9.2705    0.0849 N   0  0  0  0  0  0  0  0  0  0  0  0
   -7.4349    7.6897   -0.1288 C   0  0  0  0  0  0  0  0  0  0  0  0
   -6.3144    7.6069    0.6922 C   0  0  0  0  0  0  0  0  0  0  0  0
   -5.2566    6.9019    0.1112 C   0  0  0  0  0  0  0  0  0  0  0  0
   -4.0715    6.5171    0.7649 C   0  0  0  0  0  0  0  0  0  0  0  0
   -3.8562    6.8126    2.1965 C   0  0  0  0  0  0  0  0  0  0  0  0
   -2.8390    7.6899    2.5982 C   0  0  0  0  0  0  0  0  0  0  0  0
   -2.7380    8.0839    3.9371 C   0  0  0  0  0  0  0  0  0  0  0  0
   -3.6528    7.6030    4.8890 C   0  0  0  0  0  0  0  0  0  0  0  0
   -3.6007    8.0436    6.2220 C   0  0  0  0  0  0  0  0  0  0  0  0
   -4.5321    7.5737    7.1500 C   0  0  0  0  0  0  0  0  0  0  0  0
   -5.5114    6.6600    6.7611 C   0  0  0  0  0  0  0  0  0  0  0  0
   -5.5799    6.2139    5.4383 C   0  0  0  0  0  0  0  0  0  0  0  0
   -4.6540    6.6810    4.4937 C   0  0  0  0  0  0  0  0  0  0  0  0
   -4.7356    6.2779    3.1544 C   0  0  0  0  0  0  0  0  0  0  0  0
   -3.1698    5.7365    0.0269 C   0  0  0  0  0  0  0  0  0  0  0  0
   -3.4383    5.3177   -1.2794 C   0  0  0  0  0  0  0  0  0  0  0  0
   -4.6500    5.6598   -1.9095 C   0  0  0  0  0  0  0  0  0  0  0  0
   -4.9810    5.1522   -3.1687 O   0  0  0  0  0  0  0  0  0  0  0  0
   -5.9975    4.1658   -3.3451 C   0  0  0  0  0  0  0  0  0  0  0  0
   -5.4190    2.7756   -3.1332 C   0  0  0  0  0  0  0  0  0  0  0  0
   -5.5280    6.4800   -1.1948 C   0  0  0  0  0  0  0  0  0  0  0  0
   -7.0989    6.9398   -1.6089 S   0  0  0  0  0  0  0  0  0  0  0  0
   -2.4666    4.4483   -1.7893 C   0  0  0  0  0  0  0  0  0  0  0  0
   -1.4457    4.1936   -0.8805 C   0  0  0  0  0  0  0  0  0  0  0  0
   -1.7448    5.0142    0.5612 S   0  0  0  0  0  0  0  0  0  0  0  0
   -0.4602    3.1289   -1.0097 C   0  0  0  0  0  0  0  0  0  0  0  0
   -0.6750    1.7939   -0.6473 C   0  0  0  0  0  0  0  0  0  0  0  0
   -1.9171    1.2711   -0.1518 N   0  0  0  0  0  0  0  0  0  0  0  0
   -2.6690    0.3593   -0.9872 C   0  0  0  0  0  0  0  0  0  0  0  0
   -2.7650    0.5843   -2.3726 C   0  0  0  0  0  0  0  0  0  0  0  0
   -3.4470   -0.3197   -3.1891 C   0  0  0  0  0  0  0  0  0  0  0  0
   -4.0454   -1.4556   -2.6361 C   0  0  0  0  0  0  0  0  0  0  0  0
   -4.9486   -2.5971   -3.6800 S   0  0  0  0  0  0  0  0  0  0  0  0
   -6.5396   -1.7338   -3.4422 C   0  0  0  0  0  0  0  0  0  0  0  0
   -3.9512   -1.6941   -1.2612 C   0  0  0  0  0  0  0  0  0  0  0  0
   -3.2609   -0.7966   -0.4406 C   0  0  0  0  0  0  0  0  0  0  0  0
   -2.2766    1.4841    1.2291 C   0  0  0  0  0  0  0  0  0  0  0  0
   -1.2915    1.4852    2.2409 C   0  0  0  0  0  0  0  0  0  0  0  0
   -1.6584    1.5658    3.5861 C   0  0  0  0  0  0  0  0  0  0  0  0
   -3.0088    1.6634    3.9378 C   0  0  0  0  0  0  0  0  0  0  0  0
   -3.4754    1.6675    5.6679 S   0  0  0  0  0  0  0  0  0  0  0  0
   -3.6256   -0.1487    5.7430 C   0  0  0  0  0  0  0  0  0  0  0  0
   -3.9895    1.7202    2.9404 C   0  0  0  0  0  0  0  0  0  0  0  0
   -3.6284    1.6333    1.5916 C   0  0  0  0  0  0  0  0  0  0  0  0
    0.4072    1.0002   -0.9909 C   0  0  0  0  0  0  0  0  0  0  0  0
    0.6992   -0.6413   -0.9298 S   0  0  0  0  0  0  0  0  0  0  0  0
    2.2111   -0.5397   -1.7185 C   0  0  0  0  0  0  0  0  0  0  0  0
    2.4735    0.8140   -2.0277 C   0  0  0  0  0  0  0  0  0  0  0  0
    3.5241    1.2914   -2.8842 N   0  0  0  0  0  0  0  0  0  0  0  0
    4.3009    2.4377   -2.4381 C   0  0  0  0  0  0  0  0  0  0  0  0
    4.8282    3.3762   -3.3533 C   0  0  0  0  0  0  0  0  0  0  0  0
    5.5271    4.4952   -2.8973 C   0  0  0  0  0  0  0  0  0  0  0  0
    5.7101    4.7085   -1.5281 C   0  0  0  0  0  0  0  0  0  0  0  0
    6.5778    6.1732   -0.9495 S   0  0  0  0  0  0  0  0  0  0  0  0
    8.2070    5.3591   -0.9539 C   0  0  0  0  0  0  0  0  0  0  0  0
    5.1780    3.8014   -0.6148 C   0  0  0  0  0  0  0  0  0  0  0  0
    4.4834    2.6739   -1.0583 C   0  0  0  0  0  0  0  0  0  0  0  0
    3.4845    0.9010   -4.2787 C   0  0  0  0  0  0  0  0  0  0  0  0
    2.2490    0.7966   -4.9481 C   0  0  0  0  0  0  0  0  0  0  0  0
    2.2050    0.5225   -6.3141 C   0  0  0  0  0  0  0  0  0  0  0  0
    3.3874    0.3515   -7.0335 C   0  0  0  0  0  0  0  0  0  0  0  0
    3.3264    0.1048   -8.8111 S   0  0  0  0  0  0  0  0  0  0  0  0
    3.2587   -1.7107   -8.6874 C   0  0  0  0  0  0  0  0  0  0  0  0
    4.6186    0.4238   -6.3762 C   0  0  0  0  0  0  0  0  0  0  0  0
    4.6719    0.6976   -5.0069 C   0  0  0  0  0  0  0  0  0  0  0  0
    1.4365    1.6418   -1.5895 C   0  0  0  0  0  0  0  0  0  0  0  0
    1.0495    3.2758   -1.7741 S   0  0  0  0  0  0  0  0  0  0  0  0
    3.0285   -1.7428   -1.9413 C   0  0  0  0  0  0  0  0  0  0  0  0
    4.3444   -1.9548   -1.4680 C   0  0  0  0  0  0  0  0  0  0  0  0
    5.2884   -0.9376   -1.0768 N   0  0  0  0  0  0  0  0  0  0  0  0
    6.3245   -0.5681   -2.0273 C   0  0  0  0  0  0  0  0  0  0  0  0
    6.9962    0.6643   -1.9105 C   0  0  0  0  0  0  0  0  0  0  0  0
    8.0052    1.0162   -2.8040 C   0  0  0  0  0  0  0  0  0  0  0  0
    8.3844    0.1318   -3.8186 C   0  0  0  0  0  0  0  0  0  0  0  0
    9.7026    0.5887   -4.9555 S   0  0  0  0  0  0  0  0  0  0  0  0
    8.5569    1.2607   -6.1982 C   0  0  0  0  0  0  0  0  0  0  0  0
    7.7455   -1.1046   -3.9379 C   0  0  0  0  0  0  0  0  0  0  0  0
    6.7207   -1.4519   -3.0551 C   0  0  0  0  0  0  0  0  0  0  0  0
    5.4227   -0.6502    0.3395 C   0  0  0  0  0  0  0  0  0  0  0  0
    6.6936   -0.5025    0.9306 C   0  0  0  0  0  0  0  0  0  0  0  0
    6.8162   -0.2366    2.2970 C   0  0  0  0  0  0  0  0  0  0  0  0
    5.6822   -0.1737    3.1070 C   0  0  0  0  0  0  0  0  0  0  0  0
    5.8499    0.1298    4.8671 S   0  0  0  0  0  0  0  0  0  0  0  0
    6.2634   -1.6012    5.2540 C   0  0  0  0  0  0  0  0  0  0  0  0
    4.4162   -0.3579    2.5417 C   0  0  0  0  0  0  0  0  0  0  0  0
    4.2844   -0.5899    1.1694 C   0  0  0  0  0  0  0  0  0  0  0  0
    4.5754   -3.3073   -1.1912 C   0  0  0  0  0  0  0  0  0  0  0  0
    5.7256   -4.0907   -0.2494 S   0  0  0  0  0  0  0  0  0  0  0  0
    4.8372   -5.5384   -0.1445 C   0  0  0  0  0  0  0  0  0  0  0  0
    3.6374   -5.4134   -0.8639 C   0  0  0  0  0  0  0  0  0  0  0  0
    2.5439   -6.3490   -0.8080 N   0  0  0  0  0  0  0  0  0  0  0  0
    1.7739   -6.4050    0.4072 C   0  0  0  0  0  0  0  0  0  0  0  0
    0.9382   -5.3319    0.7607 C   0  0  0  0  0  0  0  0  0  0  0  0
    0.1393   -5.4045    1.9087 C   0  0  0  0  0  0  0  0  0  0  0  0
    0.1855   -6.5438    2.7245 C   0  0  0  0  0  0  0  0  0  0  0  0
   -0.9320   -6.6941    4.1236 S   0  0  0  0  0  0  0  0  0  0  0  0
    0.0741   -5.6624    5.2335 C   0  0  0  0  0  0  0  0  0  0  0  0
    1.0428   -7.6072    2.3941 C   0  0  0  0  0  0  0  0  0  0  0  0
    1.8281   -7.5377    1.2394 C   0  0  0  0  0  0  0  0  0  0  0  0
    2.1598   -7.1231   -1.9773 C   0  0  0  0  0  0  0  0  0  0  0  0
    2.7740   -6.9081   -3.2303 C   0  0  0  0  0  0  0  0  0  0  0  0
    2.3778   -7.6257   -4.3580 C   0  0  0  0  0  0  0  0  0  0  0  0
    1.3705   -8.5891   -4.2650 C   0  0  0  0  0  0  0  0  0  0  0  0
    0.8521   -9.4898   -5.7162 S   0  0  0  0  0  0  0  0  0  0  0  0
   -0.4846   -8.3177   -6.1076 C   0  0  0  0  0  0  0  0  0  0  0  0
    0.7741   -8.8448   -3.0270 C   0  0  0  0  0  0  0  0  0  0  0  0
    1.1497   -8.1115   -1.8970 C   0  0  0  0  0  0  0  0  0  0  0  0
    3.5442   -4.1527   -1.4522 C   0  0  0  0  0  0  0  0  0  0  0  0
    2.2615   -3.2657   -2.0462 S   0  0  0  0  0  0  0  0  0  0  0  0
    5.1264   -6.5946    0.8233 C   0  0  0  0  0  0  0  0  0  0  0  0
    4.7263   -6.5131    2.1091 C   0  0  0  0  0  0  0  0  0  0  0  0
    4.0466   -5.3654    2.7242 C   0  0  0  0  0  0  0  0  0  0  0  0
    3.6224   -4.3381    2.1319 O   0  0  0  0  0  0  0  0  0  0  0  0
    3.9687   -5.5899    4.1577 C   0  0  0  0  0  0  0  0  0  0  0  0
    3.5205   -4.7249    5.1625 C   0  0  0  0  0  0  0  0  0  0  0  0
    2.7569   -3.1874    4.7569 Cl  0  0  0  0  0  0  0  0  0  0  0  0
    3.7162   -5.0983    6.5005 C   0  0  0  0  0  0  0  0  0  0  0  0
    3.1259   -4.0492    7.7968 Cl  0  0  0  0  0  0  0  0  0  0  0  0
    4.4223   -6.2769    6.8118 C   0  0  0  0  0  0  0  0  0  0  0  0
    4.7755   -6.6710    8.4977 Cl  0  0  0  0  0  0  0  0  0  0  0  0
    4.8764   -7.1354    5.7863 C   0  0  0  0  0  0  0  0  0  0  0  0
    6.0471   -8.4080    6.1681 Cl  0  0  0  0  0  0  0  0  0  0  0  0
    4.5422   -6.8127    4.4520 C   0  0  0  0  0  0  0  0  0  0  0  0
    4.8805   -7.5288    3.1865 C   0  0  0  0  0  0  0  0  0  0  0  0
    4.8285   -8.8768    3.0115 C   0  0  0  0  0  0  0  0  0  0  0  0
    5.0569   -9.5143    1.7379 C   0  0  0  0  0  0  0  0  0  0  0  0
    5.2408  -10.0317    0.7169 N   0  0  0  0  0  0  0  0  0  0  0  0
    4.3433   -9.7580    4.0426 C   0  0  0  0  0  0  0  0  0  0  0  0
    3.9324  -10.4661    4.8638 N   0  0  0  0  0  0  0  0  0  0  0  0
   -9.1130    8.8622    0.6358 H   0  0  0  0  0  0  0  0  0  0  0  0
   -6.3302    7.9359    1.7236 H   0  0  0  0  0  0  0  0  0  0  0  0
   -2.1604    8.1006    1.8635 H   0  0  0  0  0  0  0  0  0  0  0  0
   -1.9656    8.7841    4.2149 H   0  0  0  0  0  0  0  0  0  0  0  0
   -2.8559    8.7590    6.5350 H   0  0  0  0  0  0  0  0  0  0  0  0
   -4.4994    7.9269    8.1727 H   0  0  0  0  0  0  0  0  0  0  0  0
   -6.2366    6.3110    7.4904 H   0  0  0  0  0  0  0  0  0  0  0  0
   -6.3569    5.5076    5.1552 H   0  0  0  0  0  0  0  0  0  0  0  0
   -5.5229    5.5976    2.8393 H   0  0  0  0  0  0  0  0  0  0  0  0
   -6.8397    4.3292   -2.6383 H   0  0  0  0  0  0  0  0  0  0  0  0
   -6.4007    4.2393   -4.3764 H   0  0  0  0  0  0  0  0  0  0  0  0
   -6.2040    2.0061   -3.2611 H   0  0  0  0  0  0  0  0  0  0  0  0
   -4.9956    2.6894   -2.1099 H   0  0  0  0  0  0  0  0  0  0  0  0
   -4.6106    2.5909   -3.8774 H   0  0  0  0  0  0  0  0  0  0  0  0
   -2.5541    3.9573   -2.7498 H   0  0  0  0  0  0  0  0  0  0  0  0
   -2.3046    1.4523   -2.8205 H   0  0  0  0  0  0  0  0  0  0  0  0
   -3.5092   -0.1390   -4.2517 H   0  0  0  0  0  0  0  0  0  0  0  0
   -6.4789   -0.6995   -3.8415 H   0  0  0  0  0  0  0  0  0  0  0  0
   -7.3319   -2.2874   -3.9715 H   0  0  0  0  0  0  0  0  0  0  0  0
   -6.7938   -1.6953   -2.3616 H   0  0  0  0  0  0  0  0  0  0  0  0
   -4.4046   -2.5808   -0.8295 H   0  0  0  0  0  0  0  0  0  0  0  0
   -3.1701   -1.0100    0.6126 H   0  0  0  0  0  0  0  0  0  0  0  0
   -0.2479    1.3717    1.9883 H   0  0  0  0  0  0  0  0  0  0  0  0
   -0.9015    1.5351    4.3521 H   0  0  0  0  0  0  0  0  0  0  0  0
   -2.6479   -0.6315    5.5221 H   0  0  0  0  0  0  0  0  0  0  0  0
   -4.3858   -0.5026    5.0123 H   0  0  0  0  0  0  0  0  0  0  0  0
   -3.9417   -0.4424    6.7659 H   0  0  0  0  0  0  0  0  0  0  0  0
   -5.0352    1.8089    3.2115 H   0  0  0  0  0  0  0  0  0  0  0  0
   -4.3993    1.6528    0.8353 H   0  0  0  0  0  0  0  0  0  0  0  0
    4.6692    3.2730   -4.4161 H   0  0  0  0  0  0  0  0  0  0  0  0
    5.9194    5.2147   -3.6171 H   0  0  0  0  0  0  0  0  0  0  0  0
    8.4311    4.9510   -1.9647 H   0  0  0  0  0  0  0  0  0  0  0  0
    8.9782    6.1131   -0.6978 H   0  0  0  0  0  0  0  0  0  0  0  0
    8.2316    4.5394   -0.1994 H   0  0  0  0  0  0  0  0  0  0  0  0
    5.3049    3.9686    0.4525 H   0  0  0  0  0  0  0  0  0  0  0  0
    4.0935    1.9872   -0.3193 H   0  0  0  0  0  0  0  0  0  0  0  0
    1.3184    0.9663   -4.4206 H   0  0  0  0  0  0  0  0  0  0  0  0
    1.2435    0.4727   -6.8216 H   0  0  0  0  0  0  0  0  0  0  0  0
    2.4532   -2.0326   -7.9929 H   0  0  0  0  0  0  0  0  0  0  0  0
    3.0542   -2.1294   -9.6957 H   0  0  0  0  0  0  0  0  0  0  0  0
    4.2387   -2.0957   -8.3242 H   0  0  0  0  0  0  0  0  0  0  0  0
    5.5402    0.2954   -6.9325 H   0  0  0  0  0  0  0  0  0  0  0  0
    5.6268    0.7914   -4.5230 H   0  0  0  0  0  0  0  0  0  0  0  0
    6.7484    1.3513   -1.1202 H   0  0  0  0  0  0  0  0  0  0  0  0
    8.4972    1.9767   -2.7007 H   0  0  0  0  0  0  0  0  0  0  0  0
    7.9046    2.0401   -5.7450 H   0  0  0  0  0  0  0  0  0  0  0  0
    7.9309    0.4432   -6.6149 H   0  0  0  0  0  0  0  0  0  0  0  0
    9.1393    1.7167   -7.0208 H   0  0  0  0  0  0  0  0  0  0  0  0
    8.0362   -1.7897   -4.7233 H   0  0  0  0  0  0  0  0  0  0  0  0
    6.2501   -2.4114   -3.1809 H   0  0  0  0  0  0  0  0  0  0  0  0
    7.5973   -0.6071    0.3465 H   0  0  0  0  0  0  0  0  0  0  0  0
    7.7997   -0.1127    2.7327 H   0  0  0  0  0  0  0  0  0  0  0  0
    7.2606   -1.8499    4.8303 H   0  0  0  0  0  0  0  0  0  0  0  0
    6.2967   -1.7349    6.3559 H   0  0  0  0  0  0  0  0  0  0  0  0
    5.5002   -2.2828    4.8251 H   0  0  0  0  0  0  0  0  0  0  0  0
    3.5380   -0.3209    3.1630 H   0  0  0  0  0  0  0  0  0  0  0  0
    3.2994   -0.7312    0.7648 H   0  0  0  0  0  0  0  0  0  0  0  0
    0.8720   -4.4554    0.1299 H   0  0  0  0  0  0  0  0  0  0  0  0
   -0.5237   -4.5849    2.1591 H   0  0  0  0  0  0  0  0  0  0  0  0
   -0.4709   -5.5225    6.1915 H   0  0  0  0  0  0  0  0  0  0  0  0
    1.0467   -6.1689    5.4374 H   0  0  0  0  0  0  0  0  0  0  0  0
    0.2486   -4.6647    4.7743 H   0  0  0  0  0  0  0  0  0  0  0  0
    1.0785   -8.4908    3.0167 H   0  0  0  0  0  0  0  0  0  0  0  0
    2.4646   -8.3797    0.9684 H   0  0  0  0  0  0  0  0  0  0  0  0
    3.5526   -6.1688   -3.3500 H   0  0  0  0  0  0  0  0  0  0  0  0
    2.8421   -7.4245   -5.3145 H   0  0  0  0  0  0  0  0  0  0  0  0
   -1.0007   -8.6415   -7.0318 H   0  0  0  0  0  0  0  0  0  0  0  0
   -0.0683   -7.3019   -6.2685 H   0  0  0  0  0  0  0  0  0  0  0  0
   -1.2184   -8.2832   -5.2772 H   0  0  0  0  0  0  0  0  0  0  0  0
   -0.0087   -9.5923   -2.9395 H   0  0  0  0  0  0  0  0  0  0  0  0
    0.6287   -8.3214   -0.9772 H   0  0  0  0  0  0  0  0  0  0  0  0
    5.6951   -7.4381    0.4632 H   0  0  0  0  0  0  0  0  0  0  0  0
  1  2  2  3
  2  3  1  0
  3  4  2  0
  3  5  1  0
  5  6  2  0
  6  7  1  0
  6  8  1  0
  8  9  1  0
  8 10  2  0
 10 11  1  0
 10 12  1  0
 12 13  1  0
 12 14  2  0
 14 15  1  0
 15 16  2  3
 16 17  1  0
 17 18  3  0
 16 19  1  0
 19 20  3  0
  1 21  1  0
 21 22  2  0
 22 23  1  0
 23 24  2  0
 24 25  1  0
 25 26  2  0
 26 27  1  0
 27 28  2  0
 28 29  1  0
 29 30  2  0
 30 31  1  0
 31 32  2  0
 32 33  1  0
 33 34  2  0
 24 35  1  0
 35 36  2  0
 36 37  1  0
 37 38  1  0
 38 39  1  0
 39 40  1  0
 37 41  2  0
 41 42  1  0
 36 43  1  0
 43 44  2  0
 44 45  1  0
 44 46  1  0
 46 47  2  0
 47 48  1  0
 48 49  1  0
 49 50  2  0
 50 51  1  0
 51 52  2  0
 52 53  1  0
 53 54  1  0
 52 55  1  0
 55 56  2  0
 48 57  1  0
 57 58  2  0
 58 59  1  0
 59 60  2  0
 60 61  1  0
 61 62  1  0
 60 63  1  0
 63 64  2  0
 47 65  1  0
 65 66  1  0
 66 67  1  0
 67 68  2  0
 68 69  1  0
 69 70  1  0
 70 71  2  0
 71 72  1  0
 72 73  2  0
 73 74  1  0
 74 75  1  0
 73 76  1  0
 76 77  2  0
 69 78  1  0
 78 79  2  0
 79 80  1  0
 80 81  2  0
 81 82  1  0
 82 83  1  0
 81 84  1  0
 84 85  2  0
 68 86  1  0
 86 87  1  0
 67 88  1  0
 88 89  2  0
 89 90  1  0
 90 91  1  0
 91 92  2  0
 92 93  1  0
 93 94  2  0
 94 95  1  0
 95 96  1  0
 94 97  1  0
 97 98  2  0
 90 99  1  0
 99100  2  0
100101  1  0
101102  2  0
102103  1  0
103104  1  0
102105  1  0
105106  2  0
 89107  1  0
107108  1  0
108109  1  0
109110  2  0
110111  1  0
111112  1  0
112113  2  0
113114  1  0
114115  2  0
115116  1  0
116117  1  0
115118  1  0
118119  2  0
111120  1  0
120121  2  0
121122  1  0
122123  2  0
123124  1  0
124125  1  0
123126  1  0
126127  2  0
110128  1  0
128129  1  0
109130  1  0
130131  2  3
131132  1  0
132133  2  0
132134  1  0
134135  2  0
135136  1  0
135137  1  0
137138  1  0
137139  2  0
139140  1  0
139141  1  0
141142  1  0
141143  2  0
143144  1  0
144145  2  3
145146  1  0
146147  3  0
145148  1  0
148149  3  0
 15  2  1  0
 42 21  1  0
 87 46  1  0
129 88  1  0
144131  1  0
 14  5  1  0
 41 23  1  0
 56 49  1  0
 64 57  1  0
 86 65  2  0
 98 91  1  0
106 99  1  0
128107  2  0
143134  1  0
 34 25  1  0
 45 35  1  0
 77 70  1  0
 85 78  1  0
119112  1  0
127120  1  0
 33 28  1  0
  1150  1  0
 22151  1  0
 26152  1  0
 27153  1  0
 29154  1  0
 30155  1  0
 31156  1  0
 32157  1  0
 34158  1  0
 39159  1  0
 39160  1  0
 40161  1  0
 40162  1  0
 40163  1  0
 43164  1  0
 50165  1  0
 51166  1  0
 54167  1  0
 54168  1  0
 54169  1  0
 55170  1  0
 56171  1  0
 58172  1  0
 59173  1  0
 62174  1  0
 62175  1  0
 62176  1  0
 63177  1  0
 64178  1  0
 71179  1  0
 72180  1  0
 75181  1  0
 75182  1  0
 75183  1  0
 76184  1  0
 77185  1  0
 79186  1  0
 80187  1  0
 83188  1  0
 83189  1  0
 83190  1  0
 84191  1  0
 85192  1  0
 92193  1  0
 93194  1  0
 96195  1  0
 96196  1  0
 96197  1  0
 97198  1  0
 98199  1  0
100200  1  0
101201  1  0
104202  1  0
104203  1  0
104204  1  0
105205  1  0
106206  1  0
113207  1  0
114208  1  0
117209  1  0
117210  1  0
117211  1  0
118212  1  0
119213  1  0
121214  1  0
122215  1  0
125216  1  0
125217  1  0
125218  1  0
126219  1  0
127220  1  0
130221  1  0
M  END

