
     RDKit          3D

139150  0  0  0  0  0  0  0  0999 V2000
   -7.1841    1.0404   -2.1734 C   0  0  0  0  0  0  0  0  0  0  0  0
   -7.5213    2.3107   -1.8400 C   0  0  0  0  0  0  0  0  0  0  0  0
   -6.6479    3.2676   -1.1380 C   0  0  0  0  0  0  0  0  0  0  0  0
   -5.5073    3.0133   -0.6278 O   0  0  0  0  0  0  0  0  0  0  0  0
   -7.3501    4.5264   -0.9948 C   0  0  0  0  0  0  0  0  0  0  0  0
   -6.9316    5.7004   -0.3545 C   0  0  0  0  0  0  0  0  0  0  0  0
   -5.2691    5.8848    0.2061 Cl  0  0  0  0  0  0  0  0  0  0  0  0
   -7.8769    6.7303   -0.1546 C   0  0  0  0  0  0  0  0  0  0  0  0
   -7.3747    8.2387    0.6222 Cl  0  0  0  0  0  0  0  0  0  0  0  0
   -9.2220    6.5189   -0.5026 C   0  0  0  0  0  0  0  0  0  0  0  0
  -10.4179    7.7626   -0.1523 Cl  0  0  0  0  0  0  0  0  0  0  0  0
   -9.6351    5.3073   -1.0921 C   0  0  0  0  0  0  0  0  0  0  0  0
  -11.3318    4.8436   -0.9859 Cl  0  0  0  0  0  0  0  0  0  0  0  0
   -8.6425    4.3743   -1.4754 C   0  0  0  0  0  0  0  0  0  0  0  0
   -8.7846    3.0497   -2.1523 C   0  0  0  0  0  0  0  0  0  0  0  0
   -9.7355    2.7329   -3.0770 C   0  0  0  0  0  0  0  0  0  0  0  0
  -10.5628    3.7455   -3.6765 C   0  0  0  0  0  0  0  0  0  0  0  0
  -11.2099    4.5601   -4.1878 N   0  0  0  0  0  0  0  0  0  0  0  0
   -9.9974    1.3882   -3.4988 C   0  0  0  0  0  0  0  0  0  0  0  0
  -10.2340    0.2987   -3.8282 N   0  0  0  0  0  0  0  0  0  0  0  0
   -5.9093    0.4085   -1.7790 C   0  0  0  0  0  0  0  0  0  0  0  0
   -4.7035    0.8749   -2.3227 C   0  0  0  0  0  0  0  0  0  0  0  0
   -3.4940    0.3118   -1.9137 C   0  0  0  0  0  0  0  0  0  0  0  0
   -3.4845   -0.7447   -0.9894 C   0  0  0  0  0  0  0  0  0  0  0  0
   -4.6949   -1.2551   -0.4931 C   0  0  0  0  0  0  0  0  0  0  0  0
   -4.6943   -2.2612    0.4202 F   0  0  0  0  0  0  0  0  0  0  0  0
   -5.9069   -0.6780   -0.8845 C   0  0  0  0  0  0  0  0  0  0  0  0
   -7.0818   -1.1536   -0.3909 F   0  0  0  0  0  0  0  0  0  0  0  0
   -2.2049   -1.2868   -0.5043 C   0  0  0  0  0  0  0  0  0  0  0  0
   -1.2835   -0.6071    0.3054 C   0  0  0  0  0  0  0  0  0  0  0  0
   -1.4784    0.7026    0.8766 N   0  0  0  0  0  0  0  0  0  0  0  0
   -2.6510    0.9991    1.6579 C   0  0  0  0  0  0  0  0  0  0  0  0
   -3.3136   -0.0209    2.3677 C   0  0  0  0  0  0  0  0  0  0  0  0
   -4.4129    0.2737    3.1806 C   0  0  0  0  0  0  0  0  0  0  0  0
   -4.8710    1.5914    3.2980 C   0  0  0  0  0  0  0  0  0  0  0  0
   -6.2561    1.9656    4.3697 S   0  0  0  0  0  0  0  0  0  0  0  0
   -5.2099    2.1367    5.8543 C   0  0  0  0  0  0  0  0  0  0  0  0
   -4.2528    2.6109    2.5609 C   0  0  0  0  0  0  0  0  0  0  0  0
   -3.1413    2.3211    1.7607 C   0  0  0  0  0  0  0  0  0  0  0  0
   -0.3944    1.6544    0.7899 C   0  0  0  0  0  0  0  0  0  0  0  0
    0.1272    2.2548    1.9534 C   0  0  0  0  0  0  0  0  0  0  0  0
    1.2017    3.1445    1.8634 C   0  0  0  0  0  0  0  0  0  0  0  0
    1.7653    3.4491    0.6145 C   0  0  0  0  0  0  0  0  0  0  0  0
    3.0946    4.6475    0.4890 S   0  0  0  0  0  0  0  0  0  0  0  0
    1.9452    6.0619    0.3657 C   0  0  0  0  0  0  0  0  0  0  0  0
    1.2465    2.8486   -0.5358 C   0  0  0  0  0  0  0  0  0  0  0  0
    0.1840    1.9511   -0.4516 C   0  0  0  0  0  0  0  0  0  0  0  0
   -0.1162   -1.3484    0.4415 C   0  0  0  0  0  0  0  0  0  0  0  0
    1.3412   -1.0468    1.1851 S   0  0  0  0  0  0  0  0  0  0  0  0
    2.0883   -2.4633    0.6396 C   0  0  0  0  0  0  0  0  0  0  0  0
    1.1484   -3.2096   -0.1255 C   0  0  0  0  0  0  0  0  0  0  0  0
    1.3938   -4.5338   -0.6548 N   0  0  0  0  0  0  0  0  0  0  0  0
    0.5889   -5.0794   -1.7027 C   0  0  0  0  0  0  0  0  0  0  0  0
   -0.5251   -5.8801   -1.4030 C   0  0  0  0  0  0  0  0  0  0  0  0
   -1.2653   -6.4779   -2.4347 C   0  0  0  0  0  0  0  0  0  0  0  0
   -0.8839   -6.2846   -3.7722 C   0  0  0  0  0  0  0  0  0  0  0  0
   -1.8146   -7.0666   -5.0907 S   0  0  0  0  0  0  0  0  0  0  0  0
   -2.9002   -5.6334   -5.3417 C   0  0  0  0  0  0  0  0  0  0  0  0
    0.2274   -5.4841   -4.0692 C   0  0  0  0  0  0  0  0  0  0  0  0
    0.9567   -4.8785   -3.0449 C   0  0  0  0  0  0  0  0  0  0  0  0
    2.1356   -5.4751    0.1310 C   0  0  0  0  0  0  0  0  0  0  0  0
    3.3535   -5.9911   -0.3296 C   0  0  0  0  0  0  0  0  0  0  0  0
    4.0073   -6.9950    0.3865 C   0  0  0  0  0  0  0  0  0  0  0  0
    3.4506   -7.4868    1.5688 C   0  0  0  0  0  0  0  0  0  0  0  0
    4.2982   -8.7743    2.4969 S   0  0  0  0  0  0  0  0  0  0  0  0
    5.0253   -7.5976    3.6931 C   0  0  0  0  0  0  0  0  0  0  0  0
    2.2152   -6.9985    2.0196 C   0  0  0  0  0  0  0  0  0  0  0  0
    1.5659   -5.9862    1.3160 C   0  0  0  0  0  0  0  0  0  0  0  0
   -0.0774   -2.5336   -0.2134 C   0  0  0  0  0  0  0  0  0  0  0  0
   -1.5332   -2.7577   -1.0282 S   0  0  0  0  0  0  0  0  0  0  0  0
    3.5650   -2.5354    0.6141 C   0  0  0  0  0  0  0  0  0  0  0  0
    4.2620   -2.0056    1.7179 C   0  0  0  0  0  0  0  0  0  0  0  0
    5.5277   -1.4128    1.5469 C   0  0  0  0  0  0  0  0  0  0  0  0
    6.1308   -0.6513    2.5557 O   0  0  0  0  0  0  0  0  0  0  0  0
    5.5259   -0.3037    3.8068 C   0  0  0  0  0  0  0  0  0  0  0  0
    4.4417    0.7572    3.6125 C   0  0  0  0  0  0  0  0  0  0  0  0
    6.1614   -1.5181    0.2952 C   0  0  0  0  0  0  0  0  0  0  0  0
    5.5527   -2.2521   -0.7338 C   0  0  0  0  0  0  0  0  0  0  0  0
    4.2457   -2.7184   -0.6023 C   0  0  0  0  0  0  0  0  0  0  0  0
    3.6049   -3.1511   -1.7077 F   0  0  0  0  0  0  0  0  0  0  0  0
    7.3126   -0.6660   -0.0601 C   0  0  0  0  0  0  0  0  0  0  0  0
    7.1094    0.4685   -0.7788 C   0  0  0  0  0  0  0  0  0  0  0  0
    5.7889    1.0400   -1.0902 C   0  0  0  0  0  0  0  0  0  0  0  0
    4.7619    0.9524   -0.3662 O   0  0  0  0  0  0  0  0  0  0  0  0
    5.8731    1.7488   -2.3451 C   0  0  0  0  0  0  0  0  0  0  0  0
    4.8219    2.3065   -3.0868 C   0  0  0  0  0  0  0  0  0  0  0  0
    5.1105    2.8179   -4.3596 C   0  0  0  0  0  0  0  0  0  0  0  0
    6.4215    2.7767   -4.8587 C   0  0  0  0  0  0  0  0  0  0  0  0
    7.4619    2.2128   -4.0936 C   0  0  0  0  0  0  0  0  0  0  0  0
    7.1767    1.7177   -2.8065 C   0  0  0  0  0  0  0  0  0  0  0  0
    8.0466    1.0395   -1.7938 C   0  0  0  0  0  0  0  0  0  0  0  0
    9.4004    1.0425   -1.7267 C   0  0  0  0  0  0  0  0  0  0  0  0
   10.2220    1.5709   -2.7894 C   0  0  0  0  0  0  0  0  0  0  0  0
   10.8852    1.9911   -3.6412 N   0  0  0  0  0  0  0  0  0  0  0  0
   10.1120    0.5846   -0.5589 C   0  0  0  0  0  0  0  0  0  0  0  0
   10.6801    0.2122    0.3786 N   0  0  0  0  0  0  0  0  0  0  0  0
   -7.8812    0.3984   -2.6811 H   0  0  0  0  0  0  0  0  0  0  0  0
   -4.7107    1.7083   -3.0205 H   0  0  0  0  0  0  0  0  0  0  0  0
   -2.5772    0.6988   -2.3313 H   0  0  0  0  0  0  0  0  0  0  0  0
   -2.9640   -1.0469    2.3340 H   0  0  0  0  0  0  0  0  0  0  0  0
   -4.8793   -0.5076    3.7546 H   0  0  0  0  0  0  0  0  0  0  0  0
   -4.4821    2.9682    5.7176 H   0  0  0  0  0  0  0  0  0  0  0  0
   -4.6589    1.1840    6.0477 H   0  0  0  0  0  0  0  0  0  0  0  0
   -5.8743    2.3615    6.7182 H   0  0  0  0  0  0  0  0  0  0  0  0
   -4.6336    3.6133    2.5940 H   0  0  0  0  0  0  0  0  0  0  0  0
   -2.6966    3.1089    1.1775 H   0  0  0  0  0  0  0  0  0  0  0  0
   -0.2968    2.0267    2.9240 H   0  0  0  0  0  0  0  0  0  0  0  0
    1.5914    3.5996    2.7707 H   0  0  0  0  0  0  0  0  0  0  0  0
    1.3974    6.1741    1.3262 H   0  0  0  0  0  0  0  0  0  0  0  0
    1.2282    5.8936   -0.4625 H   0  0  0  0  0  0  0  0  0  0  0  0
    2.5151    6.9942    0.1593 H   0  0  0  0  0  0  0  0  0  0  0  0
    1.6712    3.0856   -1.4989 H   0  0  0  0  0  0  0  0  0  0  0  0
   -0.1982    1.4883   -1.3493 H   0  0  0  0  0  0  0  0  0  0  0  0
   -0.8348   -6.0224   -0.3789 H   0  0  0  0  0  0  0  0  0  0  0  0
   -2.1252   -7.0825   -2.1917 H   0  0  0  0  0  0  0  0  0  0  0  0
   -3.4674   -5.4164   -4.4109 H   0  0  0  0  0  0  0  0  0  0  0  0
   -2.3029   -4.7425   -5.6307 H   0  0  0  0  0  0  0  0  0  0  0  0
   -3.6134   -5.8632   -6.1524 H   0  0  0  0  0  0  0  0  0  0  0  0
    0.5370   -5.3497   -5.1018 H   0  0  0  0  0  0  0  0  0  0  0  0
    1.8201   -4.2748   -3.2834 H   0  0  0  0  0  0  0  0  0  0  0  0
    3.7915   -5.6182   -1.2436 H   0  0  0  0  0  0  0  0  0  0  0  0
    4.9353   -7.3974    0.0105 H   0  0  0  0  0  0  0  0  0  0  0  0
    4.2371   -7.2067    4.3762 H   0  0  0  0  0  0  0  0  0  0  0  0
    5.4923   -6.7554    3.1478 H   0  0  0  0  0  0  0  0  0  0  0  0
    5.8026   -8.1055    4.2908 H   0  0  0  0  0  0  0  0  0  0  0  0
    1.7653   -7.3826    2.9246 H   0  0  0  0  0  0  0  0  0  0  0  0
    0.6092   -5.6252    1.6611 H   0  0  0  0  0  0  0  0  0  0  0  0
    3.7339   -1.9033    2.6502 H   0  0  0  0  0  0  0  0  0  0  0  0
    5.1042   -1.2029    4.3003 H   0  0  0  0  0  0  0  0  0  0  0  0
    6.2966    0.1145    4.4837 H   0  0  0  0  0  0  0  0  0  0  0  0
    4.9022    1.6989    3.2293 H   0  0  0  0  0  0  0  0  0  0  0  0
    3.9387    0.9630    4.5809 H   0  0  0  0  0  0  0  0  0  0  0  0
    3.6796    0.4437    2.8744 H   0  0  0  0  0  0  0  0  0  0  0  0
    6.0270   -2.3138   -1.7113 H   0  0  0  0  0  0  0  0  0  0  0  0
    8.2786   -1.1323   -0.0299 H   0  0  0  0  0  0  0  0  0  0  0  0
    3.8042    2.2986   -2.7184 H   0  0  0  0  0  0  0  0  0  0  0  0
    4.3161    3.2438   -4.9637 H   0  0  0  0  0  0  0  0  0  0  0  0
    6.6299    3.1417   -5.8578 H   0  0  0  0  0  0  0  0  0  0  0  0
    8.4403    2.1437   -4.5427 H   0  0  0  0  0  0  0  0  0  0  0  0
  1  2  2  3
  2  3  1  0
  3  4  2  0
  3  5  1  0
  5  6  2  0
  6  7  1  0
  6  8  1  0
  8  9  1  0
  8 10  2  0
 10 11  1  0
 10 12  1  0
 12 13  1  0
 12 14  2  0
 14 15  1  0
 15 16  2  3
 16 17  1  0
 17 18  3  0
 16 19  1  0
 19 20  3  0
  1 21  1  0
 21 22  2  0
 22 23  1  0
 23 24  2  0
 24 25  1  0
 25 26  1  0
 25 27  2  0
 27 28  1  0
 24 29  1  0
 29 30  2  0
 30 31  1  0
 31 32  1  0
 32 33  2  0
 33 34  1  0
 34 35  2  0
 35 36  1  0
 36 37  1  0
 35 38  1  0
 38 39  2  0
 31 40  1  0
 40 41  2  0
 41 42  1  0
 42 43  2  0
 43 44  1  0
 44 45  1  0
 43 46  1  0
 46 47  2  0
 30 48  1  0
 48 49  1  0
 49 50  1  0
 50 51  2  0
 51 52  1  0
 52 53  1  0
 53 54  2  0
 54 55  1  0
 55 56  2  0
 56 57  1  0
 57 58  1  0
 56 59  1  0
 59 60  2  0
 52 61  1  0
 61 62  2  0
 62 63  1  0
 63 64  2  0
 64 65  1  0
 65 66  1  0
 64 67  1  0
 67 68  2  0
 51 69  1  0
 69 70  1  0
 50 71  1  0
 71 72  2  0
 72 73  1  0
 73 74  1  0
 74 75  1  0
 75 76  1  0
 73 77  2  0
 77 78  1  0
 78 79  2  0
 79 80  1  0
 77 81  1  0
 81 82  2  3
 82 83  1  0
 83 84  2  0
 83 85  1  0
 85 86  2  0
 86 87  1  0
 87 88  2  0
 88 89  1  0
 89 90  2  0
 90 91  1  0
 91 92  2  3
 92 93  1  0
 93 94  3  0
 92 95  1  0
 95 96  3  0
 15  2  1  0
 27 21  1  0
 70 29  1  0
 79 71  1  0
 91 82  1  0
 14  5  1  0
 39 32  1  0
 47 40  1  0
 69 48  2  0
 90 85  1  0
 60 53  1  0
 68 61  1  0
  1 97  1  0
 22 98  1  0
 23 99  1  0
 33100  1  0
 34101  1  0
 37102  1  0
 37103  1  0
 37104  1  0
 38105  1  0
 39106  1  0
 41107  1  0
 42108  1  0
 45109  1  0
 45110  1  0
 45111  1  0
 46112  1  0
 47113  1  0
 54114  1  0
 55115  1  0
 58116  1  0
 58117  1  0
 58118  1  0
 59119  1  0
 60120  1  0
 62121  1  0
 63122  1  0
 66123  1  0
 66124  1  0
 66125  1  0
 67126  1  0
 68127  1  0
 72128  1  0
 75129  1  0
 75130  1  0
 76131  1  0
 76132  1  0
 76133  1  0
 78134  1  0
 81135  1  0
 86136  1  0
 87137  1  0
 88138  1  0
 89139  1  0
M  END

