
     RDKit          3D

134147  0  0  0  0  0  0  0  0999 V2000
   -2.9784    6.1443    1.9172 C   0  0  0  0  0  0  0  0  0  0  0  0
   -3.2914    5.7764    3.1782 C   0  0  0  0  0  0  0  0  0  0  0  0
   -2.7861    4.5809    3.8750 C   0  0  0  0  0  0  0  0  0  0  0  0
   -1.9764    3.7340    3.4140 O   0  0  0  0  0  0  0  0  0  0  0  0
   -3.2828    4.5847    5.2440 C   0  0  0  0  0  0  0  0  0  0  0  0
   -3.0600    3.6493    6.2626 C   0  0  0  0  0  0  0  0  0  0  0  0
   -1.8780    2.3438    6.0521 Cl  0  0  0  0  0  0  0  0  0  0  0  0
   -3.7704    3.7992    7.4710 C   0  0  0  0  0  0  0  0  0  0  0  0
   -3.4799    2.6703    8.7982 Cl  0  0  0  0  0  0  0  0  0  0  0  0
   -4.7447    4.8215    7.6060 C   0  0  0  0  0  0  0  0  0  0  0  0
   -5.6998    4.9373    9.0886 Cl  0  0  0  0  0  0  0  0  0  0  0  0
   -4.9468    5.7510    6.5564 C   0  0  0  0  0  0  0  0  0  0  0  0
   -6.3711    6.8002    6.5833 Cl  0  0  0  0  0  0  0  0  0  0  0  0
   -4.1019    5.6833    5.4248 C   0  0  0  0  0  0  0  0  0  0  0  0
   -4.0400    6.5614    4.2168 C   0  0  0  0  0  0  0  0  0  0  0  0
   -4.2465    7.9019    4.2277 C   0  0  0  0  0  0  0  0  0  0  0  0
   -4.3802    8.6885    3.0376 C   0  0  0  0  0  0  0  0  0  0  0  0
   -4.5272    9.3275    2.0807 N   0  0  0  0  0  0  0  0  0  0  0  0
   -4.2303    8.6471    5.4634 C   0  0  0  0  0  0  0  0  0  0  0  0
   -4.1981    9.2504    6.4519 N   0  0  0  0  0  0  0  0  0  0  0  0
   -2.2335    5.2858    0.9748 C   0  0  0  0  0  0  0  0  0  0  0  0
   -2.6708    3.9789    0.7107 C   0  0  0  0  0  0  0  0  0  0  0  0
   -1.9058    3.1340   -0.0831 C   0  0  0  0  0  0  0  0  0  0  0  0
   -0.7084    3.5849   -0.6665 C   0  0  0  0  0  0  0  0  0  0  0  0
   -0.3380    4.9311   -0.5045 C   0  0  0  0  0  0  0  0  0  0  0  0
    0.7779    5.4161   -1.0981 F   0  0  0  0  0  0  0  0  0  0  0  0
   -1.0990    5.7784    0.3110 C   0  0  0  0  0  0  0  0  0  0  0  0
   -0.7007    7.0653    0.4894 F   0  0  0  0  0  0  0  0  0  0  0  0
    0.1715    2.5882   -1.3185 C   0  0  0  0  0  0  0  0  0  0  0  0
    1.4966    2.3086   -0.9384 C   0  0  0  0  0  0  0  0  0  0  0  0
    2.3855    3.2232   -0.2754 N   0  0  0  0  0  0  0  0  0  0  0  0
    3.5569    3.6387   -1.0056 C   0  0  0  0  0  0  0  0  0  0  0  0
    4.8349    3.5300   -0.4341 C   0  0  0  0  0  0  0  0  0  0  0  0
    5.9713    3.9001   -1.1622 C   0  0  0  0  0  0  0  0  0  0  0  0
    5.8390    4.4039   -2.4660 C   0  0  0  0  0  0  0  0  0  0  0  0
    7.2939    4.8982   -3.4015 S   0  0  0  0  0  0  0  0  0  0  0  0
    7.3671    3.3529   -4.3632 C   0  0  0  0  0  0  0  0  0  0  0  0
    4.5667    4.5265   -3.0374 C   0  0  0  0  0  0  0  0  0  0  0  0
    3.4349    4.1295   -2.3171 C   0  0  0  0  0  0  0  0  0  0  0  0
    2.1720    3.6452    1.0916 C   0  0  0  0  0  0  0  0  0  0  0  0
    2.6159    4.9103    1.5238 C   0  0  0  0  0  0  0  0  0  0  0  0
    2.4745    5.2910    2.8583 C   0  0  0  0  0  0  0  0  0  0  0  0
    1.8874    4.4193    3.7785 C   0  0  0  0  0  0  0  0  0  0  0  0
    1.8049    4.8706    5.5205 S   0  0  0  0  0  0  0  0  0  0  0  0
    0.3110    5.9041    5.3412 C   0  0  0  0  0  0  0  0  0  0  0  0
    1.4022    3.1753    3.3546 C   0  0  0  0  0  0  0  0  0  0  0  0
    1.5302    2.7946    2.0185 C   0  0  0  0  0  0  0  0  0  0  0  0
    1.8620    0.9955   -1.2388 C   0  0  0  0  0  0  0  0  0  0  0  0
    2.8533   -0.0580   -0.3902 S   0  0  0  0  0  0  0  0  0  0  0  0
    2.0248   -1.4960   -0.8214 C   0  0  0  0  0  0  0  0  0  0  0  0
    0.9901   -1.1150   -1.7083 C   0  0  0  0  0  0  0  0  0  0  0  0
    0.0591   -2.0014   -2.3474 N   0  0  0  0  0  0  0  0  0  0  0  0
    0.1251   -2.0749   -3.7874 C   0  0  0  0  0  0  0  0  0  0  0  0
    1.3557   -2.3287   -4.4211 C   0  0  0  0  0  0  0  0  0  0  0  0
    1.4557   -2.3179   -5.8123 C   0  0  0  0  0  0  0  0  0  0  0  0
    0.3380   -1.9936   -6.5919 C   0  0  0  0  0  0  0  0  0  0  0  0
    0.4969   -1.9167   -8.3775 S   0  0  0  0  0  0  0  0  0  0  0  0
    1.2927   -0.2814   -8.3494 C   0  0  0  0  0  0  0  0  0  0  0  0
   -0.8909   -1.7184   -5.9721 C   0  0  0  0  0  0  0  0  0  0  0  0
   -1.0011   -1.7700   -4.5754 C   0  0  0  0  0  0  0  0  0  0  0  0
   -1.0056   -2.6370   -1.5977 C   0  0  0  0  0  0  0  0  0  0  0  0
   -1.4204   -2.1148   -0.3536 C   0  0  0  0  0  0  0  0  0  0  0  0
   -2.4292   -2.7436    0.3792 C   0  0  0  0  0  0  0  0  0  0  0  0
   -3.0104   -3.9232   -0.0981 C   0  0  0  0  0  0  0  0  0  0  0  0
   -4.2404   -4.7761    0.8813 S   0  0  0  0  0  0  0  0  0  0  0  0
   -2.9958   -5.7939    1.7531 C   0  0  0  0  0  0  0  0  0  0  0  0
   -2.6030   -4.4544   -1.3280 C   0  0  0  0  0  0  0  0  0  0  0  0
   -1.6061   -3.8196   -2.0670 C   0  0  0  0  0  0  0  0  0  0  0  0
    0.9152    0.2660   -1.8838 C   0  0  0  0  0  0  0  0  0  0  0  0
   -0.4494    1.2061   -2.0986 S   0  0  0  0  0  0  0  0  0  0  0  0
    2.0481   -2.7405    0.0056 C   0  0  0  0  0  0  0  0  0  0  0  0
    1.8428   -4.0156   -0.5571 C   0  0  0  0  0  0  0  0  0  0  0  0
    1.6625   -5.1709    0.2499 C   0  0  0  0  0  0  0  0  0  0  0  0
    1.3322   -6.3664   -0.4752 N   0  0  0  0  0  0  0  0  0  0  0  0
    1.3733   -5.8210   -1.9741 S   0  0  0  0  0  4  0  0  0  0  0  0
    1.7290   -4.2637   -1.9636 N   0  0  0  0  0  0  0  0  0  0  0  0
    1.7827   -5.1101    1.6491 C   0  0  0  0  0  0  0  0  0  0  0  0
    2.0028   -3.8556    2.2268 C   0  0  0  0  0  0  0  0  0  0  0  0
    2.0707   -3.6807    3.5751 N   0  0  0  0  0  0  0  0  0  0  0  0
    2.2590   -2.0432    3.6660 S   0  0  0  0  0  0  0  0  0  0  0  0
    2.2686   -1.5135    2.1000 N   0  0  0  0  0  0  0  0  0  0  0  0
    2.1305   -2.6775    1.4175 C   0  0  0  0  0  0  0  0  0  0  0  0
    1.5171   -6.2770    2.5195 C   0  0  0  0  0  0  0  0  0  0  0  0
    2.1059   -7.4891    2.4074 C   0  0  0  0  0  0  0  0  0  0  0  0
    3.0917   -7.8721    1.3928 C   0  0  0  0  0  0  0  0  0  0  0  0
    3.8115   -7.0825    0.7243 O   0  0  0  0  0  0  0  0  0  0  0  0
    3.2334   -9.3240    1.4020 C   0  0  0  0  0  0  0  0  0  0  0  0
    4.0354  -10.1258    0.5809 C   0  0  0  0  0  0  0  0  0  0  0  0
    4.8434   -9.4557   -0.8351 Cl  0  0  0  0  0  0  0  0  0  0  0  0
    4.1645  -11.4893    0.8955 C   0  0  0  0  0  0  0  0  0  0  0  0
    5.1254  -12.5384   -0.1420 Cl  0  0  0  0  0  0  0  0  0  0  0  0
    3.5671  -11.9986    2.0733 C   0  0  0  0  0  0  0  0  0  0  0  0
    3.8254  -13.6924    2.5059 Cl  0  0  0  0  0  0  0  0  0  0  0  0
    2.7987  -11.1548    2.9082 C   0  0  0  0  0  0  0  0  0  0  0  0
    2.3911  -11.7159    4.5377 Cl  0  0  0  0  0  0  0  0  0  0  0  0
    2.5134   -9.8460    2.4667 C   0  0  0  0  0  0  0  0  0  0  0  0
    1.7353   -8.7546    3.1229 C   0  0  0  0  0  0  0  0  0  0  0  0
    0.6597   -8.9194    3.9274 C   0  0  0  0  0  0  0  0  0  0  0  0
    0.2253   -7.8973    4.8466 C   0  0  0  0  0  0  0  0  0  0  0  0
   -0.1085   -7.0775    5.5974 N   0  0  0  0  0  0  0  0  0  0  0  0
   -0.0989  -10.1407    3.9513 C   0  0  0  0  0  0  0  0  0  0  0  0
   -0.7159  -11.1204    3.9793 N   0  0  0  0  0  0  0  0  0  0  0  0
   -3.2260    7.1091    1.5472 H   0  0  0  0  0  0  0  0  0  0  0  0
   -3.5851    3.6008    1.1564 H   0  0  0  0  0  0  0  0  0  0  0  0
   -2.2218    2.1024   -0.1726 H   0  0  0  0  0  0  0  0  0  0  0  0
    4.9599    3.1335    0.5664 H   0  0  0  0  0  0  0  0  0  0  0  0
    6.9515    3.8101   -0.7022 H   0  0  0  0  0  0  0  0  0  0  0  0
    8.2567    3.3934   -5.0317 H   0  0  0  0  0  0  0  0  0  0  0  0
    6.4624    3.2467   -4.9917 H   0  0  0  0  0  0  0  0  0  0  0  0
    7.4645    2.4778   -3.6967 H   0  0  0  0  0  0  0  0  0  0  0  0
    4.4558    4.9182   -4.0389 H   0  0  0  0  0  0  0  0  0  0  0  0
    2.4546    4.2118   -2.7722 H   0  0  0  0  0  0  0  0  0  0  0  0
    3.0801    5.5954    0.8252 H   0  0  0  0  0  0  0  0  0  0  0  0
    2.8469    6.2542    3.1865 H   0  0  0  0  0  0  0  0  0  0  0  0
   -0.1954    5.9795    6.3196 H   0  0  0  0  0  0  0  0  0  0  0  0
    0.5962    6.9186    4.9947 H   0  0  0  0  0  0  0  0  0  0  0  0
   -0.3807    5.4481    4.6140 H   0  0  0  0  0  0  0  0  0  0  0  0
    0.9538    2.4926    4.0658 H   0  0  0  0  0  0  0  0  0  0  0  0
    1.1667    1.8201    1.7119 H   0  0  0  0  0  0  0  0  0  0  0  0
    2.2439   -2.5165   -3.8349 H   0  0  0  0  0  0  0  0  0  0  0  0
    2.4092   -2.5216   -6.2848 H   0  0  0  0  0  0  0  0  0  0  0  0
    1.5002    0.0451   -9.3942 H   0  0  0  0  0  0  0  0  0  0  0  0
    2.2585   -0.3318   -7.8042 H   0  0  0  0  0  0  0  0  0  0  0  0
    0.6420    0.4697   -7.8664 H   0  0  0  0  0  0  0  0  0  0  0  0
   -1.7573   -1.4632   -6.5681 H   0  0  0  0  0  0  0  0  0  0  0  0
   -1.9461   -1.5288   -4.1056 H   0  0  0  0  0  0  0  0  0  0  0  0
   -0.9730   -1.2124    0.0441 H   0  0  0  0  0  0  0  0  0  0  0  0
   -2.7543   -2.3154    1.3191 H   0  0  0  0  0  0  0  0  0  0  0  0
   -2.4499   -6.4194    1.0262 H   0  0  0  0  0  0  0  0  0  0  0  0
   -2.2885   -5.1420    2.3017 H   0  0  0  0  0  0  0  0  0  0  0  0
   -3.5114   -6.4545    2.4809 H   0  0  0  0  0  0  0  0  0  0  0  0
   -3.0584   -5.3710   -1.6917 H   0  0  0  0  0  0  0  0  0  0  0  0
   -1.2890   -4.2679   -3.0008 H   0  0  0  0  0  0  0  0  0  0  0  0
    0.7954   -6.0894    3.2927 H   0  0  0  0  0  0  0  0  0  0  0  0
  1  2  2  3
  2  3  1  0
  3  4  2  0
  3  5  1  0
  5  6  2  0
  6  7  1  0
  6  8  1  0
  8  9  1  0
  8 10  2  0
 10 11  1  0
 10 12  1  0
 12 13  1  0
 12 14  2  0
 14 15  1  0
 15 16  2  3
 16 17  1  0
 17 18  3  0
 16 19  1  0
 19 20  3  0
  1 21  1  0
 21 22  2  0
 22 23  1  0
 23 24  2  0
 24 25  1  0
 25 26  1  0
 25 27  2  0
 27 28  1  0
 24 29  1  0
 29 30  2  0
 30 31  1  0
 31 32  1  0
 32 33  2  0
 33 34  1  0
 34 35  2  0
 35 36  1  0
 36 37  1  0
 35 38  1  0
 38 39  2  0
 31 40  1  0
 40 41  2  0
 41 42  1  0
 42 43  2  0
 43 44  1  0
 44 45  1  0
 43 46  1  0
 46 47  2  0
 30 48  1  0
 48 49  1  0
 49 50  1  0
 50 51  2  0
 51 52  1  0
 52 53  1  0
 53 54  2  0
 54 55  1  0
 55 56  2  0
 56 57  1  0
 57 58  1  0
 56 59  1  0
 59 60  2  0
 52 61  1  0
 61 62  2  0
 62 63  1  0
 63 64  2  0
 64 65  1  0
 65 66  1  0
 64 67  1  0
 67 68  2  0
 51 69  1  0
 69 70  1  0
 50 71  1  0
 71 72  2  0
 72 73  1  0
 73 74  1  0
 74 75  2  0
 75 76  2  0
 73 77  2  0
 77 78  1  0
 78 79  2  0
 79 80  1  0
 80 81  1  0
 81 82  2  0
 77 83  1  0
 83 84  2  3
 84 85  1  0
 85 86  2  0
 85 87  1  0
 87 88  2  0
 88 89  1  0
 88 90  1  0
 90 91  1  0
 90 92  2  0
 92 93  1  0
 92 94  1  0
 94 95  1  0
 94 96  2  0
 96 97  1  0
 97 98  2  3
 98 99  1  0
 99100  3  0
 98101  1  0
101102  3  0
 15  2  1  0
 27 21  1  0
 70 29  1  0
 82 71  1  0
 97 84  1  0
 14  5  1  0
 39 32  1  0
 47 40  1  0
 69 48  2  0
 76 72  1  0
 82 78  1  0
 96 87  1  0
 60 53  1  0
 68 61  1  0
  1103  1  0
 22104  1  0
 23105  1  0
 33106  1  0
 34107  1  0
 37108  1  0
 37109  1  0
 37110  1  0
 38111  1  0
 39112  1  0
 41113  1  0
 42114  1  0
 45115  1  0
 45116  1  0
 45117  1  0
 46118  1  0
 47119  1  0
 54120  1  0
 55121  1  0
 58122  1  0
 58123  1  0
 58124  1  0
 59125  1  0
 60126  1  0
 62127  1  0
 63128  1  0
 66129  1  0
 66130  1  0
 66131  1  0
 67132  1  0
 68133  1  0
 83134  1  0
M  END

