
     RDKit          3D

143155  0  0  0  0  0  0  0  0999 V2000
   -3.4593   -4.4620   -4.7243 C   0  0  0  0  0  0  0  0  0  0  0  0
   -4.4223   -5.3028   -4.2993 C   0  0  0  0  0  0  0  0  0  0  0  0
   -5.7168   -4.9408   -3.7053 C   0  0  0  0  0  0  0  0  0  0  0  0
   -6.1417   -3.7729   -3.5015 O   0  0  0  0  0  0  0  0  0  0  0  0
   -6.5277   -6.1478   -3.6085 C   0  0  0  0  0  0  0  0  0  0  0  0
   -7.8479   -6.2855   -3.1582 C   0  0  0  0  0  0  0  0  0  0  0  0
   -8.6905   -4.9383   -2.3997 Cl  0  0  0  0  0  0  0  0  0  0  0  0
   -8.4845   -7.5329   -3.3161 C   0  0  0  0  0  0  0  0  0  0  0  0
  -10.1216   -7.7706   -2.7066 Cl  0  0  0  0  0  0  0  0  0  0  0  0
   -7.8309   -8.5776   -4.0097 C   0  0  0  0  0  0  0  0  0  0  0  0
   -8.6663  -10.1117   -4.2885 Cl  0  0  0  0  0  0  0  0  0  0  0  0
   -6.5144   -8.4013   -4.4918 C   0  0  0  0  0  0  0  0  0  0  0  0
   -5.8682   -9.5341   -5.6805 Cl  0  0  0  0  0  0  0  0  0  0  0  0
   -5.8346   -7.2063   -4.1717 C   0  0  0  0  0  0  0  0  0  0  0  0
   -4.4404   -6.7860   -4.4770 C   0  0  0  0  0  0  0  0  0  0  0  0
   -3.3452   -7.5935   -4.3963 C   0  0  0  0  0  0  0  0  0  0  0  0
   -2.0007   -7.0942   -4.5227 C   0  0  0  0  0  0  0  0  0  0  0  0
   -0.9153   -6.7101   -4.6134 N   0  0  0  0  0  0  0  0  0  0  0  0
   -3.4328   -8.9680   -3.9726 C   0  0  0  0  0  0  0  0  0  0  0  0
   -3.4869  -10.0719   -3.6338 N   0  0  0  0  0  0  0  0  0  0  0  0
   -3.2559   -3.0578   -4.2836 C   0  0  0  0  0  0  0  0  0  0  0  0
   -3.5444   -2.6517   -2.9679 C   0  0  0  0  0  0  0  0  0  0  0  0
   -3.1057   -1.4135   -2.4893 C   0  0  0  0  0  0  0  0  0  0  0  0
   -2.3081   -0.5921   -3.2967 C   0  0  0  0  0  0  0  0  0  0  0  0
   -2.0476   -0.9686   -4.6230 C   0  0  0  0  0  0  0  0  0  0  0  0
   -1.2675   -0.1903   -5.4129 F   0  0  0  0  0  0  0  0  0  0  0  0
   -2.5220   -2.1876   -5.1132 C   0  0  0  0  0  0  0  0  0  0  0  0
   -2.2044   -2.5545   -6.3812 F   0  0  0  0  0  0  0  0  0  0  0  0
   -1.5380    0.5006   -2.6834 C   0  0  0  0  0  0  0  0  0  0  0  0
   -0.1425    0.4560   -2.4957 C   0  0  0  0  0  0  0  0  0  0  0  0
    0.6353   -0.7479   -2.6585 N   0  0  0  0  0  0  0  0  0  0  0  0
    0.1936   -1.9563   -2.0001 C   0  0  0  0  0  0  0  0  0  0  0  0
   -0.3417   -1.9102   -0.6974 C   0  0  0  0  0  0  0  0  0  0  0  0
   -0.8108   -3.0716   -0.0871 C   0  0  0  0  0  0  0  0  0  0  0  0
   -0.7363   -4.2981   -0.7608 C   0  0  0  0  0  0  0  0  0  0  0  0
   -1.3530   -5.7935    0.0154 S   0  0  0  0  0  0  0  0  0  0  0  0
   -3.0171   -5.6224   -0.6981 C   0  0  0  0  0  0  0  0  0  0  0  0
   -0.1768   -4.3540   -2.0414 C   0  0  0  0  0  0  0  0  0  0  0  0
    0.2802   -3.1894   -2.6620 C   0  0  0  0  0  0  0  0  0  0  0  0
    1.9563   -0.6730   -3.2334 C   0  0  0  0  0  0  0  0  0  0  0  0
    2.1916    0.1159   -4.3705 C   0  0  0  0  0  0  0  0  0  0  0  0
    3.4684    0.1763   -4.9392 C   0  0  0  0  0  0  0  0  0  0  0  0
    4.5243   -0.5374   -4.3612 C   0  0  0  0  0  0  0  0  0  0  0  0
    6.1528   -0.4999   -5.1106 S   0  0  0  0  0  0  0  0  0  0  0  0
    5.8790   -2.0346   -6.0534 C   0  0  0  0  0  0  0  0  0  0  0  0
    4.3075   -1.2987   -3.2065 C   0  0  0  0  0  0  0  0  0  0  0  0
    3.0320   -1.3687   -2.6467 C   0  0  0  0  0  0  0  0  0  0  0  0
    0.2834    1.4903   -1.6703 C   0  0  0  0  0  0  0  0  0  0  0  0
    1.6940    1.6749   -0.7888 S   0  0  0  0  0  0  0  0  0  0  0  0
    1.0213    2.7833    0.2998 C   0  0  0  0  0  0  0  0  0  0  0  0
   -0.3323    2.9852   -0.0033 C   0  0  0  0  0  0  0  0  0  0  0  0
   -1.2819    3.5424    0.9198 N   0  0  0  0  0  0  0  0  0  0  0  0
   -1.6124    2.7909    2.1061 C   0  0  0  0  0  0  0  0  0  0  0  0
   -1.8701    1.4105    2.0262 C   0  0  0  0  0  0  0  0  0  0  0  0
   -2.1130    0.6667    3.1785 C   0  0  0  0  0  0  0  0  0  0  0  0
   -2.1160    1.2933    4.4273 C   0  0  0  0  0  0  0  0  0  0  0  0
   -2.4340    0.3341    5.9108 S   0  0  0  0  0  0  0  0  0  0  0  0
   -4.2478    0.4989    5.7790 C   0  0  0  0  0  0  0  0  0  0  0  0
   -1.8753    2.6697    4.5192 C   0  0  0  0  0  0  0  0  0  0  0  0
   -1.6242    3.4179    3.3641 C   0  0  0  0  0  0  0  0  0  0  0  0
   -1.9303    4.7921    0.6137 C   0  0  0  0  0  0  0  0  0  0  0  0
   -1.2460    5.7972   -0.0955 C   0  0  0  0  0  0  0  0  0  0  0  0
   -1.8922    6.9827   -0.4464 C   0  0  0  0  0  0  0  0  0  0  0  0
   -3.2349    7.1770   -0.1069 C   0  0  0  0  0  0  0  0  0  0  0  0
   -4.0822    8.6801   -0.6000 S   0  0  0  0  0  0  0  0  0  0  0  0
   -4.7534    7.9348   -2.1224 C   0  0  0  0  0  0  0  0  0  0  0  0
   -3.9193    6.1977    0.6178 C   0  0  0  0  0  0  0  0  0  0  0  0
   -3.2772    5.0083    0.9695 C   0  0  0  0  0  0  0  0  0  0  0  0
   -0.7048    2.2589   -1.1382 C   0  0  0  0  0  0  0  0  0  0  0  0
   -2.1985    1.7372   -1.7127 S   0  0  0  0  0  0  0  0  0  0  0  0
    1.7416    3.2539    1.4882 C   0  0  0  0  0  0  0  0  0  0  0  0
    1.7838    2.4467    2.6326 C   0  0  0  0  0  0  0  0  0  0  0  0
    1.0375    1.3174    2.7126 F   0  0  0  0  0  0  0  0  0  0  0  0
    2.6794    2.7367    3.6612 C   0  0  0  0  0  0  0  0  0  0  0  0
    3.5947    3.7950    3.5367 C   0  0  0  0  0  0  0  0  0  0  0  0
    3.4956    4.6633    2.4330 C   0  0  0  0  0  0  0  0  0  0  0  0
    4.3460    5.7163    2.2888 N   0  0  0  0  0  0  0  0  0  0  0  0
    4.3309    6.4961    1.1749 C   0  0  0  0  0  0  0  0  0  0  0  0
    3.4439    6.1943    0.1363 C   0  0  0  0  0  0  0  0  0  0  0  0
    3.4607    6.9497   -1.0399 O   0  0  0  0  0  0  0  0  0  0  0  0
    2.6628    6.6115   -2.1716 C   0  0  0  0  0  0  0  0  0  0  0  0
    2.9372    7.5906   -3.3053 C   0  0  0  0  0  0  0  0  0  0  0  0
    2.5816    5.1521    0.2815 N   0  0  0  0  0  0  0  0  0  0  0  0
    2.5727    4.3833    1.4028 C   0  0  0  0  0  0  0  0  0  0  0  0
    4.7251    3.9081    4.4904 C   0  0  0  0  0  0  0  0  0  0  0  0
    5.4889    2.8595    4.8567 C   0  0  0  0  0  0  0  0  0  0  0  0
    6.3061    2.8355    6.0710 C   0  0  0  0  0  0  0  0  0  0  0  0
    6.7161    3.8491    6.7010 O   0  0  0  0  0  0  0  0  0  0  0  0
    6.4447    1.4459    6.4987 C   0  0  0  0  0  0  0  0  0  0  0  0
    6.9773    0.9371    7.6860 C   0  0  0  0  0  0  0  0  0  0  0  0
    7.8503    1.9824    8.7982 Cl  0  0  0  0  0  0  0  0  0  0  0  0
    6.7761   -0.4317    7.9743 C   0  0  0  0  0  0  0  0  0  0  0  0
    7.4589   -1.1305    9.4456 Cl  0  0  0  0  0  0  0  0  0  0  0  0
    5.9780   -1.2316    7.1182 C   0  0  0  0  0  0  0  0  0  0  0  0
    5.6222   -2.9060    7.5533 Cl  0  0  0  0  0  0  0  0  0  0  0  0
    5.4380   -0.6839    5.9346 C   0  0  0  0  0  0  0  0  0  0  0  0
    4.1747   -1.5600    5.0663 Cl  0  0  0  0  0  0  0  0  0  0  0  0
    5.7885    0.6349    5.5858 C   0  0  0  0  0  0  0  0  0  0  0  0
    5.3822    1.4447    4.4086 C   0  0  0  0  0  0  0  0  0  0  0  0
    5.4795    1.0365    3.1181 C   0  0  0  0  0  0  0  0  0  0  0  0
    5.7577   -0.3323    2.7524 C   0  0  0  0  0  0  0  0  0  0  0  0
    5.9839   -1.4296    2.4484 N   0  0  0  0  0  0  0  0  0  0  0  0
    5.5034    1.9687    2.0190 C   0  0  0  0  0  0  0  0  0  0  0  0
    5.5238    2.7039    1.1260 N   0  0  0  0  0  0  0  0  0  0  0  0
   -2.7154   -4.8467   -5.4028 H   0  0  0  0  0  0  0  0  0  0  0  0
   -4.0184   -3.3187   -2.2694 H   0  0  0  0  0  0  0  0  0  0  0  0
   -3.2861   -1.1559   -1.4520 H   0  0  0  0  0  0  0  0  0  0  0  0
   -0.4009   -0.9725   -0.1589 H   0  0  0  0  0  0  0  0  0  0  0  0
   -1.2378   -3.0235    0.9082 H   0  0  0  0  0  0  0  0  0  0  0  0
   -3.4941   -4.6960   -0.3212 H   0  0  0  0  0  0  0  0  0  0  0  0
   -3.6375   -6.4911   -0.4004 H   0  0  0  0  0  0  0  0  0  0  0  0
   -2.9529   -5.5952   -1.8057 H   0  0  0  0  0  0  0  0  0  0  0  0
   -0.1015   -5.2991   -2.5567 H   0  0  0  0  0  0  0  0  0  0  0  0
    0.6882   -3.2425   -3.6608 H   0  0  0  0  0  0  0  0  0  0  0  0
    1.3824    0.6670   -4.8301 H   0  0  0  0  0  0  0  0  0  0  0  0
    3.6368    0.7771   -5.8217 H   0  0  0  0  0  0  0  0  0  0  0  0
    5.7262   -2.8892   -5.3613 H   0  0  0  0  0  0  0  0  0  0  0  0
    6.7679   -2.2394   -6.6850 H   0  0  0  0  0  0  0  0  0  0  0  0
    4.9915   -1.9238   -6.7099 H   0  0  0  0  0  0  0  0  0  0  0  0
    5.1213   -1.8447   -2.7531 H   0  0  0  0  0  0  0  0  0  0  0  0
    2.8862   -1.9631   -1.7564 H   0  0  0  0  0  0  0  0  0  0  0  0
   -1.8764    0.9086    1.0732 H   0  0  0  0  0  0  0  0  0  0  0  0
   -2.2972   -0.3972    3.0985 H   0  0  0  0  0  0  0  0  0  0  0  0
   -4.6103    0.0809    4.8167 H   0  0  0  0  0  0  0  0  0  0  0  0
   -4.7249   -0.0604    6.6101 H   0  0  0  0  0  0  0  0  0  0  0  0
   -4.5389    1.5710    5.8538 H   0  0  0  0  0  0  0  0  0  0  0  0
   -1.8715    3.1573    5.4859 H   0  0  0  0  0  0  0  0  0  0  0  0
   -1.4094    4.4763    3.4473 H   0  0  0  0  0  0  0  0  0  0  0  0
   -0.2072    5.6663   -0.3661 H   0  0  0  0  0  0  0  0  0  0  0  0
   -1.3526    7.7483   -0.9960 H   0  0  0  0  0  0  0  0  0  0  0  0
   -5.4437    8.6552   -2.6061 H   0  0  0  0  0  0  0  0  0  0  0  0
   -3.9273    7.7008   -2.8261 H   0  0  0  0  0  0  0  0  0  0  0  0
   -5.3146    7.0076   -1.8837 H   0  0  0  0  0  0  0  0  0  0  0  0
   -4.9548    6.3455    0.8930 H   0  0  0  0  0  0  0  0  0  0  0  0
   -3.8327    4.2512    1.5069 H   0  0  0  0  0  0  0  0  0  0  0  0
    2.7185    2.0801    4.5239 H   0  0  0  0  0  0  0  0  0  0  0  0
    5.0255    7.3206    1.0870 H   0  0  0  0  0  0  0  0  0  0  0  0
    2.9141    5.5820   -2.5121 H   0  0  0  0  0  0  0  0  0  0  0  0
    1.5856    6.6519   -1.8984 H   0  0  0  0  0  0  0  0  0  0  0  0
    4.0179    7.5864   -3.5544 H   0  0  0  0  0  0  0  0  0  0  0  0
    2.3576    7.2969   -4.2044 H   0  0  0  0  0  0  0  0  0  0  0  0
    2.6367    8.6145   -2.9985 H   0  0  0  0  0  0  0  0  0  0  0  0
    4.8984    4.8723    4.9554 H   0  0  0  0  0  0  0  0  0  0  0  0
  1  2  2  3
  2  3  1  0
  3  4  2  0
  3  5  1  0
  5  6  2  0
  6  7  1  0
  6  8  1  0
  8  9  1  0
  8 10  2  0
 10 11  1  0
 10 12  1  0
 12 13  1  0
 12 14  2  0
 14 15  1  0
 15 16  2  3
 16 17  1  0
 17 18  3  0
 16 19  1  0
 19 20  3  0
  1 21  1  0
 21 22  2  0
 22 23  1  0
 23 24  2  0
 24 25  1  0
 25 26  1  0
 25 27  2  0
 27 28  1  0
 24 29  1  0
 29 30  2  0
 30 31  1  0
 31 32  1  0
 32 33  2  0
 33 34  1  0
 34 35  2  0
 35 36  1  0
 36 37  1  0
 35 38  1  0
 38 39  2  0
 31 40  1  0
 40 41  2  0
 41 42  1  0
 42 43  2  0
 43 44  1  0
 44 45  1  0
 43 46  1  0
 46 47  2  0
 30 48  1  0
 48 49  1  0
 49 50  1  0
 50 51  2  0
 51 52  1  0
 52 53  1  0
 53 54  2  0
 54 55  1  0
 55 56  2  0
 56 57  1  0
 57 58  1  0
 56 59  1  0
 59 60  2  0
 52 61  1  0
 61 62  2  0
 62 63  1  0
 63 64  2  0
 64 65  1  0
 65 66  1  0
 64 67  1  0
 67 68  2  0
 51 69  1  0
 69 70  1  0
 50 71  1  0
 71 72  2  0
 72 73  1  0
 72 74  1  0
 74 75  2  0
 75 76  1  0
 76 77  2  0
 77 78  1  0
 78 79  2  0
 79 80  1  0
 80 81  1  0
 81 82  1  0
 79 83  1  0
 83 84  2  0
 75 85  1  0
 85 86  2  3
 86 87  1  0
 87 88  2  0
 87 89  1  0
 89 90  2  0
 90 91  1  0
 90 92  1  0
 92 93  1  0
 92 94  2  0
 94 95  1  0
 94 96  1  0
 96 97  1  0
 96 98  2  0
 98 99  1  0
 99100  2  3
100101  1  0
101102  3  0
100103  1  0
103104  3  0
 15  2  1  0
 27 21  1  0
 70 29  1  0
 84 71  1  0
 99 86  1  0
 14  5  1  0
 39 32  1  0
 47 40  1  0
 69 48  2  0
 84 76  1  0
 98 89  1  0
 60 53  1  0
 68 61  1  0
  1105  1  0
 22106  1  0
 23107  1  0
 33108  1  0
 34109  1  0
 37110  1  0
 37111  1  0
 37112  1  0
 38113  1  0
 39114  1  0
 41115  1  0
 42116  1  0
 45117  1  0
 45118  1  0
 45119  1  0
 46120  1  0
 47121  1  0
 54122  1  0
 55123  1  0
 58124  1  0
 58125  1  0
 58126  1  0
 59127  1  0
 60128  1  0
 62129  1  0
 63130  1  0
 66131  1  0
 66132  1  0
 66133  1  0
 67134  1  0
 68135  1  0
 74136  1  0
 78137  1  0
 81138  1  0
 81139  1  0
 82140  1  0
 82141  1  0
 82142  1  0
 85143  1  0
M  END

