
     RDKit          3D

219238  0  0  0  0  0  0  0  0999 V2000
    0.3023   -7.3895    3.5144 C   0  0  0  0  0  0  0  0  0  0  0  0
    1.5493   -7.7411    3.1296 C   0  0  0  0  0  0  0  0  0  0  0  0
    2.1496   -7.5190    1.8084 C   0  0  0  0  0  0  0  0  0  0  0  0
    1.6310   -7.8284    0.7007 O   0  0  0  0  0  0  0  0  0  0  0  0
    3.5340   -7.1416    1.9905 C   0  0  0  0  0  0  0  0  0  0  0  0
    4.4150   -6.6259    1.0462 C   0  0  0  0  0  0  0  0  0  0  0  0
    5.6806   -6.1982    1.4710 C   0  0  0  0  0  0  0  0  0  0  0  0
    6.5937   -5.6604    0.5509 C   0  0  0  0  0  0  0  0  0  0  0  0
    7.8467   -5.2142    0.9809 C   0  0  0  0  0  0  0  0  0  0  0  0
    8.7254   -4.7048    0.0837 F   0  0  0  0  0  0  0  0  0  0  0  0
    8.1913   -5.2952    2.3330 C   0  0  0  0  0  0  0  0  0  0  0  0
    9.4077   -4.8632    2.7477 F   0  0  0  0  0  0  0  0  0  0  0  0
    7.2904   -5.8246    3.2647 C   0  0  0  0  0  0  0  0  0  0  0  0
    6.0324   -6.2842    2.8474 C   0  0  0  0  0  0  0  0  0  0  0  0
    5.1162   -6.8148    3.7795 C   0  0  0  0  0  0  0  0  0  0  0  0
    3.8685   -7.2701    3.3263 C   0  0  0  0  0  0  0  0  0  0  0  0
    2.7018   -7.8038    4.0757 C   0  0  0  0  0  0  0  0  0  0  0  0
    2.7135   -8.3949    5.2967 C   0  0  0  0  0  0  0  0  0  0  0  0
    1.5631   -9.0946    5.8121 C   0  0  0  0  0  0  0  0  0  0  0  0
    0.6440   -9.6603    6.2311 N   0  0  0  0  0  0  0  0  0  0  0  0
    3.9118   -8.4918    6.0931 C   0  0  0  0  0  0  0  0  0  0  0  0
    4.8657   -8.5756    6.7458 N   0  0  0  0  0  0  0  0  0  0  0  0
   -0.6090   -6.4738    2.7767 C   0  0  0  0  0  0  0  0  0  0  0  0
   -1.3790   -5.4837    3.4283 C   0  0  0  0  0  0  0  0  0  0  0  0
   -1.8448   -5.5972    4.7920 N   0  0  0  0  0  0  0  0  0  0  0  0
   -1.8826   -4.4466    5.6615 C   0  0  0  0  0  0  0  0  0  0  0  0
   -0.8225   -3.5173    5.6646 C   0  0  0  0  0  0  0  0  0  0  0  0
   -0.8839   -2.3780    6.4736 C   0  0  0  0  0  0  0  0  0  0  0  0
   -1.9965   -2.1574    7.2923 C   0  0  0  0  0  0  0  0  0  0  0  0
   -2.0936   -0.6779    8.3044 S   0  0  0  0  0  0  0  0  0  0  0  0
   -2.9196    0.2863    6.9987 C   0  0  0  0  0  0  0  0  0  0  0  0
   -3.0383   -3.0910    7.3191 C   0  0  0  0  0  0  0  0  0  0  0  0
   -2.9839   -4.2270    6.5100 C   0  0  0  0  0  0  0  0  0  0  0  0
   -2.3994   -6.8585    5.2316 C   0  0  0  0  0  0  0  0  0  0  0  0
   -3.1837   -7.6343    4.3568 C   0  0  0  0  0  0  0  0  0  0  0  0
   -3.6251   -8.9041    4.7366 C   0  0  0  0  0  0  0  0  0  0  0  0
   -3.2921   -9.4151    5.9955 C   0  0  0  0  0  0  0  0  0  0  0  0
   -3.8265  -11.0643    6.4476 S   0  0  0  0  0  0  0  0  0  0  0  0
   -2.2990  -11.8639    5.8535 C   0  0  0  0  0  0  0  0  0  0  0  0
   -2.5489   -8.6364    6.8877 C   0  0  0  0  0  0  0  0  0  0  0  0
   -2.0990   -7.3677    6.5084 C   0  0  0  0  0  0  0  0  0  0  0  0
   -1.7700   -4.4740    2.5417 C   0  0  0  0  0  0  0  0  0  0  0  0
   -2.3379   -2.9031    2.7257 S   0  0  0  0  0  0  0  0  0  0  0  0
   -2.1929   -2.4978    1.0695 C   0  0  0  0  0  0  0  0  0  0  0  0
   -1.6734   -3.6102    0.3766 C   0  0  0  0  0  0  0  0  0  0  0  0
   -1.4441   -3.6407   -1.0484 N   0  0  0  0  0  0  0  0  0  0  0  0
   -0.3007   -4.3367   -1.5946 C   0  0  0  0  0  0  0  0  0  0  0  0
   -0.4545   -5.2166   -2.6826 C   0  0  0  0  0  0  0  0  0  0  0  0
    0.6541   -5.8696   -3.2278 C   0  0  0  0  0  0  0  0  0  0  0  0
    1.9251   -5.6845   -2.6715 C   0  0  0  0  0  0  0  0  0  0  0  0
    3.3486   -6.4912   -3.4143 S   0  0  0  0  0  0  0  0  0  0  0  0
    3.0607   -8.0922   -2.5948 C   0  0  0  0  0  0  0  0  0  0  0  0
    2.0886   -4.8194   -1.5844 C   0  0  0  0  0  0  0  0  0  0  0  0
    0.9830   -4.1460   -1.0507 C   0  0  0  0  0  0  0  0  0  0  0  0
   -2.4539   -3.1075   -1.9352 C   0  0  0  0  0  0  0  0  0  0  0  0
   -3.8221   -3.2562   -1.6357 C   0  0  0  0  0  0  0  0  0  0  0  0
   -4.7951   -2.7394   -2.4939 C   0  0  0  0  0  0  0  0  0  0  0  0
   -4.4180   -2.1043   -3.6811 C   0  0  0  0  0  0  0  0  0  0  0  0
   -5.6645   -1.4227   -4.7780 S   0  0  0  0  0  0  0  0  0  0  0  0
   -5.7969   -2.9409   -5.7720 C   0  0  0  0  0  0  0  0  0  0  0  0
   -3.0639   -1.9763   -3.9979 C   0  0  0  0  0  0  0  0  0  0  0  0
   -2.0860   -2.4594   -3.1257 C   0  0  0  0  0  0  0  0  0  0  0  0
   -1.4376   -4.6816    1.2416 C   0  0  0  0  0  0  0  0  0  0  0  0
   -0.5829   -6.1111    1.1118 S   0  0  0  0  0  0  0  0  0  0  0  0
   -1.9746   -1.1078    0.6229 C   0  0  0  0  0  0  0  0  0  0  0  0
   -3.0139   -0.2984    0.1095 C   0  0  0  0  0  0  0  0  0  0  0  0
   -4.3420   -0.7512    0.0949 O   0  0  0  0  0  0  0  0  0  0  0  0
   -5.1192   -1.0179    1.2599 C   0  0  0  0  0  0  0  0  0  0  0  0
   -5.1629    0.1941    2.1828 C   0  0  0  0  0  0  0  0  0  0  0  0
   -2.7315    1.0040   -0.3906 C   0  0  0  0  0  0  0  0  0  0  0  0
   -3.7491    1.7923   -0.9466 O   0  0  0  0  0  0  0  0  0  0  0  0
   -4.6300    1.3399   -1.9789 C   0  0  0  0  0  0  0  0  0  0  0  0
   -6.0127    1.9563   -1.7969 C   0  0  0  0  0  0  0  0  0  0  0  0
   -1.4323    1.5424   -0.2729 C   0  0  0  0  0  0  0  0  0  0  0  0
   -0.4020    0.7275    0.2184 C   0  0  0  0  0  0  0  0  0  0  0  0
   -0.6738   -0.5937    0.6657 C   0  0  0  0  0  0  0  0  0  0  0  0
    0.3886   -1.3104    1.1280 N   0  0  0  0  0  0  0  0  0  0  0  0
    1.6085   -0.2120    0.9186 S   0  0  0  0  0  0  0  0  0  0  0  0
    0.8932    1.1355    0.2851 N   0  0  0  0  0  0  0  0  0  0  0  0
   -1.1371    2.9687   -0.5499 C   0  0  0  0  0  0  0  0  0  0  0  0
   -1.1442    3.6216   -1.7974 C   0  0  0  0  0  0  0  0  0  0  0  0
   -1.6926    3.1071   -3.0229 N   0  0  0  0  0  0  0  0  0  0  0  0
   -2.6162    3.9832   -3.7129 C   0  0  0  0  0  0  0  0  0  0  0  0
   -2.3913    4.3750   -5.0469 C   0  0  0  0  0  0  0  0  0  0  0  0
   -3.2565    5.2776   -5.6737 C   0  0  0  0  0  0  0  0  0  0  0  0
   -4.3460    5.8095   -4.9787 C   0  0  0  0  0  0  0  0  0  0  0  0
   -5.4415    6.9824   -5.7831 S   0  0  0  0  0  0  0  0  0  0  0  0
   -6.5598    5.6902   -6.4080 C   0  0  0  0  0  0  0  0  0  0  0  0
   -4.5610    5.4495   -3.6450 C   0  0  0  0  0  0  0  0  0  0  0  0
   -3.6978    4.5497   -3.0142 C   0  0  0  0  0  0  0  0  0  0  0  0
   -1.0502    2.0087   -3.7228 C   0  0  0  0  0  0  0  0  0  0  0  0
    0.2821    1.6426   -3.4372 C   0  0  0  0  0  0  0  0  0  0  0  0
    0.9376    0.6804   -4.2099 C   0  0  0  0  0  0  0  0  0  0  0  0
    0.2892    0.0946   -5.3002 C   0  0  0  0  0  0  0  0  0  0  0  0
    1.1676   -1.0398   -6.3738 S   0  0  0  0  0  0  0  0  0  0  0  0
    1.7794    0.2873   -7.4578 C   0  0  0  0  0  0  0  0  0  0  0  0
   -1.0387    0.4261   -5.5791 C   0  0  0  0  0  0  0  0  0  0  0  0
   -1.7135    1.3525   -4.7825 C   0  0  0  0  0  0  0  0  0  0  0  0
   -0.5133    4.8594   -1.7286 C   0  0  0  0  0  0  0  0  0  0  0  0
    0.0962    5.8911   -2.8899 S   0  0  0  0  0  0  0  0  0  0  0  0
    0.9696    6.8753   -1.8045 C   0  0  0  0  0  0  0  0  0  0  0  0
    0.7929    6.3458   -0.5086 C   0  0  0  0  0  0  0  0  0  0  0  0
    1.5406    6.7713    0.6409 N   0  0  0  0  0  0  0  0  0  0  0  0
    1.3833    8.1304    1.1005 C   0  0  0  0  0  0  0  0  0  0  0  0
    0.1107    8.7346    1.1187 C   0  0  0  0  0  0  0  0  0  0  0  0
   -0.0406   10.0677    1.5110 C   0  0  0  0  0  0  0  0  0  0  0  0
    1.0773   10.8173    1.8918 C   0  0  0  0  0  0  0  0  0  0  0  0
    0.8834   12.5284    2.3939 S   0  0  0  0  0  0  0  0  0  0  0  0
    1.1354   13.1813    0.7145 C   0  0  0  0  0  0  0  0  0  0  0  0
    2.3469   10.2284    1.8852 C   0  0  0  0  0  0  0  0  0  0  0  0
    2.5013    8.8951    1.4867 C   0  0  0  0  0  0  0  0  0  0  0  0
    2.5013    5.8738    1.2453 C   0  0  0  0  0  0  0  0  0  0  0  0
    3.1982    4.9397    0.4584 C   0  0  0  0  0  0  0  0  0  0  0  0
    4.1328    4.0839    1.0375 C   0  0  0  0  0  0  0  0  0  0  0  0
    4.3886    4.1459    2.4092 C   0  0  0  0  0  0  0  0  0  0  0  0
    5.6406    3.0820    3.1370 S   0  0  0  0  0  0  0  0  0  0  0  0
    4.4672    1.7396    3.4922 C   0  0  0  0  0  0  0  0  0  0  0  0
    3.6967    5.0608    3.2047 C   0  0  0  0  0  0  0  0  0  0  0  0
    2.7532    5.9168    2.6294 C   0  0  0  0  0  0  0  0  0  0  0  0
   -0.0302    5.2143   -0.5159 C   0  0  0  0  0  0  0  0  0  0  0  0
   -0.3406    3.9856    0.5782 S   0  0  0  0  0  0  0  0  0  0  0  0
    2.0657    7.8138   -2.1609 C   0  0  0  0  0  0  0  0  0  0  0  0
    2.3830    8.2429   -3.4017 C   0  0  0  0  0  0  0  0  0  0  0  0
    1.6512    7.9951   -4.6520 C   0  0  0  0  0  0  0  0  0  0  0  0
    0.4029    8.0317   -4.7997 O   0  0  0  0  0  0  0  0  0  0  0  0
    2.6124    7.9161   -5.7307 C   0  0  0  0  0  0  0  0  0  0  0  0
    2.4081    7.4724   -7.0394 C   0  0  0  0  0  0  0  0  0  0  0  0
    3.5214    7.3435   -7.8928 C   0  0  0  0  0  0  0  0  0  0  0  0
    3.3655    6.8730   -9.2019 C   0  0  0  0  0  0  0  0  0  0  0  0
    4.4799    6.7139  -10.0294 C   0  0  0  0  0  0  0  0  0  0  0  0
    4.3173    6.2600  -11.2947 F   0  0  0  0  0  0  0  0  0  0  0  0
    5.7588    7.0266   -9.5562 C   0  0  0  0  0  0  0  0  0  0  0  0
    6.8354    6.8767  -10.3689 F   0  0  0  0  0  0  0  0  0  0  0  0
    5.9342    7.4952   -8.2546 C   0  0  0  0  0  0  0  0  0  0  0  0
    4.8235    7.6579   -7.4077 C   0  0  0  0  0  0  0  0  0  0  0  0
    4.9937    8.1130   -6.0804 C   0  0  0  0  0  0  0  0  0  0  0  0
    3.8660    8.2466   -5.2573 C   0  0  0  0  0  0  0  0  0  0  0  0
    3.7586    8.6380   -3.8235 C   0  0  0  0  0  0  0  0  0  0  0  0
    4.6139    9.4345   -3.1358 C   0  0  0  0  0  0  0  0  0  0  0  0
    5.8600    9.8924   -3.6899 C   0  0  0  0  0  0  0  0  0  0  0  0
    6.8687   10.2613   -4.1225 N   0  0  0  0  0  0  0  0  0  0  0  0
    4.2563   10.0189   -1.8675 C   0  0  0  0  0  0  0  0  0  0  0  0
    3.9812   10.4971   -0.8488 N   0  0  0  0  0  0  0  0  0  0  0  0
    0.0801   -7.4674    4.5637 H   0  0  0  0  0  0  0  0  0  0  0  0
    4.1078   -6.5217    0.0143 H   0  0  0  0  0  0  0  0  0  0  0  0
    6.3404   -5.5921   -0.5001 H   0  0  0  0  0  0  0  0  0  0  0  0
    7.5760   -5.8768    4.3095 H   0  0  0  0  0  0  0  0  0  0  0  0
    5.3684   -6.8208    4.8253 H   0  0  0  0  0  0  0  0  0  0  0  0
    0.0478   -3.6751    5.0353 H   0  0  0  0  0  0  0  0  0  0  0  0
   -0.0698   -1.6679    6.4587 H   0  0  0  0  0  0  0  0  0  0  0  0
   -3.8844   -0.1888    6.7258 H   0  0  0  0  0  0  0  0  0  0  0  0
   -2.2643    0.3464    6.1017 H   0  0  0  0  0  0  0  0  0  0  0  0
   -3.1157    1.3148    7.3706 H   0  0  0  0  0  0  0  0  0  0  0  0
   -3.8966   -2.9305    7.9574 H   0  0  0  0  0  0  0  0  0  0  0  0
   -3.8050   -4.9257    6.5299 H   0  0  0  0  0  0  0  0  0  0  0  0
   -3.4329   -7.2671    3.3692 H   0  0  0  0  0  0  0  0  0  0  0  0
   -4.2092   -9.4958    4.0444 H   0  0  0  0  0  0  0  0  0  0  0  0
   -1.4898  -11.6991    6.5941 H   0  0  0  0  0  0  0  0  0  0  0  0
   -1.9940  -11.4629    4.8638 H   0  0  0  0  0  0  0  0  0  0  0  0
   -2.4764  -12.9562    5.7526 H   0  0  0  0  0  0  0  0  0  0  0  0
   -2.2884   -9.0295    7.8628 H   0  0  0  0  0  0  0  0  0  0  0  0
   -1.4915   -6.7933    7.1970 H   0  0  0  0  0  0  0  0  0  0  0  0
   -1.4307   -5.3951   -3.1099 H   0  0  0  0  0  0  0  0  0  0  0  0
    0.5248   -6.5249   -4.0800 H   0  0  0  0  0  0  0  0  0  0  0  0
    3.7413   -8.8488   -3.0372 H   0  0  0  0  0  0  0  0  0  0  0  0
    2.0125   -8.4259   -2.7441 H   0  0  0  0  0  0  0  0  0  0  0  0
    3.2736   -8.0173   -1.5114 H   0  0  0  0  0  0  0  0  0  0  0  0
    3.0688   -4.6499   -1.1634 H   0  0  0  0  0  0  0  0  0  0  0  0
    1.1286   -3.4734   -0.2163 H   0  0  0  0  0  0  0  0  0  0  0  0
   -4.1402   -3.7655   -0.7322 H   0  0  0  0  0  0  0  0  0  0  0  0
   -5.8438   -2.8356   -2.2407 H   0  0  0  0  0  0  0  0  0  0  0  0
   -4.8229   -3.1743   -6.2491 H   0  0  0  0  0  0  0  0  0  0  0  0
   -6.5563   -2.7880   -6.5663 H   0  0  0  0  0  0  0  0  0  0  0  0
   -6.1146   -3.7910   -5.1328 H   0  0  0  0  0  0  0  0  0  0  0  0
   -2.7733   -1.5073   -4.9220 H   0  0  0  0  0  0  0  0  0  0  0  0
   -1.0386   -2.3293   -3.3782 H   0  0  0  0  0  0  0  0  0  0  0  0
   -4.7293   -1.8978    1.7996 H   0  0  0  0  0  0  0  0  0  0  0  0
   -6.1556   -1.2615    0.9396 H   0  0  0  0  0  0  0  0  0  0  0  0
   -4.1543    0.4069    2.5865 H   0  0  0  0  0  0  0  0  0  0  0  0
   -5.8547   -0.0073    3.0265 H   0  0  0  0  0  0  0  0  0  0  0  0
   -5.5367    1.0798    1.6207 H   0  0  0  0  0  0  0  0  0  0  0  0
   -4.2191    1.6355   -2.9667 H   0  0  0  0  0  0  0  0  0  0  0  0
   -4.7286    0.2398   -1.9984 H   0  0  0  0  0  0  0  0  0  0  0  0
   -6.3127    1.9093   -0.7306 H   0  0  0  0  0  0  0  0  0  0  0  0
   -6.0058    3.0159   -2.1221 H   0  0  0  0  0  0  0  0  0  0  0  0
   -6.7572    1.3970   -2.4058 H   0  0  0  0  0  0  0  0  0  0  0  0
   -1.5343    4.0068   -5.5958 H   0  0  0  0  0  0  0  0  0  0  0  0
   -3.0637    5.5765   -6.6966 H   0  0  0  0  0  0  0  0  0  0  0  0
   -7.3483    6.1555   -7.0320 H   0  0  0  0  0  0  0  0  0  0  0  0
   -7.0367    5.1613   -5.5554 H   0  0  0  0  0  0  0  0  0  0  0  0
   -5.9963    4.9655   -7.0269 H   0  0  0  0  0  0  0  0  0  0  0  0
   -5.3908    5.8710   -3.0961 H   0  0  0  0  0  0  0  0  0  0  0  0
   -3.8576    4.3064   -1.9704 H   0  0  0  0  0  0  0  0  0  0  0  0
    0.8358    2.1238   -2.6441 H   0  0  0  0  0  0  0  0  0  0  0  0
    1.9705    0.4268   -3.9954 H   0  0  0  0  0  0  0  0  0  0  0  0
    0.9223    0.8101   -7.9360 H   0  0  0  0  0  0  0  0  0  0  0  0
    2.4229   -0.1496   -8.2491 H   0  0  0  0  0  0  0  0  0  0  0  0
    2.3806    1.0108   -6.8691 H   0  0  0  0  0  0  0  0  0  0  0  0
   -1.5422   -0.0207   -6.4286 H   0  0  0  0  0  0  0  0  0  0  0  0
   -2.7424    1.5805   -5.0163 H   0  0  0  0  0  0  0  0  0  0  0  0
   -0.7677    8.1726    0.8261 H   0  0  0  0  0  0  0  0  0  0  0  0
   -1.0241   10.5193    1.5143 H   0  0  0  0  0  0  0  0  0  0  0  0
    1.0106   14.2826    0.7265 H   0  0  0  0  0  0  0  0  0  0  0  0
    0.3912   12.7420    0.0159 H   0  0  0  0  0  0  0  0  0  0  0  0
    2.1593   12.9402    0.3638 H   0  0  0  0  0  0  0  0  0  0  0  0
    3.2173   10.8056    2.1697 H   0  0  0  0  0  0  0  0  0  0  0  0
    3.4928    8.4723    1.4465 H   0  0  0  0  0  0  0  0  0  0  0  0
    3.0292    4.8815   -0.6109 H   0  0  0  0  0  0  0  0  0  0  0  0
    4.6599    3.3696    0.4190 H   0  0  0  0  0  0  0  0  0  0  0  0
    3.7586    2.0698    4.2810 H   0  0  0  0  0  0  0  0  0  0  0  0
    5.0355    0.8601    3.8606 H   0  0  0  0  0  0  0  0  0  0  0  0
    3.9093    1.4521    2.5785 H   0  0  0  0  0  0  0  0  0  0  0  0
    3.8833    5.1140    4.2689 H   0  0  0  0  0  0  0  0  0  0  0  0
    2.2116    6.6094    3.2673 H   0  0  0  0  0  0  0  0  0  0  0  0
    2.7845    7.9792   -1.3747 H   0  0  0  0  0  0  0  0  0  0  0  0
    1.4114    7.2023   -7.3688 H   0  0  0  0  0  0  0  0  0  0  0  0
    2.3847    6.6101   -9.5755 H   0  0  0  0  0  0  0  0  0  0  0  0
    6.9355    7.7292   -7.9036 H   0  0  0  0  0  0  0  0  0  0  0  0
    5.9880    8.2962   -5.7010 H   0  0  0  0  0  0  0  0  0  0  0  0
  1  2  2  3
  2  3  1  0
  3  4  2  0
  3  5  1  0
  5  6  2  0
  6  7  1  0
  7  8  2  0
  8  9  1  0
  9 10  1  0
  9 11  2  0
 11 12  1  0
 11 13  1  0
 13 14  2  0
 14 15  1  0
 15 16  2  0
 16 17  1  0
 17 18  2  3
 18 19  1  0
 19 20  3  0
 18 21  1  0
 21 22  3  0
  1 23  1  0
 23 24  2  0
 24 25  1  0
 25 26  1  0
 26 27  2  0
 27 28  1  0
 28 29  2  0
 29 30  1  0
 30 31  1  0
 29 32  1  0
 32 33  2  0
 25 34  1  0
 34 35  2  0
 35 36  1  0
 36 37  2  0
 37 38  1  0
 38 39  1  0
 37 40  1  0
 40 41  2  0
 24 42  1  0
 42 43  1  0
 43 44  1  0
 44 45  2  0
 45 46  1  0
 46 47  1  0
 47 48  2  0
 48 49  1  0
 49 50  2  0
 50 51  1  0
 51 52  1  0
 50 53  1  0
 53 54  2  0
 46 55  1  0
 55 56  2  0
 56 57  1  0
 57 58  2  0
 58 59  1  0
 59 60  1  0
 58 61  1  0
 61 62  2  0
 45 63  1  0
 63 64  1  0
 44 65  1  0
 65 66  2  0
 66 67  1  0
 67 68  1  0
 68 69  1  0
 66 70  1  0
 70 71  1  0
 71 72  1  0
 72 73  1  0
 70 74  2  0
 74 75  1  0
 75 76  1  0
 76 77  2  0
 77 78  1  0
 78 79  1  0
 74 80  1  0
 80 81  2  0
 81 82  1  0
 82 83  1  0
 83 84  2  0
 84 85  1  0
 85 86  2  0
 86 87  1  0
 87 88  1  0
 86 89  1  0
 89 90  2  0
 82 91  1  0
 91 92  2  0
 92 93  1  0
 93 94  2  0
 94 95  1  0
 95 96  1  0
 94 97  1  0
 97 98  2  0
 81 99  1  0
 99100  1  0
100101  1  0
101102  2  0
102103  1  0
103104  1  0
104105  2  0
105106  1  0
106107  2  0
107108  1  0
108109  1  0
107110  1  0
110111  2  0
103112  1  0
112113  2  0
113114  1  0
114115  2  0
115116  1  0
116117  1  0
115118  1  0
118119  2  0
102120  1  0
120121  1  0
101122  1  0
122123  2  3
123124  1  0
124125  2  0
124126  1  0
126127  2  0
127128  1  0
128129  2  0
129130  1  0
130131  1  0
130132  2  0
132133  1  0
132134  1  0
134135  2  0
135136  1  0
136137  2  0
137138  1  0
138139  2  3
139140  1  0
140141  3  0
139142  1  0
142143  3  0
 17  2  1  0
 64 23  1  0
 76 65  1  0
121 80  1  0
138123  1  0
 16  5  1  0
 33 26  1  0
 41 34  1  0
 63 42  2  0
 79 75  2  0
 90 83  1  0
 98 91  1  0
120 99  2  0
137126  1  0
 14  7  1  0
 54 47  1  0
 62 55  1  0
111104  1  0
119112  1  0
135128  1  0
  1144  1  0
  6145  1  0
  8146  1  0
 13147  1  0
 15148  1  0
 27149  1  0
 28150  1  0
 31151  1  0
 31152  1  0
 31153  1  0
 32154  1  0
 33155  1  0
 35156  1  0
 36157  1  0
 39158  1  0
 39159  1  0
 39160  1  0
 40161  1  0
 41162  1  0
 48163  1  0
 49164  1  0
 52165  1  0
 52166  1  0
 52167  1  0
 53168  1  0
 54169  1  0
 56170  1  0
 57171  1  0
 60172  1  0
 60173  1  0
 60174  1  0
 61175  1  0
 62176  1  0
 68177  1  0
 68178  1  0
 69179  1  0
 69180  1  0
 69181  1  0
 72182  1  0
 72183  1  0
 73184  1  0
 73185  1  0
 73186  1  0
 84187  1  0
 85188  1  0
 88189  1  0
 88190  1  0
 88191  1  0
 89192  1  0
 90193  1  0
 92194  1  0
 93195  1  0
 96196  1  0
 96197  1  0
 96198  1  0
 97199  1  0
 98200  1  0
105201  1  0
106202  1  0
109203  1  0
109204  1  0
109205  1  0
110206  1  0
111207  1  0
113208  1  0
114209  1  0
117210  1  0
117211  1  0
117212  1  0
118213  1  0
119214  1  0
122215  1  0
127216  1  0
129217  1  0
134218  1  0
136219  1  0
M  END

