
     RDKit          3D

131145  0  0  0  0  0  0  0  0999 V2000
    0.1591   -5.5974    5.8277 C   0  0  0  0  0  0  0  0  0  0  0  0
   -0.7405   -4.6303    6.1047 C   0  0  0  0  0  0  0  0  0  0  0  0
   -1.1365   -3.5484    5.1935 C   0  0  0  0  0  0  0  0  0  0  0  0
   -1.0196   -3.5420    3.9384 O   0  0  0  0  0  0  0  0  0  0  0  0
   -1.7235   -2.4845    5.9745 C   0  0  0  0  0  0  0  0  0  0  0  0
   -2.1056   -1.2177    5.5388 C   0  0  0  0  0  0  0  0  0  0  0  0
   -2.5871   -0.2995    6.4852 C   0  0  0  0  0  0  0  0  0  0  0  0
   -2.9827    0.9872    6.0892 C   0  0  0  0  0  0  0  0  0  0  0  0
   -3.4548    1.8993    7.0374 C   0  0  0  0  0  0  0  0  0  0  0  0
   -3.8382    3.1392    6.6466 F   0  0  0  0  0  0  0  0  0  0  0  0
   -3.5304    1.5371    8.3865 C   0  0  0  0  0  0  0  0  0  0  0  0
   -3.9918    2.4261    9.3004 F   0  0  0  0  0  0  0  0  0  0  0  0
   -3.1323    0.2599    8.7964 C   0  0  0  0  0  0  0  0  0  0  0  0
   -2.6610   -0.6695    7.8572 C   0  0  0  0  0  0  0  0  0  0  0  0
   -2.2544   -1.9581    8.2650 C   0  0  0  0  0  0  0  0  0  0  0  0
   -1.8046   -2.8737    7.2994 C   0  0  0  0  0  0  0  0  0  0  0  0
   -1.3131   -4.2785    7.4400 C   0  0  0  0  0  0  0  0  0  0  0  0
   -1.5331   -5.1224    8.4814 C   0  0  0  0  0  0  0  0  0  0  0  0
   -1.2486   -6.5333    8.3992 C   0  0  0  0  0  0  0  0  0  0  0  0
   -1.0304   -7.6685    8.3406 N   0  0  0  0  0  0  0  0  0  0  0  0
   -2.1866   -4.7063    9.6936 C   0  0  0  0  0  0  0  0  0  0  0  0
   -2.7116   -4.3877   10.6757 N   0  0  0  0  0  0  0  0  0  0  0  0
    0.8627   -5.6755    4.5323 C   0  0  0  0  0  0  0  0  0  0  0  0
    0.6440   -6.7478    3.6553 C   0  0  0  0  0  0  0  0  0  0  0  0
    1.1696   -6.7385    2.3375 C   0  0  0  0  0  0  0  0  0  0  0  0
    0.8113   -7.8775    1.5463 N   0  0  0  0  0  0  0  0  0  0  0  0
   -0.0874   -8.6837    2.5905 S   0  0  0  0  0  4  0  0  0  0  0  0
   -0.1688   -7.8830    3.9690 N   0  0  0  0  0  0  0  0  0  0  0  0
    1.9297   -5.6563    1.8645 C   0  0  0  0  0  0  0  0  0  0  0  0
    2.2213   -4.6143    2.7725 C   0  0  0  0  0  0  0  0  0  0  0  0
    2.9431   -3.5142    2.4295 N   0  0  0  0  0  0  0  0  0  0  0  0
    2.9122   -2.6643    3.8443 S   0  0  0  0  0  0  0  0  0  0  0  0
    2.0213   -3.5752    4.8953 N   0  0  0  0  0  0  0  0  0  0  0  0
    1.7095   -4.6385    4.1065 C   0  0  0  0  0  0  0  0  0  0  0  0
    2.2283   -5.4684    0.4231 C   0  0  0  0  0  0  0  0  0  0  0  0
    3.5448   -5.1720    0.0248 C   0  0  0  0  0  0  0  0  0  0  0  0
    4.5861   -5.4491    0.8522 F   0  0  0  0  0  0  0  0  0  0  0  0
    3.7778   -4.4289   -1.1361 C   0  0  0  0  0  0  0  0  0  0  0  0
    5.0306   -3.9721   -1.3878 F   0  0  0  0  0  0  0  0  0  0  0  0
    2.7021   -4.0001   -1.9288 C   0  0  0  0  0  0  0  0  0  0  0  0
    1.4121   -4.4863   -1.6534 C   0  0  0  0  0  0  0  0  0  0  0  0
    0.3572   -4.1362   -2.4373 N   0  0  0  0  0  0  0  0  0  0  0  0
   -0.9209   -4.4897   -2.1393 C   0  0  0  0  0  0  0  0  0  0  0  0
   -2.0080   -4.0815   -3.0994 C   0  0  0  0  0  0  0  0  0  0  0  0
   -2.1246   -5.0920   -4.2340 C   0  0  0  0  0  0  0  0  0  0  0  0
   -1.1649   -5.2432   -0.9672 C   0  0  0  0  0  0  0  0  0  0  0  0
   -0.1085   -5.5473   -0.1607 N   0  0  0  0  0  0  0  0  0  0  0  0
    1.1707   -5.2134   -0.4743 C   0  0  0  0  0  0  0  0  0  0  0  0
   -2.5617   -5.6582   -0.5608 C   0  0  0  0  0  0  0  0  0  0  0  0
   -2.5806   -6.6346    0.6158 C   0  0  0  0  0  0  0  0  0  0  0  0
    2.8243   -2.7116   -2.6268 C   0  0  0  0  0  0  0  0  0  0  0  0
    2.9014   -1.5302   -1.9042 C   0  0  0  0  0  0  0  0  0  0  0  0
    2.5450   -0.3999   -2.6448 C   0  0  0  0  0  0  0  0  0  0  0  0
    2.3696    0.8923   -2.1195 C   0  0  0  0  0  0  0  0  0  0  0  0
    2.4519    1.1634   -0.6685 C   0  0  0  0  0  0  0  0  0  0  0  0
    3.5397    2.2192    0.0604 S   0  0  0  0  0  0  0  0  0  0  0  0
    3.0111    1.9639    1.6382 C   0  0  0  0  0  0  0  0  0  0  0  0
    3.5458    2.6771    2.8444 C   0  0  0  0  0  0  0  0  0  0  0  0
    2.6899    3.8922    3.1857 C   0  0  0  0  0  0  0  0  0  0  0  0
    1.9510    1.0603    1.6135 C   0  0  0  0  0  0  0  0  0  0  0  0
    1.0702    0.5555    3.0504 Cl  0  0  0  0  0  0  0  0  0  0  0  0
    1.6380    0.6087    0.3214 C   0  0  0  0  0  0  0  0  0  0  0  0
    0.3091   -0.4988   -0.0105 Cl  0  0  0  0  0  0  0  0  0  0  0  0
    1.9844    1.8881   -3.0234 C   0  0  0  0  0  0  0  0  0  0  0  0
    1.7065    1.6302   -4.3702 C   0  0  0  0  0  0  0  0  0  0  0  0
    1.8209    0.3148   -4.8830 C   0  0  0  0  0  0  0  0  0  0  0  0
    1.4508   -0.0280   -6.2703 C   0  0  0  0  0  0  0  0  0  0  0  0
    2.2154   -0.7821   -7.1570 C   0  0  0  0  0  0  0  0  0  0  0  0
    1.5717   -1.0275   -8.3764 C   0  0  0  0  0  0  0  0  0  0  0  0
    0.2874   -0.4962   -8.4431 C   0  0  0  0  0  0  0  0  0  0  0  0
   -0.6046   -0.5497   -9.6483 C   0  0  0  0  0  0  0  0  0  0  0  0
   -2.0745   -0.7080   -9.2633 C   0  0  0  0  0  0  0  0  0  0  0  0
   -0.0266    0.3224   -6.9991 S   0  0  0  0  0  0  0  0  0  0  0  0
    2.2557   -0.6798   -3.9827 C   0  0  0  0  0  0  0  0  0  0  0  0
    2.3329   -2.3544   -4.2068 S   0  0  0  0  0  0  0  0  0  0  0  0
    1.3243    2.7876   -5.0772 C   0  0  0  0  0  0  0  0  0  0  0  0
    1.2604    3.9291   -4.2728 C   0  0  0  0  0  0  0  0  0  0  0  0
    1.7483    3.5147   -2.7095 S   0  0  0  0  0  0  0  0  0  0  0  0
    1.0616    5.3012   -4.7780 C   0  0  0  0  0  0  0  0  0  0  0  0
    0.5948    6.3372   -4.0481 C   0  0  0  0  0  0  0  0  0  0  0  0
    0.1122    6.2833   -2.6641 C   0  0  0  0  0  0  0  0  0  0  0  0
   -0.4581    5.3072   -2.1105 O   0  0  0  0  0  0  0  0  0  0  0  0
    0.2398    7.6032   -2.0862 C   0  0  0  0  0  0  0  0  0  0  0  0
    0.0959    7.9731   -0.7488 C   0  0  0  0  0  0  0  0  0  0  0  0
    0.3847    9.2983   -0.3785 C   0  0  0  0  0  0  0  0  0  0  0  0
    0.2304    9.7334    1.0493 C   0  0  0  0  0  0  0  0  0  0  0  0
    0.7708   10.2296   -1.3725 C   0  0  0  0  0  0  0  0  0  0  0  0
    1.0330   11.5189   -1.0361 F   0  0  0  0  0  0  0  0  0  0  0  0
    0.9241    9.8273   -2.7105 C   0  0  0  0  0  0  0  0  0  0  0  0
    0.6362    8.4986   -3.0632 C   0  0  0  0  0  0  0  0  0  0  0  0
    0.7416    7.7919   -4.3739 C   0  0  0  0  0  0  0  0  0  0  0  0
    0.7686    8.3579   -5.6063 C   0  0  0  0  0  0  0  0  0  0  0  0
    0.5901    7.5819   -6.8081 C   0  0  0  0  0  0  0  0  0  0  0  0
    0.4470    6.9613   -7.7733 N   0  0  0  0  0  0  0  0  0  0  0  0
    0.8294    9.7812   -5.8066 C   0  0  0  0  0  0  0  0  0  0  0  0
    0.8792   10.9242   -5.9899 N   0  0  0  0  0  0  0  0  0  0  0  0
    0.4690   -6.3034    6.5808 H   0  0  0  0  0  0  0  0  0  0  0  0
   -2.0188   -0.9503    4.4919 H   0  0  0  0  0  0  0  0  0  0  0  0
   -2.9282    1.2842    5.0488 H   0  0  0  0  0  0  0  0  0  0  0  0
   -3.1994   -0.0026    9.8457 H   0  0  0  0  0  0  0  0  0  0  0  0
   -2.2670   -2.2052    9.3134 H   0  0  0  0  0  0  0  0  0  0  0  0
   -1.7590   -3.0870   -3.5308 H   0  0  0  0  0  0  0  0  0  0  0  0
   -2.9888   -3.9738   -2.5887 H   0  0  0  0  0  0  0  0  0  0  0  0
   -2.8932   -4.7508   -4.9607 H   0  0  0  0  0  0  0  0  0  0  0  0
   -1.1546   -5.1913   -4.7667 H   0  0  0  0  0  0  0  0  0  0  0  0
   -2.4269   -6.0836   -3.8373 H   0  0  0  0  0  0  0  0  0  0  0  0
   -3.0628   -6.1503   -1.4209 H   0  0  0  0  0  0  0  0  0  0  0  0
   -3.1444   -4.7536   -0.2797 H   0  0  0  0  0  0  0  0  0  0  0  0
   -2.0116   -7.5534    0.3590 H   0  0  0  0  0  0  0  0  0  0  0  0
   -3.6279   -6.9200    0.8488 H   0  0  0  0  0  0  0  0  0  0  0  0
   -2.1404   -6.1653    1.5237 H   0  0  0  0  0  0  0  0  0  0  0  0
    3.0984   -1.5138   -0.8391 H   0  0  0  0  0  0  0  0  0  0  0  0
    4.5891    3.0077    2.6465 H   0  0  0  0  0  0  0  0  0  0  0  0
    3.5682    1.9806    3.7109 H   0  0  0  0  0  0  0  0  0  0  0  0
    3.0968    4.3887    4.0933 H   0  0  0  0  0  0  0  0  0  0  0  0
    2.6963    4.6187    2.3460 H   0  0  0  0  0  0  0  0  0  0  0  0
    1.6437    3.5811    3.3972 H   0  0  0  0  0  0  0  0  0  0  0  0
    3.2120   -1.1390   -6.9319 H   0  0  0  0  0  0  0  0  0  0  0  0
    2.0295   -1.5820   -9.1871 H   0  0  0  0  0  0  0  0  0  0  0  0
   -0.4795    0.3852  -10.2357 H   0  0  0  0  0  0  0  0  0  0  0  0
   -0.3110   -1.4114  -10.2884 H   0  0  0  0  0  0  0  0  0  0  0  0
   -2.4226    0.1830   -8.6954 H   0  0  0  0  0  0  0  0  0  0  0  0
   -2.2186   -1.6219   -8.6476 H   0  0  0  0  0  0  0  0  0  0  0  0
   -2.6950   -0.7997  -10.1824 H   0  0  0  0  0  0  0  0  0  0  0  0
    1.1168    2.8102   -6.1394 H   0  0  0  0  0  0  0  0  0  0  0  0
    1.4439    5.4700   -5.7700 H   0  0  0  0  0  0  0  0  0  0  0  0
   -0.2013    7.2382   -0.0107 H   0  0  0  0  0  0  0  0  0  0  0  0
    0.2880    8.8629    1.7405 H   0  0  0  0  0  0  0  0  0  0  0  0
   -0.7505   10.2351    1.1775 H   0  0  0  0  0  0  0  0  0  0  0  0
    1.0421   10.4379    1.3281 H   0  0  0  0  0  0  0  0  0  0  0  0
    1.2791   10.5495   -3.4274 H   0  0  0  0  0  0  0  0  0  0  0  0
  1  2  2  3
  2  3  1  0
  3  4  2  0
  3  5  1  0
  5  6  2  0
  6  7  1  0
  7  8  2  0
  8  9  1  0
  9 10  1  0
  9 11  2  0
 11 12  1  0
 11 13  1  0
 13 14  2  0
 14 15  1  0
 15 16  2  0
 16 17  1  0
 17 18  2  3
 18 19  1  0
 19 20  3  0
 18 21  1  0
 21 22  3  0
  1 23  1  0
 23 24  2  0
 24 25  1  0
 25 26  1  0
 26 27  2  0
 27 28  2  0
 25 29  2  0
 29 30  1  0
 30 31  2  0
 31 32  1  0
 32 33  1  0
 33 34  2  0
 29 35  1  0
 35 36  2  0
 36 37  1  0
 36 38  1  0
 38 39  1  0
 38 40  2  0
 40 41  1  0
 41 42  2  0
 42 43  1  0
 43 44  1  0
 44 45  1  0
 43 46  2  0
 46 47  1  0
 47 48  2  0
 46 49  1  0
 49 50  1  0
 40 51  1  0
 51 52  2  0
 52 53  1  0
 53 54  2  0
 54 55  1  0
 55 56  1  0
 56 57  1  0
 57 58  1  0
 58 59  1  0
 57 60  2  0
 60 61  1  0
 60 62  1  0
 62 63  1  0
 54 64  1  0
 64 65  2  0
 65 66  1  0
 66 67  1  0
 67 68  2  0
 68 69  1  0
 69 70  2  0
 70 71  1  0
 71 72  1  0
 70 73  1  0
 66 74  2  0
 74 75  1  0
 65 76  1  0
 76 77  2  0
 77 78  1  0
 77 79  1  0
 79 80  2  3
 80 81  1  0
 81 82  2  0
 81 83  1  0
 83 84  2  0
 84 85  1  0
 85 86  1  0
 85 87  2  0
 87 88  1  0
 87 89  1  0
 89 90  2  0
 90 91  1  0
 91 92  2  3
 92 93  1  0
 93 94  3  0
 92 95  1  0
 95 96  3  0
 17  2  1  0
 34 23  1  0
 48 35  1  0
 75 51  1  0
 91 80  1  0
 16  5  1  0
 28 24  1  0
 34 30  1  0
 48 41  1  0
 74 53  1  0
 90 83  1  0
 14  7  1  0
 62 55  2  0
 78 64  1  0
 73 67  1  0
  1 97  1  0
  6 98  1  0
  8 99  1  0
 13100  1  0
 15101  1  0
 44102  1  0
 44103  1  0
 45104  1  0
 45105  1  0
 45106  1  0
 49107  1  0
 49108  1  0
 50109  1  0
 50110  1  0
 50111  1  0
 52112  1  0
 58113  1  0
 58114  1  0
 59115  1  0
 59116  1  0
 59117  1  0
 68118  1  0
 69119  1  0
 71120  1  0
 71121  1  0
 72122  1  0
 72123  1  0
 72124  1  0
 76125  1  0
 79126  1  0
 84127  1  0
 86128  1  0
 86129  1  0
 86130  1  0
 89131  1  0
M  END

