
     RDKit          3D

123137  0  0  0  0  0  0  0  0999 V2000
    4.5198    3.1086   -5.9020 C   0  0  0  0  0  0  0  0  0  0  0  0
    4.6201    4.0721   -4.9641 C   0  0  0  0  0  0  0  0  0  0  0  0
    4.4543    5.4970   -5.2534 C   0  0  0  0  0  0  0  0  0  0  0  0
    4.5316    6.0359   -6.3904 O   0  0  0  0  0  0  0  0  0  0  0  0
    4.0638    6.1619   -4.0237 C   0  0  0  0  0  0  0  0  0  0  0  0
    3.7147    7.4998   -3.8393 C   0  0  0  0  0  0  0  0  0  0  0  0
    3.3088    7.9188   -2.5595 C   0  0  0  0  0  0  0  0  0  0  0  0
    2.9618    9.2578   -2.3231 C   0  0  0  0  0  0  0  0  0  0  0  0
    2.5532    9.6663   -1.0483 C   0  0  0  0  0  0  0  0  0  0  0  0
    2.2249   10.9645   -0.8265 F   0  0  0  0  0  0  0  0  0  0  0  0
    2.4787    8.7391   -0.0048 C   0  0  0  0  0  0  0  0  0  0  0  0
    2.0734    9.1360    1.2276 F   0  0  0  0  0  0  0  0  0  0  0  0
    2.8161    7.4004   -0.2255 C   0  0  0  0  0  0  0  0  0  0  0  0
    3.2402    6.9781   -1.4932 C   0  0  0  0  0  0  0  0  0  0  0  0
    3.5946    5.6317   -1.7124 C   0  0  0  0  0  0  0  0  0  0  0  0
    4.0236    5.2406   -2.9920 C   0  0  0  0  0  0  0  0  0  0  0  0
    4.5152    3.9263   -3.4841 C   0  0  0  0  0  0  0  0  0  0  0  0
    5.1344    2.9811   -2.7377 C   0  0  0  0  0  0  0  0  0  0  0  0
    4.9595    2.8735   -1.3130 C   0  0  0  0  0  0  0  0  0  0  0  0
    4.8221    2.7688   -0.1700 N   0  0  0  0  0  0  0  0  0  0  0  0
    6.1354    2.1170   -3.3075 C   0  0  0  0  0  0  0  0  0  0  0  0
    6.9465    1.4292   -3.7583 N   0  0  0  0  0  0  0  0  0  0  0  0
    4.1461    1.7102   -5.5981 C   0  0  0  0  0  0  0  0  0  0  0  0
    3.0115    1.4121   -4.8206 C   0  0  0  0  0  0  0  0  0  0  0  0
    2.7524    0.0952   -4.3770 C   0  0  0  0  0  0  0  0  0  0  0  0
    1.6099   -0.0314   -3.5184 N   0  0  0  0  0  0  0  0  0  0  0  0
    1.0913    1.4783   -3.4918 S   0  0  0  0  0  4  0  0  0  0  0  0
    2.0549    2.3812   -4.3804 N   0  0  0  0  0  0  0  0  0  0  0  0
    3.5957   -0.9699   -4.7223 C   0  0  0  0  0  0  0  0  0  0  0  0
    4.6843   -0.7010   -5.5679 C   0  0  0  0  0  0  0  0  0  0  0  0
    5.5587   -1.6582   -5.9710 N   0  0  0  0  0  0  0  0  0  0  0  0
    6.5874   -0.7598   -6.8992 S   0  0  0  0  0  0  0  0  0  0  0  0
    6.0258    0.7932   -6.8306 N   0  0  0  0  0  0  0  0  0  0  0  0
    4.9413    0.6332   -6.0292 C   0  0  0  0  0  0  0  0  0  0  0  0
    3.4221   -2.2850   -4.0718 C   0  0  0  0  0  0  0  0  0  0  0  0
    4.1051   -2.6107   -2.9670 C   0  0  0  0  0  0  0  0  0  0  0  0
    3.2869   -3.4040   -2.0831 C   0  0  0  0  0  0  0  0  0  0  0  0
    2.0771   -3.6606   -2.8386 C   0  0  0  0  0  0  0  0  0  0  0  0
    1.0923   -4.3556   -2.4708 O   0  0  0  0  0  0  0  0  0  0  0  0
    2.1547   -2.9636   -4.0794 N   0  0  0  0  0  0  0  0  0  0  0  0
    1.3623   -3.2532   -5.2706 C   0  0  0  0  0  0  0  0  0  0  0  0
    3.4414   -2.9935   -0.8179 C   0  0  0  0  0  0  0  0  0  0  0  0
    4.5049   -2.0238   -0.7388 N   0  0  0  0  0  0  0  0  0  0  0  0
    4.7837   -1.1367    0.3875 C   0  0  0  0  0  0  0  0  0  0  0  0
    4.8723   -1.7551   -2.0850 C   0  0  0  0  0  0  0  0  0  0  0  0
    5.6726   -0.8507   -2.4394 O   0  0  0  0  0  0  0  0  0  0  0  0
    2.3548   -3.0561    0.1698 C   0  0  0  0  0  0  0  0  0  0  0  0
    1.6276   -1.9614    0.6148 C   0  0  0  0  0  0  0  0  0  0  0  0
    0.6236   -2.3084    1.5295 C   0  0  0  0  0  0  0  0  0  0  0  0
   -0.2637   -1.4152    2.1552 C   0  0  0  0  0  0  0  0  0  0  0  0
   -0.1550    0.0482    1.9798 C   0  0  0  0  0  0  0  0  0  0  0  0
   -1.3728    1.0421    1.3846 S   0  0  0  0  0  0  0  0  0  0  0  0
   -0.5082    2.4826    1.5050 C   0  0  0  0  0  0  0  0  0  0  0  0
   -1.0543    3.8426    1.1923 C   0  0  0  0  0  0  0  0  0  0  0  0
   -1.5615    4.5304    2.4557 C   0  0  0  0  0  0  0  0  0  0  0  0
    0.7530    2.2007    2.0262 C   0  0  0  0  0  0  0  0  0  0  0  0
    1.9839    3.4282    2.3093 Cl  0  0  0  0  0  0  0  0  0  0  0  0
    0.9480    0.8409    2.3011 C   0  0  0  0  0  0  0  0  0  0  0  0
    2.4137    0.2137    3.0446 Cl  0  0  0  0  0  0  0  0  0  0  0  0
   -1.2324   -1.9809    2.9980 C   0  0  0  0  0  0  0  0  0  0  0  0
   -1.3053   -3.3570    3.2682 C   0  0  0  0  0  0  0  0  0  0  0  0
   -0.3961   -4.2525    2.6591 C   0  0  0  0  0  0  0  0  0  0  0  0
   -0.4069   -5.7063    2.9352 C   0  0  0  0  0  0  0  0  0  0  0  0
   -0.3905   -6.3022    4.1943 C   0  0  0  0  0  0  0  0  0  0  0  0
   -0.3054   -7.6976    4.1534 C   0  0  0  0  0  0  0  0  0  0  0  0
   -0.2574   -8.2058    2.8603 C   0  0  0  0  0  0  0  0  0  0  0  0
   -0.0417   -9.6411    2.4804 C   0  0  0  0  0  0  0  0  0  0  0  0
    1.3937  -10.0736    2.7648 C   0  0  0  0  0  0  0  0  0  0  0  0
   -0.3076   -6.9225    1.7741 S   0  0  0  0  0  0  0  0  0  0  0  0
    0.5494   -3.6864    1.7791 C   0  0  0  0  0  0  0  0  0  0  0  0
    1.7538   -4.4613    0.8799 S   0  0  0  0  0  0  0  0  0  0  0  0
   -2.3351   -3.6805    4.1743 C   0  0  0  0  0  0  0  0  0  0  0  0
   -3.0604   -2.5642    4.5831 C   0  0  0  0  0  0  0  0  0  0  0  0
   -2.4231   -1.1814    3.8696 S   0  0  0  0  0  0  0  0  0  0  0  0
   -4.0747   -2.5303    5.6428 C   0  0  0  0  0  0  0  0  0  0  0  0
   -5.3304   -2.0974    5.4238 C   0  0  0  0  0  0  0  0  0  0  0  0
   -5.9246   -1.8516    4.1030 C   0  0  0  0  0  0  0  0  0  0  0  0
   -5.5021   -2.3009    3.0056 O   0  0  0  0  0  0  0  0  0  0  0  0
   -7.1147   -1.0498    4.2822 C   0  0  0  0  0  0  0  0  0  0  0  0
   -7.9414   -0.5047    3.3045 C   0  0  0  0  0  0  0  0  0  0  0  0
   -8.9503    0.3878    3.6875 C   0  0  0  0  0  0  0  0  0  0  0  0
   -9.8507    0.9829    2.6446 C   0  0  0  0  0  0  0  0  0  0  0  0
   -9.1351    0.6823    5.0589 C   0  0  0  0  0  0  0  0  0  0  0  0
  -10.1155    1.5391    5.4616 F   0  0  0  0  0  0  0  0  0  0  0  0
   -8.2988    0.1099    6.0292 C   0  0  0  0  0  0  0  0  0  0  0  0
   -7.3098   -0.8074    5.6306 C   0  0  0  0  0  0  0  0  0  0  0  0
   -6.2996   -1.5590    6.4315 C   0  0  0  0  0  0  0  0  0  0  0  0
   -6.3461   -1.8192    7.7616 C   0  0  0  0  0  0  0  0  0  0  0  0
   -7.4101   -1.3358    8.6049 C   0  0  0  0  0  0  0  0  0  0  0  0
   -8.2610   -0.9599    9.2943 N   0  0  0  0  0  0  0  0  0  0  0  0
   -5.4245   -2.7095    8.4164 C   0  0  0  0  0  0  0  0  0  0  0  0
   -4.6913   -3.4252    8.9541 N   0  0  0  0  0  0  0  0  0  0  0  0
    4.6042    3.3821   -6.9457 H   0  0  0  0  0  0  0  0  0  0  0  0
    3.7645    8.1915   -4.6689 H   0  0  0  0  0  0  0  0  0  0  0  0
    3.0115    9.9880   -3.1192 H   0  0  0  0  0  0  0  0  0  0  0  0
    2.7559    6.7003    0.5985 H   0  0  0  0  0  0  0  0  0  0  0  0
    3.4891    4.9167   -0.9156 H   0  0  0  0  0  0  0  0  0  0  0  0
    0.3243   -3.5260   -4.9841 H   0  0  0  0  0  0  0  0  0  0  0  0
    1.8249   -4.0977   -5.8270 H   0  0  0  0  0  0  0  0  0  0  0  0
    1.3284   -2.3583   -5.9248 H   0  0  0  0  0  0  0  0  0  0  0  0
    4.6127   -1.6693    1.3471 H   0  0  0  0  0  0  0  0  0  0  0  0
    4.1311   -0.2405    0.3327 H   0  0  0  0  0  0  0  0  0  0  0  0
    5.8437   -0.8070    0.3513 H   0  0  0  0  0  0  0  0  0  0  0  0
    1.7974   -0.9558    0.2614 H   0  0  0  0  0  0  0  0  0  0  0  0
   -1.8999    3.7447    0.4718 H   0  0  0  0  0  0  0  0  0  0  0  0
   -0.2688    4.4630    0.7107 H   0  0  0  0  0  0  0  0  0  0  0  0
   -2.4314    3.9810    2.8721 H   0  0  0  0  0  0  0  0  0  0  0  0
   -0.7603    4.5749    3.2253 H   0  0  0  0  0  0  0  0  0  0  0  0
   -1.8740    5.5648    2.2112 H   0  0  0  0  0  0  0  0  0  0  0  0
   -0.4005   -5.7453    5.1205 H   0  0  0  0  0  0  0  0  0  0  0  0
   -0.2515   -8.3171    5.0384 H   0  0  0  0  0  0  0  0  0  0  0  0
   -0.7485  -10.2867    3.0490 H   0  0  0  0  0  0  0  0  0  0  0  0
   -0.2594   -9.7656    1.3958 H   0  0  0  0  0  0  0  0  0  0  0  0
    1.4979  -10.3620    3.8288 H   0  0  0  0  0  0  0  0  0  0  0  0
    2.1088   -9.2581    2.5311 H   0  0  0  0  0  0  0  0  0  0  0  0
    1.6482  -10.9547    2.1330 H   0  0  0  0  0  0  0  0  0  0  0  0
   -2.5541   -4.6814    4.5189 H   0  0  0  0  0  0  0  0  0  0  0  0
   -3.6854   -2.6321    6.6371 H   0  0  0  0  0  0  0  0  0  0  0  0
   -7.7810   -0.7450    2.2627 H   0  0  0  0  0  0  0  0  0  0  0  0
  -10.5768    0.2163    2.2927 H   0  0  0  0  0  0  0  0  0  0  0  0
  -10.4135    1.8577    3.0335 H   0  0  0  0  0  0  0  0  0  0  0  0
   -9.2473    1.3312    1.7771 H   0  0  0  0  0  0  0  0  0  0  0  0
   -8.4164    0.4117    7.0552 H   0  0  0  0  0  0  0  0  0  0  0  0
  1  2  2  3
  2  3  1  0
  3  4  2  0
  3  5  1  0
  5  6  2  0
  6  7  1  0
  7  8  2  0
  8  9  1  0
  9 10  1  0
  9 11  2  0
 11 12  1  0
 11 13  1  0
 13 14  2  0
 14 15  1  0
 15 16  2  0
 16 17  1  0
 17 18  2  3
 18 19  1  0
 19 20  3  0
 18 21  1  0
 21 22  3  0
  1 23  1  0
 23 24  2  0
 24 25  1  0
 25 26  1  0
 26 27  2  0
 27 28  2  0
 25 29  2  0
 29 30  1  0
 30 31  2  0
 31 32  1  0
 32 33  1  0
 33 34  2  0
 29 35  1  0
 35 36  2  0
 36 37  1  0
 37 38  1  0
 38 39  2  0
 38 40  1  0
 40 41  1  0
 37 42  2  0
 42 43  1  0
 43 44  1  0
 43 45  1  0
 45 46  2  0
 42 47  1  0
 47 48  2  0
 48 49  1  0
 49 50  2  0
 50 51  1  0
 51 52  1  0
 52 53  1  0
 53 54  1  0
 54 55  1  0
 53 56  2  0
 56 57  1  0
 56 58  1  0
 58 59  1  0
 50 60  1  0
 60 61  2  0
 61 62  1  0
 62 63  1  0
 63 64  2  0
 64 65  1  0
 65 66  2  0
 66 67  1  0
 67 68  1  0
 66 69  1  0
 62 70  2  0
 70 71  1  0
 61 72  1  0
 72 73  2  0
 73 74  1  0
 73 75  1  0
 75 76  2  3
 76 77  1  0
 77 78  2  0
 77 79  1  0
 79 80  2  0
 80 81  1  0
 81 82  1  0
 81 83  2  0
 83 84  1  0
 83 85  1  0
 85 86  2  0
 86 87  1  0
 87 88  2  3
 88 89  1  0
 89 90  3  0
 88 91  1  0
 91 92  3  0
 17  2  1  0
 34 23  1  0
 40 35  1  0
 71 47  1  0
 87 76  1  0
 16  5  1  0
 28 24  1  0
 34 30  1  0
 45 36  1  0
 70 49  1  0
 86 79  1  0
 14  7  1  0
 58 51  2  0
 74 60  1  0
 69 63  1  0
  1 93  1  0
  6 94  1  0
  8 95  1  0
 13 96  1  0
 15 97  1  0
 41 98  1  0
 41 99  1  0
 41100  1  0
 44101  1  0
 44102  1  0
 44103  1  0
 48104  1  0
 54105  1  0
 54106  1  0
 55107  1  0
 55108  1  0
 55109  1  0
 64110  1  0
 65111  1  0
 67112  1  0
 67113  1  0
 68114  1  0
 68115  1  0
 68116  1  0
 72117  1  0
 75118  1  0
 80119  1  0
 82120  1  0
 82121  1  0
 82122  1  0
 85123  1  0
M  END

