
     RDKit          3D

256279  0  0  0  0  0  0  0  0999 V2000
    1.7860    8.4321    3.5918 C   0  0  0  0  0  0  0  0  0  0  0  0
    1.6167    8.8159    2.3031 C   0  0  0  0  0  0  0  0  0  0  0  0
    1.2186    7.9480    1.1807 C   0  0  0  0  0  0  0  0  0  0  0  0
    0.7764    6.7688    1.2488 O   0  0  0  0  0  0  0  0  0  0  0  0
    1.4328    8.6638   -0.0549 C   0  0  0  0  0  0  0  0  0  0  0  0
    1.2076    8.2131   -1.3534 C   0  0  0  0  0  0  0  0  0  0  0  0
    1.6072    9.0288   -2.4280 C   0  0  0  0  0  0  0  0  0  0  0  0
    1.4271    8.5988   -3.7512 C   0  0  0  0  0  0  0  0  0  0  0  0
    1.9100    9.3708   -4.8133 C   0  0  0  0  0  0  0  0  0  0  0  0
    1.7589    8.9318   -6.0889 F   0  0  0  0  0  0  0  0  0  0  0  0
    2.5585   10.5850   -4.5627 C   0  0  0  0  0  0  0  0  0  0  0  0
    3.0491   11.3154   -5.5946 F   0  0  0  0  0  0  0  0  0  0  0  0
    2.7239   11.0379   -3.2530 C   0  0  0  0  0  0  0  0  0  0  0  0
    2.2449   10.2712   -2.1735 C   0  0  0  0  0  0  0  0  0  0  0  0
    2.4231   10.7139   -0.8457 C   0  0  0  0  0  0  0  0  0  0  0  0
    1.9718    9.9066    0.2144 C   0  0  0  0  0  0  0  0  0  0  0  0
    1.9904   10.1330    1.6920 C   0  0  0  0  0  0  0  0  0  0  0  0
    2.0879   11.3330    2.3239 C   0  0  0  0  0  0  0  0  0  0  0  0
    2.4224   12.5481    1.6244 C   0  0  0  0  0  0  0  0  0  0  0  0
    2.7013   13.5307    1.0747 N   0  0  0  0  0  0  0  0  0  0  0  0
    1.7989   11.4963    3.7236 C   0  0  0  0  0  0  0  0  0  0  0  0
    1.5712   11.6357    4.8487 N   0  0  0  0  0  0  0  0  0  0  0  0
    1.5790    7.0452    4.0295 C   0  0  0  0  0  0  0  0  0  0  0  0
    0.3483    6.3716    4.0043 C   0  0  0  0  0  0  0  0  0  0  0  0
   -0.8916    6.9882    4.3821 N   0  0  0  0  0  0  0  0  0  0  0  0
   -1.0925    7.3468    5.7571 C   0  0  0  0  0  0  0  0  0  0  0  0
   -1.0513    6.3668    6.7608 C   0  0  0  0  0  0  0  0  0  0  0  0
   -1.1855    6.7274    8.1024 C   0  0  0  0  0  0  0  0  0  0  0  0
   -1.3712    8.0716    8.4608 C   0  0  0  0  0  0  0  0  0  0  0  0
   -1.4652    8.4572    9.9090 C   0  0  0  0  0  0  0  0  0  0  0  0
   -1.3991    9.0520    7.4603 C   0  0  0  0  0  0  0  0  0  0  0  0
   -1.2729    8.6908    6.1142 C   0  0  0  0  0  0  0  0  0  0  0  0
   -1.9673    7.1308    3.4428 C   0  0  0  0  0  0  0  0  0  0  0  0
   -1.9282    8.1451    2.4825 C   0  0  0  0  0  0  0  0  0  0  0  0
   -2.9725    8.2956    1.5716 C   0  0  0  0  0  0  0  0  0  0  0  0
   -4.0822    7.4423    1.6322 C   0  0  0  0  0  0  0  0  0  0  0  0
   -5.1921    7.5968    0.6350 C   0  0  0  0  0  0  0  0  0  0  0  0
   -4.1286    6.4360    2.6104 C   0  0  0  0  0  0  0  0  0  0  0  0
   -3.0794    6.2840    3.5163 C   0  0  0  0  0  0  0  0  0  0  0  0
    0.5334    4.9960    3.9293 C   0  0  0  0  0  0  0  0  0  0  0  0
   -0.4441    3.7210    3.4734 S   0  0  0  0  0  0  0  0  0  0  0  0
    0.8318    2.5847    3.3992 C   0  0  0  0  0  0  0  0  0  0  0  0
    2.0332    3.2052    3.8103 C   0  0  0  0  0  0  0  0  0  0  0  0
    3.2282    2.5311    4.2971 N   0  0  0  0  0  0  0  0  0  0  0  0
    3.4182    1.1067    4.2225 C   0  0  0  0  0  0  0  0  0  0  0  0
    4.6638    0.5936    3.8290 C   0  0  0  0  0  0  0  0  0  0  0  0
    4.9175   -0.7803    3.8977 C   0  0  0  0  0  0  0  0  0  0  0  0
    3.9111   -1.6638    4.3126 C   0  0  0  0  0  0  0  0  0  0  0  0
    4.1619   -3.1438    4.3383 C   0  0  0  0  0  0  0  0  0  0  0  0
    2.6831   -1.1518    4.7524 C   0  0  0  0  0  0  0  0  0  0  0  0
    2.4546    0.2273    4.7424 C   0  0  0  0  0  0  0  0  0  0  0  0
    3.9696    3.1732    5.3465 C   0  0  0  0  0  0  0  0  0  0  0  0
    5.2446    3.7010    5.1037 C   0  0  0  0  0  0  0  0  0  0  0  0
    5.9295    4.3687    6.1281 C   0  0  0  0  0  0  0  0  0  0  0  0
    5.3484    4.5011    7.3992 C   0  0  0  0  0  0  0  0  0  0  0  0
    6.0492    5.2755    8.4790 C   0  0  0  0  0  0  0  0  0  0  0  0
    4.0664    3.9841    7.6318 C   0  0  0  0  0  0  0  0  0  0  0  0
    3.3849    3.3169    6.6138 C   0  0  0  0  0  0  0  0  0  0  0  0
    1.8160    4.5733    4.0020 C   0  0  0  0  0  0  0  0  0  0  0  0
    2.8386    5.9092    4.0528 S   0  0  0  0  0  0  0  0  0  0  0  0
    0.6946    1.4084    2.5332 C   0  0  0  0  0  0  0  0  0  0  0  0
    1.1493    1.3362    1.2026 C   0  0  0  0  0  0  0  0  0  0  0  0
    2.4734    1.7275    0.7883 N   0  0  0  0  0  0  0  0  0  0  0  0
    2.6281    2.9947    0.1190 C   0  0  0  0  0  0  0  0  0  0  0  0
    3.3132    4.0466    0.7451 C   0  0  0  0  0  0  0  0  0  0  0  0
    3.6754    5.1873    0.0170 C   0  0  0  0  0  0  0  0  0  0  0  0
    3.4061    5.2616   -1.3560 C   0  0  0  0  0  0  0  0  0  0  0  0
    4.0158    6.6479   -2.3157 S   0  0  0  0  0  0  0  0  0  0  0  0
    5.6018    5.8528   -2.7340 C   0  0  0  0  0  0  0  0  0  0  0  0
    2.6865    4.2350   -1.9757 C   0  0  0  0  0  0  0  0  0  0  0  0
    2.2970    3.1108   -1.2409 C   0  0  0  0  0  0  0  0  0  0  0  0
    3.5254    0.7222    0.6930 C   0  0  0  0  0  0  0  0  0  0  0  0
    3.2869   -0.6286    1.0528 C   0  0  0  0  0  0  0  0  0  0  0  0
    4.2776   -1.5988    0.8994 C   0  0  0  0  0  0  0  0  0  0  0  0
    5.5462   -1.2400    0.4405 C   0  0  0  0  0  0  0  0  0  0  0  0
    6.8361   -2.4800    0.3274 S   0  0  0  0  0  0  0  0  0  0  0  0
    6.3378   -3.0163   -1.3394 C   0  0  0  0  0  0  0  0  0  0  0  0
    5.8153    0.0875    0.1060 C   0  0  0  0  0  0  0  0  0  0  0  0
    4.8143    1.0591    0.2208 C   0  0  0  0  0  0  0  0  0  0  0  0
    0.3933    0.4138    0.4762 C   0  0  0  0  0  0  0  0  0  0  0  0
    0.5076   -0.2158   -1.0676 S   0  0  0  0  0  0  0  0  0  0  0  0
   -0.6830   -1.4038   -0.8211 C   0  0  0  0  0  0  0  0  0  0  0  0
   -1.1128   -1.3674    0.5225 C   0  0  0  0  0  0  0  0  0  0  0  0
   -1.7730   -2.4528    1.2169 N   0  0  0  0  0  0  0  0  0  0  0  0
   -2.6341   -2.1396    2.3331 C   0  0  0  0  0  0  0  0  0  0  0  0
   -2.4484   -2.7665    3.5778 C   0  0  0  0  0  0  0  0  0  0  0  0
   -3.1761   -2.3518    4.6949 C   0  0  0  0  0  0  0  0  0  0  0  0
   -4.1031   -1.3119    4.5781 C   0  0  0  0  0  0  0  0  0  0  0  0
   -4.9761   -0.7434    6.0360 S   0  0  0  0  0  0  0  0  0  0  0  0
   -6.3906   -1.8570    5.7709 C   0  0  0  0  0  0  0  0  0  0  0  0
   -4.3191   -0.7015    3.3396 C   0  0  0  0  0  0  0  0  0  0  0  0
   -3.5949   -1.1159    2.2183 C   0  0  0  0  0  0  0  0  0  0  0  0
   -1.3667   -3.8237    0.9776 C   0  0  0  0  0  0  0  0  0  0  0  0
   -2.2865   -4.8752    1.1465 C   0  0  0  0  0  0  0  0  0  0  0  0
   -1.9429   -6.1900    0.8041 C   0  0  0  0  0  0  0  0  0  0  0  0
   -0.6637   -6.4754    0.3245 C   0  0  0  0  0  0  0  0  0  0  0  0
   -0.2488   -8.1451   -0.1772 S   0  0  0  0  0  0  0  0  0  0  0  0
    0.4001   -8.6131    1.4580 C   0  0  0  0  0  0  0  0  0  0  0  0
    0.2852   -5.4555    0.2160 C   0  0  0  0  0  0  0  0  0  0  0  0
   -0.0546   -4.1423    0.5653 C   0  0  0  0  0  0  0  0  0  0  0  0
   -0.5272   -0.2843    1.1871 C   0  0  0  0  0  0  0  0  0  0  0  0
   -0.5573    0.2803    2.7638 S   0  0  0  0  0  0  0  0  0  0  0  0
   -1.0800   -2.3622   -1.8538 C   0  0  0  0  0  0  0  0  0  0  0  0
   -2.3884   -2.7888   -2.1563 C   0  0  0  0  0  0  0  0  0  0  0  0
   -3.5792   -2.1285   -1.6828 N   0  0  0  0  0  0  0  0  0  0  0  0
   -4.6244   -2.8472   -0.9753 C   0  0  0  0  0  0  0  0  0  0  0  0
   -5.6812   -2.1460   -0.3600 C   0  0  0  0  0  0  0  0  0  0  0  0
   -6.6740   -2.8235    0.3545 C   0  0  0  0  0  0  0  0  0  0  0  0
   -6.6392   -4.2201    0.4605 C   0  0  0  0  0  0  0  0  0  0  0  0
   -7.7216   -4.9580    1.1905 C   0  0  0  0  0  0  0  0  0  0  0  0
   -5.6168   -4.9318   -0.1756 C   0  0  0  0  0  0  0  0  0  0  0  0
   -4.6153   -4.2557   -0.8814 C   0  0  0  0  0  0  0  0  0  0  0  0
   -3.8574   -0.8346   -2.2510 C   0  0  0  0  0  0  0  0  0  0  0  0
   -3.4116    0.3361   -1.6196 C   0  0  0  0  0  0  0  0  0  0  0  0
   -3.6540    1.5858   -2.1926 C   0  0  0  0  0  0  0  0  0  0  0  0
   -4.3725    1.6867   -3.3896 C   0  0  0  0  0  0  0  0  0  0  0  0
   -4.5791    3.0262   -4.0300 C   0  0  0  0  0  0  0  0  0  0  0  0
   -4.8155    0.5146   -4.0256 C   0  0  0  0  0  0  0  0  0  0  0  0
   -4.5637   -0.7377   -3.4557 C   0  0  0  0  0  0  0  0  0  0  0  0
   -2.3772   -3.6486   -3.2563 C   0  0  0  0  0  0  0  0  0  0  0  0
   -3.5668   -4.3431   -4.2230 S   0  0  0  0  0  0  0  0  0  0  0  0
   -2.4596   -4.9608   -5.3581 C   0  0  0  0  0  0  0  0  0  0  0  0
   -1.1520   -4.5811   -5.0044 C   0  0  0  0  0  0  0  0  0  0  0  0
   -0.0335   -4.6016   -5.9193 N   0  0  0  0  0  0  0  0  0  0  0  0
    1.2858   -4.9238   -5.4244 C   0  0  0  0  0  0  0  0  0  0  0  0
    2.4166   -4.1909   -5.8307 C   0  0  0  0  0  0  0  0  0  0  0  0
    3.6752   -4.4583   -5.2828 C   0  0  0  0  0  0  0  0  0  0  0  0
    3.8272   -5.4673   -4.3188 C   0  0  0  0  0  0  0  0  0  0  0  0
    5.1835   -5.7689   -3.7548 C   0  0  0  0  0  0  0  0  0  0  0  0
    2.7074   -6.2153   -3.9229 C   0  0  0  0  0  0  0  0  0  0  0  0
    1.4531   -5.9493   -4.4767 C   0  0  0  0  0  0  0  0  0  0  0  0
   -0.2072   -4.0446   -7.2402 C   0  0  0  0  0  0  0  0  0  0  0  0
   -1.0134   -2.9030   -7.4314 C   0  0  0  0  0  0  0  0  0  0  0  0
   -1.2154   -2.3852   -8.7118 C   0  0  0  0  0  0  0  0  0  0  0  0
   -0.6043   -2.9860   -9.8227 C   0  0  0  0  0  0  0  0  0  0  0  0
   -0.8545   -2.4583  -11.1996 C   0  0  0  0  0  0  0  0  0  0  0  0
    0.1954   -4.1237   -9.6388 C   0  0  0  0  0  0  0  0  0  0  0  0
    0.3988   -4.6447   -8.3551 C   0  0  0  0  0  0  0  0  0  0  0  0
   -1.1530   -3.8788   -3.8023 C   0  0  0  0  0  0  0  0  0  0  0  0
    0.0179   -3.0197   -2.9705 S   0  0  0  0  0  0  0  0  0  0  0  0
   -2.8230   -5.7592   -6.5289 C   0  0  0  0  0  0  0  0  0  0  0  0
   -2.6760   -7.0990   -6.5545 C   0  0  0  0  0  0  0  0  0  0  0  0
   -2.3223   -7.9167   -5.3876 C   0  0  0  0  0  0  0  0  0  0  0  0
   -2.0911   -7.5019   -4.2184 O   0  0  0  0  0  0  0  0  0  0  0  0
   -2.2973   -9.3034   -5.7795 C   0  0  0  0  0  0  0  0  0  0  0  0
   -2.0295  -10.4125   -4.9739 C   0  0  0  0  0  0  0  0  0  0  0  0
   -2.0383  -11.6851   -5.5569 C   0  0  0  0  0  0  0  0  0  0  0  0
   -1.7632  -12.8268   -4.7869 C   0  0  0  0  0  0  0  0  0  0  0  0
   -1.7605  -14.0934   -5.3827 C   0  0  0  0  0  0  0  0  0  0  0  0
   -1.4996  -15.1908   -4.6292 F   0  0  0  0  0  0  0  0  0  0  0  0
   -2.0292  -14.2296   -6.7444 C   0  0  0  0  0  0  0  0  0  0  0  0
   -2.0327  -15.4598   -7.3204 F   0  0  0  0  0  0  0  0  0  0  0  0
   -2.3057  -13.1009   -7.5240 C   0  0  0  0  0  0  0  0  0  0  0  0
   -2.3170  -11.8237   -6.9432 C   0  0  0  0  0  0  0  0  0  0  0  0
   -2.6028  -10.6875   -7.7252 C   0  0  0  0  0  0  0  0  0  0  0  0
   -2.5923   -9.4135   -7.1289 C   0  0  0  0  0  0  0  0  0  0  0  0
   -2.8570   -8.0525   -7.7031 C   0  0  0  0  0  0  0  0  0  0  0  0
   -3.1847   -7.7590   -8.9988 C   0  0  0  0  0  0  0  0  0  0  0  0
   -3.3030   -8.7562  -10.0288 C   0  0  0  0  0  0  0  0  0  0  0  0
   -3.3967   -9.5389  -10.8758 N   0  0  0  0  0  0  0  0  0  0  0  0
   -3.4471   -6.4259   -9.4706 C   0  0  0  0  0  0  0  0  0  0  0  0
   -3.6732   -5.3652   -9.8792 N   0  0  0  0  0  0  0  0  0  0  0  0
    2.2900    9.0856    4.2860 H   0  0  0  0  0  0  0  0  0  0  0  0
    0.7659    7.2356   -1.5220 H   0  0  0  0  0  0  0  0  0  0  0  0
    0.9412    7.6505   -3.9574 H   0  0  0  0  0  0  0  0  0  0  0  0
    3.2321   11.9780   -3.0811 H   0  0  0  0  0  0  0  0  0  0  0  0
    2.9498   11.6349   -0.6684 H   0  0  0  0  0  0  0  0  0  0  0  0
   -0.9165    5.3219    6.5021 H   0  0  0  0  0  0  0  0  0  0  0  0
   -1.1444    5.9586    8.8653 H   0  0  0  0  0  0  0  0  0  0  0  0
   -2.0459    7.6999   10.4776 H   0  0  0  0  0  0  0  0  0  0  0  0
   -1.9774    9.4376   10.0271 H   0  0  0  0  0  0  0  0  0  0  0  0
   -0.4449    8.5325   10.3425 H   0  0  0  0  0  0  0  0  0  0  0  0
   -1.5168   10.0992    7.7188 H   0  0  0  0  0  0  0  0  0  0  0  0
   -1.2917    9.4594    5.3507 H   0  0  0  0  0  0  0  0  0  0  0  0
   -1.1053    8.8461    2.4642 H   0  0  0  0  0  0  0  0  0  0  0  0
   -2.9222    9.0833    0.8293 H   0  0  0  0  0  0  0  0  0  0  0  0
   -6.0895    7.0130    0.9300 H   0  0  0  0  0  0  0  0  0  0  0  0
   -4.8496    7.2450   -0.3630 H   0  0  0  0  0  0  0  0  0  0  0  0
   -5.4807    8.6677    0.5571 H   0  0  0  0  0  0  0  0  0  0  0  0
   -4.9816    5.7726    2.6730 H   0  0  0  0  0  0  0  0  0  0  0  0
   -3.1211    5.4967    4.2618 H   0  0  0  0  0  0  0  0  0  0  0  0
    5.4417    1.2602    3.4822 H   0  0  0  0  0  0  0  0  0  0  0  0
    5.8893   -1.1510    3.5945 H   0  0  0  0  0  0  0  0  0  0  0  0
    4.9411   -3.4263    3.5973 H   0  0  0  0  0  0  0  0  0  0  0  0
    4.4937   -3.4455    5.3517 H   0  0  0  0  0  0  0  0  0  0  0  0
    3.2339   -3.6924    4.0795 H   0  0  0  0  0  0  0  0  0  0  0  0
    1.9093   -1.8178    5.1159 H   0  0  0  0  0  0  0  0  0  0  0  0
    1.5252    0.6026    5.1558 H   0  0  0  0  0  0  0  0  0  0  0  0
    5.6922    3.6207    4.1214 H   0  0  0  0  0  0  0  0  0  0  0  0
    6.9074    4.7869    5.9243 H   0  0  0  0  0  0  0  0  0  0  0  0
    7.1498    5.1408    8.4021 H   0  0  0  0  0  0  0  0  0  0  0  0
    5.7292    4.9262    9.4822 H   0  0  0  0  0  0  0  0  0  0  0  0
    5.8074    6.3558    8.3847 H   0  0  0  0  0  0  0  0  0  0  0  0
    3.5883    4.1046    8.5954 H   0  0  0  0  0  0  0  0  0  0  0  0
    2.3922    2.9255    6.8015 H   0  0  0  0  0  0  0  0  0  0  0  0
    3.6392    3.9556    1.7687 H   0  0  0  0  0  0  0  0  0  0  0  0
    4.2200    5.9808    0.5085 H   0  0  0  0  0  0  0  0  0  0  0  0
    6.3400    6.6395   -2.9928 H   0  0  0  0  0  0  0  0  0  0  0  0
    6.0077    5.2707   -1.8773 H   0  0  0  0  0  0  0  0  0  0  0  0
    5.4697    5.1880   -3.6135 H   0  0  0  0  0  0  0  0  0  0  0  0
    2.4582    4.2895   -3.0313 H   0  0  0  0  0  0  0  0  0  0  0  0
    1.8012    2.3002   -1.7535 H   0  0  0  0  0  0  0  0  0  0  0  0
    2.3479   -0.9541    1.4725 H   0  0  0  0  0  0  0  0  0  0  0  0
    4.0614   -2.6230    1.1698 H   0  0  0  0  0  0  0  0  0  0  0  0
    6.2693   -2.1482   -2.0299 H   0  0  0  0  0  0  0  0  0  0  0  0
    7.0961   -3.7216   -1.7310 H   0  0  0  0  0  0  0  0  0  0  0  0
    5.3582   -3.5329   -1.2862 H   0  0  0  0  0  0  0  0  0  0  0  0
    6.8008    0.3738   -0.2432 H   0  0  0  0  0  0  0  0  0  0  0  0
    5.0621    2.0699   -0.0603 H   0  0  0  0  0  0  0  0  0  0  0  0
   -1.7120   -3.5527    3.6960 H   0  0  0  0  0  0  0  0  0  0  0  0
   -3.0067   -2.8308    5.6544 H   0  0  0  0  0  0  0  0  0  0  0  0
   -7.0154   -1.4586    4.9456 H   0  0  0  0  0  0  0  0  0  0  0  0
   -6.0675   -2.8898    5.5233 H   0  0  0  0  0  0  0  0  0  0  0  0
   -6.9902   -1.8919    6.7014 H   0  0  0  0  0  0  0  0  0  0  0  0
   -5.0305    0.1063    3.2467 H   0  0  0  0  0  0  0  0  0  0  0  0
   -3.7528   -0.6167    1.2757 H   0  0  0  0  0  0  0  0  0  0  0  0
   -3.2838   -4.6736    1.5079 H   0  0  0  0  0  0  0  0  0  0  0  0
   -2.6822   -6.9757    0.8984 H   0  0  0  0  0  0  0  0  0  0  0  0
    1.3899   -8.1362    1.6147 H   0  0  0  0  0  0  0  0  0  0  0  0
   -0.2997   -8.3049    2.2637 H   0  0  0  0  0  0  0  0  0  0  0  0
    0.5185   -9.7145    1.4899 H   0  0  0  0  0  0  0  0  0  0  0  0
    1.2817   -5.6711   -0.1402 H   0  0  0  0  0  0  0  0  0  0  0  0
    0.7100   -3.3780    0.4903 H   0  0  0  0  0  0  0  0  0  0  0  0
   -5.7373   -1.0692   -0.4138 H   0  0  0  0  0  0  0  0  0  0  0  0
   -7.4702   -2.2583    0.8189 H   0  0  0  0  0  0  0  0  0  0  0  0
   -8.1573   -4.3261    1.9962 H   0  0  0  0  0  0  0  0  0  0  0  0
   -8.5257   -5.2387    0.4799 H   0  0  0  0  0  0  0  0  0  0  0  0
   -7.3151   -5.8787    1.6568 H   0  0  0  0  0  0  0  0  0  0  0  0
   -5.5887   -6.0142   -0.1209 H   0  0  0  0  0  0  0  0  0  0  0  0
   -3.8345   -4.8493   -1.3315 H   0  0  0  0  0  0  0  0  0  0  0  0
   -2.8622    0.2828   -0.6965 H   0  0  0  0  0  0  0  0  0  0  0  0
   -3.2937    2.4781   -1.6885 H   0  0  0  0  0  0  0  0  0  0  0  0
   -3.6516    3.3369   -4.5582 H   0  0  0  0  0  0  0  0  0  0  0  0
   -4.8287    3.7904   -3.2601 H   0  0  0  0  0  0  0  0  0  0  0  0
   -5.4142    2.9971   -4.7613 H   0  0  0  0  0  0  0  0  0  0  0  0
   -5.3409    0.5715   -4.9692 H   0  0  0  0  0  0  0  0  0  0  0  0
   -4.9003   -1.6300   -3.9642 H   0  0  0  0  0  0  0  0  0  0  0  0
    2.3153   -3.3755   -6.5429 H   0  0  0  0  0  0  0  0  0  0  0  0
    4.5261   -3.8777   -5.6166 H   0  0  0  0  0  0  0  0  0  0  0  0
    5.8453   -4.8737   -3.8036 H   0  0  0  0  0  0  0  0  0  0  0  0
    5.6481   -6.5870   -4.3382 H   0  0  0  0  0  0  0  0  0  0  0  0
    5.0998   -6.0745   -2.6933 H   0  0  0  0  0  0  0  0  0  0  0  0
    2.8099   -6.9990   -3.1849 H   0  0  0  0  0  0  0  0  0  0  0  0
    0.6081   -6.5404   -4.1549 H   0  0  0  0  0  0  0  0  0  0  0  0
   -1.4930   -2.4210   -6.5908 H   0  0  0  0  0  0  0  0  0  0  0  0
   -1.8508   -1.5150   -8.8306 H   0  0  0  0  0  0  0  0  0  0  0  0
    0.0870   -2.4753  -11.7898 H   0  0  0  0  0  0  0  0  0  0  0  0
   -1.2230   -1.4122  -11.1658 H   0  0  0  0  0  0  0  0  0  0  0  0
   -1.6114   -3.0903  -11.7089 H   0  0  0  0  0  0  0  0  0  0  0  0
    0.6640   -4.6110  -10.4873 H   0  0  0  0  0  0  0  0  0  0  0  0
    1.0034   -5.5322   -8.2330 H   0  0  0  0  0  0  0  0  0  0  0  0
   -3.1571   -5.1966   -7.3773 H   0  0  0  0  0  0  0  0  0  0  0  0
   -1.8349  -10.2817   -3.9153 H   0  0  0  0  0  0  0  0  0  0  0  0
   -1.5439  -12.7403   -3.7304 H   0  0  0  0  0  0  0  0  0  0  0  0
   -2.5262  -13.2279   -8.5792 H   0  0  0  0  0  0  0  0  0  0  0  0
   -2.8045  -10.8260   -8.7673 H   0  0  0  0  0  0  0  0  0  0  0  0
  1  2  2  3
  2  3  1  0
  3  4  2  0
  3  5  1  0
  5  6  2  0
  6  7  1  0
  7  8  2  0
  8  9  1  0
  9 10  1  0
  9 11  2  0
 11 12  1  0
 11 13  1  0
 13 14  2  0
 14 15  1  0
 15 16  2  0
 16 17  1  0
 17 18  2  3
 18 19  1  0
 19 20  3  0
 18 21  1  0
 21 22  3  0
  1 23  1  0
 23 24  2  0
 24 25  1  0
 25 26  1  0
 26 27  2  0
 27 28  1  0
 28 29  2  0
 29 30  1  0
 29 31  1  0
 31 32  2  0
 25 33  1  0
 33 34  2  0
 34 35  1  0
 35 36  2  0
 36 37  1  0
 36 38  1  0
 38 39  2  0
 24 40  1  0
 40 41  1  0
 41 42  1  0
 42 43  2  0
 43 44  1  0
 44 45  1  0
 45 46  2  0
 46 47  1  0
 47 48  2  0
 48 49  1  0
 48 50  1  0
 50 51  2  0
 44 52  1  0
 52 53  2  0
 53 54  1  0
 54 55  2  0
 55 56  1  0
 55 57  1  0
 57 58  2  0
 43 59  1  0
 59 60  1  0
 42 61  1  0
 61 62  2  0
 62 63  1  0
 63 64  1  0
 64 65  2  0
 65 66  1  0
 66 67  2  0
 67 68  1  0
 68 69  1  0
 67 70  1  0
 70 71  2  0
 63 72  1  0
 72 73  2  0
 73 74  1  0
 74 75  2  0
 75 76  1  0
 76 77  1  0
 75 78  1  0
 78 79  2  0
 62 80  1  0
 80 81  1  0
 81 82  1  0
 82 83  2  0
 83 84  1  0
 84 85  1  0
 85 86  2  0
 86 87  1  0
 87 88  2  0
 88 89  1  0
 89 90  1  0
 88 91  1  0
 91 92  2  0
 84 93  1  0
 93 94  2  0
 94 95  1  0
 95 96  2  0
 96 97  1  0
 97 98  1  0
 96 99  1  0
 99100  2  0
 83101  1  0
101102  1  0
 82103  1  0
103104  2  0
104105  1  0
105106  1  0
106107  2  0
107108  1  0
108109  2  0
109110  1  0
109111  1  0
111112  2  0
105113  1  0
113114  2  0
114115  1  0
115116  2  0
116117  1  0
116118  1  0
118119  2  0
104120  1  0
120121  1  0
121122  1  0
122123  2  0
123124  1  0
124125  1  0
125126  2  0
126127  1  0
127128  2  0
128129  1  0
128130  1  0
130131  2  0
124132  1  0
132133  2  0
133134  1  0
134135  2  0
135136  1  0
135137  1  0
137138  2  0
123139  1  0
139140  1  0
122141  1  0
141142  2  3
142143  1  0
143144  2  0
143145  1  0
145146  2  0
146147  1  0
147148  2  0
148149  1  0
149150  1  0
149151  2  0
151152  1  0
151153  1  0
153154  2  0
154155  1  0
155156  2  0
156157  1  0
157158  2  3
158159  1  0
159160  3  0
158161  1  0
161162  3  0
 17  2  1  0
 60 23  1  0
102 61  1  0
140103  1  0
157142  1  0
 16  5  1  0
 32 26  1  0
 39 33  1  0
 59 40  2  0
 71 64  1  0
 79 72  1  0
101 80  2  0
112106  1  0
119113  1  0
139120  2  0
156145  1  0
 14  7  1  0
 51 45  1  0
 58 52  1  0
 92 85  1  0
100 93  1  0
131125  1  0
138132  1  0
154147  1  0
  1163  1  0
  6164  1  0
  8165  1  0
 13166  1  0
 15167  1  0
 27168  1  0
 28169  1  0
 30170  1  0
 30171  1  0
 30172  1  0
 31173  1  0
 32174  1  0
 34175  1  0
 35176  1  0
 37177  1  0
 37178  1  0
 37179  1  0
 38180  1  0
 39181  1  0
 46182  1  0
 47183  1  0
 49184  1  0
 49185  1  0
 49186  1  0
 50187  1  0
 51188  1  0
 53189  1  0
 54190  1  0
 56191  1  0
 56192  1  0
 56193  1  0
 57194  1  0
 58195  1  0
 65196  1  0
 66197  1  0
 69198  1  0
 69199  1  0
 69200  1  0
 70201  1  0
 71202  1  0
 73203  1  0
 74204  1  0
 77205  1  0
 77206  1  0
 77207  1  0
 78208  1  0
 79209  1  0
 86210  1  0
 87211  1  0
 90212  1  0
 90213  1  0
 90214  1  0
 91215  1  0
 92216  1  0
 94217  1  0
 95218  1  0
 98219  1  0
 98220  1  0
 98221  1  0
 99222  1  0
100223  1  0
107224  1  0
108225  1  0
110226  1  0
110227  1  0
110228  1  0
111229  1  0
112230  1  0
114231  1  0
115232  1  0
117233  1  0
117234  1  0
117235  1  0
118236  1  0
119237  1  0
126238  1  0
127239  1  0
129240  1  0
129241  1  0
129242  1  0
130243  1  0
131244  1  0
133245  1  0
134246  1  0
136247  1  0
136248  1  0
136249  1  0
137250  1  0
138251  1  0
141252  1  0
146253  1  0
148254  1  0
153255  1  0
155256  1  0
M  END

