
     RDKit          3D

166184  0  0  0  0  0  0  0  0999 V2000
   -6.6061   -5.4669   -6.2153 C   0  0  0  0  0  0  0  0  0  0  0  0
   -6.1296   -6.2389   -5.2167 C   0  0  0  0  0  0  0  0  0  0  0  0
   -6.3616   -7.6801   -5.1346 C   0  0  0  0  0  0  0  0  0  0  0  0
   -7.2464   -8.3227   -5.7595 O   0  0  0  0  0  0  0  0  0  0  0  0
   -5.3862   -8.2465   -4.2209 C   0  0  0  0  0  0  0  0  0  0  0  0
   -5.2729   -9.5708   -3.7976 C   0  0  0  0  0  0  0  0  0  0  0  0
   -4.3105   -9.8873   -2.8166 C   0  0  0  0  0  0  0  0  0  0  0  0
   -4.1880  -11.1957   -2.3181 C   0  0  0  0  0  0  0  0  0  0  0  0
   -3.2519  -11.4846   -1.3183 C   0  0  0  0  0  0  0  0  0  0  0  0
   -3.1462  -12.7531   -0.8423 F   0  0  0  0  0  0  0  0  0  0  0  0
   -2.4045  -10.4876   -0.8339 C   0  0  0  0  0  0  0  0  0  0  0  0
   -1.4906  -10.7772    0.1289 F   0  0  0  0  0  0  0  0  0  0  0  0
   -2.5064   -9.1817   -1.3250 C   0  0  0  0  0  0  0  0  0  0  0  0
   -3.4586   -8.8670   -2.3070 C   0  0  0  0  0  0  0  0  0  0  0  0
   -3.6029   -7.5377   -2.7562 C   0  0  0  0  0  0  0  0  0  0  0  0
   -4.5824   -7.2370   -3.7157 C   0  0  0  0  0  0  0  0  0  0  0  0
   -5.0705   -5.9200   -4.2131 C   0  0  0  0  0  0  0  0  0  0  0  0
   -4.9605   -4.7597   -3.5218 C   0  0  0  0  0  0  0  0  0  0  0  0
   -6.0684   -3.8486   -3.4289 C   0  0  0  0  0  0  0  0  0  0  0  0
   -6.9735   -3.1247   -3.3416 N   0  0  0  0  0  0  0  0  0  0  0  0
   -3.8081   -4.4371   -2.7186 C   0  0  0  0  0  0  0  0  0  0  0  0
   -2.8797   -4.1652   -2.0804 N   0  0  0  0  0  0  0  0  0  0  0  0
   -6.0801   -4.1295   -6.5136 C   0  0  0  0  0  0  0  0  0  0  0  0
   -6.8180   -2.9559   -6.3724 C   0  0  0  0  0  0  0  0  0  0  0  0
   -6.0063   -1.8191   -6.2383 C   0  0  0  0  0  0  0  0  0  0  0  0
   -6.4194   -0.5460   -5.7886 C   0  0  0  0  0  0  0  0  0  0  0  0
   -7.8392   -0.1631   -5.6934 C   0  0  0  0  0  0  0  0  0  0  0  0
   -8.9826   -0.8456   -4.6601 S   0  0  0  0  0  0  0  0  0  0  0  0
  -10.3141   -0.0509   -5.3152 C   0  0  0  0  0  0  0  0  0  0  0  0
  -11.7362   -0.2618   -4.8719 C   0  0  0  0  0  0  0  0  0  0  0  0
  -11.9855    0.3306   -3.4893 C   0  0  0  0  0  0  0  0  0  0  0  0
   -9.8749    0.7588   -6.3608 C   0  0  0  0  0  0  0  0  0  0  0  0
  -10.9403    1.7266   -7.3651 Cl  0  0  0  0  0  0  0  0  0  0  0  0
   -8.4910    0.6906   -6.5715 C   0  0  0  0  0  0  0  0  0  0  0  0
   -7.6682    1.5572   -7.8632 Cl  0  0  0  0  0  0  0  0  0  0  0  0
   -5.4071    0.3674   -5.4584 C   0  0  0  0  0  0  0  0  0  0  0  0
   -4.0540    0.0914   -5.6566 C   0  0  0  0  0  0  0  0  0  0  0  0
   -3.6434   -1.1519   -6.1751 C   0  0  0  0  0  0  0  0  0  0  0  0
   -2.2177   -1.5069   -6.2918 C   0  0  0  0  0  0  0  0  0  0  0  0
   -1.3113   -1.6086   -5.2401 C   0  0  0  0  0  0  0  0  0  0  0  0
    0.0006   -1.8433   -5.6660 C   0  0  0  0  0  0  0  0  0  0  0  0
    0.1186   -1.9203   -7.0493 C   0  0  0  0  0  0  0  0  0  0  0  0
    1.4001   -2.0756   -7.8112 C   0  0  0  0  0  0  0  0  0  0  0  0
    1.4190   -3.3828   -8.5987 C   0  0  0  0  0  0  0  0  0  0  0  0
   -1.3972   -1.7067   -7.7446 S   0  0  0  0  0  0  0  0  0  0  0  0
   -4.6469   -2.0983   -6.4110 C   0  0  0  0  0  0  0  0  0  0  0  0
   -4.4396   -3.7508   -6.6368 S   0  0  0  0  0  0  0  0  0  0  0  0
   -3.2050    1.0665   -5.1239 C   0  0  0  0  0  0  0  0  0  0  0  0
   -3.8743    2.0512   -4.4031 C   0  0  0  0  0  0  0  0  0  0  0  0
   -5.5361    1.7546   -4.5087 S   0  0  0  0  0  0  0  0  0  0  0  0
   -3.2097    2.6902   -3.2697 C   0  0  0  0  0  0  0  0  0  0  0  0
   -3.2228    2.0725   -2.0177 C   0  0  0  0  0  0  0  0  0  0  0  0
   -2.0286    2.2301   -1.2887 C   0  0  0  0  0  0  0  0  0  0  0  0
   -1.6605    1.5307   -0.1147 C   0  0  0  0  0  0  0  0  0  0  0  0
   -2.5471    0.5188    0.5165 C   0  0  0  0  0  0  0  0  0  0  0  0
   -3.0370   -0.5663   -0.2336 C   0  0  0  0  0  0  0  0  0  0  0  0
   -3.8664   -1.5178    0.3591 C   0  0  0  0  0  0  0  0  0  0  0  0
   -4.1984   -1.4148    1.7081 C   0  0  0  0  0  0  0  0  0  0  0  0
   -3.7078   -0.3516    2.4754 C   0  0  0  0  0  0  0  0  0  0  0  0
   -4.1289   -0.2465    4.2182 S   0  0  0  0  0  0  0  0  0  0  0  0
   -5.6748    0.6958    3.9674 C   0  0  0  0  0  0  0  0  0  0  0  0
   -5.3835    2.1772    3.7816 C   0  0  0  0  0  0  0  0  0  0  0  0
   -2.8748    0.6095    1.8825 C   0  0  0  0  0  0  0  0  0  0  0  0
   -0.3446    1.7312    0.3518 C   0  0  0  0  0  0  0  0  0  0  0  0
    0.5627    2.5822   -0.2868 C   0  0  0  0  0  0  0  0  0  0  0  0
    0.1877    3.2691   -1.4569 C   0  0  0  0  0  0  0  0  0  0  0  0
    1.1522    4.0750   -2.2272 C   0  0  0  0  0  0  0  0  0  0  0  0
    1.7411    3.5576   -3.3927 C   0  0  0  0  0  0  0  0  0  0  0  0
    2.6349    4.3384   -4.1305 C   0  0  0  0  0  0  0  0  0  0  0  0
    2.9286    5.6449   -3.7287 C   0  0  0  0  0  0  0  0  0  0  0  0
    2.3410    6.1697   -2.5704 C   0  0  0  0  0  0  0  0  0  0  0  0
    2.6497    7.8727   -2.0933 S   0  0  0  0  0  0  0  0  0  0  0  0
    4.0813    7.5010   -1.0217 C   0  0  0  0  0  0  0  0  0  0  0  0
    3.6286    7.0195    0.3535 C   0  0  0  0  0  0  0  0  0  0  0  0
    1.4537    5.3839   -1.8222 C   0  0  0  0  0  0  0  0  0  0  0  0
   -1.1136    3.0598   -1.9373 C   0  0  0  0  0  0  0  0  0  0  0  0
   -1.7409    3.5042   -3.4328 S   0  0  0  0  0  0  0  0  0  0  0  0
    1.8531    2.5424    0.2718 C   0  0  0  0  0  0  0  0  0  0  0  0
    1.9610    1.6302    1.3188 C   0  0  0  0  0  0  0  0  0  0  0  0
    0.4565    0.8968    1.5699 S   0  0  0  0  0  0  0  0  0  0  0  0
    3.2144    1.2363    1.9885 C   0  0  0  0  0  0  0  0  0  0  0  0
    4.2044    2.1992    2.2984 C   0  0  0  0  0  0  0  0  0  0  0  0
    5.3536    1.7749    2.9693 C   0  0  0  0  0  0  0  0  0  0  0  0
    6.4380    2.5561    3.5690 C   0  0  0  0  0  0  0  0  0  0  0  0
    6.5775    3.8052    3.5237 O   0  0  0  0  0  0  0  0  0  0  0  0
    7.2629    1.6101    4.3185 C   0  0  0  0  0  0  0  0  0  0  0  0
    6.7359    0.3413    4.1445 C   0  0  0  0  0  0  0  0  0  0  0  0
    5.5383    0.4463    3.3135 C   0  0  0  0  0  0  0  0  0  0  0  0
    4.5809   -0.5203    3.0216 C   0  0  0  0  0  0  0  0  0  0  0  0
    3.4165   -0.1194    2.3519 C   0  0  0  0  0  0  0  0  0  0  0  0
    7.2526   -0.7599    4.8245 C   0  0  0  0  0  0  0  0  0  0  0  0
    8.2999   -0.5490    5.7347 C   0  0  0  0  0  0  0  0  0  0  0  0
    8.7977    0.7544    5.9633 C   0  0  0  0  0  0  0  0  0  0  0  0
    8.2952    1.8474    5.2222 C   0  0  0  0  0  0  0  0  0  0  0  0
    9.7744    0.9597    7.0406 C   0  0  0  0  0  0  0  0  0  0  0  0
    9.4672    1.5876    8.1926 C   0  0  0  0  0  0  0  0  0  0  0  0
    8.1204    2.0325    8.5902 C   0  0  0  0  0  0  0  0  0  0  0  0
    7.1158    2.1614    7.8440 O   0  0  0  0  0  0  0  0  0  0  0  0
    8.1041    2.2120   10.0269 C   0  0  0  0  0  0  0  0  0  0  0  0
    7.0008    2.4869   10.8349 C   0  0  0  0  0  0  0  0  0  0  0  0
    7.1709    2.4741   12.2280 C   0  0  0  0  0  0  0  0  0  0  0  0
    6.0867    2.7319   13.0815 C   0  0  0  0  0  0  0  0  0  0  0  0
    6.2518    2.6710   14.4657 C   0  0  0  0  0  0  0  0  0  0  0  0
    5.1973    2.9218   15.2811 F   0  0  0  0  0  0  0  0  0  0  0  0
    7.5027    2.3600   15.0120 C   0  0  0  0  0  0  0  0  0  0  0  0
    7.6576    2.3023   16.3587 F   0  0  0  0  0  0  0  0  0  0  0  0
    8.5971    2.1114   14.1753 C   0  0  0  0  0  0  0  0  0  0  0  0
    8.4461    2.1627   12.7804 C   0  0  0  0  0  0  0  0  0  0  0  0
    9.5387    1.8886   11.9326 C   0  0  0  0  0  0  0  0  0  0  0  0
    9.3587    1.9469   10.5429 C   0  0  0  0  0  0  0  0  0  0  0  0
   10.3043    1.6634    9.4288 C   0  0  0  0  0  0  0  0  0  0  0  0
   11.6621    1.6931    9.4908 C   0  0  0  0  0  0  0  0  0  0  0  0
   12.3706    1.9944   10.7090 C   0  0  0  0  0  0  0  0  0  0  0  0
   12.9563    2.2629   11.6686 N   0  0  0  0  0  0  0  0  0  0  0  0
   12.4869    1.6114    8.3113 C   0  0  0  0  0  0  0  0  0  0  0  0
   13.1625    1.5537    7.3735 N   0  0  0  0  0  0  0  0  0  0  0  0
   -7.3720   -5.8619   -6.8729 H   0  0  0  0  0  0  0  0  0  0  0  0
   -5.9495  -10.3235   -4.1822 H   0  0  0  0  0  0  0  0  0  0  0  0
   -4.8251  -11.9863   -2.6944 H   0  0  0  0  0  0  0  0  0  0  0  0
   -1.8574   -8.4135   -0.9189 H   0  0  0  0  0  0  0  0  0  0  0  0
   -2.9521   -6.7768   -2.3571 H   0  0  0  0  0  0  0  0  0  0  0  0
   -7.8856   -2.9581   -6.2052 H   0  0  0  0  0  0  0  0  0  0  0  0
  -11.9529   -1.3567   -4.8474 H   0  0  0  0  0  0  0  0  0  0  0  0
  -12.4425    0.2055   -5.5911 H   0  0  0  0  0  0  0  0  0  0  0  0
  -11.7732    1.4199   -3.4857 H   0  0  0  0  0  0  0  0  0  0  0  0
  -11.3382   -0.1676   -2.7349 H   0  0  0  0  0  0  0  0  0  0  0  0
  -13.0437    0.1724   -3.1986 H   0  0  0  0  0  0  0  0  0  0  0  0
   -1.5865   -1.4934   -4.1996 H   0  0  0  0  0  0  0  0  0  0  0  0
    0.8404   -1.9205   -4.9879 H   0  0  0  0  0  0  0  0  0  0  0  0
    1.5010   -1.2202   -8.5106 H   0  0  0  0  0  0  0  0  0  0  0  0
    2.2665   -2.0586   -7.1153 H   0  0  0  0  0  0  0  0  0  0  0  0
    1.2632   -4.2487   -7.9161 H   0  0  0  0  0  0  0  0  0  0  0  0
    2.3961   -3.4904   -9.1118 H   0  0  0  0  0  0  0  0  0  0  0  0
    0.6168   -3.3681   -9.3704 H   0  0  0  0  0  0  0  0  0  0  0  0
   -2.1242    0.9693   -5.0967 H   0  0  0  0  0  0  0  0  0  0  0  0
   -4.0148    1.3949   -1.7274 H   0  0  0  0  0  0  0  0  0  0  0  0
   -2.7607   -0.6781   -1.2742 H   0  0  0  0  0  0  0  0  0  0  0  0
   -4.2472   -2.3421   -0.2246 H   0  0  0  0  0  0  0  0  0  0  0  0
   -4.8385   -2.1654    2.1567 H   0  0  0  0  0  0  0  0  0  0  0  0
   -6.3049    0.5640    4.8719 H   0  0  0  0  0  0  0  0  0  0  0  0
   -6.2415    0.2999    3.0983 H   0  0  0  0  0  0  0  0  0  0  0  0
   -6.3301    2.7534    3.7820 H   0  0  0  0  0  0  0  0  0  0  0  0
   -4.7415    2.5403    4.6097 H   0  0  0  0  0  0  0  0  0  0  0  0
   -4.8651    2.3412    2.8198 H   0  0  0  0  0  0  0  0  0  0  0  0
   -2.4843    1.4176    2.4817 H   0  0  0  0  0  0  0  0  0  0  0  0
    1.5122    2.5552   -3.7261 H   0  0  0  0  0  0  0  0  0  0  0  0
    3.0830    3.9365   -5.0293 H   0  0  0  0  0  0  0  0  0  0  0  0
    3.6178    6.2361   -4.3102 H   0  0  0  0  0  0  0  0  0  0  0  0
    4.6606    8.4429   -0.9005 H   0  0  0  0  0  0  0  0  0  0  0  0
    4.7463    6.7500   -1.4946 H   0  0  0  0  0  0  0  0  0  0  0  0
    3.2696    5.9707    0.2904 H   0  0  0  0  0  0  0  0  0  0  0  0
    2.8107    7.6601    0.7427 H   0  0  0  0  0  0  0  0  0  0  0  0
    4.4864    7.0494    1.0578 H   0  0  0  0  0  0  0  0  0  0  0  0
    0.9811    5.7941   -0.9408 H   0  0  0  0  0  0  0  0  0  0  0  0
    2.6960    3.0970   -0.1233 H   0  0  0  0  0  0  0  0  0  0  0  0
    4.0615    3.2446    2.0749 H   0  0  0  0  0  0  0  0  0  0  0  0
    4.7151   -1.5477    3.3334 H   0  0  0  0  0  0  0  0  0  0  0  0
    2.6705   -0.8709    2.1194 H   0  0  0  0  0  0  0  0  0  0  0  0
    6.8223   -1.7451    4.6999 H   0  0  0  0  0  0  0  0  0  0  0  0
    8.6821   -1.3889    6.3078 H   0  0  0  0  0  0  0  0  0  0  0  0
    8.6501    2.8567    5.3910 H   0  0  0  0  0  0  0  0  0  0  0  0
   10.6969    0.4143    6.9564 H   0  0  0  0  0  0  0  0  0  0  0  0
    6.0298    2.6830   10.3873 H   0  0  0  0  0  0  0  0  0  0  0  0
    5.1086    2.9624   12.6732 H   0  0  0  0  0  0  0  0  0  0  0  0
    9.5585    1.8693   14.6167 H   0  0  0  0  0  0  0  0  0  0  0  0
   10.4815    1.6021   12.3632 H   0  0  0  0  0  0  0  0  0  0  0  0
  1  2  2  3
  2  3  1  0
  3  4  2  0
  3  5  1  0
  5  6  2  0
  6  7  1  0
  7  8  2  0
  8  9  1  0
  9 10  1  0
  9 11  2  0
 11 12  1  0
 11 13  1  0
 13 14  2  0
 14 15  1  0
 15 16  2  0
 16 17  1  0
 17 18  2  3
 18 19  1  0
 19 20  3  0
 18 21  1  0
 21 22  3  0
  1 23  1  0
 23 24  2  0
 24 25  1  0
 25 26  2  0
 26 27  1  0
 27 28  1  0
 28 29  1  0
 29 30  1  0
 30 31  1  0
 29 32  2  0
 32 33  1  0
 32 34  1  0
 34 35  1  0
 26 36  1  0
 36 37  2  0
 37 38  1  0
 38 39  1  0
 39 40  2  0
 40 41  1  0
 41 42  2  0
 42 43  1  0
 43 44  1  0
 42 45  1  0
 38 46  2  0
 46 47  1  0
 37 48  1  0
 48 49  2  0
 49 50  1  0
 49 51  1  0
 51 52  2  0
 52 53  1  0
 53 54  2  0
 54 55  1  0
 55 56  2  0
 56 57  1  0
 57 58  2  0
 58 59  1  0
 59 60  1  0
 60 61  1  0
 61 62  1  0
 59 63  2  0
 54 64  1  0
 64 65  2  0
 65 66  1  0
 66 67  1  0
 67 68  2  0
 68 69  1  0
 69 70  2  0
 70 71  1  0
 71 72  1  0
 72 73  1  0
 73 74  1  0
 71 75  2  0
 66 76  2  0
 76 77  1  0
 65 78  1  0
 78 79  2  0
 79 80  1  0
 79 81  1  0
 81 82  2  0
 82 83  1  0
 83 84  1  0
 84 85  2  0
 84 86  1  0
 86 87  2  0
 87 88  1  0
 88 89  1  0
 89 90  2  0
 87 91  1  0
 91 92  2  0
 92 93  1  0
 93 94  2  0
 93 95  1  0
 95 96  2  3
 96 97  1  0
 97 98  2  0
 97 99  1  0
 99100  2  0
100101  1  0
101102  2  0
102103  1  0
103104  1  0
103105  2  0
105106  1  0
105107  1  0
107108  2  0
108109  1  0
109110  2  0
110111  1  0
111112  2  3
112113  1  0
113114  3  0
112115  1  0
115116  3  0
 17  2  1  0
 47 23  1  0
 77 51  1  0
 90 81  1  0
111 96  1  0
 16  5  1  0
 46 25  1  0
 76 53  1  0
 88 83  2  0
110 99  1  0
 14  7  1  0
 34 27  2  0
 50 36  1  0
 63 55  1  0
 80 64  1  0
 94 86  1  0
108101  1  0
 45 39  1  0
 75 67  1  0
  1117  1  0
  6118  1  0
  8119  1  0
 13120  1  0
 15121  1  0
 24122  1  0
 30123  1  0
 30124  1  0
 31125  1  0
 31126  1  0
 31127  1  0
 40128  1  0
 41129  1  0
 43130  1  0
 43131  1  0
 44132  1  0
 44133  1  0
 44134  1  0
 48135  1  0
 52136  1  0
 56137  1  0
 57138  1  0
 58139  1  0
 61140  1  0
 61141  1  0
 62142  1  0
 62143  1  0
 62144  1  0
 63145  1  0
 68146  1  0
 69147  1  0
 70148  1  0
 73149  1  0
 73150  1  0
 74151  1  0
 74152  1  0
 74153  1  0
 75154  1  0
 78155  1  0
 82156  1  0
 89157  1  0
 90158  1  0
 91159  1  0
 92160  1  0
 94161  1  0
 95162  1  0
100163  1  0
102164  1  0
107165  1  0
109166  1  0
M  END

