
     RDKit          3D

244266  0  0  0  0  0  0  0  0999 V2000
    3.9689    8.8315    3.8815 C   0  0  0  0  0  0  0  0  0  0  0  0
    4.1106    8.3980    5.1495 C   0  0  0  0  0  0  0  0  0  0  0  0
    4.9807    9.0770    6.1065 C   0  0  0  0  0  0  0  0  0  0  0  0
    5.3365   10.2827    6.0495 O   0  0  0  0  0  0  0  0  0  0  0  0
    5.4860    8.0900    7.0479 C   0  0  0  0  0  0  0  0  0  0  0  0
    6.5400    8.2138    7.9580 C   0  0  0  0  0  0  0  0  0  0  0  0
    6.9942    7.0628    8.6310 C   0  0  0  0  0  0  0  0  0  0  0  0
    8.0827    7.1330    9.5131 C   0  0  0  0  0  0  0  0  0  0  0  0
    8.5403    5.9773   10.1584 C   0  0  0  0  0  0  0  0  0  0  0  0
    9.6048    6.0459   10.9989 F   0  0  0  0  0  0  0  0  0  0  0  0
    7.9144    4.7479    9.9321 C   0  0  0  0  0  0  0  0  0  0  0  0
    8.3558    3.6335   10.5644 F   0  0  0  0  0  0  0  0  0  0  0  0
    6.8393    4.6601    9.0419 C   0  0  0  0  0  0  0  0  0  0  0  0
    6.3715    5.8064    8.3776 C   0  0  0  0  0  0  0  0  0  0  0  0
    5.3285    5.7118    7.4364 C   0  0  0  0  0  0  0  0  0  0  0  0
    4.8874    6.8706    6.7868 C   0  0  0  0  0  0  0  0  0  0  0  0
    3.9052    7.0173    5.6852 C   0  0  0  0  0  0  0  0  0  0  0  0
    2.8172    6.2296    5.4832 C   0  0  0  0  0  0  0  0  0  0  0  0
    1.7727    6.5690    4.5627 C   0  0  0  0  0  0  0  0  0  0  0  0
    0.9121    6.7498    3.7969 N   0  0  0  0  0  0  0  0  0  0  0  0
    2.5306    5.0961    6.3215 C   0  0  0  0  0  0  0  0  0  0  0  0
    2.2641    4.2047    7.0161 N   0  0  0  0  0  0  0  0  0  0  0  0
    3.9862    7.8988    2.7515 C   0  0  0  0  0  0  0  0  0  0  0  0
    4.9334    6.8968    2.5894 C   0  0  0  0  0  0  0  0  0  0  0  0
    4.6091    5.9999    1.5710 C   0  0  0  0  0  0  0  0  0  0  0  0
    5.3102    4.8153    1.2610 C   0  0  0  0  0  0  0  0  0  0  0  0
    6.6913    4.5627    1.7478 C   0  0  0  0  0  0  0  0  0  0  0  0
    6.9785    4.4691    3.1188 C   0  0  0  0  0  0  0  0  0  0  0  0
    8.3072    4.4173    3.5620 C   0  0  0  0  0  0  0  0  0  0  0  0
    9.3620    4.4153    2.6350 C   0  0  0  0  0  0  0  0  0  0  0  0
   11.0641    4.3045    3.2094 S   0  0  0  0  0  0  0  0  0  0  0  0
   11.4429    6.0848    3.0158 C   0  0  0  0  0  0  0  0  0  0  0  0
   11.0094    6.8739    4.2445 C   0  0  0  0  0  0  0  0  0  0  0  0
    9.0783    4.4396    1.2609 C   0  0  0  0  0  0  0  0  0  0  0  0
   10.0842    4.4134    0.3510 F   0  0  0  0  0  0  0  0  0  0  0  0
    7.7473    4.5141    0.8231 C   0  0  0  0  0  0  0  0  0  0  0  0
    4.6467    3.8974    0.4376 C   0  0  0  0  0  0  0  0  0  0  0  0
    3.4187    4.1898   -0.1662 C   0  0  0  0  0  0  0  0  0  0  0  0
    2.8077    5.4562   -0.0201 C   0  0  0  0  0  0  0  0  0  0  0  0
    1.5318    5.7870   -0.7212 C   0  0  0  0  0  0  0  0  0  0  0  0
    0.3954    6.2164   -0.0146 C   0  0  0  0  0  0  0  0  0  0  0  0
   -0.7938    6.5019   -0.6888 C   0  0  0  0  0  0  0  0  0  0  0  0
   -0.8729    6.3241   -2.0766 C   0  0  0  0  0  0  0  0  0  0  0  0
   -2.4096    6.6582   -2.9390 S   0  0  0  0  0  0  0  0  0  0  0  0
   -1.9194    8.3397   -3.4491 C   0  0  0  0  0  0  0  0  0  0  0  0
   -3.0175    8.9736   -4.2925 C   0  0  0  0  0  0  0  0  0  0  0  0
    0.2412    5.8695   -2.7852 C   0  0  0  0  0  0  0  0  0  0  0  0
    1.4391    5.6139   -2.1123 C   0  0  0  0  0  0  0  0  0  0  0  0
    0.1674    5.6791   -4.1285 F   0  0  0  0  0  0  0  0  0  0  0  0
    3.4142    6.3281    0.9090 C   0  0  0  0  0  0  0  0  0  0  0  0
    2.8132    7.7719    1.5509 S   0  0  0  0  0  0  0  0  0  0  0  0
    2.7824    3.0529   -0.6801 C   0  0  0  0  0  0  0  0  0  0  0  0
    3.4685    1.8675   -0.4327 C   0  0  0  0  0  0  0  0  0  0  0  0
    4.9164    2.2351    0.3573 S   0  0  0  0  0  0  0  0  0  0  0  0
    2.7333    0.6140   -0.2479 C   0  0  0  0  0  0  0  0  0  0  0  0
    3.0102   -0.6381   -0.8139 C   0  0  0  0  0  0  0  0  0  0  0  0
    4.3320   -1.0799   -1.1501 N   0  0  0  0  0  0  0  0  0  0  0  0
    4.9070   -0.7886   -2.4387 C   0  0  0  0  0  0  0  0  0  0  0  0
    6.2851   -0.5448   -2.5640 C   0  0  0  0  0  0  0  0  0  0  0  0
    6.8335   -0.2081   -3.8051 C   0  0  0  0  0  0  0  0  0  0  0  0
    6.0153   -0.1250   -4.9360 C   0  0  0  0  0  0  0  0  0  0  0  0
    6.7080    0.3698   -6.5142 S   0  0  0  0  0  0  0  0  0  0  0  0
    7.1966   -1.3178   -6.9862 C   0  0  0  0  0  0  0  0  0  0  0  0
    4.6462   -0.3888   -4.8234 C   0  0  0  0  0  0  0  0  0  0  0  0
    4.0937   -0.7089   -3.5825 C   0  0  0  0  0  0  0  0  0  0  0  0
    5.0119   -1.8758   -0.1595 C   0  0  0  0  0  0  0  0  0  0  0  0
    5.5082   -3.1460   -0.4870 C   0  0  0  0  0  0  0  0  0  0  0  0
    5.9345   -4.0136    0.5264 C   0  0  0  0  0  0  0  0  0  0  0  0
    5.8818   -3.6154    1.8669 C   0  0  0  0  0  0  0  0  0  0  0  0
    6.3021   -4.7665    3.1752 S   0  0  0  0  0  0  0  0  0  0  0  0
    4.5751   -5.3035    3.4063 C   0  0  0  0  0  0  0  0  0  0  0  0
    5.4507   -2.3278    2.1915 C   0  0  0  0  0  0  0  0  0  0  0  0
    5.0178   -1.4640    1.1858 C   0  0  0  0  0  0  0  0  0  0  0  0
    1.9682   -1.5272   -0.5545 C   0  0  0  0  0  0  0  0  0  0  0  0
    1.4209   -2.9105   -1.3295 S   0  0  0  0  0  0  0  0  0  0  0  0
   -0.1367   -2.9000   -0.6150 C   0  0  0  0  0  0  0  0  0  0  0  0
   -0.1921   -1.7961    0.2581 C   0  0  0  0  0  0  0  0  0  0  0  0
   -1.2032   -1.5929    1.2589 N   0  0  0  0  0  0  0  0  0  0  0  0
   -0.7911   -1.4628    2.6328 C   0  0  0  0  0  0  0  0  0  0  0  0
   -1.2689   -0.4046    3.4268 C   0  0  0  0  0  0  0  0  0  0  0  0
   -0.7283   -0.1768    4.6959 C   0  0  0  0  0  0  0  0  0  0  0  0
    0.2826   -1.0103    5.1903 C   0  0  0  0  0  0  0  0  0  0  0  0
    1.0547   -0.6557    6.7740 S   0  0  0  0  0  0  0  0  0  0  0  0
    2.3913    0.3379    6.0299 C   0  0  0  0  0  0  0  0  0  0  0  0
    0.7254   -2.0959    4.4303 C   0  0  0  0  0  0  0  0  0  0  0  0
    0.1946   -2.3209    3.1581 C   0  0  0  0  0  0  0  0  0  0  0  0
   -2.5842   -1.4841    0.9070 C   0  0  0  0  0  0  0  0  0  0  0  0
   -3.0237   -0.4324    0.0946 C   0  0  0  0  0  0  0  0  0  0  0  0
   -4.3628   -0.3691   -0.3037 C   0  0  0  0  0  0  0  0  0  0  0  0
   -5.2653   -1.3523    0.1097 C   0  0  0  0  0  0  0  0  0  0  0  0
   -6.9568   -1.3201   -0.4794 S   0  0  0  0  0  0  0  0  0  0  0  0
   -7.5948   -0.4811    1.0016 C   0  0  0  0  0  0  0  0  0  0  0  0
   -4.8332   -2.3841    0.9513 C   0  0  0  0  0  0  0  0  0  0  0  0
   -3.5031   -2.4310    1.3716 C   0  0  0  0  0  0  0  0  0  0  0  0
    0.9656   -1.0371    0.2088 C   0  0  0  0  0  0  0  0  0  0  0  0
    1.2553    0.5561    0.5875 S   0  0  0  0  0  0  0  0  0  0  0  0
   -1.3001   -3.2289   -1.4359 C   0  0  0  0  0  0  0  0  0  0  0  0
   -1.8697   -4.4909   -1.6748 C   0  0  0  0  0  0  0  0  0  0  0  0
   -1.3761   -5.7364   -1.1573 N   0  0  0  0  0  0  0  0  0  0  0  0
   -0.7735   -6.6747   -2.0793 C   0  0  0  0  0  0  0  0  0  0  0  0
   -1.0707   -8.0495   -2.0120 C   0  0  0  0  0  0  0  0  0  0  0  0
   -0.5614   -8.9351   -2.9628 C   0  0  0  0  0  0  0  0  0  0  0  0
    0.2302   -8.4602   -4.0117 C   0  0  0  0  0  0  0  0  0  0  0  0
    0.8017   -9.5804   -5.2897 S   0  0  0  0  0  0  0  0  0  0  0  0
    2.3922   -9.9104   -4.4702 C   0  0  0  0  0  0  0  0  0  0  0  0
    0.5464   -7.0980   -4.0821 C   0  0  0  0  0  0  0  0  0  0  0  0
    0.0475   -6.2129   -3.1243 C   0  0  0  0  0  0  0  0  0  0  0  0
   -1.7108   -6.1106    0.1950 C   0  0  0  0  0  0  0  0  0  0  0  0
   -0.8230   -6.8832    0.9598 C   0  0  0  0  0  0  0  0  0  0  0  0
   -1.1580   -7.2660    2.2647 C   0  0  0  0  0  0  0  0  0  0  0  0
   -2.3675   -6.8508    2.8266 C   0  0  0  0  0  0  0  0  0  0  0  0
   -2.8145   -7.3444    4.4933 S   0  0  0  0  0  0  0  0  0  0  0  0
   -2.1667   -5.8162    5.2449 C   0  0  0  0  0  0  0  0  0  0  0  0
   -3.2583   -6.0830    2.0726 C   0  0  0  0  0  0  0  0  0  0  0  0
   -2.9281   -5.7061    0.7681 C   0  0  0  0  0  0  0  0  0  0  0  0
   -2.8704   -4.4017   -2.6416 C   0  0  0  0  0  0  0  0  0  0  0  0
   -3.7704   -5.5241   -3.4938 S   0  0  0  0  0  0  0  0  0  0  0  0
   -4.4013   -4.3879   -4.5926 C   0  0  0  0  0  0  0  0  0  0  0  0
   -3.8851   -3.1129   -4.2982 C   0  0  0  0  0  0  0  0  0  0  0  0
   -3.8010   -2.0228   -5.2335 N   0  0  0  0  0  0  0  0  0  0  0  0
   -2.9343   -2.2143   -6.3824 C   0  0  0  0  0  0  0  0  0  0  0  0
   -3.2661   -1.6919   -7.6454 C   0  0  0  0  0  0  0  0  0  0  0  0
   -2.4909   -1.9944   -8.7697 C   0  0  0  0  0  0  0  0  0  0  0  0
   -1.3665   -2.8114   -8.6451 C   0  0  0  0  0  0  0  0  0  0  0  0
   -0.4169   -3.2760  -10.0945 S   0  0  0  0  0  0  0  0  0  0  0  0
   -1.2967   -4.8579  -10.2944 C   0  0  0  0  0  0  0  0  0  0  0  0
   -0.9927   -3.2931   -7.3908 C   0  0  0  0  0  0  0  0  0  0  0  0
   -1.7664   -2.9972   -6.2710 C   0  0  0  0  0  0  0  0  0  0  0  0
   -4.3810   -0.7310   -4.8757 C   0  0  0  0  0  0  0  0  0  0  0  0
   -3.9371    0.4712   -5.4692 C   0  0  0  0  0  0  0  0  0  0  0  0
   -4.5398    1.6923   -5.1476 C   0  0  0  0  0  0  0  0  0  0  0  0
   -5.5519    1.7427   -4.1891 C   0  0  0  0  0  0  0  0  0  0  0  0
   -6.3404    3.3056   -3.7946 S   0  0  0  0  0  0  0  0  0  0  0  0
   -5.0895    3.7810   -2.5588 C   0  0  0  0  0  0  0  0  0  0  0  0
   -5.9629    0.5736   -3.5502 C   0  0  0  0  0  0  0  0  0  0  0  0
   -5.3842   -0.6516   -3.8905 C   0  0  0  0  0  0  0  0  0  0  0  0
   -3.0651   -3.1686   -3.1763 C   0  0  0  0  0  0  0  0  0  0  0  0
   -1.9829   -2.0900   -2.5080 S   0  0  0  0  0  0  0  0  0  0  0  0
   -5.3349   -4.7714   -5.6624 C   0  0  0  0  0  0  0  0  0  0  0  0
   -6.6486   -4.5900   -5.4650 C   0  0  0  0  0  0  0  0  0  0  0  0
   -7.4429   -5.6274   -4.7946 C   0  0  0  0  0  0  0  0  0  0  0  0
   -7.2665   -6.8730   -4.9078 O   0  0  0  0  0  0  0  0  0  0  0  0
   -8.3806   -4.9878   -3.8916 C   0  0  0  0  0  0  0  0  0  0  0  0
   -9.2638   -5.5698   -2.9824 C   0  0  0  0  0  0  0  0  0  0  0  0
  -10.0137   -4.7304   -2.1412 C   0  0  0  0  0  0  0  0  0  0  0  0
  -10.9453   -5.2693   -1.2398 C   0  0  0  0  0  0  0  0  0  0  0  0
  -11.6645   -4.4296   -0.3829 C   0  0  0  0  0  0  0  0  0  0  0  0
  -12.5764   -4.9549    0.4773 F   0  0  0  0  0  0  0  0  0  0  0  0
  -11.4580   -3.0445   -0.4180 C   0  0  0  0  0  0  0  0  0  0  0  0
  -12.1603   -2.2340    0.4165 F   0  0  0  0  0  0  0  0  0  0  0  0
  -10.5373   -2.4918   -1.3143 C   0  0  0  0  0  0  0  0  0  0  0  0
   -9.8228   -3.3186   -2.1947 C   0  0  0  0  0  0  0  0  0  0  0  0
   -8.9154   -2.7637   -3.1222 C   0  0  0  0  0  0  0  0  0  0  0  0
   -8.2319   -3.6194   -3.9921 C   0  0  0  0  0  0  0  0  0  0  0  0
   -7.2701   -3.3018   -5.0687 C   0  0  0  0  0  0  0  0  0  0  0  0
   -7.3598   -2.2364   -5.8991 C   0  0  0  0  0  0  0  0  0  0  0  0
   -8.3739   -1.2339   -5.7192 C   0  0  0  0  0  0  0  0  0  0  0  0
   -9.2138   -0.4541   -5.5736 N   0  0  0  0  0  0  0  0  0  0  0  0
   -6.7418   -2.2693   -7.1982 C   0  0  0  0  0  0  0  0  0  0  0  0
   -6.2744   -2.3024   -8.2536 N   0  0  0  0  0  0  0  0  0  0  0  0
    4.1566    9.8722    3.6579 H   0  0  0  0  0  0  0  0  0  0  0  0
    7.0192    9.1745    8.1047 H   0  0  0  0  0  0  0  0  0  0  0  0
    8.5820    8.0779    9.6961 H   0  0  0  0  0  0  0  0  0  0  0  0
    6.3691    3.6969    8.8729 H   0  0  0  0  0  0  0  0  0  0  0  0
    4.9236    4.7386    7.1927 H   0  0  0  0  0  0  0  0  0  0  0  0
    5.7848    6.8061    3.2483 H   0  0  0  0  0  0  0  0  0  0  0  0
    6.1760    4.4761    3.8446 H   0  0  0  0  0  0  0  0  0  0  0  0
    8.5162    4.3690    4.6244 H   0  0  0  0  0  0  0  0  0  0  0  0
   10.9499    6.5013    2.1087 H   0  0  0  0  0  0  0  0  0  0  0  0
   12.5410    6.1977    2.8871 H   0  0  0  0  0  0  0  0  0  0  0  0
    9.9073    6.8228    4.3653 H   0  0  0  0  0  0  0  0  0  0  0  0
   11.2986    7.9409    4.1242 H   0  0  0  0  0  0  0  0  0  0  0  0
   11.5030    6.4778    5.1567 H   0  0  0  0  0  0  0  0  0  0  0  0
    7.5501    4.5883   -0.2378 H   0  0  0  0  0  0  0  0  0  0  0  0
    0.4255    6.3211    1.0585 H   0  0  0  0  0  0  0  0  0  0  0  0
   -1.6580    6.8527   -0.1355 H   0  0  0  0  0  0  0  0  0  0  0  0
   -1.7381    8.9639   -2.5482 H   0  0  0  0  0  0  0  0  0  0  0  0
   -0.9861    8.2931   -4.0503 H   0  0  0  0  0  0  0  0  0  0  0  0
   -3.9842    8.9540   -3.7501 H   0  0  0  0  0  0  0  0  0  0  0  0
   -2.7637   10.0292   -4.5177 H   0  0  0  0  0  0  0  0  0  0  0  0
   -3.1281    8.4258   -5.2512 H   0  0  0  0  0  0  0  0  0  0  0  0
    2.2936    5.2623   -2.6735 H   0  0  0  0  0  0  0  0  0  0  0  0
    1.7579    3.0583   -1.0380 H   0  0  0  0  0  0  0  0  0  0  0  0
    6.9318   -0.6016   -1.6956 H   0  0  0  0  0  0  0  0  0  0  0  0
    7.8971   -0.0114   -3.8847 H   0  0  0  0  0  0  0  0  0  0  0  0
    6.3131   -1.9887   -6.9844 H   0  0  0  0  0  0  0  0  0  0  0  0
    7.9606   -1.7007   -6.2785 H   0  0  0  0  0  0  0  0  0  0  0  0
    7.6312   -1.2972   -8.0073 H   0  0  0  0  0  0  0  0  0  0  0  0
    4.0075   -0.3287   -5.6954 H   0  0  0  0  0  0  0  0  0  0  0  0
    3.0289   -0.9005   -3.5187 H   0  0  0  0  0  0  0  0  0  0  0  0
    5.4910   -3.4897   -1.5118 H   0  0  0  0  0  0  0  0  0  0  0  0
    6.2649   -5.0152    0.2715 H   0  0  0  0  0  0  0  0  0  0  0  0
    3.9412   -4.4422    3.7096 H   0  0  0  0  0  0  0  0  0  0  0  0
    4.1812   -5.7394    2.4648 H   0  0  0  0  0  0  0  0  0  0  0  0
    4.5358   -6.0728    4.2042 H   0  0  0  0  0  0  0  0  0  0  0  0
    5.4069   -2.0073    3.2257 H   0  0  0  0  0  0  0  0  0  0  0  0
    4.6445   -0.4870    1.4657 H   0  0  0  0  0  0  0  0  0  0  0  0
   -2.0147    0.2764    3.0403 H   0  0  0  0  0  0  0  0  0  0  0  0
   -1.0692    0.6667    5.2810 H   0  0  0  0  0  0  0  0  0  0  0  0
    3.0607    0.7090    6.8340 H   0  0  0  0  0  0  0  0  0  0  0  0
    1.9673    1.2099    5.4848 H   0  0  0  0  0  0  0  0  0  0  0  0
    2.9882   -0.2860    5.3282 H   0  0  0  0  0  0  0  0  0  0  0  0
    1.5037   -2.7473    4.8041 H   0  0  0  0  0  0  0  0  0  0  0  0
    0.5720   -3.1439    2.5652 H   0  0  0  0  0  0  0  0  0  0  0  0
   -2.3256    0.3210   -0.2542 H   0  0  0  0  0  0  0  0  0  0  0  0
   -4.6968    0.4389   -0.9458 H   0  0  0  0  0  0  0  0  0  0  0  0
   -8.6265   -0.1276    0.7962 H   0  0  0  0  0  0  0  0  0  0  0  0
   -6.9580    0.3867    1.2711 H   0  0  0  0  0  0  0  0  0  0  0  0
   -7.6248   -1.1993    1.8476 H   0  0  0  0  0  0  0  0  0  0  0  0
   -5.5289   -3.1448    1.2858 H   0  0  0  0  0  0  0  0  0  0  0  0
   -3.1723   -3.2216    2.0310 H   0  0  0  0  0  0  0  0  0  0  0  0
   -1.7164   -8.4383   -1.2334 H   0  0  0  0  0  0  0  0  0  0  0  0
   -0.8034   -9.9897   -2.9032 H   0  0  0  0  0  0  0  0  0  0  0  0
    2.9686  -10.6350   -5.0853 H   0  0  0  0  0  0  0  0  0  0  0  0
    2.9805   -8.9719   -4.3791 H   0  0  0  0  0  0  0  0  0  0  0  0
    2.2250  -10.3499   -3.4628 H   0  0  0  0  0  0  0  0  0  0  0  0
    1.1840   -6.7294   -4.8797 H   0  0  0  0  0  0  0  0  0  0  0  0
    0.2985   -5.1630   -3.2030 H   0  0  0  0  0  0  0  0  0  0  0  0
    0.1202   -7.2107    0.5440 H   0  0  0  0  0  0  0  0  0  0  0  0
   -0.4775   -7.8845    2.8365 H   0  0  0  0  0  0  0  0  0  0  0  0
   -1.0788   -5.7253    5.0395 H   0  0  0  0  0  0  0  0  0  0  0  0
   -2.3242   -5.8558    6.3426 H   0  0  0  0  0  0  0  0  0  0  0  0
   -2.6955   -4.9309    4.8362 H   0  0  0  0  0  0  0  0  0  0  0  0
   -4.2107   -5.7748    2.4948 H   0  0  0  0  0  0  0  0  0  0  0  0
   -3.6398   -5.1221    0.2008 H   0  0  0  0  0  0  0  0  0  0  0  0
   -4.1426   -1.0660   -7.7679 H   0  0  0  0  0  0  0  0  0  0  0  0
   -2.7756   -1.5981   -9.7376 H   0  0  0  0  0  0  0  0  0  0  0  0
   -1.2350   -5.4571   -9.3627 H   0  0  0  0  0  0  0  0  0  0  0  0
   -0.8311   -5.4387  -11.1152 H   0  0  0  0  0  0  0  0  0  0  0  0
   -2.3624   -4.6686  -10.5461 H   0  0  0  0  0  0  0  0  0  0  0  0
   -0.1112   -3.9183   -7.2826 H   0  0  0  0  0  0  0  0  0  0  0  0
   -1.4495   -3.4047   -5.3180 H   0  0  0  0  0  0  0  0  0  0  0  0
   -3.1127    0.4823   -6.1731 H   0  0  0  0  0  0  0  0  0  0  0  0
   -4.2109    2.5970   -5.6479 H   0  0  0  0  0  0  0  0  0  0  0  0
   -5.3469    4.7822   -2.1513 H   0  0  0  0  0  0  0  0  0  0  0  0
   -4.0899    3.8390   -3.0410 H   0  0  0  0  0  0  0  0  0  0  0  0
   -5.0658    3.0447   -1.7253 H   0  0  0  0  0  0  0  0  0  0  0  0
   -6.7378    0.6157   -2.7944 H   0  0  0  0  0  0  0  0  0  0  0  0
   -5.7320   -1.5362   -3.3771 H   0  0  0  0  0  0  0  0  0  0  0  0
   -5.0818   -5.7521   -6.0598 H   0  0  0  0  0  0  0  0  0  0  0  0
   -9.3565   -6.6489   -2.9266 H   0  0  0  0  0  0  0  0  0  0  0  0
  -11.1214   -6.3377   -1.1976 H   0  0  0  0  0  0  0  0  0  0  0  0
  -10.3970   -1.4159   -1.3258 H   0  0  0  0  0  0  0  0  0  0  0  0
   -8.7401   -1.6967   -3.1451 H   0  0  0  0  0  0  0  0  0  0  0  0
  1  2  2  3
  2  3  1  0
  3  4  2  0
  3  5  1  0
  5  6  2  0
  6  7  1  0
  7  8  2  0
  8  9  1  0
  9 10  1  0
  9 11  2  0
 11 12  1  0
 11 13  1  0
 13 14  2  0
 14 15  1  0
 15 16  2  0
 16 17  1  0
 17 18  2  3
 18 19  1  0
 19 20  3  0
 18 21  1  0
 21 22  3  0
  1 23  1  0
 23 24  2  0
 24 25  1  0
 25 26  2  0
 26 27  1  0
 27 28  2  0
 28 29  1  0
 29 30  2  0
 30 31  1  0
 31 32  1  0
 32 33  1  0
 30 34  1  0
 34 35  1  0
 34 36  2  0
 26 37  1  0
 37 38  2  0
 38 39  1  0
 39 40  1  0
 40 41  2  0
 41 42  1  0
 42 43  2  0
 43 44  1  0
 44 45  1  0
 45 46  1  0
 43 47  1  0
 47 48  2  0
 47 49  1  0
 39 50  2  0
 50 51  1  0
 38 52  1  0
 52 53  2  0
 53 54  1  0
 53 55  1  0
 55 56  2  0
 56 57  1  0
 57 58  1  0
 58 59  2  0
 59 60  1  0
 60 61  2  0
 61 62  1  0
 62 63  1  0
 61 64  1  0
 64 65  2  0
 57 66  1  0
 66 67  2  0
 67 68  1  0
 68 69  2  0
 69 70  1  0
 70 71  1  0
 69 72  1  0
 72 73  2  0
 56 74  1  0
 74 75  1  0
 75 76  1  0
 76 77  2  0
 77 78  1  0
 78 79  1  0
 79 80  2  0
 80 81  1  0
 81 82  2  0
 82 83  1  0
 83 84  1  0
 82 85  1  0
 85 86  2  0
 78 87  1  0
 87 88  2  0
 88 89  1  0
 89 90  2  0
 90 91  1  0
 91 92  1  0
 90 93  1  0
 93 94  2  0
 77 95  1  0
 95 96  1  0
 76 97  1  0
 97 98  2  0
 98 99  1  0
 99100  1  0
100101  2  0
101102  1  0
102103  2  0
103104  1  0
104105  1  0
103106  1  0
106107  2  0
 99108  1  0
108109  2  0
109110  1  0
110111  2  0
111112  1  0
112113  1  0
111114  1  0
114115  2  0
 98116  1  0
116117  1  0
117118  1  0
118119  2  0
119120  1  0
120121  1  0
121122  2  0
122123  1  0
123124  2  0
124125  1  0
125126  1  0
124127  1  0
127128  2  0
120129  1  0
129130  2  0
130131  1  0
131132  2  0
132133  1  0
133134  1  0
132135  1  0
135136  2  0
119137  1  0
137138  1  0
118139  1  0
139140  2  3
140141  1  0
141142  2  0
141143  1  0
143144  2  0
144145  1  0
145146  2  0
146147  1  0
147148  1  0
147149  2  0
149150  1  0
149151  1  0
151152  2  0
152153  1  0
153154  2  0
154155  1  0
155156  2  3
156157  1  0
157158  3  0
156159  1  0
159160  3  0
 17  2  1  0
 51 23  1  0
 96 55  1  0
138 97  1  0
155140  1  0
 16  5  1  0
 50 25  1  0
 65 58  1  0
 73 66  1  0
 95 74  2  0
107100  1  0
115108  1  0
137116  2  0
154143  1  0
 14  7  1  0
 36 27  1  0
 54 37  1  0
 86 79  1  0
 94 87  1  0
128121  1  0
136129  1  0
152145  1  0
 48 40  1  0
  1161  1  0
  6162  1  0
  8163  1  0
 13164  1  0
 15165  1  0
 24166  1  0
 28167  1  0
 29168  1  0
 32169  1  0
 32170  1  0
 33171  1  0
 33172  1  0
 33173  1  0
 36174  1  0
 41175  1  0
 42176  1  0
 45177  1  0
 45178  1  0
 46179  1  0
 46180  1  0
 46181  1  0
 48182  1  0
 52183  1  0
 59184  1  0
 60185  1  0
 63186  1  0
 63187  1  0
 63188  1  0
 64189  1  0
 65190  1  0
 67191  1  0
 68192  1  0
 71193  1  0
 71194  1  0
 71195  1  0
 72196  1  0
 73197  1  0
 80198  1  0
 81199  1  0
 84200  1  0
 84201  1  0
 84202  1  0
 85203  1  0
 86204  1  0
 88205  1  0
 89206  1  0
 92207  1  0
 92208  1  0
 92209  1  0
 93210  1  0
 94211  1  0
101212  1  0
102213  1  0
105214  1  0
105215  1  0
105216  1  0
106217  1  0
107218  1  0
109219  1  0
110220  1  0
113221  1  0
113222  1  0
113223  1  0
114224  1  0
115225  1  0
122226  1  0
123227  1  0
126228  1  0
126229  1  0
126230  1  0
127231  1  0
128232  1  0
130233  1  0
131234  1  0
134235  1  0
134236  1  0
134237  1  0
135238  1  0
136239  1  0
139240  1  0
144241  1  0
146242  1  0
151243  1  0
153244  1  0
M  END

