
     RDKit          3D

213232  0  0  0  0  0  0  0  0999 V2000
    7.8757   -2.9825   -3.6423 C   0  0  0  0  0  0  0  0  0  0  0  0
    8.7511   -2.0080   -3.9630 C   0  0  0  0  0  0  0  0  0  0  0  0
    8.6865   -0.6213   -3.4853 C   0  0  0  0  0  0  0  0  0  0  0  0
    8.1426   -0.2241   -2.4204 O   0  0  0  0  0  0  0  0  0  0  0  0
    9.3685    0.2226   -4.4398 C   0  0  0  0  0  0  0  0  0  0  0  0
    9.3891    1.6213   -4.4888 C   0  0  0  0  0  0  0  0  0  0  0  0
    9.9706    2.2102   -5.6157 C   0  0  0  0  0  0  0  0  0  0  0  0
   10.0524    3.5819   -5.8803 C   0  0  0  0  0  0  0  0  0  0  0  0
   10.6504    3.8596   -7.1095 C   0  0  0  0  0  0  0  0  0  0  0  0
   11.0630    2.4057   -7.8696 S   0  0  0  0  0  0  0  0  0  0  0  0
   10.4987    1.4174   -6.6354 C   0  0  0  0  0  0  0  0  0  0  0  0
   10.4828    0.0226   -6.5879 C   0  0  0  0  0  0  0  0  0  0  0  0
    9.9295   -0.5735   -5.4360 C   0  0  0  0  0  0  0  0  0  0  0  0
    9.7046   -2.0104   -5.1106 C   0  0  0  0  0  0  0  0  0  0  0  0
   10.3597   -3.0773   -5.6373 C   0  0  0  0  0  0  0  0  0  0  0  0
   11.3249   -2.9484   -6.7028 C   0  0  0  0  0  0  0  0  0  0  0  0
   12.0929   -2.8627   -7.5658 N   0  0  0  0  0  0  0  0  0  0  0  0
   10.2108   -4.4030   -5.1037 C   0  0  0  0  0  0  0  0  0  0  0  0
   10.1050   -5.4741   -4.6721 N   0  0  0  0  0  0  0  0  0  0  0  0
    6.6533   -2.7322   -2.8465 C   0  0  0  0  0  0  0  0  0  0  0  0
    5.7017   -1.7956   -3.2914 C   0  0  0  0  0  0  0  0  0  0  0  0
    5.9055   -1.1825   -4.5301 O   0  0  0  0  0  0  0  0  0  0  0  0
    4.9842   -1.2930   -5.6138 C   0  0  0  0  0  0  0  0  0  0  0  0
    5.6800   -0.8751   -6.8976 C   0  0  0  0  0  0  0  0  0  0  0  0
    4.5515   -1.5174   -2.5107 C   0  0  0  0  0  0  0  0  0  0  0  0
    3.7135   -0.4299   -2.8156 O   0  0  0  0  0  0  0  0  0  0  0  0
    4.1724    0.8993   -3.1105 C   0  0  0  0  0  0  0  0  0  0  0  0
    4.9013    1.5111   -1.9153 C   0  0  0  0  0  0  0  0  0  0  0  0
    4.2386   -2.3377   -1.3961 C   0  0  0  0  0  0  0  0  0  0  0  0
    5.1619   -3.3176   -0.9956 C   0  0  0  0  0  0  0  0  0  0  0  0
    6.3755   -3.5032   -1.7141 C   0  0  0  0  0  0  0  0  0  0  0  0
    7.2309   -4.4416   -1.2275 N   0  0  0  0  0  0  0  0  0  0  0  0
    6.3892   -4.9659    0.0892 S   0  0  0  0  0  0  0  0  0  0  0  0
    4.9931   -4.0862    0.1099 N   0  0  0  0  0  0  0  0  0  0  0  0
    3.0155   -2.0802   -0.5946 C   0  0  0  0  0  0  0  0  0  0  0  0
    2.0785   -3.0255   -0.1008 C   0  0  0  0  0  0  0  0  0  0  0  0
    1.9498   -4.3795   -0.5964 N   0  0  0  0  0  0  0  0  0  0  0  0
    2.3536   -4.6864   -1.9455 C   0  0  0  0  0  0  0  0  0  0  0  0
    3.1583   -5.8081   -2.2004 C   0  0  0  0  0  0  0  0  0  0  0  0
    3.5951   -6.0888   -3.4982 C   0  0  0  0  0  0  0  0  0  0  0  0
    3.2612   -5.2298   -4.5513 C   0  0  0  0  0  0  0  0  0  0  0  0
    3.8349   -5.5791   -6.2153 S   0  0  0  0  0  0  0  0  0  0  0  0
    5.5814   -5.1812   -5.8763 C   0  0  0  0  0  0  0  0  0  0  0  0
    2.4374   -4.1202   -4.3106 C   0  0  0  0  0  0  0  0  0  0  0  0
    1.9715   -3.8600   -3.0175 C   0  0  0  0  0  0  0  0  0  0  0  0
    1.4164   -5.4348    0.2283 C   0  0  0  0  0  0  0  0  0  0  0  0
    1.7903   -5.5527    1.5786 C   0  0  0  0  0  0  0  0  0  0  0  0
    1.3524   -6.6452    2.3417 C   0  0  0  0  0  0  0  0  0  0  0  0
    0.5593   -7.6406    1.7543 C   0  0  0  0  0  0  0  0  0  0  0  0
    0.1324   -9.1191    2.6723 S   0  0  0  0  0  0  0  0  0  0  0  0
   -1.5352   -8.5581    3.1510 C   0  0  0  0  0  0  0  0  0  0  0  0
    0.1700   -7.5161    0.4160 C   0  0  0  0  0  0  0  0  0  0  0  0
    0.5761   -6.4144   -0.3350 C   0  0  0  0  0  0  0  0  0  0  0  0
    1.1284   -2.3829    0.7180 C   0  0  0  0  0  0  0  0  0  0  0  0
   -0.2852   -2.8182    1.5427 S   0  0  0  0  0  0  0  0  0  0  0  0
   -0.6980   -1.2117    1.9533 C   0  0  0  0  0  0  0  0  0  0  0  0
    0.2155   -0.3368    1.3504 C   0  0  0  0  0  0  0  0  0  0  0  0
   -0.1923    0.9237    0.7872 N   0  0  0  0  0  0  0  0  0  0  0  0
   -0.8986    0.8267   -0.4664 C   0  0  0  0  0  0  0  0  0  0  0  0
   -0.2251    1.0562   -1.6742 C   0  0  0  0  0  0  0  0  0  0  0  0
   -0.8852    0.8909   -2.8946 C   0  0  0  0  0  0  0  0  0  0  0  0
   -2.2270    0.4912   -2.9170 C   0  0  0  0  0  0  0  0  0  0  0  0
   -3.0921    0.3312   -4.4763 S   0  0  0  0  0  0  0  0  0  0  0  0
   -3.6468    2.0661   -4.4605 C   0  0  0  0  0  0  0  0  0  0  0  0
   -2.9010    0.2433   -1.7172 C   0  0  0  0  0  0  0  0  0  0  0  0
   -2.2389    0.4105   -0.4995 C   0  0  0  0  0  0  0  0  0  0  0  0
    0.3938    2.1892    1.1860 C   0  0  0  0  0  0  0  0  0  0  0  0
    1.5301    2.2426    2.0179 C   0  0  0  0  0  0  0  0  0  0  0  0
    2.1387    3.4733    2.3109 C   0  0  0  0  0  0  0  0  0  0  0  0
    1.6201    4.6594    1.7777 C   0  0  0  0  0  0  0  0  0  0  0  0
    2.4801    6.2187    2.0207 S   0  0  0  0  0  0  0  0  0  0  0  0
    1.4735    6.7169    3.4497 C   0  0  0  0  0  0  0  0  0  0  0  0
    0.4664    4.6194    0.9912 C   0  0  0  0  0  0  0  0  0  0  0  0
   -0.1461    3.4020    0.7034 C   0  0  0  0  0  0  0  0  0  0  0  0
    1.2582   -1.0351    0.7720 C   0  0  0  0  0  0  0  0  0  0  0  0
    2.5597   -0.5220   -0.1115 S   0  0  0  0  0  0  0  0  0  0  0  0
   -1.8660   -0.7264    2.7115 C   0  0  0  0  0  0  0  0  0  0  0  0
   -3.1770   -1.2420    2.7191 C   0  0  0  0  0  0  0  0  0  0  0  0
   -3.4637   -2.6375    2.8814 N   0  0  0  0  0  0  0  0  0  0  0  0
   -3.6455   -3.5284    1.7622 C   0  0  0  0  0  0  0  0  0  0  0  0
   -3.5374   -4.9255    1.9365 C   0  0  0  0  0  0  0  0  0  0  0  0
   -3.8146   -5.7965    0.8790 C   0  0  0  0  0  0  0  0  0  0  0  0
   -4.1704   -5.2872   -0.3729 C   0  0  0  0  0  0  0  0  0  0  0  0
   -4.5875   -6.4119   -1.7088 S   0  0  0  0  0  0  0  0  0  0  0  0
   -6.3546   -6.4561   -1.2724 C   0  0  0  0  0  0  0  0  0  0  0  0
   -4.2320   -3.9047   -0.5725 C   0  0  0  0  0  0  0  0  0  0  0  0
   -3.9637   -3.0270    0.4870 C   0  0  0  0  0  0  0  0  0  0  0  0
   -3.7290   -3.0613    4.2315 C   0  0  0  0  0  0  0  0  0  0  0  0
   -4.9867   -3.5855    4.5773 C   0  0  0  0  0  0  0  0  0  0  0  0
   -5.2977   -3.8362    5.9203 C   0  0  0  0  0  0  0  0  0  0  0  0
   -4.3586   -3.5652    6.9270 C   0  0  0  0  0  0  0  0  0  0  0  0
   -4.7771   -3.8379    8.6521 S   0  0  0  0  0  0  0  0  0  0  0  0
   -4.0689   -5.5147    8.6702 C   0  0  0  0  0  0  0  0  0  0  0  0
   -3.1035   -3.0544    6.5844 C   0  0  0  0  0  0  0  0  0  0  0  0
   -2.7864   -2.8109    5.2443 C   0  0  0  0  0  0  0  0  0  0  0  0
   -4.0854   -0.2630    3.1612 C   0  0  0  0  0  0  0  0  0  0  0  0
   -5.7304   -0.0500    2.9067 S   0  0  0  0  0  0  0  0  0  0  0  0
   -5.7291    1.6068    3.3375 C   0  0  0  0  0  0  0  0  0  0  0  0
   -4.4315    1.9868    3.7407 C   0  0  0  0  0  0  0  0  0  0  0  0
   -4.0201    3.3012    4.2020 N   0  0  0  0  0  0  0  0  0  0  0  0
   -2.8106    3.4257    4.9537 C   0  0  0  0  0  0  0  0  0  0  0  0
   -1.6423    3.8957    4.3404 C   0  0  0  0  0  0  0  0  0  0  0  0
   -0.4308    3.8580    5.0353 C   0  0  0  0  0  0  0  0  0  0  0  0
   -0.3824    3.3902    6.3509 C   0  0  0  0  0  0  0  0  0  0  0  0
    1.1883    3.2973    7.2152 S   0  0  0  0  0  0  0  0  0  0  0  0
    1.5875    1.6493    6.5520 C   0  0  0  0  0  0  0  0  0  0  0  0
   -1.5607    2.9799    6.9871 C   0  0  0  0  0  0  0  0  0  0  0  0
   -2.7712    2.9958    6.2904 C   0  0  0  0  0  0  0  0  0  0  0  0
   -4.8929    4.4373    4.2243 C   0  0  0  0  0  0  0  0  0  0  0  0
   -4.6531    5.5194    3.3681 C   0  0  0  0  0  0  0  0  0  0  0  0
   -5.4647    6.6614    3.4331 C   0  0  0  0  0  0  0  0  0  0  0  0
   -6.5080    6.7305    4.3648 C   0  0  0  0  0  0  0  0  0  0  0  0
   -7.5473    8.1990    4.4502 S   0  0  0  0  0  0  0  0  0  0  0  0
   -6.4804    9.0134    5.6811 C   0  0  0  0  0  0  0  0  0  0  0  0
   -6.7454    5.6499    5.2270 C   0  0  0  0  0  0  0  0  0  0  0  0
   -5.9275    4.5164    5.1725 C   0  0  0  0  0  0  0  0  0  0  0  0
   -3.5467    0.9168    3.5664 C   0  0  0  0  0  0  0  0  0  0  0  0
   -1.8990    0.8488    3.3427 S   0  0  0  0  0  0  0  0  0  0  0  0
   -6.7347    2.5483    2.8226 C   0  0  0  0  0  0  0  0  0  0  0  0
   -6.5337    3.2165    1.6609 C   0  0  0  0  0  0  0  0  0  0  0  0
   -5.4250    2.9451    0.7322 C   0  0  0  0  0  0  0  0  0  0  0  0
   -4.7461    1.8910    0.6727 O   0  0  0  0  0  0  0  0  0  0  0  0
   -5.3070    4.0386   -0.1951 C   0  0  0  0  0  0  0  0  0  0  0  0
   -4.3706    4.1728   -1.2245 C   0  0  0  0  0  0  0  0  0  0  0  0
   -4.4815    5.2916   -2.0506 C   0  0  0  0  0  0  0  0  0  0  0  0
   -3.6556    5.5982   -3.1361 C   0  0  0  0  0  0  0  0  0  0  0  0
   -4.0471    6.7709   -3.7915 C   0  0  0  0  0  0  0  0  0  0  0  0
   -5.4071    7.4098   -3.0196 S   0  0  0  0  0  0  0  0  0  0  0  0
   -5.5025    6.2105   -1.8503 C   0  0  0  0  0  0  0  0  0  0  0  0
   -6.4452    6.0764   -0.8222 C   0  0  0  0  0  0  0  0  0  0  0  0
   -6.3215    4.9596    0.0338 C   0  0  0  0  0  0  0  0  0  0  0  0
   -7.1595    4.4957    1.1962 C   0  0  0  0  0  0  0  0  0  0  0  0
   -8.2900    5.0834    1.6539 C   0  0  0  0  0  0  0  0  0  0  0  0
   -9.1312    4.5054    2.6684 C   0  0  0  0  0  0  0  0  0  0  0  0
   -9.8507    4.0788    3.4717 N   0  0  0  0  0  0  0  0  0  0  0  0
   -8.7039    6.3948    1.2310 C   0  0  0  0  0  0  0  0  0  0  0  0
   -9.0493    7.4521    0.9045 N   0  0  0  0  0  0  0  0  0  0  0  0
    7.9377   -3.9525   -4.1073 H   0  0  0  0  0  0  0  0  0  0  0  0
    8.9354    2.2183   -3.7071 H   0  0  0  0  0  0  0  0  0  0  0  0
    9.6804    4.3453   -5.2135 H   0  0  0  0  0  0  0  0  0  0  0  0
   10.8111    4.8471   -7.5189 H   0  0  0  0  0  0  0  0  0  0  0  0
   10.8202   -0.5425   -7.4373 H   0  0  0  0  0  0  0  0  0  0  0  0
    4.0923   -0.6594   -5.4485 H   0  0  0  0  0  0  0  0  0  0  0  0
    4.6308   -2.3375   -5.7073 H   0  0  0  0  0  0  0  0  0  0  0  0
    5.9259    0.2082   -6.8495 H   0  0  0  0  0  0  0  0  0  0  0  0
    5.0117   -1.0534   -7.7652 H   0  0  0  0  0  0  0  0  0  0  0  0
    6.6299   -1.4465   -7.0330 H   0  0  0  0  0  0  0  0  0  0  0  0
    3.2970    1.5304   -3.3614 H   0  0  0  0  0  0  0  0  0  0  0  0
    4.8522    0.9167   -3.9814 H   0  0  0  0  0  0  0  0  0  0  0  0
    5.7724    0.8946   -1.6230 H   0  0  0  0  0  0  0  0  0  0  0  0
    4.2176    1.6118   -1.0489 H   0  0  0  0  0  0  0  0  0  0  0  0
    5.2682    2.5224   -2.1850 H   0  0  0  0  0  0  0  0  0  0  0  0
    3.4779   -6.4488   -1.3899 H   0  0  0  0  0  0  0  0  0  0  0  0
    4.2210   -6.9508   -3.6754 H   0  0  0  0  0  0  0  0  0  0  0  0
    6.0594   -6.0087   -5.3141 H   0  0  0  0  0  0  0  0  0  0  0  0
    6.1093   -5.0357   -6.8384 H   0  0  0  0  0  0  0  0  0  0  0  0
    5.6712   -4.2563   -5.2719 H   0  0  0  0  0  0  0  0  0  0  0  0
    2.1380   -3.4716   -5.1241 H   0  0  0  0  0  0  0  0  0  0  0  0
    1.3258   -3.0089   -2.8471 H   0  0  0  0  0  0  0  0  0  0  0  0
    2.4524   -4.8265    2.0279 H   0  0  0  0  0  0  0  0  0  0  0  0
    1.6642   -6.7331    3.3739 H   0  0  0  0  0  0  0  0  0  0  0  0
   -1.9121   -7.7543    2.4836 H   0  0  0  0  0  0  0  0  0  0  0  0
   -1.5251   -8.1975    4.2020 H   0  0  0  0  0  0  0  0  0  0  0  0
   -2.2241   -9.4243    3.0623 H   0  0  0  0  0  0  0  0  0  0  0  0
   -0.4435   -8.2832   -0.0435 H   0  0  0  0  0  0  0  0  0  0  0  0
    0.2752   -6.3516   -1.3740 H   0  0  0  0  0  0  0  0  0  0  0  0
    0.8164    1.3512   -1.6702 H   0  0  0  0  0  0  0  0  0  0  0  0
   -0.3492    1.0682   -3.8181 H   0  0  0  0  0  0  0  0  0  0  0  0
   -4.2270    2.2869   -5.3782 H   0  0  0  0  0  0  0  0  0  0  0  0
   -2.7650    2.7401   -4.4216 H   0  0  0  0  0  0  0  0  0  0  0  0
   -4.2811    2.2533   -3.5615 H   0  0  0  0  0  0  0  0  0  0  0  0
   -3.9352   -0.0764   -1.7241 H   0  0  0  0  0  0  0  0  0  0  0  0
   -2.7725    0.2183    0.4136 H   0  0  0  0  0  0  0  0  0  0  0  0
    1.9758    1.3419    2.4191 H   0  0  0  0  0  0  0  0  0  0  0  0
    3.0272    3.4982    2.9225 H   0  0  0  0  0  0  0  0  0  0  0  0
    0.3922    6.6945    3.1934 H   0  0  0  0  0  0  0  0  0  0  0  0
    1.7527    7.7424    3.7564 H   0  0  0  0  0  0  0  0  0  0  0  0
    1.6793    6.0384    4.2984 H   0  0  0  0  0  0  0  0  0  0  0  0
    0.0609    5.5301    0.5714 H   0  0  0  0  0  0  0  0  0  0  0  0
   -1.0396    3.3990    0.0903 H   0  0  0  0  0  0  0  0  0  0  0  0
   -3.2706   -5.3434    2.8997 H   0  0  0  0  0  0  0  0  0  0  0  0
   -3.7602   -6.8624    1.0413 H   0  0  0  0  0  0  0  0  0  0  0  0
   -6.4833   -6.8394   -0.2361 H   0  0  0  0  0  0  0  0  0  0  0  0
   -6.7829   -5.4330   -1.3395 H   0  0  0  0  0  0  0  0  0  0  0  0
   -6.8928   -7.1220   -1.9751 H   0  0  0  0  0  0  0  0  0  0  0  0
   -4.4981   -3.5023   -1.5388 H   0  0  0  0  0  0  0  0  0  0  0  0
   -4.0597   -1.9611    0.3181 H   0  0  0  0  0  0  0  0  0  0  0  0
   -5.7421   -3.7523    3.8187 H   0  0  0  0  0  0  0  0  0  0  0  0
   -6.2761   -4.2176    6.1865 H   0  0  0  0  0  0  0  0  0  0  0  0
   -2.9593   -5.4629    8.6284 H   0  0  0  0  0  0  0  0  0  0  0  0
   -4.3786   -6.0238    9.6031 H   0  0  0  0  0  0  0  0  0  0  0  0
   -4.4369   -6.1051    7.8019 H   0  0  0  0  0  0  0  0  0  0  0  0
   -2.3709   -2.8398    7.3518 H   0  0  0  0  0  0  0  0  0  0  0  0
   -1.8163   -2.4053    4.9945 H   0  0  0  0  0  0  0  0  0  0  0  0
   -1.6555    4.1977    3.2983 H   0  0  0  0  0  0  0  0  0  0  0  0
    0.4792    4.1411    4.5277 H   0  0  0  0  0  0  0  0  0  0  0  0
    2.5080    1.2690    7.0338 H   0  0  0  0  0  0  0  0  0  0  0  0
    1.7521    1.7113    5.4551 H   0  0  0  0  0  0  0  0  0  0  0  0
    0.7625    0.9352    6.7568 H   0  0  0  0  0  0  0  0  0  0  0  0
   -1.5340    2.6211    8.0045 H   0  0  0  0  0  0  0  0  0  0  0  0
   -3.6808    2.6516    6.7693 H   0  0  0  0  0  0  0  0  0  0  0  0
   -3.8424    5.4812    2.6512 H   0  0  0  0  0  0  0  0  0  0  0  0
   -5.2699    7.4919    2.7674 H   0  0  0  0  0  0  0  0  0  0  0  0
   -6.4518    8.4179    6.6184 H   0  0  0  0  0  0  0  0  0  0  0  0
   -6.8898   10.0209    5.9129 H   0  0  0  0  0  0  0  0  0  0  0  0
   -5.4519    9.1274    5.2782 H   0  0  0  0  0  0  0  0  0  0  0  0
   -7.5473    5.6947    5.9538 H   0  0  0  0  0  0  0  0  0  0  0  0
   -6.0873    3.7022    5.8659 H   0  0  0  0  0  0  0  0  0  0  0  0
   -7.5112    2.8296    3.5039 H   0  0  0  0  0  0  0  0  0  0  0  0
   -3.5895    3.4353   -1.3723 H   0  0  0  0  0  0  0  0  0  0  0  0
   -2.8098    5.0036   -3.4414 H   0  0  0  0  0  0  0  0  0  0  0  0
   -3.5647    7.1978   -4.6626 H   0  0  0  0  0  0  0  0  0  0  0  0
   -7.2123    6.8227   -0.7327 H   0  0  0  0  0  0  0  0  0  0  0  0
  1  2  2  3
  2  3  1  0
  3  4  2  0
  3  5  1  0
  5  6  2  0
  6  7  1  0
  7  8  1  0
  8  9  2  0
  9 10  1  0
 10 11  1  0
 11 12  1  0
 12 13  2  0
 13 14  1  0
 14 15  2  3
 15 16  1  0
 16 17  3  0
 15 18  1  0
 18 19  3  0
  1 20  1  0
 20 21  2  0
 21 22  1  0
 22 23  1  0
 23 24  1  0
 21 25  1  0
 25 26  1  0
 26 27  1  0
 27 28  1  0
 25 29  2  0
 29 30  1  0
 30 31  1  0
 31 32  2  0
 32 33  1  0
 33 34  1  0
 29 35  1  0
 35 36  2  0
 36 37  1  0
 37 38  1  0
 38 39  2  0
 39 40  1  0
 40 41  2  0
 41 42  1  0
 42 43  1  0
 41 44  1  0
 44 45  2  0
 37 46  1  0
 46 47  2  0
 47 48  1  0
 48 49  2  0
 49 50  1  0
 50 51  1  0
 49 52  1  0
 52 53  2  0
 36 54  1  0
 54 55  1  0
 55 56  1  0
 56 57  2  0
 57 58  1  0
 58 59  1  0
 59 60  2  0
 60 61  1  0
 61 62  2  0
 62 63  1  0
 63 64  1  0
 62 65  1  0
 65 66  2  0
 58 67  1  0
 67 68  2  0
 68 69  1  0
 69 70  2  0
 70 71  1  0
 71 72  1  0
 70 73  1  0
 73 74  2  0
 57 75  1  0
 75 76  1  0
 56 77  1  0
 77 78  2  0
 78 79  1  0
 79 80  1  0
 80 81  2  0
 81 82  1  0
 82 83  2  0
 83 84  1  0
 84 85  1  0
 83 86  1  0
 86 87  2  0
 79 88  1  0
 88 89  2  0
 89 90  1  0
 90 91  2  0
 91 92  1  0
 92 93  1  0
 91 94  1  0
 94 95  2  0
 78 96  1  0
 96 97  1  0
 97 98  1  0
 98 99  2  0
 99100  1  0
100101  1  0
101102  2  0
102103  1  0
103104  2  0
104105  1  0
105106  1  0
104107  1  0
107108  2  0
100109  1  0
109110  2  0
110111  1  0
111112  2  0
112113  1  0
113114  1  0
112115  1  0
115116  2  0
 99117  1  0
117118  1  0
 98119  1  0
119120  2  3
120121  1  0
121122  2  0
121123  1  0
123124  2  0
124125  1  0
125126  1  0
126127  2  0
127128  1  0
128129  1  0
129130  1  0
130131  2  0
131132  1  0
132133  2  3
133134  1  0
134135  3  0
133136  1  0
136137  3  0
 14  2  1  0
 31 20  1  0
 76 35  1  0
118 77  1  0
132120  1  0
 13  5  1  0
 34 30  2  0
 45 38  1  0
 53 46  1  0
 75 54  2  0
 87 80  1  0
 95 88  1  0
117 96  2  0
131123  1  0
 11  7  2  0
 66 59  1  0
 74 67  1  0
108101  1  0
116109  1  0
129125  2  0
  1138  1  0
  6139  1  0
  8140  1  0
  9141  1  0
 12142  1  0
 23143  1  0
 23144  1  0
 24145  1  0
 24146  1  0
 24147  1  0
 27148  1  0
 27149  1  0
 28150  1  0
 28151  1  0
 28152  1  0
 39153  1  0
 40154  1  0
 43155  1  0
 43156  1  0
 43157  1  0
 44158  1  0
 45159  1  0
 47160  1  0
 48161  1  0
 51162  1  0
 51163  1  0
 51164  1  0
 52165  1  0
 53166  1  0
 60167  1  0
 61168  1  0
 64169  1  0
 64170  1  0
 64171  1  0
 65172  1  0
 66173  1  0
 68174  1  0
 69175  1  0
 72176  1  0
 72177  1  0
 72178  1  0
 73179  1  0
 74180  1  0
 81181  1  0
 82182  1  0
 85183  1  0
 85184  1  0
 85185  1  0
 86186  1  0
 87187  1  0
 89188  1  0
 90189  1  0
 93190  1  0
 93191  1  0
 93192  1  0
 94193  1  0
 95194  1  0
102195  1  0
103196  1  0
106197  1  0
106198  1  0
106199  1  0
107200  1  0
108201  1  0
110202  1  0
111203  1  0
114204  1  0
114205  1  0
114206  1  0
115207  1  0
116208  1  0
119209  1  0
124210  1  0
126211  1  0
127212  1  0
130213  1  0
M  END

