
     RDKit          3D

 95104  0  0  0  0  0  0  0  0999 V2000
    1.6053   -1.0673    6.4364 C   0  0  0  0  0  0  0  0  0  0  0  0
    2.1139    0.1414    6.1193 C   0  0  0  0  0  0  0  0  0  0  0  0
    2.3828    0.6251    4.7565 C   0  0  0  0  0  0  0  0  0  0  0  0
    2.2256   -0.0206    3.6878 O   0  0  0  0  0  0  0  0  0  0  0  0
    3.0893    1.8804    4.8433 C   0  0  0  0  0  0  0  0  0  0  0  0
    3.5310    2.6863    3.7843 C   0  0  0  0  0  0  0  0  0  0  0  0
    4.2256    3.8542    4.1121 C   0  0  0  0  0  0  0  0  0  0  0  0
    4.7241    4.7983    3.2083 C   0  0  0  0  0  0  0  0  0  0  0  0
    5.3761    5.8566    3.8388 C   0  0  0  0  0  0  0  0  0  0  0  0
    5.3307    5.6145    5.5125 S   0  0  0  0  0  0  0  0  0  0  0  0
    4.4809    4.1698    5.4429 C   0  0  0  0  0  0  0  0  0  0  0  0
    4.0551    3.3638    6.5037 C   0  0  0  0  0  0  0  0  0  0  0  0
    3.3288    2.1959    6.1805 C   0  0  0  0  0  0  0  0  0  0  0  0
    2.7005    1.1588    7.0554 C   0  0  0  0  0  0  0  0  0  0  0  0
    2.5142    1.2327    8.4020 C   0  0  0  0  0  0  0  0  0  0  0  0
    1.6513    0.3301    9.1215 C   0  0  0  0  0  0  0  0  0  0  0  0
    0.9597   -0.3869    9.7112 N   0  0  0  0  0  0  0  0  0  0  0  0
    3.0812    2.2755    9.2155 C   0  0  0  0  0  0  0  0  0  0  0  0
    3.5254    3.1066    9.8883 N   0  0  0  0  0  0  0  0  0  0  0  0
    0.7722   -1.8946    5.5407 C   0  0  0  0  0  0  0  0  0  0  0  0
    0.5364   -3.2552    5.7086 C   0  0  0  0  0  0  0  0  0  0  0  0
   -0.4504   -3.7738    4.8482 C   0  0  0  0  0  0  0  0  0  0  0  0
   -0.8758   -5.1884    4.9185 C   0  0  0  0  0  0  0  0  0  0  0  0
   -0.0129   -6.0744    5.1646 O   0  0  0  0  0  0  0  0  0  0  0  0
   -2.3125   -5.5960    4.7346 C   0  0  0  0  0  0  0  0  0  0  0  0
   -2.8088   -6.3960    5.9351 C   0  0  0  0  0  0  0  0  0  0  0  0
   -0.9925   -2.8024    3.9931 C   0  0  0  0  0  0  0  0  0  0  0  0
   -0.2796   -1.3286    4.3576 S   0  0  0  0  0  0  0  0  0  0  0  0
   -1.9048   -3.0041    2.8486 C   0  0  0  0  0  0  0  0  0  0  0  0
   -1.6844   -3.8829    1.8642 C   0  0  0  0  0  0  0  0  0  0  0  0
   -2.3410   -3.4721    0.6560 C   0  0  0  0  0  0  0  0  0  0  0  0
   -3.0582   -2.2638    1.0129 C   0  0  0  0  0  0  0  0  0  0  0  0
   -3.6705   -1.4905    0.2301 O   0  0  0  0  0  0  0  0  0  0  0  0
   -2.8509   -2.0111    2.4022 N   0  0  0  0  0  0  0  0  0  0  0  0
   -3.2656   -0.8061    3.1097 C   0  0  0  0  0  0  0  0  0  0  0  0
   -1.6086   -3.7998   -0.4150 C   0  0  0  0  0  0  0  0  0  0  0  0
   -0.4483   -4.5510   -0.0035 N   0  0  0  0  0  0  0  0  0  0  0  0
    0.2345   -5.5515   -0.8170 C   0  0  0  0  0  0  0  0  0  0  0  0
   -0.4909   -4.5758    1.4225 C   0  0  0  0  0  0  0  0  0  0  0  0
    0.3958   -5.0908    2.1527 O   0  0  0  0  0  0  0  0  0  0  0  0
   -1.6870   -3.0984   -1.7156 C   0  0  0  0  0  0  0  0  0  0  0  0
   -0.5223   -2.5431   -2.2714 C   0  0  0  0  0  0  0  0  0  0  0  0
   -0.5632   -1.8259   -3.4737 C   0  0  0  0  0  0  0  0  0  0  0  0
    0.6033   -1.3699   -3.9960 F   0  0  0  0  0  0  0  0  0  0  0  0
   -1.7860   -1.6102   -4.1429 C   0  0  0  0  0  0  0  0  0  0  0  0
   -2.9449   -2.2129   -3.6296 C   0  0  0  0  0  0  0  0  0  0  0  0
   -2.8982   -2.9511   -2.4100 C   0  0  0  0  0  0  0  0  0  0  0  0
   -4.0699   -3.4877   -1.9802 N   0  0  0  0  0  0  0  0  0  0  0  0
   -5.0894   -2.9767   -3.1753 S   0  0  0  0  0  0  0  0  0  0  0  0
   -4.1589   -2.1102   -4.2306 N   0  0  0  0  0  0  0  0  0  0  0  0
   -1.8498   -0.8233   -5.3948 C   0  0  0  0  0  0  0  0  0  0  0  0
   -1.2254    0.3525   -5.5982 C   0  0  0  0  0  0  0  0  0  0  0  0
   -0.8606    0.8263   -6.9316 C   0  0  0  0  0  0  0  0  0  0  0  0
   -1.3473    0.4200   -8.0201 O   0  0  0  0  0  0  0  0  0  0  0  0
    0.2469    1.7512   -6.7953 C   0  0  0  0  0  0  0  0  0  0  0  0
    1.0341    2.3107   -7.7978 C   0  0  0  0  0  0  0  0  0  0  0  0
    2.1519    3.0874   -7.4339 C   0  0  0  0  0  0  0  0  0  0  0  0
    3.0130    3.6768   -8.5190 C   0  0  0  0  0  0  0  0  0  0  0  0
    2.4912    3.2315   -6.0579 C   0  0  0  0  0  0  0  0  0  0  0  0
    3.7130    4.0016   -5.6314 C   0  0  0  0  0  0  0  0  0  0  0  0
    1.6687    2.6501   -5.0699 C   0  0  0  0  0  0  0  0  0  0  0  0
    0.5300    1.9320   -5.4556 C   0  0  0  0  0  0  0  0  0  0  0  0
   -0.4682    1.2012   -4.6309 C   0  0  0  0  0  0  0  0  0  0  0  0
   -0.8591    1.5265   -3.3735 C   0  0  0  0  0  0  0  0  0  0  0  0
   -2.1120    1.0736   -2.8225 C   0  0  0  0  0  0  0  0  0  0  0  0
   -3.1189    0.7255   -2.3717 N   0  0  0  0  0  0  0  0  0  0  0  0
   -0.1537    2.4927   -2.5720 C   0  0  0  0  0  0  0  0  0  0  0  0
    0.4019    3.2706   -1.9183 N   0  0  0  0  0  0  0  0  0  0  0  0
    1.7631   -1.4738    7.4206 H   0  0  0  0  0  0  0  0  0  0  0  0
    3.3385    2.4181    2.7547 H   0  0  0  0  0  0  0  0  0  0  0  0
    4.6169    4.7204    2.1332 H   0  0  0  0  0  0  0  0  0  0  0  0
    5.8299    6.7019    3.3378 H   0  0  0  0  0  0  0  0  0  0  0  0
    4.3028    3.6526    7.5092 H   0  0  0  0  0  0  0  0  0  0  0  0
    1.0355   -3.8483    6.4653 H   0  0  0  0  0  0  0  0  0  0  0  0
   -2.9651   -4.7047    4.6264 H   0  0  0  0  0  0  0  0  0  0  0  0
   -2.4045   -6.2098    3.8138 H   0  0  0  0  0  0  0  0  0  0  0  0
   -2.2606   -7.3582    6.0145 H   0  0  0  0  0  0  0  0  0  0  0  0
   -2.6665   -5.8166    6.8705 H   0  0  0  0  0  0  0  0  0  0  0  0
   -3.8899   -6.6125    5.8151 H   0  0  0  0  0  0  0  0  0  0  0  0
   -3.3303   -1.0088    4.1992 H   0  0  0  0  0  0  0  0  0  0  0  0
   -2.5346    0.0077    2.9233 H   0  0  0  0  0  0  0  0  0  0  0  0
   -4.2647   -0.4834    2.7517 H   0  0  0  0  0  0  0  0  0  0  0  0
    1.2506   -5.7419   -0.4103 H   0  0  0  0  0  0  0  0  0  0  0  0
   -0.3461   -6.4958   -0.8055 H   0  0  0  0  0  0  0  0  0  0  0  0
    0.3299   -5.2015   -1.8654 H   0  0  0  0  0  0  0  0  0  0  0  0
    0.4293   -2.6549   -1.7653 H   0  0  0  0  0  0  0  0  0  0  0  0
   -2.3539   -1.2920   -6.2329 H   0  0  0  0  0  0  0  0  0  0  0  0
    0.7943    2.1302   -8.8387 H   0  0  0  0  0  0  0  0  0  0  0  0
    3.9314    3.0652   -8.6409 H   0  0  0  0  0  0  0  0  0  0  0  0
    3.2978    4.7207   -8.2703 H   0  0  0  0  0  0  0  0  0  0  0  0
    2.4766    3.7033   -9.4915 H   0  0  0  0  0  0  0  0  0  0  0  0
    4.6023    3.6414   -6.1890 H   0  0  0  0  0  0  0  0  0  0  0  0
    3.9160    3.8727   -4.5476 H   0  0  0  0  0  0  0  0  0  0  0  0
    3.5639    5.0828   -5.8339 H   0  0  0  0  0  0  0  0  0  0  0  0
    1.9496    2.7238   -4.0319 H   0  0  0  0  0  0  0  0  0  0  0  0
  1  2  2  3
  2  3  1  0
  3  4  2  0
  3  5  1  0
  5  6  2  0
  6  7  1  0
  7  8  1  0
  8  9  2  0
  9 10  1  0
 10 11  1  0
 11 12  1  0
 12 13  2  0
 13 14  1  0
 14 15  2  3
 15 16  1  0
 16 17  3  0
 15 18  1  0
 18 19  3  0
  1 20  1  0
 20 21  2  0
 21 22  1  0
 22 23  1  0
 23 24  2  0
 23 25  1  0
 25 26  1  0
 22 27  2  0
 27 28  1  0
 27 29  1  0
 29 30  2  0
 30 31  1  0
 31 32  1  0
 32 33  2  0
 32 34  1  0
 34 35  1  0
 31 36  2  0
 36 37  1  0
 37 38  1  0
 37 39  1  0
 39 40  2  0
 36 41  1  0
 41 42  2  0
 42 43  1  0
 43 44  1  0
 43 45  2  0
 45 46  1  0
 46 47  1  0
 47 48  2  0
 48 49  1  0
 49 50  1  0
 45 51  1  0
 51 52  2  3
 52 53  1  0
 53 54  2  0
 53 55  1  0
 55 56  2  0
 56 57  1  0
 57 58  1  0
 57 59  2  0
 59 60  1  0
 59 61  1  0
 61 62  2  0
 62 63  1  0
 63 64  2  3
 64 65  1  0
 65 66  3  0
 64 67  1  0
 67 68  3  0
 14  2  1  0
 28 20  1  0
 34 29  1  0
 47 41  1  0
 63 52  1  0
 13  5  1  0
 39 30  1  0
 50 46  2  0
 62 55  1  0
 11  7  2  0
  1 69  1  0
  6 70  1  0
  8 71  1  0
  9 72  1  0
 12 73  1  0
 21 74  1  0
 25 75  1  0
 25 76  1  0
 26 77  1  0
 26 78  1  0
 26 79  1  0
 35 80  1  0
 35 81  1  0
 35 82  1  0
 38 83  1  0
 38 84  1  0
 38 85  1  0
 42 86  1  0
 51 87  1  0
 56 88  1  0
 58 89  1  0
 58 90  1  0
 58 91  1  0
 60 92  1  0
 60 93  1  0
 60 94  1  0
 61 95  1  0
M  END

