
     RDKit          3D

202220  0  0  0  0  0  0  0  0999 V2000
   -3.2257    3.3093   -6.2296 C   0  0  0  0  0  0  0  0  0  0  0  0
   -2.9953    4.5877   -6.5936 C   0  0  0  0  0  0  0  0  0  0  0  0
   -1.7687    5.3608   -6.3612 C   0  0  0  0  0  0  0  0  0  0  0  0
   -0.5916    4.9193   -6.3958 O   0  0  0  0  0  0  0  0  0  0  0  0
   -2.1271    6.7601   -6.2531 C   0  0  0  0  0  0  0  0  0  0  0  0
   -1.3263    7.8290   -5.8275 C   0  0  0  0  0  0  0  0  0  0  0  0
   -1.9484    9.0737   -5.6707 C   0  0  0  0  0  0  0  0  0  0  0  0
   -1.3358   10.2529   -5.2352 C   0  0  0  0  0  0  0  0  0  0  0  0
   -2.2346   11.3135   -5.1408 C   0  0  0  0  0  0  0  0  0  0  0  0
   -1.8017   13.0806   -4.5655 Br  0  0  0  0  0  0  0  0  0  0  0  0
   -3.7790   10.8014   -5.6022 S   0  0  0  0  0  0  0  0  0  0  0  0
   -3.3140    9.2185   -5.9244 C   0  0  0  0  0  0  0  0  0  0  0  0
   -4.1152    8.1527   -6.3479 C   0  0  0  0  0  0  0  0  0  0  0  0
   -3.4814    6.9096   -6.5418 C   0  0  0  0  0  0  0  0  0  0  0  0
   -4.0506    5.5910   -6.9338 C   0  0  0  0  0  0  0  0  0  0  0  0
   -5.1690    5.3811   -7.6682 C   0  0  0  0  0  0  0  0  0  0  0  0
   -5.4852    4.0936   -8.2299 C   0  0  0  0  0  0  0  0  0  0  0  0
   -5.7505    3.0651   -8.6953 N   0  0  0  0  0  0  0  0  0  0  0  0
   -6.0272    6.4632   -8.0841 C   0  0  0  0  0  0  0  0  0  0  0  0
   -6.7189    7.3260   -8.4266 N   0  0  0  0  0  0  0  0  0  0  0  0
   -2.3358    2.4826   -5.3785 C   0  0  0  0  0  0  0  0  0  0  0  0
   -2.4610    1.0879   -5.1435 C   0  0  0  0  0  0  0  0  0  0  0  0
   -3.6228    0.3073   -5.4983 N   0  0  0  0  0  0  0  0  0  0  0  0
   -3.4730   -1.0712   -5.9173 C   0  0  0  0  0  0  0  0  0  0  0  0
   -4.4140   -2.0495   -5.5342 C   0  0  0  0  0  0  0  0  0  0  0  0
   -4.2455   -3.3831   -5.9089 C   0  0  0  0  0  0  0  0  0  0  0  0
   -3.1346   -3.7691   -6.6627 C   0  0  0  0  0  0  0  0  0  0  0  0
   -2.9321   -5.4863   -7.1427 S   0  0  0  0  0  0  0  0  0  0  0  0
   -2.0422   -5.9353   -5.6211 C   0  0  0  0  0  0  0  0  0  0  0  0
   -2.1920   -2.8090   -7.0494 C   0  0  0  0  0  0  0  0  0  0  0  0
   -2.3589   -1.4685   -6.6823 C   0  0  0  0  0  0  0  0  0  0  0  0
   -4.9261    0.8335   -5.1571 C   0  0  0  0  0  0  0  0  0  0  0  0
   -5.9910    0.7414   -6.0694 C   0  0  0  0  0  0  0  0  0  0  0  0
   -7.2151    1.3596   -5.7927 C   0  0  0  0  0  0  0  0  0  0  0  0
   -7.3911    2.0638   -4.5957 C   0  0  0  0  0  0  0  0  0  0  0  0
   -8.9382    2.9096   -4.2706 S   0  0  0  0  0  0  0  0  0  0  0  0
   -9.6830    1.4800   -3.4244 C   0  0  0  0  0  0  0  0  0  0  0  0
   -6.3463    2.1383   -3.6694 C   0  0  0  0  0  0  0  0  0  0  0  0
   -5.1237    1.5218   -3.9440 C   0  0  0  0  0  0  0  0  0  0  0  0
   -1.5646    0.6620   -4.1555 C   0  0  0  0  0  0  0  0  0  0  0  0
   -1.4381   -0.7488   -3.2459 S   0  0  0  0  0  0  0  0  0  0  0  0
   -0.4295   -0.0506   -2.0669 C   0  0  0  0  0  0  0  0  0  0  0  0
   -0.2788    1.3161   -2.3304 C   0  0  0  0  0  0  0  0  0  0  0  0
   -0.0561    2.2876   -1.2967 N   0  0  0  0  0  0  0  0  0  0  0  0
    1.2856    2.5720   -0.8811 C   0  0  0  0  0  0  0  0  0  0  0  0
    2.1927    3.1479   -1.7809 C   0  0  0  0  0  0  0  0  0  0  0  0
    3.4458    3.5754   -1.3353 C   0  0  0  0  0  0  0  0  0  0  0  0
    3.8069    3.4121    0.0069 C   0  0  0  0  0  0  0  0  0  0  0  0
    5.4108    3.9716    0.5787 S   0  0  0  0  0  0  0  0  0  0  0  0
    4.7968    5.6265    1.0252 C   0  0  0  0  0  0  0  0  0  0  0  0
    2.9186    2.8017    0.8992 C   0  0  0  0  0  0  0  0  0  0  0  0
    1.6586    2.3878    0.4595 C   0  0  0  0  0  0  0  0  0  0  0  0
   -1.1696    3.0427   -0.7605 C   0  0  0  0  0  0  0  0  0  0  0  0
   -0.9864    4.3560   -0.2822 C   0  0  0  0  0  0  0  0  0  0  0  0
   -2.0676    5.0985    0.1985 C   0  0  0  0  0  0  0  0  0  0  0  0
   -3.3509    4.5410    0.2125 C   0  0  0  0  0  0  0  0  0  0  0  0
   -4.7385    5.4880    0.8507 S   0  0  0  0  0  0  0  0  0  0  0  0
   -5.1706    6.1835   -0.7759 C   0  0  0  0  0  0  0  0  0  0  0  0
   -3.5453    3.2348   -0.2473 C   0  0  0  0  0  0  0  0  0  0  0  0
   -2.4673    2.4925   -0.7310 C   0  0  0  0  0  0  0  0  0  0  0  0
   -0.8708    1.6532   -3.5399 C   0  0  0  0  0  0  0  0  0  0  0  0
   -1.2719    3.1228   -4.2109 S   0  0  0  0  0  0  0  0  0  0  0  0
   -0.1047   -0.6810   -0.7913 C   0  0  0  0  0  0  0  0  0  0  0  0
    1.0861   -1.3608   -0.5024 C   0  0  0  0  0  0  0  0  0  0  0  0
    2.0973   -1.6791   -1.4685 N   0  0  0  0  0  0  0  0  0  0  0  0
    3.1719   -0.7668   -1.7454 C   0  0  0  0  0  0  0  0  0  0  0  0
    3.9624   -0.2594   -0.7053 C   0  0  0  0  0  0  0  0  0  0  0  0
    5.0416    0.5836   -0.9844 C   0  0  0  0  0  0  0  0  0  0  0  0
    5.3299    0.9462   -2.3038 C   0  0  0  0  0  0  0  0  0  0  0  0
    6.6650    2.0952   -2.6474 S   0  0  0  0  0  0  0  0  0  0  0  0
    7.9413    0.8019   -2.7032 C   0  0  0  0  0  0  0  0  0  0  0  0
    4.5453    0.4432   -3.3492 C   0  0  0  0  0  0  0  0  0  0  0  0
    3.4728   -0.4114   -3.0725 C   0  0  0  0  0  0  0  0  0  0  0  0
    2.0912   -2.9766   -2.0763 C   0  0  0  0  0  0  0  0  0  0  0  0
    1.4222   -3.1792   -3.2895 C   0  0  0  0  0  0  0  0  0  0  0  0
    1.4009   -4.4460   -3.8737 C   0  0  0  0  0  0  0  0  0  0  0  0
    2.0243   -5.5266   -3.2361 C   0  0  0  0  0  0  0  0  0  0  0  0
    1.9399   -7.1627   -3.9602 S   0  0  0  0  0  0  0  0  0  0  0  0
    0.4613   -7.6358   -3.0079 C   0  0  0  0  0  0  0  0  0  0  0  0
    2.7098   -5.3225   -2.0325 C   0  0  0  0  0  0  0  0  0  0  0  0
    2.7476   -4.0496   -1.4576 C   0  0  0  0  0  0  0  0  0  0  0  0
    1.1621   -1.6804    0.8475 C   0  0  0  0  0  0  0  0  0  0  0  0
    2.2911   -2.4425    1.8244 S   0  0  0  0  0  0  0  0  0  0  0  0
    1.4010   -2.2027    3.2589 C   0  0  0  0  0  0  0  0  0  0  0  0
    0.2062   -1.5237    2.9580 C   0  0  0  0  0  0  0  0  0  0  0  0
   -0.8849   -1.3261    3.8698 N   0  0  0  0  0  0  0  0  0  0  0  0
   -2.0978   -2.0858    3.6621 C   0  0  0  0  0  0  0  0  0  0  0  0
   -2.0271   -3.4208    3.2213 C   0  0  0  0  0  0  0  0  0  0  0  0
   -3.1884   -4.1322    2.9202 C   0  0  0  0  0  0  0  0  0  0  0  0
   -4.4396   -3.5240    3.0536 C   0  0  0  0  0  0  0  0  0  0  0  0
   -5.9299   -4.4296    2.6306 S   0  0  0  0  0  0  0  0  0  0  0  0
   -5.9673   -3.8090    0.9173 C   0  0  0  0  0  0  0  0  0  0  0  0
   -4.5262   -2.2018    3.5118 C   0  0  0  0  0  0  0  0  0  0  0  0
   -3.3650   -1.4864    3.8125 C   0  0  0  0  0  0  0  0  0  0  0  0
   -0.8617   -0.1959    4.7622 C   0  0  0  0  0  0  0  0  0  0  0  0
   -1.3114   -0.3371    6.0852 C   0  0  0  0  0  0  0  0  0  0  0  0
   -1.3079    0.7588    6.9527 C   0  0  0  0  0  0  0  0  0  0  0  0
   -0.8768    2.0114    6.5020 C   0  0  0  0  0  0  0  0  0  0  0  0
   -0.8628    3.4125    7.6185 S   0  0  0  0  0  0  0  0  0  0  0  0
   -2.5875    3.8674    7.2608 C   0  0  0  0  0  0  0  0  0  0  0  0
   -0.4319    2.1615    5.1847 C   0  0  0  0  0  0  0  0  0  0  0  0
   -0.4180    1.0636    4.3199 C   0  0  0  0  0  0  0  0  0  0  0  0
    0.1113   -1.2625    1.5965 C   0  0  0  0  0  0  0  0  0  0  0  0
   -1.0160   -0.4814    0.6323 S   0  0  0  0  0  0  0  0  0  0  0  0
    1.8893   -2.6186    4.5769 C   0  0  0  0  0  0  0  0  0  0  0  0
    1.9784   -1.8154    5.7075 C   0  0  0  0  0  0  0  0  0  0  0  0
    2.7832   -2.3658    6.7148 C   0  0  0  0  0  0  0  0  0  0  0  0
    3.1510   -1.4990    8.2438 S   0  0  0  0  0  0  0  0  0  0  0  0
    4.6810   -0.7112    7.6204 C   0  0  0  0  0  0  0  0  0  0  0  0
    4.3701    0.5071    6.7639 C   0  0  0  0  0  0  0  0  0  0  0  0
    3.3394   -3.5953    6.3713 C   0  0  0  0  0  0  0  0  0  0  0  0
    2.7993   -4.0044    4.8316 S   0  0  0  0  0  0  0  0  0  0  0  0
    4.2249   -4.4265    7.2061 C   0  0  0  0  0  0  0  0  0  0  0  0
    5.3800   -4.9528    6.7536 C   0  0  0  0  0  0  0  0  0  0  0  0
    5.9716   -4.7168    5.4285 C   0  0  0  0  0  0  0  0  0  0  0  0
    5.7911   -3.7073    4.6950 O   0  0  0  0  0  0  0  0  0  0  0  0
    6.8787   -5.8052    5.1357 C   0  0  0  0  0  0  0  0  0  0  0  0
    7.5052   -6.0976    3.9178 C   0  0  0  0  0  0  0  0  0  0  0  0
    8.2178   -7.3004    3.8406 C   0  0  0  0  0  0  0  0  0  0  0  0
    8.8799   -7.7923    2.7104 C   0  0  0  0  0  0  0  0  0  0  0  0
    9.4541   -9.0417    2.9359 C   0  0  0  0  0  0  0  0  0  0  0  0
   10.4277  -10.0637    1.6513 Br  0  0  0  0  0  0  0  0  0  0  0  0
    9.1380   -9.5415    4.5194 S   0  0  0  0  0  0  0  0  0  0  0  0
    8.2792   -8.1608    4.9385 C   0  0  0  0  0  0  0  0  0  0  0  0
    7.6543   -7.8690    6.1565 C   0  0  0  0  0  0  0  0  0  0  0  0
    6.9647   -6.6432    6.2469 C   0  0  0  0  0  0  0  0  0  0  0  0
    6.1519   -6.0786    7.3593 C   0  0  0  0  0  0  0  0  0  0  0  0
    6.2678   -6.3809    8.6777 C   0  0  0  0  0  0  0  0  0  0  0  0
    5.5966   -5.6268    9.7060 C   0  0  0  0  0  0  0  0  0  0  0  0
    5.0547   -5.0376   10.5403 N   0  0  0  0  0  0  0  0  0  0  0  0
    7.1855   -7.3801    9.1599 C   0  0  0  0  0  0  0  0  0  0  0  0
    7.9233   -8.1778    9.5574 N   0  0  0  0  0  0  0  0  0  0  0  0
   -4.1882    2.8922   -6.4452 H   0  0  0  0  0  0  0  0  0  0  0  0
   -0.2798    7.6869   -5.5888 H   0  0  0  0  0  0  0  0  0  0  0  0
   -0.2846   10.3354   -4.9891 H   0  0  0  0  0  0  0  0  0  0  0  0
   -5.1796    8.2903   -6.4675 H   0  0  0  0  0  0  0  0  0  0  0  0
   -5.2683   -1.7886   -4.9254 H   0  0  0  0  0  0  0  0  0  0  0  0
   -4.9785   -4.1190   -5.6069 H   0  0  0  0  0  0  0  0  0  0  0  0
   -1.1224   -5.3263   -5.5420 H   0  0  0  0  0  0  0  0  0  0  0  0
   -2.6810   -5.7639   -4.7293 H   0  0  0  0  0  0  0  0  0  0  0  0
   -1.7566   -7.0068   -5.6592 H   0  0  0  0  0  0  0  0  0  0  0  0
   -1.3308   -3.1005   -7.6369 H   0  0  0  0  0  0  0  0  0  0  0  0
   -1.6184   -0.7411   -6.9927 H   0  0  0  0  0  0  0  0  0  0  0  0
   -5.8554    0.2337   -7.0155 H   0  0  0  0  0  0  0  0  0  0  0  0
   -8.0180    1.3052   -6.5149 H   0  0  0  0  0  0  0  0  0  0  0  0
   -9.0588    1.1781   -2.5573 H   0  0  0  0  0  0  0  0  0  0  0  0
  -10.6893    1.7643   -3.0546 H   0  0  0  0  0  0  0  0  0  0  0  0
   -9.7813    0.6268   -4.1298 H   0  0  0  0  0  0  0  0  0  0  0  0
   -6.4728    2.6898   -2.7460 H   0  0  0  0  0  0  0  0  0  0  0  0
   -4.3237    1.6027   -3.2201 H   0  0  0  0  0  0  0  0  0  0  0  0
    1.9067    3.3051   -2.8150 H   0  0  0  0  0  0  0  0  0  0  0  0
    4.1326    4.0355   -2.0338 H   0  0  0  0  0  0  0  0  0  0  0  0
    5.6356    6.2269    1.4357 H   0  0  0  0  0  0  0  0  0  0  0  0
    4.3895    6.1366    0.1255 H   0  0  0  0  0  0  0  0  0  0  0  0
    4.0042    5.5410    1.7991 H   0  0  0  0  0  0  0  0  0  0  0  0
    3.1978    2.6618    1.9365 H   0  0  0  0  0  0  0  0  0  0  0  0
    0.9658    1.9453    1.1615 H   0  0  0  0  0  0  0  0  0  0  0  0
   -0.0072    4.8140   -0.2960 H   0  0  0  0  0  0  0  0  0  0  0  0
   -1.9096    6.1069    0.5591 H   0  0  0  0  0  0  0  0  0  0  0  0
   -5.4377    5.3675   -1.4804 H   0  0  0  0  0  0  0  0  0  0  0  0
   -6.0420    6.8598   -0.6599 H   0  0  0  0  0  0  0  0  0  0  0  0
   -4.3164    6.7679   -1.1814 H   0  0  0  0  0  0  0  0  0  0  0  0
   -4.5357    2.7907   -0.2304 H   0  0  0  0  0  0  0  0  0  0  0  0
   -2.6510    1.4837   -1.0789 H   0  0  0  0  0  0  0  0  0  0  0  0
    3.7579   -0.5209    0.3221 H   0  0  0  0  0  0  0  0  0  0  0  0
    5.6449    0.9652   -0.1697 H   0  0  0  0  0  0  0  0  0  0  0  0
    8.9310    1.2823   -2.8433 H   0  0  0  0  0  0  0  0  0  0  0  0
    7.7469    0.1151   -3.5534 H   0  0  0  0  0  0  0  0  0  0  0  0
    7.9499    0.2294   -1.7527 H   0  0  0  0  0  0  0  0  0  0  0  0
    4.7583    0.7209   -4.3730 H   0  0  0  0  0  0  0  0  0  0  0  0
    2.8701   -0.7824   -3.8893 H   0  0  0  0  0  0  0  0  0  0  0  0
    0.9312   -2.3564   -3.7876 H   0  0  0  0  0  0  0  0  0  0  0  0
    0.8950   -4.5899   -4.8184 H   0  0  0  0  0  0  0  0  0  0  0  0
    0.1055   -8.6255   -3.3563 H   0  0  0  0  0  0  0  0  0  0  0  0
   -0.3487   -6.8918   -3.1559 H   0  0  0  0  0  0  0  0  0  0  0  0
    0.7137   -7.7021   -1.9288 H   0  0  0  0  0  0  0  0  0  0  0  0
    3.2051   -6.1514   -1.5399 H   0  0  0  0  0  0  0  0  0  0  0  0
    3.2832   -3.9013   -0.5302 H   0  0  0  0  0  0  0  0  0  0  0  0
   -1.0695   -3.9069    3.0941 H   0  0  0  0  0  0  0  0  0  0  0  0
   -3.1162   -5.1536    2.5661 H   0  0  0  0  0  0  0  0  0  0  0  0
   -6.8814   -4.1818    0.4114 H   0  0  0  0  0  0  0  0  0  0  0  0
   -5.0742   -4.1671    0.3621 H   0  0  0  0  0  0  0  0  0  0  0  0
   -5.9902   -2.6983    0.9157 H   0  0  0  0  0  0  0  0  0  0  0  0
   -5.4928   -1.7241    3.6209 H   0  0  0  0  0  0  0  0  0  0  0  0
   -3.4560   -0.4580    4.1300 H   0  0  0  0  0  0  0  0  0  0  0  0
   -1.6564   -1.2989    6.4444 H   0  0  0  0  0  0  0  0  0  0  0  0
   -1.6540    0.6345    7.9749 H   0  0  0  0  0  0  0  0  0  0  0  0
   -2.7072    4.1026    6.1834 H   0  0  0  0  0  0  0  0  0  0  0  0
   -3.2638    3.0333    7.5393 H   0  0  0  0  0  0  0  0  0  0  0  0
   -2.8579    4.7614    7.8581 H   0  0  0  0  0  0  0  0  0  0  0  0
   -0.1002    3.1281    4.8271 H   0  0  0  0  0  0  0  0  0  0  0  0
   -0.0860    1.1983    3.2999 H   0  0  0  0  0  0  0  0  0  0  0  0
    1.5595   -0.8238    5.7723 H   0  0  0  0  0  0  0  0  0  0  0  0
    5.2949   -1.4370    7.0404 H   0  0  0  0  0  0  0  0  0  0  0  0
    5.2832   -0.3907    8.4958 H   0  0  0  0  0  0  0  0  0  0  0  0
    3.8733    0.2075    5.8193 H   0  0  0  0  0  0  0  0  0  0  0  0
    3.7045    1.2046    7.3230 H   0  0  0  0  0  0  0  0  0  0  0  0
    5.3084    1.0415    6.5097 H   0  0  0  0  0  0  0  0  0  0  0  0
    3.8376   -4.6910    8.1746 H   0  0  0  0  0  0  0  0  0  0  0  0
    7.4030   -5.4430    3.0575 H   0  0  0  0  0  0  0  0  0  0  0  0
    8.9353   -7.2745    1.7597 H   0  0  0  0  0  0  0  0  0  0  0  0
    7.6715   -8.5947    6.9543 H   0  0  0  0  0  0  0  0  0  0  0  0
  1  2  2  3
  2  3  1  0
  3  4  2  0
  3  5  1  0
  5  6  2  0
  6  7  1  0
  7  8  1  0
  8  9  2  0
  9 10  1  0
  9 11  1  0
 11 12  1  0
 12 13  1  0
 13 14  2  0
 14 15  1  0
 15 16  2  3
 16 17  1  0
 17 18  3  0
 16 19  1  0
 19 20  3  0
  1 21  1  0
 21 22  2  0
 22 23  1  0
 23 24  1  0
 24 25  2  0
 25 26  1  0
 26 27  2  0
 27 28  1  0
 28 29  1  0
 27 30  1  0
 30 31  2  0
 23 32  1  0
 32 33  2  0
 33 34  1  0
 34 35  2  0
 35 36  1  0
 36 37  1  0
 35 38  1  0
 38 39  2  0
 22 40  1  0
 40 41  1  0
 41 42  1  0
 42 43  2  0
 43 44  1  0
 44 45  1  0
 45 46  2  0
 46 47  1  0
 47 48  2  0
 48 49  1  0
 49 50  1  0
 48 51  1  0
 51 52  2  0
 44 53  1  0
 53 54  2  0
 54 55  1  0
 55 56  2  0
 56 57  1  0
 57 58  1  0
 56 59  1  0
 59 60  2  0
 43 61  1  0
 61 62  1  0
 42 63  1  0
 63 64  2  0
 64 65  1  0
 65 66  1  0
 66 67  2  0
 67 68  1  0
 68 69  2  0
 69 70  1  0
 70 71  1  0
 69 72  1  0
 72 73  2  0
 65 74  1  0
 74 75  2  0
 75 76  1  0
 76 77  2  0
 77 78  1  0
 78 79  1  0
 77 80  1  0
 80 81  2  0
 64 82  1  0
 82 83  1  0
 83 84  1  0
 84 85  2  0
 85 86  1  0
 86 87  1  0
 87 88  2  0
 88 89  1  0
 89 90  2  0
 90 91  1  0
 91 92  1  0
 90 93  1  0
 93 94  2  0
 86 95  1  0
 95 96  2  0
 96 97  1  0
 97 98  2  0
 98 99  1  0
 99100  1  0
 98101  1  0
101102  2  0
 85103  1  0
103104  1  0
 84105  1  0
105106  2  0
106107  1  0
107108  1  0
108109  1  0
109110  1  0
107111  2  0
111112  1  0
111113  1  0
113114  2  3
114115  1  0
115116  2  0
115117  1  0
117118  2  0
118119  1  0
119120  1  0
120121  2  0
121122  1  0
121123  1  0
123124  1  0
124125  1  0
125126  2  0
126127  1  0
127128  2  3
128129  1  0
129130  3  0
128131  1  0
131132  3  0
 15  2  1  0
 62 21  1  0
104 63  1  0
112105  1  0
127114  1  0
 14  5  1  0
 31 24  1  0
 39 32  1  0
 61 40  2  0
 73 66  1  0
 81 74  1  0
103 82  2  0
126117  1  0
 12  7  2  0
 52 45  1  0
 60 53  1  0
 94 87  1  0
102 95  1  0
124119  2  0
  1133  1  0
  6134  1  0
  8135  1  0
 13136  1  0
 25137  1  0
 26138  1  0
 29139  1  0
 29140  1  0
 29141  1  0
 30142  1  0
 31143  1  0
 33144  1  0
 34145  1  0
 37146  1  0
 37147  1  0
 37148  1  0
 38149  1  0
 39150  1  0
 46151  1  0
 47152  1  0
 50153  1  0
 50154  1  0
 50155  1  0
 51156  1  0
 52157  1  0
 54158  1  0
 55159  1  0
 58160  1  0
 58161  1  0
 58162  1  0
 59163  1  0
 60164  1  0
 67165  1  0
 68166  1  0
 71167  1  0
 71168  1  0
 71169  1  0
 72170  1  0
 73171  1  0
 75172  1  0
 76173  1  0
 79174  1  0
 79175  1  0
 79176  1  0
 80177  1  0
 81178  1  0
 88179  1  0
 89180  1  0
 92181  1  0
 92182  1  0
 92183  1  0
 93184  1  0
 94185  1  0
 96186  1  0
 97187  1  0
100188  1  0
100189  1  0
100190  1  0
101191  1  0
102192  1  0
106193  1  0
109194  1  0
109195  1  0
110196  1  0
110197  1  0
110198  1  0
113199  1  0
118200  1  0
120201  1  0
125202  1  0
M  END

