
     RDKit          3D

182196  0  0  0  0  0  0  0  0999 V2000
    0.8653   -4.5797    5.9413 C   0  0  0  0  0  0  0  0  0  0  0  0
    1.6265   -5.6791    5.9805 C   0  0  0  0  0  0  0  0  0  0  0  0
    1.5925   -6.7860    7.3920 S   0  0  0  0  0  0  0  0  0  0  0  0
    2.7512   -7.8525    6.5294 C   0  0  0  0  0  0  0  0  0  0  0  0
    3.7037   -8.8745    7.3769 S   0  0  0  0  0  0  0  0  0  0  0  0
    3.0876   -7.4345    5.2046 N   0  0  0  0  0  0  0  0  0  0  0  0
    3.8281   -8.2387    4.2294 C   0  0  0  0  0  0  0  0  0  0  0  0
    5.2864   -7.8056    4.1738 C   0  0  0  0  0  0  0  0  0  0  0  0
    2.5022   -6.1735    4.9145 C   0  0  0  0  0  0  0  0  0  0  0  0
    2.7329   -5.5563    3.8398 O   0  0  0  0  0  0  0  0  0  0  0  0
    0.8410   -3.6667    4.7965 C   0  0  0  0  0  0  0  0  0  0  0  0
    0.0740   -3.7969    3.6237 C   0  0  0  0  0  0  0  0  0  0  0  0
   -0.9714   -4.7719    3.4175 N   0  0  0  0  0  0  0  0  0  0  0  0
   -2.2261   -4.3836    2.8173 C   0  0  0  0  0  0  0  0  0  0  0  0
   -2.7785   -5.1477    1.7756 C   0  0  0  0  0  0  0  0  0  0  0  0
   -3.9497   -4.7307    1.1349 C   0  0  0  0  0  0  0  0  0  0  0  0
   -4.5916   -3.5556    1.5432 C   0  0  0  0  0  0  0  0  0  0  0  0
   -6.0757   -3.0055    0.7058 S   0  0  0  0  0  0  0  0  0  0  0  0
   -7.1845   -3.9677    1.7781 C   0  0  0  0  0  0  0  0  0  0  0  0
   -4.0598   -2.7996    2.5943 C   0  0  0  0  0  0  0  0  0  0  0  0
   -2.8857   -3.2130    3.2323 C   0  0  0  0  0  0  0  0  0  0  0  0
   -0.7780   -6.1497    3.7598 C   0  0  0  0  0  0  0  0  0  0  0  0
   -1.5254   -6.7190    4.7983 C   0  0  0  0  0  0  0  0  0  0  0  0
   -1.4417   -8.0880    5.0577 C   0  0  0  0  0  0  0  0  0  0  0  0
   -0.6260   -8.9024    4.2621 C   0  0  0  0  0  0  0  0  0  0  0  0
   -0.6051  -10.6757    4.5348 S   0  0  0  0  0  0  0  0  0  0  0  0
    0.7614  -10.6059    5.7280 C   0  0  0  0  0  0  0  0  0  0  0  0
    0.1285   -8.3384    3.2248 C   0  0  0  0  0  0  0  0  0  0  0  0
    0.0512   -6.9656    2.9722 C   0  0  0  0  0  0  0  0  0  0  0  0
    0.3089   -2.7184    2.7702 C   0  0  0  0  0  0  0  0  0  0  0  0
   -0.3252   -2.2544    1.2993 S   0  0  0  0  0  0  0  0  0  0  0  0
    0.4914   -0.7680    1.2619 C   0  0  0  0  0  0  0  0  0  0  0  0
    1.2473   -0.6042    2.4436 C   0  0  0  0  0  0  0  0  0  0  0  0
    1.7935    0.6550    2.8996 N   0  0  0  0  0  0  0  0  0  0  0  0
    2.8972    0.6833    3.8227 C   0  0  0  0  0  0  0  0  0  0  0  0
    4.0828   -0.0058    3.5306 C   0  0  0  0  0  0  0  0  0  0  0  0
    5.1425   -0.0088    4.4376 C   0  0  0  0  0  0  0  0  0  0  0  0
    5.0194    0.6596    5.6644 C   0  0  0  0  0  0  0  0  0  0  0  0
    6.3808    0.6661    6.8360 S   0  0  0  0  0  0  0  0  0  0  0  0
    5.9616   -0.9702    7.5211 C   0  0  0  0  0  0  0  0  0  0  0  0
    3.8333    1.3357    5.9718 C   0  0  0  0  0  0  0  0  0  0  0  0
    2.7785    1.3505    5.0558 C   0  0  0  0  0  0  0  0  0  0  0  0
    1.0392    1.8627    2.6873 C   0  0  0  0  0  0  0  0  0  0  0  0
   -0.3131    1.9288    3.0652 C   0  0  0  0  0  0  0  0  0  0  0  0
   -1.0628    3.0720    2.7914 C   0  0  0  0  0  0  0  0  0  0  0  0
   -0.4706    4.1628    2.1469 C   0  0  0  0  0  0  0  0  0  0  0  0
   -1.4573    5.5989    1.7379 S   0  0  0  0  0  0  0  0  0  0  0  0
   -1.1158    6.4347    3.3173 C   0  0  0  0  0  0  0  0  0  0  0  0
    0.8863    4.1158    1.7978 C   0  0  0  0  0  0  0  0  0  0  0  0
    1.6425    2.9721    2.0788 C   0  0  0  0  0  0  0  0  0  0  0  0
    1.1426   -1.7493    3.2443 C   0  0  0  0  0  0  0  0  0  0  0  0
    1.6856   -2.1859    4.7711 S   0  0  0  0  0  0  0  0  0  0  0  0
    0.3145    0.1906    0.1689 C   0  0  0  0  0  0  0  0  0  0  0  0
    1.1257    0.2858   -0.9696 C   0  0  0  0  0  0  0  0  0  0  0  0
    2.3958   -0.3589   -1.1351 N   0  0  0  0  0  0  0  0  0  0  0  0
    3.5770    0.2949   -0.6181 C   0  0  0  0  0  0  0  0  0  0  0  0
    4.6508   -0.4616   -0.1096 C   0  0  0  0  0  0  0  0  0  0  0  0
    5.8082    0.1740    0.3582 C   0  0  0  0  0  0  0  0  0  0  0  0
    5.9029    1.5709    0.3281 C   0  0  0  0  0  0  0  0  0  0  0  0
    7.4044    2.3911    0.8650 S   0  0  0  0  0  0  0  0  0  0  0  0
    6.8006    2.7096    2.5522 C   0  0  0  0  0  0  0  0  0  0  0  0
    4.8371    2.3298   -0.1624 C   0  0  0  0  0  0  0  0  0  0  0  0
    3.6789    1.6994   -0.6243 C   0  0  0  0  0  0  0  0  0  0  0  0
    2.4783   -1.5699   -1.9253 C   0  0  0  0  0  0  0  0  0  0  0  0
    3.5877   -1.8185   -2.7554 C   0  0  0  0  0  0  0  0  0  0  0  0
    3.6728   -3.0058   -3.4913 C   0  0  0  0  0  0  0  0  0  0  0  0
    2.6474   -3.9569   -3.4137 C   0  0  0  0  0  0  0  0  0  0  0  0
    2.7678   -5.4932   -4.3284 S   0  0  0  0  0  0  0  0  0  0  0  0
    1.7289   -4.8999   -5.7011 C   0  0  0  0  0  0  0  0  0  0  0  0
    1.5293   -3.7044   -2.6160 C   0  0  0  0  0  0  0  0  0  0  0  0
    1.4337   -2.5134   -1.8965 C   0  0  0  0  0  0  0  0  0  0  0  0
    0.5465    1.0971   -1.9367 C   0  0  0  0  0  0  0  0  0  0  0  0
    0.9968    1.6080   -3.4692 S   0  0  0  0  0  0  0  0  0  0  0  0
   -0.4070    2.5584   -3.7011 C   0  0  0  0  0  0  0  0  0  0  0  0
   -1.2254    2.4582   -2.5590 C   0  0  0  0  0  0  0  0  0  0  0  0
   -2.4204    3.2255   -2.3328 N   0  0  0  0  0  0  0  0  0  0  0  0
   -3.6228    2.5608   -1.8921 C   0  0  0  0  0  0  0  0  0  0  0  0
   -4.4703    3.1669   -0.9453 C   0  0  0  0  0  0  0  0  0  0  0  0
   -5.6207    2.5067   -0.5026 C   0  0  0  0  0  0  0  0  0  0  0  0
   -5.9365    1.2347   -0.9993 C   0  0  0  0  0  0  0  0  0  0  0  0
   -7.4100    0.3836   -0.4251 S   0  0  0  0  0  0  0  0  0  0  0  0
   -8.4467    1.0080   -1.7864 C   0  0  0  0  0  0  0  0  0  0  0  0
   -5.0957    0.6247   -1.9338 C   0  0  0  0  0  0  0  0  0  0  0  0
   -3.9497    1.2833   -2.3817 C   0  0  0  0  0  0  0  0  0  0  0  0
   -2.3608    4.6608   -2.4719 C   0  0  0  0  0  0  0  0  0  0  0  0
   -3.3826    5.3579   -3.1394 C   0  0  0  0  0  0  0  0  0  0  0  0
   -3.2797    6.7407   -3.3355 C   0  0  0  0  0  0  0  0  0  0  0  0
   -2.1593    7.4377   -2.8713 C   0  0  0  0  0  0  0  0  0  0  0  0
   -1.9902    9.1905   -3.1879 S   0  0  0  0  0  0  0  0  0  0  0  0
   -1.0307    8.9392   -4.7131 C   0  0  0  0  0  0  0  0  0  0  0  0
   -1.1555    6.7545   -2.1746 C   0  0  0  0  0  0  0  0  0  0  0  0
   -1.2487    5.3742   -1.9824 C   0  0  0  0  0  0  0  0  0  0  0  0
   -0.6550    1.6249   -1.6033 C   0  0  0  0  0  0  0  0  0  0  0  0
   -1.1168    1.0859   -0.0829 S   0  0  0  0  0  0  0  0  0  0  0  0
   -0.7598    3.2225   -4.9735 C   0  0  0  0  0  0  0  0  0  0  0  0
    0.2184    3.8730   -5.7479 C   0  0  0  0  0  0  0  0  0  0  0  0
    1.4910    3.9907   -5.2969 F   0  0  0  0  0  0  0  0  0  0  0  0
   -0.1153    4.4231   -6.9903 C   0  0  0  0  0  0  0  0  0  0  0  0
   -1.4181    4.3017   -7.4885 C   0  0  0  0  0  0  0  0  0  0  0  0
   -2.4037    3.6912   -6.6990 C   0  0  0  0  0  0  0  0  0  0  0  0
   -2.0753    3.1463   -5.4580 C   0  0  0  0  0  0  0  0  0  0  0  0
   -1.7646    4.8881   -8.7966 C   0  0  0  0  0  0  0  0  0  0  0  0
   -2.3917    4.2234   -9.7813 C   0  0  0  0  0  0  0  0  0  0  0  0
   -2.9945    5.0702  -11.2415 S   0  0  0  0  0  0  0  0  0  0  0  0
   -3.9503    3.5965  -11.6284 C   0  0  0  0  0  0  0  0  0  0  0  0
   -5.3762    3.7218  -12.4235 S   0  0  0  0  0  0  0  0  0  0  0  0
   -3.6143    2.4431  -10.8545 N   0  0  0  0  0  0  0  0  0  0  0  0
   -4.2407    1.1229  -10.9788 C   0  0  0  0  0  0  0  0  0  0  0  0
   -5.3868    0.9801   -9.9850 C   0  0  0  0  0  0  0  0  0  0  0  0
   -2.7174    2.7957   -9.8099 C   0  0  0  0  0  0  0  0  0  0  0  0
   -2.2169    1.9403   -9.0322 O   0  0  0  0  0  0  0  0  0  0  0  0
    0.2743   -4.3141    6.8082 H   0  0  0  0  0  0  0  0  0  0  0  0
    3.7724   -9.3137    4.4918 H   0  0  0  0  0  0  0  0  0  0  0  0
    3.3687   -8.1220    3.2202 H   0  0  0  0  0  0  0  0  0  0  0  0
    5.8261   -8.4057    3.4091 H   0  0  0  0  0  0  0  0  0  0  0  0
    5.3581   -6.7296    3.8999 H   0  0  0  0  0  0  0  0  0  0  0  0
    5.7686   -7.9656    5.1642 H   0  0  0  0  0  0  0  0  0  0  0  0
   -2.2839   -6.0490    1.4369 H   0  0  0  0  0  0  0  0  0  0  0  0
   -4.3501   -5.3142    0.3146 H   0  0  0  0  0  0  0  0  0  0  0  0
   -8.2341   -3.7944    1.4647 H   0  0  0  0  0  0  0  0  0  0  0  0
   -6.9566   -5.0507    1.6925 H   0  0  0  0  0  0  0  0  0  0  0  0
   -7.0673   -3.6418    2.8326 H   0  0  0  0  0  0  0  0  0  0  0  0
   -4.5486   -1.8881    2.9101 H   0  0  0  0  0  0  0  0  0  0  0  0
   -2.4805   -2.6079    4.0352 H   0  0  0  0  0  0  0  0  0  0  0  0
   -2.1825   -6.1012    5.3953 H   0  0  0  0  0  0  0  0  0  0  0  0
   -2.0277   -8.5212    5.8593 H   0  0  0  0  0  0  0  0  0  0  0  0
    0.9502  -11.6236    6.1272 H   0  0  0  0  0  0  0  0  0  0  0  0
    0.5062   -9.9274    6.5692 H   0  0  0  0  0  0  0  0  0  0  0  0
    1.6755  -10.2475    5.2144 H   0  0  0  0  0  0  0  0  0  0  0  0
    0.7523   -8.9658    2.6010 H   0  0  0  0  0  0  0  0  0  0  0  0
    0.6137   -6.5387    2.1527 H   0  0  0  0  0  0  0  0  0  0  0  0
    4.1771   -0.5530    2.6024 H   0  0  0  0  0  0  0  0  0  0  0  0
    6.0569   -0.5371    4.1998 H   0  0  0  0  0  0  0  0  0  0  0  0
    6.1006   -1.7482    6.7396 H   0  0  0  0  0  0  0  0  0  0  0  0
    4.9087   -0.9881    7.8811 H   0  0  0  0  0  0  0  0  0  0  0  0
    6.6335   -1.1895    8.3734 H   0  0  0  0  0  0  0  0  0  0  0  0
    3.7246    1.8434    6.9228 H   0  0  0  0  0  0  0  0  0  0  0  0
    1.8612    1.8577    5.3188 H   0  0  0  0  0  0  0  0  0  0  0  0
   -0.7861    1.0822    3.5489 H   0  0  0  0  0  0  0  0  0  0  0  0
   -2.1097    3.1036    3.0686 H   0  0  0  0  0  0  0  0  0  0  0  0
   -0.0352    6.6781    3.3879 H   0  0  0  0  0  0  0  0  0  0  0  0
   -1.4090    5.7882    4.1702 H   0  0  0  0  0  0  0  0  0  0  0  0
   -1.7014    7.3739    3.3651 H   0  0  0  0  0  0  0  0  0  0  0  0
    1.3528    4.9555    1.2994 H   0  0  0  0  0  0  0  0  0  0  0  0
    2.6872    2.9402    1.8017 H   0  0  0  0  0  0  0  0  0  0  0  0
    4.5908   -1.5435   -0.0722 H   0  0  0  0  0  0  0  0  0  0  0  0
    6.6254   -0.4210    0.7458 H   0  0  0  0  0  0  0  0  0  0  0  0
    7.4705    3.4515    3.0389 H   0  0  0  0  0  0  0  0  0  0  0  0
    5.7712    3.1250    2.5336 H   0  0  0  0  0  0  0  0  0  0  0  0
    6.8198    1.7692    3.1373 H   0  0  0  0  0  0  0  0  0  0  0  0
    4.9014    3.4112   -0.1860 H   0  0  0  0  0  0  0  0  0  0  0  0
    2.8709    2.3166   -1.0014 H   0  0  0  0  0  0  0  0  0  0  0  0
    4.3826   -1.0932   -2.8416 H   0  0  0  0  0  0  0  0  0  0  0  0
    4.5350   -3.1857   -4.1181 H   0  0  0  0  0  0  0  0  0  0  0  0
    2.1456   -3.9658   -6.1315 H   0  0  0  0  0  0  0  0  0  0  0  0
    1.6971   -5.6762   -6.4916 H   0  0  0  0  0  0  0  0  0  0  0  0
    0.6959   -4.7190   -5.3367 H   0  0  0  0  0  0  0  0  0  0  0  0
    0.7230   -4.4286   -2.5614 H   0  0  0  0  0  0  0  0  0  0  0  0
    0.5412   -2.3355   -1.3154 H   0  0  0  0  0  0  0  0  0  0  0  0
   -4.2352    4.1379   -0.5358 H   0  0  0  0  0  0  0  0  0  0  0  0
   -6.2638    2.9820    0.2278 H   0  0  0  0  0  0  0  0  0  0  0  0
   -9.4717    0.5969   -1.6820 H   0  0  0  0  0  0  0  0  0  0  0  0
   -8.0279    0.6861   -2.7634 H   0  0  0  0  0  0  0  0  0  0  0  0
   -8.4974    2.1171   -1.7501 H   0  0  0  0  0  0  0  0  0  0  0  0
   -5.3348   -0.3608   -2.3234 H   0  0  0  0  0  0  0  0  0  0  0  0
   -3.3150    0.7970   -3.1137 H   0  0  0  0  0  0  0  0  0  0  0  0
   -4.2403    4.8305   -3.5315 H   0  0  0  0  0  0  0  0  0  0  0  0
   -4.0654    7.2667   -3.8727 H   0  0  0  0  0  0  0  0  0  0  0  0
   -1.6325    8.3697   -5.4512 H   0  0  0  0  0  0  0  0  0  0  0  0
   -0.7597    9.9208   -5.1481 H   0  0  0  0  0  0  0  0  0  0  0  0
   -0.0999    8.3809   -4.4845 H   0  0  0  0  0  0  0  0  0  0  0  0
   -0.2861    7.2871   -1.8010 H   0  0  0  0  0  0  0  0  0  0  0  0
   -0.4543    4.8599   -1.4559 H   0  0  0  0  0  0  0  0  0  0  0  0
    0.6490    4.9220   -7.5730 H   0  0  0  0  0  0  0  0  0  0  0  0
   -3.4272    3.6272   -7.0528 H   0  0  0  0  0  0  0  0  0  0  0  0
   -2.8481    2.6432   -4.8930 H   0  0  0  0  0  0  0  0  0  0  0  0
   -1.5015    5.9266   -8.9617 H   0  0  0  0  0  0  0  0  0  0  0  0
   -3.4893    0.3255  -10.7956 H   0  0  0  0  0  0  0  0  0  0  0  0
   -4.6282    0.9810  -12.0115 H   0  0  0  0  0  0  0  0  0  0  0  0
   -5.8945    0.0037  -10.1364 H   0  0  0  0  0  0  0  0  0  0  0  0
   -4.9976    1.0167   -8.9479 H   0  0  0  0  0  0  0  0  0  0  0  0
   -6.1283    1.7918  -10.1273 H   0  0  0  0  0  0  0  0  0  0  0  0
  1  2  2  3
  2  3  1  0
  3  4  1  0
  4  5  2  0
  4  6  1  0
  6  7  1  0
  7  8  1  0
  6  9  1  0
  9 10  2  0
  1 11  1  0
 11 12  2  0
 12 13  1  0
 13 14  1  0
 14 15  2  0
 15 16  1  0
 16 17  2  0
 17 18  1  0
 18 19  1  0
 17 20  1  0
 20 21  2  0
 13 22  1  0
 22 23  2  0
 23 24  1  0
 24 25  2  0
 25 26  1  0
 26 27  1  0
 25 28  1  0
 28 29  2  0
 12 30  1  0
 30 31  1  0
 31 32  1  0
 32 33  2  0
 33 34  1  0
 34 35  1  0
 35 36  2  0
 36 37  1  0
 37 38  2  0
 38 39  1  0
 39 40  1  0
 38 41  1  0
 41 42  2  0
 34 43  1  0
 43 44  2  0
 44 45  1  0
 45 46  2  0
 46 47  1  0
 47 48  1  0
 46 49  1  0
 49 50  2  0
 33 51  1  0
 51 52  1  0
 32 53  1  0
 53 54  2  0
 54 55  1  0
 55 56  1  0
 56 57  2  0
 57 58  1  0
 58 59  2  0
 59 60  1  0
 60 61  1  0
 59 62  1  0
 62 63  2  0
 55 64  1  0
 64 65  2  0
 65 66  1  0
 66 67  2  0
 67 68  1  0
 68 69  1  0
 67 70  1  0
 70 71  2  0
 54 72  1  0
 72 73  1  0
 73 74  1  0
 74 75  2  0
 75 76  1  0
 76 77  1  0
 77 78  2  0
 78 79  1  0
 79 80  2  0
 80 81  1  0
 81 82  1  0
 80 83  1  0
 83 84  2  0
 76 85  1  0
 85 86  2  0
 86 87  1  0
 87 88  2  0
 88 89  1  0
 89 90  1  0
 88 91  1  0
 91 92  2  0
 75 93  1  0
 93 94  1  0
 74 95  1  0
 95 96  2  0
 96 97  1  0
 96 98  1  0
 98 99  2  0
 99100  1  0
100101  2  0
 99102  1  0
102103  2  3
103104  1  0
104105  1  0
105106  2  0
105107  1  0
107108  1  0
108109  1  0
107110  1  0
110111  2  0
  9  2  1  0
 52 11  1  0
 94 53  1  0
101 95  1  0
110103  1  0
 21 14  1  0
 29 22  1  0
 51 30  2  0
 63 56  1  0
 71 64  1  0
 93 72  2  0
 42 35  1  0
 50 43  1  0
 84 77  1  0
 92 85  1  0
  1112  1  0
  7113  1  0
  7114  1  0
  8115  1  0
  8116  1  0
  8117  1  0
 15118  1  0
 16119  1  0
 19120  1  0
 19121  1  0
 19122  1  0
 20123  1  0
 21124  1  0
 23125  1  0
 24126  1  0
 27127  1  0
 27128  1  0
 27129  1  0
 28130  1  0
 29131  1  0
 36132  1  0
 37133  1  0
 40134  1  0
 40135  1  0
 40136  1  0
 41137  1  0
 42138  1  0
 44139  1  0
 45140  1  0
 48141  1  0
 48142  1  0
 48143  1  0
 49144  1  0
 50145  1  0
 57146  1  0
 58147  1  0
 61148  1  0
 61149  1  0
 61150  1  0
 62151  1  0
 63152  1  0
 65153  1  0
 66154  1  0
 69155  1  0
 69156  1  0
 69157  1  0
 70158  1  0
 71159  1  0
 78160  1  0
 79161  1  0
 82162  1  0
 82163  1  0
 82164  1  0
 83165  1  0
 84166  1  0
 86167  1  0
 87168  1  0
 90169  1  0
 90170  1  0
 90171  1  0
 91172  1  0
 92173  1  0
 98174  1  0
100175  1  0
101176  1  0
102177  1  0
108178  1  0
108179  1  0
109180  1  0
109181  1  0
109182  1  0
M  END

