
     RDKit          3D

131145  0  0  0  0  0  0  0  0999 V2000
    6.6776   -0.9398    4.7515 C   0  0  0  0  0  0  0  0  0  0  0  0
    6.8482   -1.7774    5.7853 C   0  0  0  0  0  0  0  0  0  0  0  0
    5.5909   -2.9217    6.3852 S   0  0  0  0  0  0  0  0  0  0  0  0
    6.7840   -3.5017    7.5988 C   0  0  0  0  0  0  0  0  0  0  0  0
    6.4078   -4.7171    8.6307 S   0  0  0  0  0  0  0  0  0  0  0  0
    8.0581   -2.8507    7.5795 N   0  0  0  0  0  0  0  0  0  0  0  0
    9.2329   -3.2478    8.3621 C   0  0  0  0  0  0  0  0  0  0  0  0
   10.0833   -4.2335    7.5688 C   0  0  0  0  0  0  0  0  0  0  0  0
    8.1002   -1.9001    6.5244 C   0  0  0  0  0  0  0  0  0  0  0  0
    9.1312   -1.2188    6.2694 O   0  0  0  0  0  0  0  0  0  0  0  0
    5.3853   -0.7384    4.0698 C   0  0  0  0  0  0  0  0  0  0  0  0
    5.2820   -0.8831    2.6785 C   0  0  0  0  0  0  0  0  0  0  0  0
    4.0656   -0.6250    1.9972 C   0  0  0  0  0  0  0  0  0  0  0  0
    4.1199   -0.8350    0.5834 N   0  0  0  0  0  0  0  0  0  0  0  0
    5.6410   -1.2865    0.4160 S   0  0  0  0  0  4  0  0  0  0  0  0
    6.3630   -1.3021    1.8362 N   0  0  0  0  0  0  0  0  0  0  0  0
    2.9168   -0.2181    2.6907 C   0  0  0  0  0  0  0  0  0  0  0  0
    3.0148   -0.0489    4.0826 C   0  0  0  0  0  0  0  0  0  0  0  0
    1.9845    0.4097    4.8392 N   0  0  0  0  0  0  0  0  0  0  0  0
    2.6976    0.4697    6.3264 S   0  0  0  0  0  0  0  0  0  0  0  0
    4.2551   -0.0356    6.1035 N   0  0  0  0  0  0  0  0  0  0  0  0
    4.2474   -0.2958    4.7698 C   0  0  0  0  0  0  0  0  0  0  0  0
    1.6608    0.0958    1.9910 C   0  0  0  0  0  0  0  0  0  0  0  0
    0.4324   -0.5474    2.2088 C   0  0  0  0  0  0  0  0  0  0  0  0
    0.3583   -1.9226    2.6166 N   0  0  0  0  0  0  0  0  0  0  0  0
   -0.6669   -2.3803    3.5057 C   0  0  0  0  0  0  0  0  0  0  0  0
   -0.5672   -2.1307    4.8833 C   0  0  0  0  0  0  0  0  0  0  0  0
   -1.5142   -2.6678    5.7611 C   0  0  0  0  0  0  0  0  0  0  0  0
   -2.5574   -3.4610    5.2715 C   0  0  0  0  0  0  0  0  0  0  0  0
   -3.7457   -4.1870    6.3995 S   0  0  0  0  0  0  0  0  0  0  0  0
   -2.8397   -5.7648    6.5237 C   0  0  0  0  0  0  0  0  0  0  0  0
   -2.6833   -3.6690    3.8925 C   0  0  0  0  0  0  0  0  0  0  0  0
   -1.7310   -3.1487    3.0167 C   0  0  0  0  0  0  0  0  0  0  0  0
    1.1174   -2.8908    1.8736 C   0  0  0  0  0  0  0  0  0  0  0  0
    0.9793   -2.9799    0.4760 C   0  0  0  0  0  0  0  0  0  0  0  0
    1.7717   -3.8655   -0.2552 C   0  0  0  0  0  0  0  0  0  0  0  0
    2.7264   -4.6598    0.3982 C   0  0  0  0  0  0  0  0  0  0  0  0
    3.7209   -5.8171   -0.5449 S   0  0  0  0  0  0  0  0  0  0  0  0
    5.0587   -4.6183   -0.8339 C   0  0  0  0  0  0  0  0  0  0  0  0
    2.8698   -4.5753    1.7897 C   0  0  0  0  0  0  0  0  0  0  0  0
    2.0600   -3.7041    2.5282 C   0  0  0  0  0  0  0  0  0  0  0  0
   -0.5795    0.0846    1.4781 C   0  0  0  0  0  0  0  0  0  0  0  0
   -2.1735   -0.2920    1.1157 S   0  0  0  0  0  0  0  0  0  0  0  0
   -2.3126    0.8860   -0.1115 C   0  0  0  0  0  0  0  0  0  0  0  0
   -1.0726    1.5220   -0.2961 C   0  0  0  0  0  0  0  0  0  0  0  0
   -0.6345    2.0149   -1.5741 N   0  0  0  0  0  0  0  0  0  0  0  0
    0.2244    1.1426   -2.3448 C   0  0  0  0  0  0  0  0  0  0  0  0
    1.5272    1.5519   -2.6864 C   0  0  0  0  0  0  0  0  0  0  0  0
    2.4507    0.6302   -3.1968 C   0  0  0  0  0  0  0  0  0  0  0  0
    2.0781   -0.7071   -3.3768 C   0  0  0  0  0  0  0  0  0  0  0  0
    3.3130   -1.9154   -3.8605 S   0  0  0  0  0  0  0  0  0  0  0  0
    2.9999   -1.7401   -5.6443 C   0  0  0  0  0  0  0  0  0  0  0  0
    0.7683   -1.1110   -3.0903 C   0  0  0  0  0  0  0  0  0  0  0  0
   -0.1539   -0.1923   -2.5788 C   0  0  0  0  0  0  0  0  0  0  0  0
   -0.7901    3.4075   -1.9346 C   0  0  0  0  0  0  0  0  0  0  0  0
   -0.8129    3.7904   -3.2896 C   0  0  0  0  0  0  0  0  0  0  0  0
   -0.9350    5.1361   -3.6467 C   0  0  0  0  0  0  0  0  0  0  0  0
   -1.0536    6.1143   -2.6561 C   0  0  0  0  0  0  0  0  0  0  0  0
   -1.1684    7.8446   -3.1199 S   0  0  0  0  0  0  0  0  0  0  0  0
   -2.9736    7.7968   -3.3574 C   0  0  0  0  0  0  0  0  0  0  0  0
   -1.0387    5.7471   -1.3055 C   0  0  0  0  0  0  0  0  0  0  0  0
   -0.8948    4.4054   -0.9437 C   0  0  0  0  0  0  0  0  0  0  0  0
   -0.1560    1.0819    0.6571 C   0  0  0  0  0  0  0  0  0  0  0  0
    1.4937    1.3158    0.8222 S   0  0  0  0  0  0  0  0  0  0  0  0
   -3.5028    1.0828   -0.9574 C   0  0  0  0  0  0  0  0  0  0  0  0
   -4.0552    0.0321   -1.7021 C   0  0  0  0  0  0  0  0  0  0  0  0
   -5.1292    0.2507   -2.5966 C   0  0  0  0  0  0  0  0  0  0  0  0
   -5.5683   -0.9178   -3.2988 N   0  0  0  0  0  0  0  0  0  0  0  0
   -4.5674   -2.0110   -2.7026 S   0  0  0  0  0  4  0  0  0  0  0  0
   -3.5859   -1.3223   -1.6540 N   0  0  0  0  0  0  0  0  0  0  0  0
   -5.6824    1.5296   -2.7775 C   0  0  0  0  0  0  0  0  0  0  0  0
   -5.2105    2.5636   -1.9622 C   0  0  0  0  0  0  0  0  0  0  0  0
   -5.7189    3.8227   -2.0037 N   0  0  0  0  0  0  0  0  0  0  0  0
   -4.7556    4.5746   -0.8909 S   0  0  0  0  0  0  0  0  0  0  0  0
   -3.7149    3.4185   -0.3333 N   0  0  0  0  0  0  0  0  0  0  0  0
   -4.1153    2.3454   -1.0633 C   0  0  0  0  0  0  0  0  0  0  0  0
   -6.7174    1.7726   -3.8036 C   0  0  0  0  0  0  0  0  0  0  0  0
   -6.4984    1.5391   -5.1118 C   0  0  0  0  0  0  0  0  0  0  0  0
   -7.5636    1.2532   -6.0650 C   0  0  0  0  0  0  0  0  0  0  0  0
   -8.7666    1.6067   -5.9482 O   0  0  0  0  0  0  0  0  0  0  0  0
   -6.9796    0.5357   -7.1948 C   0  0  0  0  0  0  0  0  0  0  0  0
   -5.6094    0.4277   -7.0038 C   0  0  0  0  0  0  0  0  0  0  0  0
   -4.7984   -0.1140   -8.0157 C   0  0  0  0  0  0  0  0  0  0  0  0
   -5.4005   -0.6039   -9.1803 C   0  0  0  0  0  0  0  0  0  0  0  0
   -6.7966   -0.5431   -9.3450 C   0  0  0  0  0  0  0  0  0  0  0  0
   -7.5465   -1.2506  -10.9541 Br  0  0  0  0  0  0  0  0  0  0  0  0
   -7.6082    0.0313   -8.3409 C   0  0  0  0  0  0  0  0  0  0  0  0
   -9.3566    0.1274   -8.5241 Cl  0  0  0  0  0  0  0  0  0  0  0  0
   -5.2227    1.1161   -5.7461 C   0  0  0  0  0  0  0  0  0  0  0  0
   -4.0029    1.6137   -5.4591 C   0  0  0  0  0  0  0  0  0  0  0  0
   -3.8744    2.9338   -4.8989 C   0  0  0  0  0  0  0  0  0  0  0  0
   -3.7600    4.0119   -4.5156 N   0  0  0  0  0  0  0  0  0  0  0  0
   -2.7884    0.9429   -5.8357 C   0  0  0  0  0  0  0  0  0  0  0  0
   -1.8072    0.4003   -6.1266 N   0  0  0  0  0  0  0  0  0  0  0  0
    7.5189   -0.3737    4.3769 H   0  0  0  0  0  0  0  0  0  0  0  0
    8.9227   -3.7110    9.3280 H   0  0  0  0  0  0  0  0  0  0  0  0
    9.8377   -2.3444    8.6096 H   0  0  0  0  0  0  0  0  0  0  0  0
   10.4234   -3.7587    6.6240 H   0  0  0  0  0  0  0  0  0  0  0  0
   10.9763   -4.5252    8.1645 H   0  0  0  0  0  0  0  0  0  0  0  0
    9.4948   -5.1433    7.3397 H   0  0  0  0  0  0  0  0  0  0  0  0
    0.2611   -1.5596    5.2765 H   0  0  0  0  0  0  0  0  0  0  0  0
   -1.4173   -2.4853    6.8256 H   0  0  0  0  0  0  0  0  0  0  0  0
   -1.8635   -5.5916    7.0173 H   0  0  0  0  0  0  0  0  0  0  0  0
   -3.4341   -6.4692    7.1372 H   0  0  0  0  0  0  0  0  0  0  0  0
   -2.6926   -6.2058    5.5128 H   0  0  0  0  0  0  0  0  0  0  0  0
   -3.4964   -4.2700    3.5034 H   0  0  0  0  0  0  0  0  0  0  0  0
   -1.8214   -3.3345    1.9509 H   0  0  0  0  0  0  0  0  0  0  0  0
    0.2674   -2.3526   -0.0426 H   0  0  0  0  0  0  0  0  0  0  0  0
    1.6583   -3.9250   -1.3301 H   0  0  0  0  0  0  0  0  0  0  0  0
    5.8084   -5.0689   -1.5190 H   0  0  0  0  0  0  0  0  0  0  0  0
    5.5534   -4.3661    0.1267 H   0  0  0  0  0  0  0  0  0  0  0  0
    4.6597   -3.6981   -1.3063 H   0  0  0  0  0  0  0  0  0  0  0  0
    3.6022   -5.1880    2.3007 H   0  0  0  0  0  0  0  0  0  0  0  0
    2.1846   -3.6322    3.6028 H   0  0  0  0  0  0  0  0  0  0  0  0
    1.8456    2.5691   -2.4894 H   0  0  0  0  0  0  0  0  0  0  0  0
    3.4639    0.9533   -3.4068 H   0  0  0  0  0  0  0  0  0  0  0  0
    3.8812   -2.1245   -6.2008 H   0  0  0  0  0  0  0  0  0  0  0  0
    2.1072   -2.3302   -5.9300 H   0  0  0  0  0  0  0  0  0  0  0  0
    2.8523   -0.6727   -5.9209 H   0  0  0  0  0  0  0  0  0  0  0  0
    0.4719   -2.1471   -3.2286 H   0  0  0  0  0  0  0  0  0  0  0  0
   -1.1466   -0.5285   -2.3194 H   0  0  0  0  0  0  0  0  0  0  0  0
   -0.7531    3.0401   -4.0723 H   0  0  0  0  0  0  0  0  0  0  0  0
   -0.9534    5.4088   -4.6938 H   0  0  0  0  0  0  0  0  0  0  0  0
   -3.3403    8.8197   -3.5790 H   0  0  0  0  0  0  0  0  0  0  0  0
   -3.4782    7.4233   -2.4379 H   0  0  0  0  0  0  0  0  0  0  0  0
   -3.2185    7.1363   -4.2128 H   0  0  0  0  0  0  0  0  0  0  0  0
   -1.1167    6.5048   -0.5343 H   0  0  0  0  0  0  0  0  0  0  0  0
   -0.8495    4.1488    0.1065 H   0  0  0  0  0  0  0  0  0  0  0  0
   -7.7244    1.9962   -3.4553 H   0  0  0  0  0  0  0  0  0  0  0  0
   -3.7282   -0.1530   -7.9302 H   0  0  0  0  0  0  0  0  0  0  0  0
   -4.7779   -1.0181   -9.9642 H   0  0  0  0  0  0  0  0  0  0  0  0
  1  2  2  3
  2  3  1  0
  3  4  1  0
  4  5  2  0
  4  6  1  0
  6  7  1  0
  7  8  1  0
  6  9  1  0
  9 10  2  0
  1 11  1  0
 11 12  2  0
 12 13  1  0
 13 14  1  0
 14 15  2  0
 15 16  2  0
 13 17  2  0
 17 18  1  0
 18 19  2  0
 19 20  1  0
 20 21  1  0
 21 22  2  0
 17 23  1  0
 23 24  2  0
 24 25  1  0
 25 26  1  0
 26 27  2  0
 27 28  1  0
 28 29  2  0
 29 30  1  0
 30 31  1  0
 29 32  1  0
 32 33  2  0
 25 34  1  0
 34 35  2  0
 35 36  1  0
 36 37  2  0
 37 38  1  0
 38 39  1  0
 37 40  1  0
 40 41  2  0
 24 42  1  0
 42 43  1  0
 43 44  1  0
 44 45  2  0
 45 46  1  0
 46 47  1  0
 47 48  2  0
 48 49  1  0
 49 50  2  0
 50 51  1  0
 51 52  1  0
 50 53  1  0
 53 54  2  0
 46 55  1  0
 55 56  2  0
 56 57  1  0
 57 58  2  0
 58 59  1  0
 59 60  1  0
 58 61  1  0
 61 62  2  0
 45 63  1  0
 63 64  1  0
 44 65  1  0
 65 66  2  0
 66 67  1  0
 67 68  1  0
 68 69  2  0
 69 70  2  0
 67 71  2  0
 71 72  1  0
 72 73  2  0
 73 74  1  0
 74 75  1  0
 75 76  2  0
 71 77  1  0
 77 78  2  3
 78 79  1  0
 79 80  2  0
 79 81  1  0
 81 82  2  0
 82 83  1  0
 83 84  2  0
 84 85  1  0
 85 86  1  0
 85 87  2  0
 87 88  1  0
 82 89  1  0
 89 90  2  3
 90 91  1  0
 91 92  3  0
 90 93  1  0
 93 94  3  0
  9  2  1  0
 22 11  1  0
 64 23  1  0
 76 65  1  0
 89 78  1  0
 16 12  1  0
 22 18  1  0
 33 26  1  0
 41 34  1  0
 63 42  2  0
 70 66  1  0
 76 72  1  0
 87 81  1  0
 54 47  1  0
 62 55  1  0
  1 95  1  0
  7 96  1  0
  7 97  1  0
  8 98  1  0
  8 99  1  0
  8100  1  0
 27101  1  0
 28102  1  0
 31103  1  0
 31104  1  0
 31105  1  0
 32106  1  0
 33107  1  0
 35108  1  0
 36109  1  0
 39110  1  0
 39111  1  0
 39112  1  0
 40113  1  0
 41114  1  0
 48115  1  0
 49116  1  0
 52117  1  0
 52118  1  0
 52119  1  0
 53120  1  0
 54121  1  0
 56122  1  0
 57123  1  0
 60124  1  0
 60125  1  0
 60126  1  0
 61127  1  0
 62128  1  0
 77129  1  0
 83130  1  0
 84131  1  0
M  END

