
     RDKit          3D

183198  0  0  0  0  0  0  0  0999 V2000
    4.4179   -2.9603    8.1947 C   0  0  0  0  0  0  0  0  0  0  0  0
    5.7535   -3.1299    8.2605 C   0  0  0  0  0  0  0  0  0  0  0  0
    6.9131   -3.2386    6.8587 S   0  0  0  0  0  0  0  0  0  0  0  0
    7.8362   -1.9730    7.7908 C   0  0  0  0  0  0  0  0  0  0  0  0
    7.7480   -0.4287    7.2505 S   0  0  0  0  0  0  0  0  0  0  0  0
    7.7077   -2.1954    9.1915 N   0  0  0  0  0  0  0  0  0  0  0  0
    8.7247   -1.8375   10.1992 C   0  0  0  0  0  0  0  0  0  0  0  0
    8.4396   -0.4385   10.7423 C   0  0  0  0  0  0  0  0  0  0  0  0
    6.4985   -2.8369    9.4863 C   0  0  0  0  0  0  0  0  0  0  0  0
    6.0053   -2.9357   10.6486 O   0  0  0  0  0  0  0  0  0  0  0  0
    3.6078   -2.9189    6.9471 C   0  0  0  0  0  0  0  0  0  0  0  0
    2.3410   -3.5539    6.9062 C   0  0  0  0  0  0  0  0  0  0  0  0
    1.5494   -3.5399    5.7422 C   0  0  0  0  0  0  0  0  0  0  0  0
    0.3231   -4.1398    5.7752 F   0  0  0  0  0  0  0  0  0  0  0  0
    1.9729   -2.8640    4.5764 C   0  0  0  0  0  0  0  0  0  0  0  0
    3.2220   -2.2296    4.5953 C   0  0  0  0  0  0  0  0  0  0  0  0
    4.0064   -2.1937    5.7975 C   0  0  0  0  0  0  0  0  0  0  0  0
    5.0570   -1.3418    5.8029 N   0  0  0  0  0  0  0  0  0  0  0  0
    5.0172   -0.8226    4.2305 S   0  0  0  0  0  0  0  0  0  0  0  0
    3.6806   -1.5070    3.5310 N   0  0  0  0  0  0  0  0  0  0  0  0
    1.0994   -2.7393    3.3839 C   0  0  0  0  0  0  0  0  0  0  0  0
    1.4560   -3.0184    2.0441 C   0  0  0  0  0  0  0  0  0  0  0  0
    2.5543   -3.9096    1.6658 N   0  0  0  0  0  0  0  0  0  0  0  0
    2.8148   -4.3011    0.3066 C   0  0  0  0  0  0  0  0  0  0  0  0
    4.1127   -4.4062   -0.1982 C   0  0  0  0  0  0  0  0  0  0  0  0
    4.3495   -4.9909   -1.4451 C   0  0  0  0  0  0  0  0  0  0  0  0
    3.2705   -5.4040   -2.2606 C   0  0  0  0  0  0  0  0  0  0  0  0
    3.5587   -6.1894   -3.8451 S   0  0  0  0  0  0  0  0  0  0  0  0
    4.1362   -4.6667   -4.6799 C   0  0  0  0  0  0  0  0  0  0  0  0
    1.9740   -5.2940   -1.7602 C   0  0  0  0  0  0  0  0  0  0  0  0
    1.7468   -4.8345   -0.4548 C   0  0  0  0  0  0  0  0  0  0  0  0
    3.0871   -4.8312    2.6390 C   0  0  0  0  0  0  0  0  0  0  0  0
    4.4454   -4.8376    2.9857 C   0  0  0  0  0  0  0  0  0  0  0  0
    4.9674   -5.7834    3.8787 C   0  0  0  0  0  0  0  0  0  0  0  0
    4.1038   -6.6696    4.5599 C   0  0  0  0  0  0  0  0  0  0  0  0
    4.7802   -8.0122    5.5539 S   0  0  0  0  0  0  0  0  0  0  0  0
    5.0061   -7.0377    7.0889 C   0  0  0  0  0  0  0  0  0  0  0  0
    2.7286   -6.6346    4.2719 C   0  0  0  0  0  0  0  0  0  0  0  0
    2.2196   -5.7272    3.3249 C   0  0  0  0  0  0  0  0  0  0  0  0
    0.5632   -2.3759    1.1634 C   0  0  0  0  0  0  0  0  0  0  0  0
    0.4305   -2.0841   -0.4889 S   0  0  0  0  0  0  0  0  0  0  0  0
   -0.9843   -1.1441   -0.4446 C   0  0  0  0  0  0  0  0  0  0  0  0
   -1.3530   -1.0185    0.9155 C   0  0  0  0  0  0  0  0  0  0  0  0
   -2.4044   -0.1799    1.4062 N   0  0  0  0  0  0  0  0  0  0  0  0
   -2.0645    0.8682    2.3493 C   0  0  0  0  0  0  0  0  0  0  0  0
   -1.1247    1.8457    1.9858 C   0  0  0  0  0  0  0  0  0  0  0  0
   -0.8053    2.8671    2.8834 C   0  0  0  0  0  0  0  0  0  0  0  0
   -1.3988    2.9192    4.1501 C   0  0  0  0  0  0  0  0  0  0  0  0
   -1.0670    4.2979    5.2431 S   0  0  0  0  0  0  0  0  0  0  0  0
    0.3400    3.5077    6.0901 C   0  0  0  0  0  0  0  0  0  0  0  0
   -2.3679    1.9539    4.4923 C   0  0  0  0  0  0  0  0  0  0  0  0
   -2.6984    0.9298    3.6027 C   0  0  0  0  0  0  0  0  0  0  0  0
   -3.7857   -0.5448    1.2022 C   0  0  0  0  0  0  0  0  0  0  0  0
   -4.7853    0.4400    1.2627 C   0  0  0  0  0  0  0  0  0  0  0  0
   -6.1328    0.0880    1.2918 C   0  0  0  0  0  0  0  0  0  0  0  0
   -6.5231   -1.2519    1.1921 C   0  0  0  0  0  0  0  0  0  0  0  0
   -8.2932   -1.6354    1.0446 S   0  0  0  0  0  0  0  0  0  0  0  0
   -8.3987   -2.8183    2.4272 C   0  0  0  0  0  0  0  0  0  0  0  0
   -5.5354   -2.2410    1.0892 C   0  0  0  0  0  0  0  0  0  0  0  0
   -4.1670   -1.9017    1.1231 C   0  0  0  0  0  0  0  0  0  0  0  0
   -0.4734   -1.7112    1.7709 C   0  0  0  0  0  0  0  0  0  0  0  0
   -0.3140   -1.7785    3.4496 S   0  0  0  0  0  0  0  0  0  0  0  0
   -1.4805   -0.3528   -1.5884 C   0  0  0  0  0  0  0  0  0  0  0  0
   -0.7371    0.6424   -2.2714 C   0  0  0  0  0  0  0  0  0  0  0  0
    0.6691    0.9350   -2.0280 N   0  0  0  0  0  0  0  0  0  0  0  0
    1.6782    0.4702   -2.9475 C   0  0  0  0  0  0  0  0  0  0  0  0
    2.5358   -0.5881   -2.6067 C   0  0  0  0  0  0  0  0  0  0  0  0
    3.4624   -1.0721   -3.5293 C   0  0  0  0  0  0  0  0  0  0  0  0
    3.5731   -0.4915   -4.7922 C   0  0  0  0  0  0  0  0  0  0  0  0
    4.7776   -1.1211   -5.9592 S   0  0  0  0  0  0  0  0  0  0  0  0
    3.5545   -1.8067   -7.1384 C   0  0  0  0  0  0  0  0  0  0  0  0
    2.7402    0.5877   -5.1259 C   0  0  0  0  0  0  0  0  0  0  0  0
    1.8049    1.0664   -4.2209 C   0  0  0  0  0  0  0  0  0  0  0  0
    1.0695    1.8855   -1.0289 C   0  0  0  0  0  0  0  0  0  0  0  0
    2.0771    1.5880   -0.1115 C   0  0  0  0  0  0  0  0  0  0  0  0
    2.5447    2.5442    0.7855 C   0  0  0  0  0  0  0  0  0  0  0  0
    2.0021    3.8520    0.7694 C   0  0  0  0  0  0  0  0  0  0  0  0
    2.4821    5.0506    2.0236 S   0  0  0  0  0  0  0  0  0  0  0  0
    3.9514    5.6833    1.1303 C   0  0  0  0  0  0  0  0  0  0  0  0
    0.9723    4.1488   -0.1305 C   0  0  0  0  0  0  0  0  0  0  0  0
    0.4958    3.1744   -1.0205 C   0  0  0  0  0  0  0  0  0  0  0  0
   -1.5064    1.2406   -3.2812 C   0  0  0  0  0  0  0  0  0  0  0  0
   -1.2557    2.5442   -4.2929 S   0  0  0  0  0  0  0  0  0  0  0  0
   -2.7647    2.5110   -5.0806 C   0  0  0  0  0  0  0  0  0  0  0  0
   -3.4920    1.3916   -4.5434 C   0  0  0  0  0  0  0  0  0  0  0  0
   -4.6933    0.8843   -5.1608 N   0  0  0  0  0  0  0  0  0  0  0  0
   -4.8838    1.0296   -6.5892 C   0  0  0  0  0  0  0  0  0  0  0  0
   -6.1441    1.3583   -7.0964 C   0  0  0  0  0  0  0  0  0  0  0  0
   -6.3086    1.6315   -8.4762 C   0  0  0  0  0  0  0  0  0  0  0  0
   -5.2047    1.6339   -9.3295 C   0  0  0  0  0  0  0  0  0  0  0  0
   -5.3964    2.1738  -11.0400 S   0  0  0  0  0  0  0  0  0  0  0  0
   -5.2671    0.4873  -11.7352 C   0  0  0  0  0  0  0  0  0  0  0  0
   -3.9503    1.2677   -8.8296 C   0  0  0  0  0  0  0  0  0  0  0  0
   -3.7888    0.9080   -7.4832 C   0  0  0  0  0  0  0  0  0  0  0  0
   -5.6207    0.0637   -4.4273 C   0  0  0  0  0  0  0  0  0  0  0  0
   -6.1967   -1.0595   -5.0583 C   0  0  0  0  0  0  0  0  0  0  0  0
   -7.1711   -1.8206   -4.4055 C   0  0  0  0  0  0  0  0  0  0  0  0
   -7.5826   -1.4922   -3.1187 C   0  0  0  0  0  0  0  0  0  0  0  0
   -8.9447   -2.4019   -2.3746 S   0  0  0  0  0  0  0  0  0  0  0  0
   -7.9059   -3.7303   -1.6690 C   0  0  0  0  0  0  0  0  0  0  0  0
   -7.0297   -0.3578   -2.4837 C   0  0  0  0  0  0  0  0  0  0  0  0
   -6.0663    0.4190   -3.1418 C   0  0  0  0  0  0  0  0  0  0  0  0
   -2.7524    0.7424   -3.5002 C   0  0  0  0  0  0  0  0  0  0  0  0
   -2.9805   -0.5374   -2.3811 S   0  0  0  0  0  0  0  0  0  0  0  0
   -3.2516    3.5597   -6.0499 C   0  0  0  0  0  0  0  0  0  0  0  0
   -2.6116    4.7179   -6.3082 C   0  0  0  0  0  0  0  0  0  0  0  0
   -1.1955    5.3023   -5.3555 S   0  0  0  0  0  0  0  0  0  0  0  0
   -2.4429    6.3083   -4.5364 C   0  0  0  0  0  0  0  0  0  0  0  0
   -3.0047    5.5204   -3.2383 S   0  0  0  0  0  0  0  0  0  0  0  0
   -3.3783    6.8265   -5.4832 N   0  0  0  0  0  0  0  0  0  0  0  0
   -3.6459    8.2705   -5.5832 C   0  0  0  0  0  0  0  0  0  0  0  0
   -2.5127    8.9748   -6.3325 C   0  0  0  0  0  0  0  0  0  0  0  0
   -3.4143    5.9437   -6.5901 C   0  0  0  0  0  0  0  0  0  0  0  0
   -4.1450    6.0831   -7.6120 O   0  0  0  0  0  0  0  0  0  0  0  0
    3.8521   -2.8176    9.1060 H   0  0  0  0  0  0  0  0  0  0  0  0
    9.7297   -1.8708    9.7476 H   0  0  0  0  0  0  0  0  0  0  0  0
    8.6861   -2.5746   11.0359 H   0  0  0  0  0  0  0  0  0  0  0  0
    8.5413    0.3037    9.9142 H   0  0  0  0  0  0  0  0  0  0  0  0
    7.4183   -0.3966   11.1692 H   0  0  0  0  0  0  0  0  0  0  0  0
    9.1765   -0.2035   11.5343 H   0  0  0  0  0  0  0  0  0  0  0  0
    1.9627   -4.0572    7.7983 H   0  0  0  0  0  0  0  0  0  0  0  0
    4.9629   -4.0594    0.3884 H   0  0  0  0  0  0  0  0  0  0  0  0
    5.3844   -5.1210   -1.7717 H   0  0  0  0  0  0  0  0  0  0  0  0
    3.3969   -3.8425   -4.5568 H   0  0  0  0  0  0  0  0  0  0  0  0
    4.2426   -4.8634   -5.7686 H   0  0  0  0  0  0  0  0  0  0  0  0
    5.1440   -4.3633   -4.2877 H   0  0  0  0  0  0  0  0  0  0  0  0
    1.1256   -5.6487   -2.3497 H   0  0  0  0  0  0  0  0  0  0  0  0
    0.7287   -4.8476   -0.0608 H   0  0  0  0  0  0  0  0  0  0  0  0
    5.1146   -4.1027    2.5346 H   0  0  0  0  0  0  0  0  0  0  0  0
    6.0322   -5.7989    4.0696 H   0  0  0  0  0  0  0  0  0  0  0  0
    5.8049   -6.2631    6.9713 H   0  0  0  0  0  0  0  0  0  0  0  0
    5.3369   -7.7317    7.8980 H   0  0  0  0  0  0  0  0  0  0  0  0
    4.0569   -6.5509    7.4244 H   0  0  0  0  0  0  0  0  0  0  0  0
    2.0318   -7.3137    4.7645 H   0  0  0  0  0  0  0  0  0  0  0  0
    1.1351   -5.6894    3.1380 H   0  0  0  0  0  0  0  0  0  0  0  0
   -0.6645    1.7923    1.0053 H   0  0  0  0  0  0  0  0  0  0  0  0
   -0.0962    3.6250    2.5727 H   0  0  0  0  0  0  0  0  0  0  0  0
    0.0352    2.5590    6.6059 H   0  0  0  0  0  0  0  0  0  0  0  0
    1.1753    3.2922    5.3752 H   0  0  0  0  0  0  0  0  0  0  0  0
    0.7377    4.1991    6.8581 H   0  0  0  0  0  0  0  0  0  0  0  0
   -2.8670    2.0000    5.4509 H   0  0  0  0  0  0  0  0  0  0  0  0
   -3.4275    0.1656    3.8875 H   0  0  0  0  0  0  0  0  0  0  0  0
   -4.5058    1.4786    1.3549 H   0  0  0  0  0  0  0  0  0  0  0  0
   -6.8769    0.8884    1.3033 H   0  0  0  0  0  0  0  0  0  0  0  0
   -8.5075   -3.8471    1.9968 H   0  0  0  0  0  0  0  0  0  0  0  0
   -9.3021   -2.5850    3.0201 H   0  0  0  0  0  0  0  0  0  0  0  0
   -7.5115   -2.8165    3.1051 H   0  0  0  0  0  0  0  0  0  0  0  0
   -5.8361   -3.2841    1.0218 H   0  0  0  0  0  0  0  0  0  0  0  0
   -3.4303   -2.7145    1.1614 H   0  0  0  0  0  0  0  0  0  0  0  0
    2.5182   -1.0372   -1.6391 H   0  0  0  0  0  0  0  0  0  0  0  0
    4.1502   -1.8569   -3.2084 H   0  0  0  0  0  0  0  0  0  0  0  0
    2.4936   -1.7801   -6.7739 H   0  0  0  0  0  0  0  0  0  0  0  0
    3.6025   -1.1901   -8.0720 H   0  0  0  0  0  0  0  0  0  0  0  0
    3.8083   -2.8579   -7.3798 H   0  0  0  0  0  0  0  0  0  0  0  0
    2.8111    1.0637   -6.0952 H   0  0  0  0  0  0  0  0  0  0  0  0
    1.2302    1.9421   -4.4962 H   0  0  0  0  0  0  0  0  0  0  0  0
    2.5221    0.5904   -0.0722 H   0  0  0  0  0  0  0  0  0  0  0  0
    3.3208    2.2802    1.4911 H   0  0  0  0  0  0  0  0  0  0  0  0
    4.8575    5.0938    1.4005 H   0  0  0  0  0  0  0  0  0  0  0  0
    3.8291    5.6842    0.0145 H   0  0  0  0  0  0  0  0  0  0  0  0
    4.1402    6.7279    1.4577 H   0  0  0  0  0  0  0  0  0  0  0  0
    0.5184    5.1383   -0.1484 H   0  0  0  0  0  0  0  0  0  0  0  0
   -0.2841    3.4405   -1.7344 H   0  0  0  0  0  0  0  0  0  0  0  0
   -7.0024    1.4115   -6.4353 H   0  0  0  0  0  0  0  0  0  0  0  0
   -7.2942    1.9119   -8.8272 H   0  0  0  0  0  0  0  0  0  0  0  0
   -5.5560    0.5030  -12.8100 H   0  0  0  0  0  0  0  0  0  0  0  0
   -5.9397   -0.2266  -11.1953 H   0  0  0  0  0  0  0  0  0  0  0  0
   -4.2051    0.1300  -11.6738 H   0  0  0  0  0  0  0  0  0  0  0  0
   -3.0713    1.2532   -9.4735 H   0  0  0  0  0  0  0  0  0  0  0  0
   -2.7991    0.6052   -7.1255 H   0  0  0  0  0  0  0  0  0  0  0  0
   -5.9007   -1.3226   -6.0821 H   0  0  0  0  0  0  0  0  0  0  0  0
   -7.6114   -2.6403   -4.9502 H   0  0  0  0  0  0  0  0  0  0  0  0
   -7.6184   -4.4879   -2.4355 H   0  0  0  0  0  0  0  0  0  0  0  0
   -6.9871   -3.3359   -1.1723 H   0  0  0  0  0  0  0  0  0  0  0  0
   -8.4995   -4.2603   -0.8926 H   0  0  0  0  0  0  0  0  0  0  0  0
   -7.3576   -0.0659   -1.4900 H   0  0  0  0  0  0  0  0  0  0  0  0
   -5.6441    1.3104   -2.6478 H   0  0  0  0  0  0  0  0  0  0  0  0
   -4.2565    3.4564   -6.4198 H   0  0  0  0  0  0  0  0  0  0  0  0
   -3.7040    8.6928   -4.5537 H   0  0  0  0  0  0  0  0  0  0  0  0
   -4.6176    8.4086   -6.0877 H   0  0  0  0  0  0  0  0  0  0  0  0
   -1.5220    8.8624   -5.8250 H   0  0  0  0  0  0  0  0  0  0  0  0
   -2.7634   10.0627   -6.3746 H   0  0  0  0  0  0  0  0  0  0  0  0
   -2.4501    8.6153   -7.3725 H   0  0  0  0  0  0  0  0  0  0  0  0
  1  2  2  3
  2  3  1  0
  3  4  1  0
  4  5  2  0
  4  6  1  0
  6  7  1  0
  7  8  1  0
  6  9  1  0
  9 10  2  0
  1 11  1  0
 11 12  2  0
 12 13  1  0
 13 14  1  0
 13 15  2  0
 15 16  1  0
 16 17  1  0
 17 18  2  0
 18 19  1  0
 19 20  1  0
 15 21  1  0
 21 22  2  0
 22 23  1  0
 23 24  1  0
 24 25  2  0
 25 26  1  0
 26 27  2  0
 27 28  1  0
 28 29  1  0
 27 30  1  0
 30 31  2  0
 23 32  1  0
 32 33  2  0
 33 34  1  0
 34 35  2  0
 35 36  1  0
 36 37  1  0
 35 38  1  0
 38 39  2  0
 22 40  1  0
 40 41  1  0
 41 42  1  0
 42 43  2  0
 43 44  1  0
 44 45  1  0
 45 46  2  0
 46 47  1  0
 47 48  2  0
 48 49  1  0
 49 50  1  0
 48 51  1  0
 51 52  2  0
 44 53  1  0
 53 54  2  0
 54 55  1  0
 55 56  2  0
 56 57  1  0
 57 58  1  0
 56 59  1  0
 59 60  2  0
 43 61  1  0
 61 62  1  0
 42 63  1  0
 63 64  2  0
 64 65  1  0
 65 66  1  0
 66 67  2  0
 67 68  1  0
 68 69  2  0
 69 70  1  0
 70 71  1  0
 69 72  1  0
 72 73  2  0
 65 74  1  0
 74 75  2  0
 75 76  1  0
 76 77  2  0
 77 78  1  0
 78 79  1  0
 77 80  1  0
 80 81  2  0
 64 82  1  0
 82 83  1  0
 83 84  1  0
 84 85  2  0
 85 86  1  0
 86 87  1  0
 87 88  2  0
 88 89  1  0
 89 90  2  0
 90 91  1  0
 91 92  1  0
 90 93  1  0
 93 94  2  0
 86 95  1  0
 95 96  2  0
 96 97  1  0
 97 98  2  0
 98 99  1  0
 99100  1  0
 98101  1  0
101102  2  0
 85103  1  0
103104  1  0
 84105  1  0
105106  2  3
106107  1  0
107108  1  0
108109  2  0
108110  1  0
110111  1  0
111112  1  0
110113  1  0
113114  2  0
  9  2  1  0
 17 11  1  0
 62 21  1  0
104 63  1  0
113106  1  0
 20 16  2  0
 31 24  1  0
 39 32  1  0
 61 40  2  0
 73 66  1  0
 81 74  1  0
103 82  2  0
 52 45  1  0
 60 53  1  0
 94 87  1  0
102 95  1  0
  1115  1  0
  7116  1  0
  7117  1  0
  8118  1  0
  8119  1  0
  8120  1  0
 12121  1  0
 25122  1  0
 26123  1  0
 29124  1  0
 29125  1  0
 29126  1  0
 30127  1  0
 31128  1  0
 33129  1  0
 34130  1  0
 37131  1  0
 37132  1  0
 37133  1  0
 38134  1  0
 39135  1  0
 46136  1  0
 47137  1  0
 50138  1  0
 50139  1  0
 50140  1  0
 51141  1  0
 52142  1  0
 54143  1  0
 55144  1  0
 58145  1  0
 58146  1  0
 58147  1  0
 59148  1  0
 60149  1  0
 67150  1  0
 68151  1  0
 71152  1  0
 71153  1  0
 71154  1  0
 72155  1  0
 73156  1  0
 75157  1  0
 76158  1  0
 79159  1  0
 79160  1  0
 79161  1  0
 80162  1  0
 81163  1  0
 88164  1  0
 89165  1  0
 92166  1  0
 92167  1  0
 92168  1  0
 93169  1  0
 94170  1  0
 96171  1  0
 97172  1  0
100173  1  0
100174  1  0
100175  1  0
101176  1  0
102177  1  0
105178  1  0
111179  1  0
111180  1  0
112181  1  0
112182  1  0
112183  1  0
M  END

