
     RDKit          3D

234253  0  0  0  0  0  0  0  0999 V2000
   -1.8203   -6.4091    7.2072 C   0  0  0  0  0  0  0  0  0  0  0  0
   -0.9505   -7.3210    7.6594 C   0  0  0  0  0  0  0  0  0  0  0  0
   -1.1835   -8.1289    9.2438 S   0  0  0  0  0  0  0  0  0  0  0  0
    0.5463   -8.6272    9.1660 C   0  0  0  0  0  0  0  0  0  0  0  0
    1.4482   -8.6385   10.5319 S   0  0  0  0  0  0  0  0  0  0  0  0
    1.1442   -8.4879    7.8740 N   0  0  0  0  0  0  0  0  0  0  0  0
    2.4992   -8.9151    7.5206 C   0  0  0  0  0  0  0  0  0  0  0  0
    3.4672   -7.7387    7.5919 C   0  0  0  0  0  0  0  0  0  0  0  0
    0.2880   -7.7568    7.0096 C   0  0  0  0  0  0  0  0  0  0  0  0
    0.5546   -7.5730    5.7917 O   0  0  0  0  0  0  0  0  0  0  0  0
   -1.5988   -5.5409    6.0396 C   0  0  0  0  0  0  0  0  0  0  0  0
   -2.5922   -5.1638    5.1277 C   0  0  0  0  0  0  0  0  0  0  0  0
   -3.9415   -5.6522    5.1335 N   0  0  0  0  0  0  0  0  0  0  0  0
   -5.0368   -4.7645    5.4741 C   0  0  0  0  0  0  0  0  0  0  0  0
   -6.3402   -5.0100    4.9998 C   0  0  0  0  0  0  0  0  0  0  0  0
   -7.3950   -4.1570    5.3412 C   0  0  0  0  0  0  0  0  0  0  0  0
   -7.1603   -3.0281    6.1408 C   0  0  0  0  0  0  0  0  0  0  0  0
   -8.2966   -2.1418    6.5515 C   0  0  0  0  0  0  0  0  0  0  0  0
   -5.8671   -2.7733    6.6098 C   0  0  0  0  0  0  0  0  0  0  0  0
   -4.8144   -3.6327    6.2828 C   0  0  0  0  0  0  0  0  0  0  0  0
   -4.1694   -7.0081    4.7097 C   0  0  0  0  0  0  0  0  0  0  0  0
   -3.6358   -7.4681    3.4952 C   0  0  0  0  0  0  0  0  0  0  0  0
   -3.8661   -8.7837    3.0772 C   0  0  0  0  0  0  0  0  0  0  0  0
   -4.6156   -9.6600    3.8771 C   0  0  0  0  0  0  0  0  0  0  0  0
   -4.8322  -11.0755    3.4303 C   0  0  0  0  0  0  0  0  0  0  0  0
   -5.1251   -9.2066    5.1057 C   0  0  0  0  0  0  0  0  0  0  0  0
   -4.9092   -7.8876    5.5164 C   0  0  0  0  0  0  0  0  0  0  0  0
   -2.1262   -4.2164    4.2333 C   0  0  0  0  0  0  0  0  0  0  0  0
   -2.7894   -3.4257    2.9265 S   0  0  0  0  0  0  0  0  0  0  0  0
   -1.3870   -2.5258    2.5746 C   0  0  0  0  0  0  0  0  0  0  0  0
   -0.3869   -2.8686    3.5079 C   0  0  0  0  0  0  0  0  0  0  0  0
    0.8803   -2.2020    3.6398 N   0  0  0  0  0  0  0  0  0  0  0  0
    2.0435   -2.6896    2.9279 C   0  0  0  0  0  0  0  0  0  0  0  0
    2.1354   -4.0386    2.5297 C   0  0  0  0  0  0  0  0  0  0  0  0
    3.2432   -4.4920    1.8081 C   0  0  0  0  0  0  0  0  0  0  0  0
    4.2924   -3.6160    1.4951 C   0  0  0  0  0  0  0  0  0  0  0  0
    5.4657   -4.0856    0.6870 C   0  0  0  0  0  0  0  0  0  0  0  0
    4.2057   -2.2748    1.8858 C   0  0  0  0  0  0  0  0  0  0  0  0
    3.0863   -1.8110    2.5769 C   0  0  0  0  0  0  0  0  0  0  0  0
    0.9686   -1.1010    4.5752 C   0  0  0  0  0  0  0  0  0  0  0  0
    2.0803   -0.9639    5.4236 C   0  0  0  0  0  0  0  0  0  0  0  0
    2.1598    0.1044    6.3206 C   0  0  0  0  0  0  0  0  0  0  0  0
    1.1302    1.0535    6.3853 C   0  0  0  0  0  0  0  0  0  0  0  0
    1.1957    2.1734    7.3810 C   0  0  0  0  0  0  0  0  0  0  0  0
    0.0027    0.8996    5.5668 C   0  0  0  0  0  0  0  0  0  0  0  0
   -0.0709   -0.1598    4.6633 C   0  0  0  0  0  0  0  0  0  0  0  0
   -0.8454   -3.8210    4.4154 C   0  0  0  0  0  0  0  0  0  0  0  0
   -0.1831   -4.6266    5.7323 S   0  0  0  0  0  0  0  0  0  0  0  0
   -1.2121   -1.6373    1.4085 C   0  0  0  0  0  0  0  0  0  0  0  0
   -2.1250   -0.6985    0.8600 C   0  0  0  0  0  0  0  0  0  0  0  0
   -3.5158   -0.5622    1.2116 N   0  0  0  0  0  0  0  0  0  0  0  0
   -4.4323   -1.6583    0.9880 C   0  0  0  0  0  0  0  0  0  0  0  0
   -5.5467   -1.8358    1.8315 C   0  0  0  0  0  0  0  0  0  0  0  0
   -6.3231   -2.9988    1.7412 C   0  0  0  0  0  0  0  0  0  0  0  0
   -6.0046   -3.9847    0.8049 C   0  0  0  0  0  0  0  0  0  0  0  0
   -6.8896   -5.5428    0.7876 S   0  0  0  0  0  0  0  0  0  0  0  0
   -8.1196   -4.9834   -0.4287 C   0  0  0  0  0  0  0  0  0  0  0  0
   -4.9356   -3.7878   -0.0786 C   0  0  0  0  0  0  0  0  0  0  0  0
   -4.1643   -2.6267    0.0005 C   0  0  0  0  0  0  0  0  0  0  0  0
   -4.0221    0.7425    1.5520 C   0  0  0  0  0  0  0  0  0  0  0  0
   -3.4744    1.4519    2.6281 C   0  0  0  0  0  0  0  0  0  0  0  0
   -3.9857    2.7044    2.9802 C   0  0  0  0  0  0  0  0  0  0  0  0
   -5.0268    3.2705    2.2369 C   0  0  0  0  0  0  0  0  0  0  0  0
   -5.6975    4.8732    2.6910 S   0  0  0  0  0  0  0  0  0  0  0  0
   -4.5630    5.8023    1.6119 C   0  0  0  0  0  0  0  0  0  0  0  0
   -5.5719    2.5692    1.1559 C   0  0  0  0  0  0  0  0  0  0  0  0
   -5.0766    1.3084    0.8173 C   0  0  0  0  0  0  0  0  0  0  0  0
   -1.5588   -0.0428   -0.2361 C   0  0  0  0  0  0  0  0  0  0  0  0
   -2.1003    1.1015   -1.3420 S   0  0  0  0  0  0  0  0  0  0  0  0
   -0.6790    1.0368   -2.2864 C   0  0  0  0  0  0  0  0  0  0  0  0
    0.1962    0.0770   -1.7467 C   0  0  0  0  0  0  0  0  0  0  0  0
    1.4111   -0.3875   -2.3621 N   0  0  0  0  0  0  0  0  0  0  0  0
    2.6620    0.1097   -1.8579 C   0  0  0  0  0  0  0  0  0  0  0  0
    3.6356   -0.7740   -1.3685 C   0  0  0  0  0  0  0  0  0  0  0  0
    4.8669   -0.2844   -0.9233 C   0  0  0  0  0  0  0  0  0  0  0  0
    5.1259    1.0914   -0.9474 C   0  0  0  0  0  0  0  0  0  0  0  0
    6.6777    1.7287   -0.3180 S   0  0  0  0  0  0  0  0  0  0  0  0
    7.4957    1.6885   -1.9455 C   0  0  0  0  0  0  0  0  0  0  0  0
    4.1597    1.9722   -1.4412 C   0  0  0  0  0  0  0  0  0  0  0  0
    2.9421    1.4785   -1.9108 C   0  0  0  0  0  0  0  0  0  0  0  0
    1.3714   -1.3644   -3.4330 C   0  0  0  0  0  0  0  0  0  0  0  0
    0.2297   -2.1649   -3.6444 C   0  0  0  0  0  0  0  0  0  0  0  0
    0.1700   -3.0518   -4.7265 C   0  0  0  0  0  0  0  0  0  0  0  0
    1.2385   -3.1334   -5.6266 C   0  0  0  0  0  0  0  0  0  0  0  0
    1.1491   -4.2275   -7.0452 S   0  0  0  0  0  0  0  0  0  0  0  0
    0.2512   -3.0211   -8.0745 C   0  0  0  0  0  0  0  0  0  0  0  0
    2.3841   -2.3639   -5.4166 C   0  0  0  0  0  0  0  0  0  0  0  0
    2.4528   -1.4895   -4.3287 C   0  0  0  0  0  0  0  0  0  0  0  0
   -0.3204   -0.4680   -0.5864 C   0  0  0  0  0  0  0  0  0  0  0  0
    0.2073   -1.6491    0.4632 S   0  0  0  0  0  0  0  0  0  0  0  0
   -0.3602    1.9392   -3.3967 C   0  0  0  0  0  0  0  0  0  0  0  0
   -0.2963    3.3465   -3.3213 C   0  0  0  0  0  0  0  0  0  0  0  0
   -0.8451    4.1642   -2.2678 N   0  0  0  0  0  0  0  0  0  0  0  0
   -0.3821    4.0259   -0.9106 C   0  0  0  0  0  0  0  0  0  0  0  0
    0.9904    3.9923   -0.6254 C   0  0  0  0  0  0  0  0  0  0  0  0
    1.4393    3.8522    0.6907 C   0  0  0  0  0  0  0  0  0  0  0  0
    0.5205    3.7789    1.7483 C   0  0  0  0  0  0  0  0  0  0  0  0
    1.0104    3.6499    3.1616 C   0  0  0  0  0  0  0  0  0  0  0  0
   -0.8515    3.8751    1.4710 C   0  0  0  0  0  0  0  0  0  0  0  0
   -1.2997    3.9966    0.1516 C   0  0  0  0  0  0  0  0  0  0  0  0
   -1.6953    5.2713   -2.6408 C   0  0  0  0  0  0  0  0  0  0  0  0
   -1.5411    6.5327   -2.0381 C   0  0  0  0  0  0  0  0  0  0  0  0
   -2.2703    7.6336   -2.5040 C   0  0  0  0  0  0  0  0  0  0  0  0
   -3.1529    7.4906   -3.5836 C   0  0  0  0  0  0  0  0  0  0  0  0
   -3.9127    8.6756   -4.1060 C   0  0  0  0  0  0  0  0  0  0  0  0
   -3.3507    6.2241   -4.1493 C   0  0  0  0  0  0  0  0  0  0  0  0
   -2.6253    5.1247   -3.6851 C   0  0  0  0  0  0  0  0  0  0  0  0
    0.3932    3.8725   -4.4107 C   0  0  0  0  0  0  0  0  0  0  0  0
    1.1028    5.3677   -4.7142 S   0  0  0  0  0  0  0  0  0  0  0  0
    2.0077    4.7976   -6.0443 C   0  0  0  0  0  0  0  0  0  0  0  0
    1.7506    3.4392   -6.2442 C   0  0  0  0  0  0  0  0  0  0  0  0
    2.5008    2.5965   -7.1310 N   0  0  0  0  0  0  0  0  0  0  0  0
    1.8864    2.1523   -8.3606 C   0  0  0  0  0  0  0  0  0  0  0  0
    1.0429    3.0136   -9.0838 C   0  0  0  0  0  0  0  0  0  0  0  0
    0.4260    2.5783  -10.2604 C   0  0  0  0  0  0  0  0  0  0  0  0
    0.6335    1.2736  -10.7251 C   0  0  0  0  0  0  0  0  0  0  0  0
   -0.0098    0.8242  -12.0030 C   0  0  0  0  0  0  0  0  0  0  0  0
    1.4849    0.4140  -10.0178 C   0  0  0  0  0  0  0  0  0  0  0  0
    2.1037    0.8483   -8.8401 C   0  0  0  0  0  0  0  0  0  0  0  0
    3.8099    2.1379   -6.7323 C   0  0  0  0  0  0  0  0  0  0  0  0
    4.0395    1.6739   -5.4238 C   0  0  0  0  0  0  0  0  0  0  0  0
    5.2951    1.1929   -5.0518 C   0  0  0  0  0  0  0  0  0  0  0  0
    6.3496    1.1756   -5.9749 C   0  0  0  0  0  0  0  0  0  0  0  0
    7.7068    0.6939   -5.5602 C   0  0  0  0  0  0  0  0  0  0  0  0
    6.1381    1.6770   -7.2677 C   0  0  0  0  0  0  0  0  0  0  0  0
    4.8736    2.1415   -7.6473 C   0  0  0  0  0  0  0  0  0  0  0  0
    0.8399    2.9609   -5.3119 C   0  0  0  0  0  0  0  0  0  0  0  0
    0.4197    1.4221   -4.8224 S   0  0  0  0  0  0  0  0  0  0  0  0
    3.0041    5.5778   -6.7856 C   0  0  0  0  0  0  0  0  0  0  0  0
    4.2058    5.8986   -6.2934 C   0  0  0  0  0  0  0  0  0  0  0  0
    5.3677    6.8688   -7.2536 S   0  0  0  0  0  0  0  0  0  0  0  0
    6.4394    6.9146   -5.8082 C   0  0  0  0  0  0  0  0  0  0  0  0
    7.6129    8.0523   -5.6801 S   0  0  0  0  0  0  0  0  0  0  0  0
    6.0135    6.1161   -4.7004 N   0  0  0  0  0  0  0  0  0  0  0  0
    6.6445    6.0868   -3.3779 C   0  0  0  0  0  0  0  0  0  0  0  0
    6.0478    7.1615   -2.4764 C   0  0  0  0  0  0  0  0  0  0  0  0
    4.7459    5.5324   -4.9773 C   0  0  0  0  0  0  0  0  0  0  0  0
    4.1705    4.7615   -4.1648 O   0  0  0  0  0  0  0  0  0  0  0  0
   -2.7471   -6.2749    7.7483 H   0  0  0  0  0  0  0  0  0  0  0  0
    2.8415   -9.7169    8.2142 H   0  0  0  0  0  0  0  0  0  0  0  0
    2.5049   -9.3367    6.4917 H   0  0  0  0  0  0  0  0  0  0  0  0
    3.4107   -7.2448    8.5829 H   0  0  0  0  0  0  0  0  0  0  0  0
    4.5079   -8.0943    7.4292 H   0  0  0  0  0  0  0  0  0  0  0  0
    3.2203   -6.9964    6.8041 H   0  0  0  0  0  0  0  0  0  0  0  0
   -6.5470   -5.8580    4.3612 H   0  0  0  0  0  0  0  0  0  0  0  0
   -8.3935   -4.3744    4.9852 H   0  0  0  0  0  0  0  0  0  0  0  0
   -7.9492   -1.0928    6.6771 H   0  0  0  0  0  0  0  0  0  0  0  0
   -8.7157   -2.5000    7.5165 H   0  0  0  0  0  0  0  0  0  0  0  0
   -9.0993   -2.1481    5.7828 H   0  0  0  0  0  0  0  0  0  0  0  0
   -5.6741   -1.9138    7.2392 H   0  0  0  0  0  0  0  0  0  0  0  0
   -3.8301   -3.4143    6.6689 H   0  0  0  0  0  0  0  0  0  0  0  0
   -3.0580   -6.8031    2.8634 H   0  0  0  0  0  0  0  0  0  0  0  0
   -3.4602   -9.1240    2.1313 H   0  0  0  0  0  0  0  0  0  0  0  0
   -5.5445  -11.6052    4.0952 H   0  0  0  0  0  0  0  0  0  0  0  0
   -5.2463  -11.0849    2.3997 H   0  0  0  0  0  0  0  0  0  0  0  0
   -3.8647  -11.6216    3.4398 H   0  0  0  0  0  0  0  0  0  0  0  0
   -5.6838   -9.8745    5.7500 H   0  0  0  0  0  0  0  0  0  0  0  0
   -5.3060   -7.5523    6.4668 H   0  0  0  0  0  0  0  0  0  0  0  0
    1.3493   -4.7464    2.7664 H   0  0  0  0  0  0  0  0  0  0  0  0
    3.2871   -5.5301    1.4988 H   0  0  0  0  0  0  0  0  0  0  0  0
    5.5565   -5.1911    0.7201 H   0  0  0  0  0  0  0  0  0  0  0  0
    5.3361   -3.7712   -0.3698 H   0  0  0  0  0  0  0  0  0  0  0  0
    6.4065   -3.6451    1.0795 H   0  0  0  0  0  0  0  0  0  0  0  0
    5.0038   -1.5843    1.6519 H   0  0  0  0  0  0  0  0  0  0  0  0
    3.0259   -0.7593    2.8249 H   0  0  0  0  0  0  0  0  0  0  0  0
    2.8794   -1.6922    5.3994 H   0  0  0  0  0  0  0  0  0  0  0  0
    3.0256    0.1929    6.9671 H   0  0  0  0  0  0  0  0  0  0  0  0
    2.2405    2.5376    7.4897 H   0  0  0  0  0  0  0  0  0  0  0  0
    0.8343    1.8101    8.3676 H   0  0  0  0  0  0  0  0  0  0  0  0
    0.5661    3.0315    7.0585 H   0  0  0  0  0  0  0  0  0  0  0  0
   -0.8203    1.6061    5.6235 H   0  0  0  0  0  0  0  0  0  0  0  0
   -0.9439   -0.2473    4.0342 H   0  0  0  0  0  0  0  0  0  0  0  0
   -5.7752   -1.1121    2.6035 H   0  0  0  0  0  0  0  0  0  0  0  0
   -7.1504   -3.1434    2.4260 H   0  0  0  0  0  0  0  0  0  0  0  0
   -8.8334   -4.2892    0.0590 H   0  0  0  0  0  0  0  0  0  0  0  0
   -8.6730   -5.8675   -0.8051 H   0  0  0  0  0  0  0  0  0  0  0  0
   -7.6281   -4.4828   -1.2883 H   0  0  0  0  0  0  0  0  0  0  0  0
   -4.6832   -4.5445   -0.8069 H   0  0  0  0  0  0  0  0  0  0  0  0
   -3.3250   -2.5110   -0.6753 H   0  0  0  0  0  0  0  0  0  0  0  0
   -2.6690    1.0255    3.2057 H   0  0  0  0  0  0  0  0  0  0  0  0
   -3.5659    3.2367    3.8248 H   0  0  0  0  0  0  0  0  0  0  0  0
   -4.5278    5.3567    0.5963 H   0  0  0  0  0  0  0  0  0  0  0  0
   -4.9247    6.8466    1.5223 H   0  0  0  0  0  0  0  0  0  0  0  0
   -3.5480    5.8081    2.0600 H   0  0  0  0  0  0  0  0  0  0  0  0
   -6.3793    3.0013    0.5784 H   0  0  0  0  0  0  0  0  0  0  0  0
   -5.5028    0.7785   -0.0243 H   0  0  0  0  0  0  0  0  0  0  0  0
    3.4324   -1.8379   -1.3292 H   0  0  0  0  0  0  0  0  0  0  0  0
    5.6197   -0.9728   -0.5660 H   0  0  0  0  0  0  0  0  0  0  0  0
    6.8959    2.2542   -2.6913 H   0  0  0  0  0  0  0  0  0  0  0  0
    7.6249    0.6347   -2.2770 H   0  0  0  0  0  0  0  0  0  0  0  0
    8.4957    2.1648   -1.8588 H   0  0  0  0  0  0  0  0  0  0  0  0
    4.3591    3.0355   -1.4848 H   0  0  0  0  0  0  0  0  0  0  0  0
    2.2221    2.1536   -2.3410 H   0  0  0  0  0  0  0  0  0  0  0  0
   -0.6236   -2.1031   -2.9832 H   0  0  0  0  0  0  0  0  0  0  0  0
   -0.7174   -3.6543   -4.8805 H   0  0  0  0  0  0  0  0  0  0  0  0
    0.2428   -3.3788   -9.1259 H   0  0  0  0  0  0  0  0  0  0  0  0
   -0.7962   -2.9346   -7.7144 H   0  0  0  0  0  0  0  0  0  0  0  0
    0.7492   -2.0303   -8.0423 H   0  0  0  0  0  0  0  0  0  0  0  0
    3.2204   -2.4291   -6.1032 H   0  0  0  0  0  0  0  0  0  0  0  0
    3.3445   -0.8909   -4.2088 H   0  0  0  0  0  0  0  0  0  0  0  0
    1.7117    4.1135   -1.4209 H   0  0  0  0  0  0  0  0  0  0  0  0
    2.5031    3.8231    0.8899 H   0  0  0  0  0  0  0  0  0  0  0  0
    1.5363    4.5799    3.4624 H   0  0  0  0  0  0  0  0  0  0  0  0
    0.1731    3.4717    3.8674 H   0  0  0  0  0  0  0  0  0  0  0  0
    1.7160    2.7954    3.2351 H   0  0  0  0  0  0  0  0  0  0  0  0
   -1.5726    3.8662    2.2762 H   0  0  0  0  0  0  0  0  0  0  0  0
   -2.3629    4.0593   -0.0468 H   0  0  0  0  0  0  0  0  0  0  0  0
   -0.8285    6.6760   -1.2346 H   0  0  0  0  0  0  0  0  0  0  0  0
   -2.1259    8.6027   -2.0399 H   0  0  0  0  0  0  0  0  0  0  0  0
   -4.8996    8.7380   -3.6038 H   0  0  0  0  0  0  0  0  0  0  0  0
   -4.0721    8.5845   -5.2030 H   0  0  0  0  0  0  0  0  0  0  0  0
   -3.3520    9.6162   -3.9187 H   0  0  0  0  0  0  0  0  0  0  0  0
   -4.0497    6.0916   -4.9656 H   0  0  0  0  0  0  0  0  0  0  0  0
   -2.7724    4.1607   -4.1540 H   0  0  0  0  0  0  0  0  0  0  0  0
    0.8618    4.0250   -8.7403 H   0  0  0  0  0  0  0  0  0  0  0  0
   -0.2113    3.2645  -10.8064 H   0  0  0  0  0  0  0  0  0  0  0  0
   -1.0287    1.2581  -12.0956 H   0  0  0  0  0  0  0  0  0  0  0  0
    0.6037    1.1614  -12.8628 H   0  0  0  0  0  0  0  0  0  0  0  0
   -0.1017   -0.2814  -12.0319 H   0  0  0  0  0  0  0  0  0  0  0  0
    1.6703   -0.5894  -10.3708 H   0  0  0  0  0  0  0  0  0  0  0  0
    2.7355    0.1603   -8.2917 H   0  0  0  0  0  0  0  0  0  0  0  0
    3.2455    1.6627   -4.6952 H   0  0  0  0  0  0  0  0  0  0  0  0
    5.4370    0.8149   -4.0462 H   0  0  0  0  0  0  0  0  0  0  0  0
    7.6283   -0.0569   -4.7433 H   0  0  0  0  0  0  0  0  0  0  0  0
    8.3145    1.5517   -5.2012 H   0  0  0  0  0  0  0  0  0  0  0  0
    8.2265    0.2131   -6.4156 H   0  0  0  0  0  0  0  0  0  0  0  0
    6.9481    1.6949   -7.9830 H   0  0  0  0  0  0  0  0  0  0  0  0
    4.7247    2.5153   -8.6528 H   0  0  0  0  0  0  0  0  0  0  0  0
    2.7580    5.8648   -7.7984 H   0  0  0  0  0  0  0  0  0  0  0  0
    7.7411    6.2480   -3.4732 H   0  0  0  0  0  0  0  0  0  0  0  0
    6.4973    5.0892   -2.9075 H   0  0  0  0  0  0  0  0  0  0  0  0
    6.1145    8.1570   -2.9650 H   0  0  0  0  0  0  0  0  0  0  0  0
    4.9838    6.9301   -2.2625 H   0  0  0  0  0  0  0  0  0  0  0  0
    6.6042    7.1998   -1.5151 H   0  0  0  0  0  0  0  0  0  0  0  0
  1  2  2  3
  2  3  1  0
  3  4  1  0
  4  5  2  0
  4  6  1  0
  6  7  1  0
  7  8  1  0
  6  9  1  0
  9 10  2  0
  1 11  1  0
 11 12  2  0
 12 13  1  0
 13 14  1  0
 14 15  2  0
 15 16  1  0
 16 17  2  0
 17 18  1  0
 17 19  1  0
 19 20  2  0
 13 21  1  0
 21 22  2  0
 22 23  1  0
 23 24  2  0
 24 25  1  0
 24 26  1  0
 26 27  2  0
 12 28  1  0
 28 29  1  0
 29 30  1  0
 30 31  2  0
 31 32  1  0
 32 33  1  0
 33 34  2  0
 34 35  1  0
 35 36  2  0
 36 37  1  0
 36 38  1  0
 38 39  2  0
 32 40  1  0
 40 41  2  0
 41 42  1  0
 42 43  2  0
 43 44  1  0
 43 45  1  0
 45 46  2  0
 31 47  1  0
 47 48  1  0
 30 49  1  0
 49 50  2  0
 50 51  1  0
 51 52  1  0
 52 53  2  0
 53 54  1  0
 54 55  2  0
 55 56  1  0
 56 57  1  0
 55 58  1  0
 58 59  2  0
 51 60  1  0
 60 61  2  0
 61 62  1  0
 62 63  2  0
 63 64  1  0
 64 65  1  0
 63 66  1  0
 66 67  2  0
 50 68  1  0
 68 69  1  0
 69 70  1  0
 70 71  2  0
 71 72  1  0
 72 73  1  0
 73 74  2  0
 74 75  1  0
 75 76  2  0
 76 77  1  0
 77 78  1  0
 76 79  1  0
 79 80  2  0
 72 81  1  0
 81 82  2  0
 82 83  1  0
 83 84  2  0
 84 85  1  0
 85 86  1  0
 84 87  1  0
 87 88  2  0
 71 89  1  0
 89 90  1  0
 70 91  1  0
 91 92  2  0
 92 93  1  0
 93 94  1  0
 94 95  2  0
 95 96  1  0
 96 97  2  0
 97 98  1  0
 97 99  1  0
 99100  2  0
 93101  1  0
101102  2  0
102103  1  0
103104  2  0
104105  1  0
104106  1  0
106107  2  0
 92108  1  0
108109  1  0
109110  1  0
110111  2  0
111112  1  0
112113  1  0
113114  2  0
114115  1  0
115116  2  0
116117  1  0
116118  1  0
118119  2  0
112120  1  0
120121  2  0
121122  1  0
122123  2  0
123124  1  0
123125  1  0
125126  2  0
111127  1  0
127128  1  0
110129  1  0
129130  2  3
130131  1  0
131132  1  0
132133  2  0
132134  1  0
134135  1  0
135136  1  0
134137  1  0
137138  2  0
  9  2  1  0
 48 11  1  0
 90 49  1  0
128 91  1  0
137130  1  0
 20 14  1  0
 27 21  1  0
 47 28  2  0
 59 52  1  0
 67 60  1  0
 89 68  2  0
100 94  1  0
107101  1  0
127108  2  0
 39 33  1  0
 46 40  1  0
 80 73  1  0
 88 81  1  0
119113  1  0
126120  1  0
  1139  1  0
  7140  1  0
  7141  1  0
  8142  1  0
  8143  1  0
  8144  1  0
 15145  1  0
 16146  1  0
 18147  1  0
 18148  1  0
 18149  1  0
 19150  1  0
 20151  1  0
 22152  1  0
 23153  1  0
 25154  1  0
 25155  1  0
 25156  1  0
 26157  1  0
 27158  1  0
 34159  1  0
 35160  1  0
 37161  1  0
 37162  1  0
 37163  1  0
 38164  1  0
 39165  1  0
 41166  1  0
 42167  1  0
 44168  1  0
 44169  1  0
 44170  1  0
 45171  1  0
 46172  1  0
 53173  1  0
 54174  1  0
 57175  1  0
 57176  1  0
 57177  1  0
 58178  1  0
 59179  1  0
 61180  1  0
 62181  1  0
 65182  1  0
 65183  1  0
 65184  1  0
 66185  1  0
 67186  1  0
 74187  1  0
 75188  1  0
 78189  1  0
 78190  1  0
 78191  1  0
 79192  1  0
 80193  1  0
 82194  1  0
 83195  1  0
 86196  1  0
 86197  1  0
 86198  1  0
 87199  1  0
 88200  1  0
 95201  1  0
 96202  1  0
 98203  1  0
 98204  1  0
 98205  1  0
 99206  1  0
100207  1  0
102208  1  0
103209  1  0
105210  1  0
105211  1  0
105212  1  0
106213  1  0
107214  1  0
114215  1  0
115216  1  0
117217  1  0
117218  1  0
117219  1  0
118220  1  0
119221  1  0
121222  1  0
122223  1  0
124224  1  0
124225  1  0
124226  1  0
125227  1  0
126228  1  0
129229  1  0
135230  1  0
135231  1  0
136232  1  0
136233  1  0
136234  1  0
M  END

