
     RDKit          3D

147157  0  0  0  0  0  0  0  0999 V2000
    1.8579   -6.7633    5.2410 C   0  0  0  0  0  0  0  0  0  0  0  0
    3.0568   -7.0339    5.7845 C   0  0  0  0  0  0  0  0  0  0  0  0
    4.3674   -5.8216    6.0415 S   0  0  0  0  0  0  0  0  0  0  0  0
    5.4700   -7.1740    6.4744 C   0  0  0  0  0  0  0  0  0  0  0  0
    6.9211   -6.8702    7.1670 S   0  0  0  0  0  0  0  0  0  0  0  0
    4.8727   -8.4735    6.4735 N   0  0  0  0  0  0  0  0  0  0  0  0
    5.6090   -9.7335    6.6186 C   0  0  0  0  0  0  0  0  0  0  0  0
    6.2647  -10.1209    5.2965 C   0  0  0  0  0  0  0  0  0  0  0  0
    3.5147   -8.3941    6.0624 C   0  0  0  0  0  0  0  0  0  0  0  0
    2.7860   -9.4161    5.9341 O   0  0  0  0  0  0  0  0  0  0  0  0
    1.4083   -5.4139    4.8561 C   0  0  0  0  0  0  0  0  0  0  0  0
    1.6333   -4.2163    5.5208 C   0  0  0  0  0  0  0  0  0  0  0  0
    1.1207   -3.0909    4.8556 C   0  0  0  0  0  0  0  0  0  0  0  0
    1.4455   -1.4662    5.5264 S   0  0  0  0  0  0  0  0  0  0  0  0
    0.1540   -1.5491    6.8235 C   0  0  0  0  0  0  0  0  0  0  0  0
    0.7933   -1.6025    8.2029 C   0  0  0  0  0  0  0  0  0  0  0  0
    0.4550   -3.3939    3.6502 C   0  0  0  0  0  0  0  0  0  0  0  0
    0.5353   -5.0738    3.4730 S   0  0  0  0  0  0  0  0  0  0  0  0
   -0.0107   -2.5275    2.5293 C   0  0  0  0  0  0  0  0  0  0  0  0
   -0.4880   -1.1883    2.4878 C   0  0  0  0  0  0  0  0  0  0  0  0
   -0.6816   -0.3005    3.5975 N   0  0  0  0  0  0  0  0  0  0  0  0
   -2.0086   -0.2899    4.1634 C   0  0  0  0  0  0  0  0  0  0  0  0
   -2.8043    0.8684    4.1059 C   0  0  0  0  0  0  0  0  0  0  0  0
   -4.1032    0.8615    4.6215 C   0  0  0  0  0  0  0  0  0  0  0  0
   -4.6300   -0.3067    5.1845 C   0  0  0  0  0  0  0  0  0  0  0  0
   -6.2887   -0.3055    5.8686 S   0  0  0  0  0  0  0  0  0  0  0  0
   -7.0620   -0.8864    4.3288 C   0  0  0  0  0  0  0  0  0  0  0  0
   -3.8552   -1.4715    5.2198 C   0  0  0  0  0  0  0  0  0  0  0  0
   -2.5580   -1.4669    4.7016 C   0  0  0  0  0  0  0  0  0  0  0  0
    0.2414    0.8110    3.8001 C   0  0  0  0  0  0  0  0  0  0  0  0
    0.1267    1.6477    4.9317 C   0  0  0  0  0  0  0  0  0  0  0  0
    1.0586    2.6616    5.1712 C   0  0  0  0  0  0  0  0  0  0  0  0
    2.1287    2.8552    4.2947 C   0  0  0  0  0  0  0  0  0  0  0  0
    3.3394    4.1377    4.6196 S   0  0  0  0  0  0  0  0  0  0  0  0
    4.4212    3.0406    5.5888 C   0  0  0  0  0  0  0  0  0  0  0  0
    2.2606    2.0401    3.1693 C   0  0  0  0  0  0  0  0  0  0  0  0
    1.3348    1.0236    2.9260 C   0  0  0  0  0  0  0  0  0  0  0  0
   -0.8288   -0.8050    1.1883 C   0  0  0  0  0  0  0  0  0  0  0  0
   -1.3787    0.6250    0.4903 S   0  0  0  0  0  0  0  0  0  0  0  0
   -1.3642   -0.0032   -1.0953 C   0  0  0  0  0  0  0  0  0  0  0  0
   -0.9170   -1.3305   -1.0649 C   0  0  0  0  0  0  0  0  0  0  0  0
   -0.8307   -2.1769   -2.2217 N   0  0  0  0  0  0  0  0  0  0  0  0
   -2.0104   -2.3214   -3.0329 C   0  0  0  0  0  0  0  0  0  0  0  0
   -1.9663   -2.0478   -4.4088 C   0  0  0  0  0  0  0  0  0  0  0  0
   -3.1282   -2.1409   -5.1817 C   0  0  0  0  0  0  0  0  0  0  0  0
   -4.3420   -2.5029   -4.5859 C   0  0  0  0  0  0  0  0  0  0  0  0
   -5.8356   -2.5974   -5.5738 S   0  0  0  0  0  0  0  0  0  0  0  0
   -6.2637   -0.8497   -5.3049 C   0  0  0  0  0  0  0  0  0  0  0  0
   -4.3901   -2.7837   -3.2168 C   0  0  0  0  0  0  0  0  0  0  0  0
   -3.2313   -2.6881   -2.4420 C   0  0  0  0  0  0  0  0  0  0  0  0
    0.4053   -2.8376   -2.5727 C   0  0  0  0  0  0  0  0  0  0  0  0
    0.3916   -4.0558   -3.2804 C   0  0  0  0  0  0  0  0  0  0  0  0
    1.5884   -4.6829   -3.6365 C   0  0  0  0  0  0  0  0  0  0  0  0
    2.8138   -4.1072   -3.2874 C   0  0  0  0  0  0  0  0  0  0  0  0
    4.3500   -4.9016   -3.7657 S   0  0  0  0  0  0  0  0  0  0  0  0
    4.4651   -3.9965   -5.3385 C   0  0  0  0  0  0  0  0  0  0  0  0
    2.8396   -2.9099   -2.5652 C   0  0  0  0  0  0  0  0  0  0  0  0
    1.6454   -2.2768   -2.2115 C   0  0  0  0  0  0  0  0  0  0  0  0
   -0.6322   -1.7379    0.2306 C   0  0  0  0  0  0  0  0  0  0  0  0
   -0.0474   -3.1332    0.9262 S   0  0  0  0  0  0  0  0  0  0  0  0
   -1.4301    0.8166   -2.3076 C   0  0  0  0  0  0  0  0  0  0  0  0
   -0.3595    1.0304   -3.1637 C   0  0  0  0  0  0  0  0  0  0  0  0
   -0.6524    1.9236   -4.1991 C   0  0  0  0  0  0  0  0  0  0  0  0
    0.3938    2.4593   -5.0866 C   0  0  0  0  0  0  0  0  0  0  0  0
    1.1381    3.5801   -4.6662 C   0  0  0  0  0  0  0  0  0  0  0  0
    0.8099    4.1808   -3.4361 O   0  0  0  0  0  0  0  0  0  0  0  0
    1.5465    5.2228   -2.7931 C   0  0  0  0  0  0  0  0  0  0  0  0
    2.8117    4.6666   -2.1461 C   0  0  0  0  0  0  0  0  0  0  0  0
    2.1737    4.0659   -5.4868 C   0  0  0  0  0  0  0  0  0  0  0  0
    2.4532    3.4514   -6.7052 C   0  0  0  0  0  0  0  0  0  0  0  0
    1.7083    2.3507   -7.1261 C   0  0  0  0  0  0  0  0  0  0  0  0
    0.6699    1.8413   -6.3217 C   0  0  0  0  0  0  0  0  0  0  0  0
   -0.0962    0.7337   -6.7237 O   0  0  0  0  0  0  0  0  0  0  0  0
    0.0863    0.0445   -7.9595 C   0  0  0  0  0  0  0  0  0  0  0  0
   -0.9291   -1.0785   -8.0817 C   0  0  0  0  0  0  0  0  0  0  0  0
   -1.9510    2.4231   -4.1454 C   0  0  0  0  0  0  0  0  0  0  0  0
   -2.7467    1.7321   -2.8249 S   0  0  0  0  0  0  0  0  0  0  0  0
   -2.5525    3.3088   -5.1537 C   0  0  0  0  0  0  0  0  0  0  0  0
   -3.0367    4.5325   -4.9054 C   0  0  0  0  0  0  0  0  0  0  0  0
   -3.6477    5.5628   -6.2445 S   0  0  0  0  0  0  0  0  0  0  0  0
   -3.6661    6.9506   -5.1034 C   0  0  0  0  0  0  0  0  0  0  0  0
   -3.5933    8.4844   -5.6729 S   0  0  0  0  0  0  0  0  0  0  0  0
   -3.3459    6.6292   -3.7476 N   0  0  0  0  0  0  0  0  0  0  0  0
   -3.5479    7.5261   -2.6055 C   0  0  0  0  0  0  0  0  0  0  0  0
   -5.0225    7.5626   -2.2167 C   0  0  0  0  0  0  0  0  0  0  0  0
   -3.0032    5.2544   -3.6293 C   0  0  0  0  0  0  0  0  0  0  0  0
   -2.6836    4.7345   -2.5256 O   0  0  0  0  0  0  0  0  0  0  0  0
    1.2027   -7.5866    4.9805 H   0  0  0  0  0  0  0  0  0  0  0  0
    6.3884   -9.6375    7.4048 H   0  0  0  0  0  0  0  0  0  0  0  0
    4.9189  -10.5453    6.9368 H   0  0  0  0  0  0  0  0  0  0  0  0
    5.4901  -10.2511    4.5102 H   0  0  0  0  0  0  0  0  0  0  0  0
    6.8190  -11.0750    5.4170 H   0  0  0  0  0  0  0  0  0  0  0  0
    6.9790   -9.3316    4.9766 H   0  0  0  0  0  0  0  0  0  0  0  0
    2.1622   -4.1483    6.4611 H   0  0  0  0  0  0  0  0  0  0  0  0
   -0.5148   -2.4285    6.6966 H   0  0  0  0  0  0  0  0  0  0  0  0
   -0.4755   -0.6373    6.7573 H   0  0  0  0  0  0  0  0  0  0  0  0
    1.3684   -2.5428    8.3270 H   0  0  0  0  0  0  0  0  0  0  0  0
    1.4692   -0.7328    8.3477 H   0  0  0  0  0  0  0  0  0  0  0  0
   -0.0003   -1.5667    8.9789 H   0  0  0  0  0  0  0  0  0  0  0  0
   -2.4212    1.7777    3.6549 H   0  0  0  0  0  0  0  0  0  0  0  0
   -4.7002    1.7645    4.5841 H   0  0  0  0  0  0  0  0  0  0  0  0
   -6.6834   -1.8979    4.0745 H   0  0  0  0  0  0  0  0  0  0  0  0
   -6.8430   -0.1819    3.4993 H   0  0  0  0  0  0  0  0  0  0  0  0
   -8.1611   -0.9391    4.4737 H   0  0  0  0  0  0  0  0  0  0  0  0
   -4.2579   -2.3824    5.6423 H   0  0  0  0  0  0  0  0  0  0  0  0
   -1.9797   -2.3799    4.7256 H   0  0  0  0  0  0  0  0  0  0  0  0
   -0.6650    1.5033    5.6531 H   0  0  0  0  0  0  0  0  0  0  0  0
    0.9562    3.2847    6.0507 H   0  0  0  0  0  0  0  0  0  0  0  0
    5.2932    3.6215    5.9543 H   0  0  0  0  0  0  0  0  0  0  0  0
    3.8699    2.6341    6.4609 H   0  0  0  0  0  0  0  0  0  0  0  0
    4.7860    2.2072    4.9532 H   0  0  0  0  0  0  0  0  0  0  0  0
    3.0906    2.1829    2.4886 H   0  0  0  0  0  0  0  0  0  0  0  0
    1.4919    0.4001    2.0555 H   0  0  0  0  0  0  0  0  0  0  0  0
   -1.0374   -1.7415   -4.8687 H   0  0  0  0  0  0  0  0  0  0  0  0
   -3.0915   -1.9221   -6.2400 H   0  0  0  0  0  0  0  0  0  0  0  0
   -7.2372   -0.6352   -5.7905 H   0  0  0  0  0  0  0  0  0  0  0  0
   -5.4841   -0.1966   -5.7510 H   0  0  0  0  0  0  0  0  0  0  0  0
   -6.3498   -0.6392   -4.2184 H   0  0  0  0  0  0  0  0  0  0  0  0
   -5.3249   -3.0712   -2.7510 H   0  0  0  0  0  0  0  0  0  0  0  0
   -3.2814   -2.9032   -1.3805 H   0  0  0  0  0  0  0  0  0  0  0  0
   -0.5458   -4.5238   -3.5571 H   0  0  0  0  0  0  0  0  0  0  0  0
    1.5613   -5.6129   -4.1903 H   0  0  0  0  0  0  0  0  0  0  0  0
    3.5806   -4.2178   -5.9722 H   0  0  0  0  0  0  0  0  0  0  0  0
    4.5227   -2.9041   -5.1466 H   0  0  0  0  0  0  0  0  0  0  0  0
    5.3820   -4.3167   -5.8743 H   0  0  0  0  0  0  0  0  0  0  0  0
    3.7857   -2.4593   -2.2900 H   0  0  0  0  0  0  0  0  0  0  0  0
    1.6930   -1.3386   -1.6722 H   0  0  0  0  0  0  0  0  0  0  0  0
    0.6184    0.5930   -3.0120 H   0  0  0  0  0  0  0  0  0  0  0  0
    0.9088    5.6648   -1.9970 H   0  0  0  0  0  0  0  0  0  0  0  0
    1.7875    6.0395   -3.5089 H   0  0  0  0  0  0  0  0  0  0  0  0
    3.4047    5.4983   -1.7102 H   0  0  0  0  0  0  0  0  0  0  0  0
    3.4345    4.1388   -2.8965 H   0  0  0  0  0  0  0  0  0  0  0  0
    2.5370    3.9547   -1.3414 H   0  0  0  0  0  0  0  0  0  0  0  0
    2.7694    4.9178   -5.1961 H   0  0  0  0  0  0  0  0  0  0  0  0
    3.2512    3.8323   -7.3308 H   0  0  0  0  0  0  0  0  0  0  0  0
    1.9538    1.8986   -8.0787 H   0  0  0  0  0  0  0  0  0  0  0  0
   -0.0554    0.7485   -8.8075 H   0  0  0  0  0  0  0  0  0  0  0  0
    1.1090   -0.3872   -8.0020 H   0  0  0  0  0  0  0  0  0  0  0  0
   -0.8008   -1.5907   -9.0575 H   0  0  0  0  0  0  0  0  0  0  0  0
   -1.9568   -0.6660   -8.0225 H   0  0  0  0  0  0  0  0  0  0  0  0
   -0.7761   -1.8181   -7.2709 H   0  0  0  0  0  0  0  0  0  0  0  0
   -2.5168    2.9688   -6.1816 H   0  0  0  0  0  0  0  0  0  0  0  0
   -2.9480    7.1826   -1.7354 H   0  0  0  0  0  0  0  0  0  0  0  0
   -3.2061    8.5518   -2.8589 H   0  0  0  0  0  0  0  0  0  0  0  0
   -5.6280    7.9642   -3.0581 H   0  0  0  0  0  0  0  0  0  0  0  0
   -5.1590    8.2204   -1.3316 H   0  0  0  0  0  0  0  0  0  0  0  0
   -5.3762    6.5395   -1.9637 H   0  0  0  0  0  0  0  0  0  0  0  0
  1  2  2  3
  2  3  1  0
  3  4  1  0
  4  5  2  0
  4  6  1  0
  6  7  1  0
  7  8  1  0
  6  9  1  0
  9 10  2  0
  1 11  1  0
 11 12  2  0
 12 13  1  0
 13 14  1  0
 14 15  1  0
 15 16  1  0
 13 17  2  0
 17 18  1  0
 17 19  1  0
 19 20  2  0
 20 21  1  0
 21 22  1  0
 22 23  2  0
 23 24  1  0
 24 25  2  0
 25 26  1  0
 26 27  1  0
 25 28  1  0
 28 29  2  0
 21 30  1  0
 30 31  2  0
 31 32  1  0
 32 33  2  0
 33 34  1  0
 34 35  1  0
 33 36  1  0
 36 37  2  0
 20 38  1  0
 38 39  1  0
 39 40  1  0
 40 41  2  0
 41 42  1  0
 42 43  1  0
 43 44  2  0
 44 45  1  0
 45 46  2  0
 46 47  1  0
 47 48  1  0
 46 49  1  0
 49 50  2  0
 42 51  1  0
 51 52  2  0
 52 53  1  0
 53 54  2  0
 54 55  1  0
 55 56  1  0
 54 57  1  0
 57 58  2  0
 41 59  1  0
 59 60  1  0
 40 61  1  0
 61 62  2  0
 62 63  1  0
 63 64  1  0
 64 65  2  0
 65 66  1  0
 66 67  1  0
 67 68  1  0
 65 69  1  0
 69 70  2  0
 70 71  1  0
 71 72  2  0
 72 73  1  0
 73 74  1  0
 74 75  1  0
 63 76  2  0
 76 77  1  0
 76 78  1  0
 78 79  2  3
 79 80  1  0
 80 81  1  0
 81 82  2  0
 81 83  1  0
 83 84  1  0
 84 85  1  0
 83 86  1  0
 86 87  2  0
  9  2  1  0
 18 11  1  0
 60 19  1  0
 77 61  1  0
 86 79  1  0
 29 22  1  0
 37 30  1  0
 59 38  2  0
 72 64  1  0
 50 43  1  0
 58 51  1  0
  1 88  1  0
  7 89  1  0
  7 90  1  0
  8 91  1  0
  8 92  1  0
  8 93  1  0
 12 94  1  0
 15 95  1  0
 15 96  1  0
 16 97  1  0
 16 98  1  0
 16 99  1  0
 23100  1  0
 24101  1  0
 27102  1  0
 27103  1  0
 27104  1  0
 28105  1  0
 29106  1  0
 31107  1  0
 32108  1  0
 35109  1  0
 35110  1  0
 35111  1  0
 36112  1  0
 37113  1  0
 44114  1  0
 45115  1  0
 48116  1  0
 48117  1  0
 48118  1  0
 49119  1  0
 50120  1  0
 52121  1  0
 53122  1  0
 56123  1  0
 56124  1  0
 56125  1  0
 57126  1  0
 58127  1  0
 62128  1  0
 67129  1  0
 67130  1  0
 68131  1  0
 68132  1  0
 68133  1  0
 69134  1  0
 70135  1  0
 71136  1  0
 74137  1  0
 74138  1  0
 75139  1  0
 75140  1  0
 75141  1  0
 78142  1  0
 84143  1  0
 84144  1  0
 85145  1  0
 85146  1  0
 85147  1  0
M  END

