
     RDKit          3D

196214  0  0  0  0  0  0  0  0999 V2000
    7.2253   -1.1661    0.1291 C   0  0  0  0  0  0  0  0  0  0  0  0
    8.4235   -0.5684    0.2916 C   0  0  0  0  0  0  0  0  0  0  0  0
    9.0482   -0.4603    1.6376 C   0  0  0  0  0  0  0  0  0  0  0  0
    8.5686   -0.7675    2.7410 O   0  0  0  0  0  0  0  0  0  0  0  0
   10.2201    0.4450    1.4717 C   0  0  0  0  0  0  0  0  0  0  0  0
   10.2695    0.9087    0.2004 C   0  0  0  0  0  0  0  0  0  0  0  0
   10.3510    2.6309    0.2969 S   0  0  0  0  0  0  0  0  0  0  0  0
   10.6307    2.6469    1.8955 C   0  0  0  0  0  0  0  0  0  0  0  0
   10.5140    3.7139    2.8088 C   0  0  0  0  0  0  0  0  0  0  0  0
   10.8284    3.2837    4.0466 C   0  0  0  0  0  0  0  0  0  0  0  0
   10.5896    1.5359    4.0721 S   0  0  0  0  0  0  0  0  0  0  0  0
   10.6395    1.4350    2.3943 C   0  0  0  0  0  0  0  0  0  0  0  0
    9.3224    0.1249   -0.7125 C   0  0  0  0  0  0  0  0  0  0  0  0
    9.2389    0.3515   -1.9713 C   0  0  0  0  0  0  0  0  0  0  0  0
    7.8758    0.2525   -2.5923 C   0  0  0  0  0  0  0  0  0  0  0  0
    6.8739    0.1871   -3.2210 N   0  0  0  0  0  0  0  0  0  0  0  0
   10.3433    0.9273   -2.6850 C   0  0  0  0  0  0  0  0  0  0  0  0
   11.2708    1.3406   -3.2982 N   0  0  0  0  0  0  0  0  0  0  0  0
    5.9742   -0.5235    0.6485 C   0  0  0  0  0  0  0  0  0  0  0  0
    4.9409   -0.9848    1.4827 C   0  0  0  0  0  0  0  0  0  0  0  0
    4.7907   -2.3771    1.8704 N   0  0  0  0  0  0  0  0  0  0  0  0
    3.9344   -3.2486    1.0043 C   0  0  0  0  0  0  0  0  0  0  0  0
    2.7943   -2.6903    0.3464 C   0  0  0  0  0  0  0  0  0  0  0  0
    2.0189   -3.5342   -0.3885 C   0  0  0  0  0  0  0  0  0  0  0  0
    2.2134   -4.8915   -0.5658 C   0  0  0  0  0  0  0  0  0  0  0  0
    1.2914   -5.7841   -1.8302 S   0  0  0  0  0  0  0  0  0  0  0  0
    0.5317   -7.0950   -0.8361 C   0  0  0  0  0  0  0  0  0  0  0  0
    3.3558   -5.4598    0.0181 C   0  0  0  0  0  0  0  0  0  0  0  0
    4.1808   -4.6167    0.7319 C   0  0  0  0  0  0  0  0  0  0  0  0
    4.9653   -2.7556    3.2971 C   0  0  0  0  0  0  0  0  0  0  0  0
    4.4857   -1.8876    4.3329 C   0  0  0  0  0  0  0  0  0  0  0  0
    4.5193   -2.2752    5.6784 C   0  0  0  0  0  0  0  0  0  0  0  0
    5.0402   -3.4938    6.0208 C   0  0  0  0  0  0  0  0  0  0  0  0
    5.1564   -3.9776    7.7412 S   0  0  0  0  0  0  0  0  0  0  0  0
    3.6527   -4.9843    7.8762 C   0  0  0  0  0  0  0  0  0  0  0  0
    5.5876   -4.3372    5.0578 C   0  0  0  0  0  0  0  0  0  0  0  0
    5.5820   -3.9325    3.7063 C   0  0  0  0  0  0  0  0  0  0  0  0
    3.9718    0.0442    1.6572 C   0  0  0  0  0  0  0  0  0  0  0  0
    2.4363    0.1274    2.2122 S   0  0  0  0  0  0  0  0  0  0  0  0
    1.8675    1.5002    1.3770 C   0  0  0  0  0  0  0  0  0  0  0  0
    2.9459    1.9090    0.6070 C   0  0  0  0  0  0  0  0  0  0  0  0
    2.8097    2.6867   -0.6277 N   0  0  0  0  0  0  0  0  0  0  0  0
    2.6508    4.1608   -0.6093 C   0  0  0  0  0  0  0  0  0  0  0  0
    3.3629    4.9956    0.2448 C   0  0  0  0  0  0  0  0  0  0  0  0
    3.3604    6.3812    0.0370 C   0  0  0  0  0  0  0  0  0  0  0  0
    2.6058    6.8919   -1.0112 C   0  0  0  0  0  0  0  0  0  0  0  0
    2.5019    8.6609   -1.2572 S   0  0  0  0  0  0  0  0  0  0  0  0
    0.7191    8.8259   -0.9289 C   0  0  0  0  0  0  0  0  0  0  0  0
    1.9051    6.0690   -1.8633 C   0  0  0  0  0  0  0  0  0  0  0  0
    1.9126    4.7143   -1.6572 C   0  0  0  0  0  0  0  0  0  0  0  0
    3.0478    2.0669   -1.8522 C   0  0  0  0  0  0  0  0  0  0  0  0
    2.2502    0.9755   -2.3101 C   0  0  0  0  0  0  0  0  0  0  0  0
    2.4602    0.3984   -3.4953 C   0  0  0  0  0  0  0  0  0  0  0  0
    3.5128    0.7866   -4.3306 C   0  0  0  0  0  0  0  0  0  0  0  0
    3.7141    0.1081   -5.9925 S   0  0  0  0  0  0  0  0  0  0  0  0
    4.7051   -1.3740   -5.6179 C   0  0  0  0  0  0  0  0  0  0  0  0
    4.3373    1.8675   -3.8953 C   0  0  0  0  0  0  0  0  0  0  0  0
    4.0856    2.4507   -2.7250 C   0  0  0  0  0  0  0  0  0  0  0  0
    4.1050    1.1320    0.8506 C   0  0  0  0  0  0  0  0  0  0  0  0
    5.4782    0.9505   -0.0370 S   0  0  0  0  0  0  0  0  0  0  0  0
    0.3851    1.5740    0.9577 C   0  0  0  0  0  0  0  0  0  0  0  0
   -0.6132    2.5525    1.0651 C   0  0  0  0  0  0  0  0  0  0  0  0
   -0.7452    3.3989    2.2922 N   0  0  0  0  0  0  0  0  0  0  0  0
   -1.8940    3.1006    3.1328 C   0  0  0  0  0  0  0  0  0  0  0  0
   -2.1695    1.8205    3.5421 C   0  0  0  0  0  0  0  0  0  0  0  0
   -3.2130    1.5297    4.4103 C   0  0  0  0  0  0  0  0  0  0  0  0
   -3.9579    2.5776    4.9459 C   0  0  0  0  0  0  0  0  0  0  0  0
   -5.4144    2.3036    6.0132 S   0  0  0  0  0  0  0  0  0  0  0  0
   -5.0863    0.6766    6.7676 C   0  0  0  0  0  0  0  0  0  0  0  0
   -3.6745    3.8949    4.6016 C   0  0  0  0  0  0  0  0  0  0  0  0
   -2.6595    4.1721    3.6697 C   0  0  0  0  0  0  0  0  0  0  0  0
    0.2203    4.3107    2.7908 C   0  0  0  0  0  0  0  0  0  0  0  0
    0.6968    5.4340    2.0657 C   0  0  0  0  0  0  0  0  0  0  0  0
    1.4189    6.4555    2.6459 C   0  0  0  0  0  0  0  0  0  0  0  0
    1.6530    6.4419    4.0282 C   0  0  0  0  0  0  0  0  0  0  0  0
    2.7606    7.6600    4.7743 S   0  0  0  0  0  0  0  0  0  0  0  0
    1.5886    8.8433    5.5094 C   0  0  0  0  0  0  0  0  0  0  0  0
    1.1484    5.4106    4.7940 C   0  0  0  0  0  0  0  0  0  0  0  0
    0.4572    4.3793    4.2137 C   0  0  0  0  0  0  0  0  0  0  0  0
   -1.7710    2.2100    0.3051 C   0  0  0  0  0  0  0  0  0  0  0  0
   -3.3711    2.7658    0.2138 S   0  0  0  0  0  0  0  0  0  0  0  0
   -4.1094    1.4167   -0.5369 C   0  0  0  0  0  0  0  0  0  0  0  0
   -3.0591    0.4297   -0.6435 C   0  0  0  0  0  0  0  0  0  0  0  0
   -3.3530   -0.9991   -0.6813 N   0  0  0  0  0  0  0  0  0  0  0  0
   -3.7832   -1.7060   -1.8691 C   0  0  0  0  0  0  0  0  0  0  0  0
   -3.4072   -1.3413   -3.1652 C   0  0  0  0  0  0  0  0  0  0  0  0
   -3.7626   -2.0756   -4.2874 C   0  0  0  0  0  0  0  0  0  0  0  0
   -4.5222   -3.2476   -4.1052 C   0  0  0  0  0  0  0  0  0  0  0  0
   -5.0976   -4.1875   -5.5301 S   0  0  0  0  0  0  0  0  0  0  0  0
   -3.8309   -5.4983   -5.5978 C   0  0  0  0  0  0  0  0  0  0  0  0
   -4.9267   -3.6201   -2.8520 C   0  0  0  0  0  0  0  0  0  0  0  0
   -4.5900   -2.8659   -1.7320 C   0  0  0  0  0  0  0  0  0  0  0  0
   -3.0878   -1.7805    0.5414 C   0  0  0  0  0  0  0  0  0  0  0  0
   -2.5201   -3.0380    0.4597 C   0  0  0  0  0  0  0  0  0  0  0  0
   -2.3143   -3.8335    1.5854 C   0  0  0  0  0  0  0  0  0  0  0  0
   -2.6479   -3.2960    2.8450 C   0  0  0  0  0  0  0  0  0  0  0  0
   -2.5181   -4.3783    4.2778 S   0  0  0  0  0  0  0  0  0  0  0  0
   -1.2036   -3.5023    5.1915 C   0  0  0  0  0  0  0  0  0  0  0  0
   -3.1517   -2.0358    2.9612 C   0  0  0  0  0  0  0  0  0  0  0  0
   -3.3584   -1.2562    1.8117 C   0  0  0  0  0  0  0  0  0  0  0  0
   -1.8082    0.9358   -0.2321 C   0  0  0  0  0  0  0  0  0  0  0  0
   -0.3588    0.2206    0.1715 S   0  0  0  0  0  0  0  0  0  0  0  0
   -5.5720    1.2171   -0.8757 C   0  0  0  0  0  0  0  0  0  0  0  0
   -6.6963    1.9933   -0.4370 C   0  0  0  0  0  0  0  0  0  0  0  0
   -7.9010    1.4727   -0.9154 C   0  0  0  0  0  0  0  0  0  0  0  0
   -9.4711    2.1494   -0.3595 S   0  0  0  0  0  0  0  0  0  0  0  0
   -9.8712    0.8311    0.8541 C   0  0  0  0  0  0  0  0  0  0  0  0
   -8.8317    0.6418    1.9554 C   0  0  0  0  0  0  0  0  0  0  0  0
   -7.7697    0.4062   -1.8031 C   0  0  0  0  0  0  0  0  0  0  0  0
   -6.1716    0.0607   -1.9167 S   0  0  0  0  0  0  0  0  0  0  0  0
   -8.8189   -0.3602   -2.5307 C   0  0  0  0  0  0  0  0  0  0  0  0
   -8.8700   -0.4533   -3.8520 C   0  0  0  0  0  0  0  0  0  0  0  0
   -8.1048    0.4508   -4.7800 C   0  0  0  0  0  0  0  0  0  0  0  0
   -7.3885    1.4225   -4.4449 O   0  0  0  0  0  0  0  0  0  0  0  0
   -8.3531    0.0273   -6.1428 C   0  0  0  0  0  0  0  0  0  0  0  0
   -9.2017   -1.0471   -6.1442 C   0  0  0  0  0  0  0  0  0  0  0  0
   -9.4160   -1.5654   -7.7871 S   0  0  0  0  0  0  0  0  0  0  0  0
   -8.4094   -0.3579   -8.3912 C   0  0  0  0  0  0  0  0  0  0  0  0
   -7.9665    0.0315   -9.6491 C   0  0  0  0  0  0  0  0  0  0  0  0
   -7.1109    1.1271   -9.5551 C   0  0  0  0  0  0  0  0  0  0  0  0
   -6.9412    1.6007   -7.9228 S   0  0  0  0  0  0  0  0  0  0  0  0
   -7.9296    0.4046   -7.3410 C   0  0  0  0  0  0  0  0  0  0  0  0
   -9.6333   -1.4201   -4.7755 C   0  0  0  0  0  0  0  0  0  0  0  0
  -10.4763   -2.4219   -4.4667 C   0  0  0  0  0  0  0  0  0  0  0  0
  -10.8234   -2.7278   -3.0988 C   0  0  0  0  0  0  0  0  0  0  0  0
  -11.1270   -3.0073   -2.0159 N   0  0  0  0  0  0  0  0  0  0  0  0
  -11.1676   -3.2717   -5.4898 C   0  0  0  0  0  0  0  0  0  0  0  0
  -11.7029   -3.9003   -6.2283 N   0  0  0  0  0  0  0  0  0  0  0  0
    7.1052   -1.5899   -0.8428 H   0  0  0  0  0  0  0  0  0  0  0  0
   10.3731    4.7959    2.5466 H   0  0  0  0  0  0  0  0  0  0  0  0
   10.6661    3.9849    4.8245 H   0  0  0  0  0  0  0  0  0  0  0  0
    2.6059   -1.6262    0.3571 H   0  0  0  0  0  0  0  0  0  0  0  0
    1.1783   -3.1602   -0.8857 H   0  0  0  0  0  0  0  0  0  0  0  0
   -0.0378   -6.6883    0.0086 H   0  0  0  0  0  0  0  0  0  0  0  0
    1.3620   -7.7404   -0.4932 H   0  0  0  0  0  0  0  0  0  0  0  0
   -0.1268   -7.6856   -1.4965 H   0  0  0  0  0  0  0  0  0  0  0  0
    3.6326   -6.4843   -0.1940 H   0  0  0  0  0  0  0  0  0  0  0  0
    5.0021   -5.0928    1.1120 H   0  0  0  0  0  0  0  0  0  0  0  0
    4.1552   -0.9095    4.1361 H   0  0  0  0  0  0  0  0  0  0  0  0
    4.1435   -1.5848    6.4195 H   0  0  0  0  0  0  0  0  0  0  0  0
    3.7127   -5.5835    8.8036 H   0  0  0  0  0  0  0  0  0  0  0  0
    2.7698   -4.3208    7.9206 H   0  0  0  0  0  0  0  0  0  0  0  0
    3.5684   -5.6819    7.0091 H   0  0  0  0  0  0  0  0  0  0  0  0
    6.0587   -5.2480    5.3239 H   0  0  0  0  0  0  0  0  0  0  0  0
    6.1426   -4.5146    3.0370 H   0  0  0  0  0  0  0  0  0  0  0  0
    3.9917    4.5821    1.0166 H   0  0  0  0  0  0  0  0  0  0  0  0
    3.9368    7.0178    0.6913 H   0  0  0  0  0  0  0  0  0  0  0  0
    0.1437    8.5249   -1.8327 H   0  0  0  0  0  0  0  0  0  0  0  0
    0.4804    9.8778   -0.6828 H   0  0  0  0  0  0  0  0  0  0  0  0
    0.4300    8.1692   -0.0822 H   0  0  0  0  0  0  0  0  0  0  0  0
    1.4213    6.4745   -2.7333 H   0  0  0  0  0  0  0  0  0  0  0  0
    1.3816    4.1030   -2.3185 H   0  0  0  0  0  0  0  0  0  0  0  0
    1.3940    0.7091   -1.7428 H   0  0  0  0  0  0  0  0  0  0  0  0
    1.7952   -0.3876   -3.8606 H   0  0  0  0  0  0  0  0  0  0  0  0
    4.1139   -2.0608   -4.9697 H   0  0  0  0  0  0  0  0  0  0  0  0
    5.6525   -1.0803   -5.1245 H   0  0  0  0  0  0  0  0  0  0  0  0
    4.9488   -1.8975   -6.5635 H   0  0  0  0  0  0  0  0  0  0  0  0
    5.0975    2.2561   -4.5752 H   0  0  0  0  0  0  0  0  0  0  0  0
    4.6955    3.2590   -2.4170 H   0  0  0  0  0  0  0  0  0  0  0  0
   -1.5603    1.0211    3.1965 H   0  0  0  0  0  0  0  0  0  0  0  0
   -3.4190    0.5169    4.6574 H   0  0  0  0  0  0  0  0  0  0  0  0
   -4.0330    0.3664    6.6320 H   0  0  0  0  0  0  0  0  0  0  0  0
   -5.7887   -0.0429    6.2901 H   0  0  0  0  0  0  0  0  0  0  0  0
   -5.2937    0.7257    7.8574 H   0  0  0  0  0  0  0  0  0  0  0  0
   -4.2693    4.7279    5.0037 H   0  0  0  0  0  0  0  0  0  0  0  0
   -2.4815    5.1799    3.4032 H   0  0  0  0  0  0  0  0  0  0  0  0
    0.5327    5.4543    1.0142 H   0  0  0  0  0  0  0  0  0  0  0  0
    1.8165    7.2664    2.0485 H   0  0  0  0  0  0  0  0  0  0  0  0
    1.5897    8.7404    6.6212 H   0  0  0  0  0  0  0  0  0  0  0  0
    1.9386    9.8635    5.2441 H   0  0  0  0  0  0  0  0  0  0  0  0
    0.5687    8.6891    5.1005 H   0  0  0  0  0  0  0  0  0  0  0  0
    1.3218    5.4269    5.8702 H   0  0  0  0  0  0  0  0  0  0  0  0
    0.1151    3.5876    4.8315 H   0  0  0  0  0  0  0  0  0  0  0  0
   -2.8934   -0.4286   -3.3060 H   0  0  0  0  0  0  0  0  0  0  0  0
   -3.5145   -1.7129   -5.2729 H   0  0  0  0  0  0  0  0  0  0  0  0
   -4.2711   -6.4878   -5.3120 H   0  0  0  0  0  0  0  0  0  0  0  0
   -2.9746   -5.2527   -4.9370 H   0  0  0  0  0  0  0  0  0  0  0  0
   -3.4877   -5.5642   -6.6516 H   0  0  0  0  0  0  0  0  0  0  0  0
   -5.4977   -4.5215   -2.7132 H   0  0  0  0  0  0  0  0  0  0  0  0
   -5.1036   -3.0528   -0.8113 H   0  0  0  0  0  0  0  0  0  0  0  0
   -2.2829   -3.4871   -0.4741 H   0  0  0  0  0  0  0  0  0  0  0  0
   -2.0491   -4.8786    1.4738 H   0  0  0  0  0  0  0  0  0  0  0  0
   -0.6144   -4.2248    5.7987 H   0  0  0  0  0  0  0  0  0  0  0  0
   -0.5357   -2.9867    4.4750 H   0  0  0  0  0  0  0  0  0  0  0  0
   -1.6863   -2.7618    5.8654 H   0  0  0  0  0  0  0  0  0  0  0  0
   -3.4245   -1.6752    3.9408 H   0  0  0  0  0  0  0  0  0  0  0  0
   -3.8580   -0.3478    1.9219 H   0  0  0  0  0  0  0  0  0  0  0  0
   -6.6132    2.8725    0.1651 H   0  0  0  0  0  0  0  0  0  0  0  0
  -10.8519    1.0864    1.3315 H   0  0  0  0  0  0  0  0  0  0  0  0
  -10.0391   -0.1036    0.2856 H   0  0  0  0  0  0  0  0  0  0  0  0
   -8.8357   -0.4242    2.2348 H   0  0  0  0  0  0  0  0  0  0  0  0
   -7.8060    0.9214    1.6672 H   0  0  0  0  0  0  0  0  0  0  0  0
   -9.1205    1.2529    2.8261 H   0  0  0  0  0  0  0  0  0  0  0  0
   -9.4302   -1.0217   -1.9287 H   0  0  0  0  0  0  0  0  0  0  0  0
   -8.2186   -0.4679  -10.5581 H   0  0  0  0  0  0  0  0  0  0  0  0
   -6.6482    1.6184  -10.4099 H   0  0  0  0  0  0  0  0  0  0  0  0
  1  2  2  3
  2  3  1  0
  3  4  2  0
  3  5  1  0
  5  6  2  0
  6  7  1  0
  7  8  1  0
  8  9  1  0
  9 10  2  0
 10 11  1  0
 11 12  1  0
  6 13  1  0
 13 14  2  3
 14 15  1  0
 15 16  3  0
 14 17  1  0
 17 18  3  0
  1 19  1  0
 19 20  2  0
 20 21  1  0
 21 22  1  0
 22 23  2  0
 23 24  1  0
 24 25  2  0
 25 26  1  0
 26 27  1  0
 25 28  1  0
 28 29  2  0
 21 30  1  0
 30 31  2  0
 31 32  1  0
 32 33  2  0
 33 34  1  0
 34 35  1  0
 33 36  1  0
 36 37  2  0
 20 38  1  0
 38 39  1  0
 39 40  1  0
 40 41  2  0
 41 42  1  0
 42 43  1  0
 43 44  2  0
 44 45  1  0
 45 46  2  0
 46 47  1  0
 47 48  1  0
 46 49  1  0
 49 50  2  0
 42 51  1  0
 51 52  2  0
 52 53  1  0
 53 54  2  0
 54 55  1  0
 55 56  1  0
 54 57  1  0
 57 58  2  0
 41 59  1  0
 59 60  1  0
 40 61  1  0
 61 62  2  0
 62 63  1  0
 63 64  1  0
 64 65  2  0
 65 66  1  0
 66 67  2  0
 67 68  1  0
 68 69  1  0
 67 70  1  0
 70 71  2  0
 63 72  1  0
 72 73  2  0
 73 74  1  0
 74 75  2  0
 75 76  1  0
 76 77  1  0
 75 78  1  0
 78 79  2  0
 62 80  1  0
 80 81  1  0
 81 82  1  0
 82 83  2  0
 83 84  1  0
 84 85  1  0
 85 86  2  0
 86 87  1  0
 87 88  2  0
 88 89  1  0
 89 90  1  0
 88 91  1  0
 91 92  2  0
 84 93  1  0
 93 94  2  0
 94 95  1  0
 95 96  2  0
 96 97  1  0
 97 98  1  0
 96 99  1  0
 99100  2  0
 83101  1  0
101102  1  0
 82103  1  0
103104  2  0
104105  1  0
105106  1  0
106107  1  0
107108  1  0
105109  2  0
109110  1  0
109111  1  0
111112  2  3
112113  1  0
113114  2  0
113115  1  0
115116  2  0
116117  1  0
117118  1  0
118119  1  0
119120  2  0
120121  1  0
121122  1  0
116123  1  0
123124  2  3
124125  1  0
125126  3  0
124127  1  0
127128  3  0
 13  2  1  0
 60 19  1  0
102 61  1  0
110103  1  0
123112  1  0
 12  5  1  0
 29 22  1  0
 37 30  1  0
 59 38  2  0
 71 64  1  0
 79 72  1  0
101 80  2  0
122115  1  0
 12  8  2  0
 50 43  1  0
 58 51  1  0
 92 85  1  0
100 93  1  0
122118  2  0
  1129  1  0
  9130  1  0
 10131  1  0
 23132  1  0
 24133  1  0
 27134  1  0
 27135  1  0
 27136  1  0
 28137  1  0
 29138  1  0
 31139  1  0
 32140  1  0
 35141  1  0
 35142  1  0
 35143  1  0
 36144  1  0
 37145  1  0
 44146  1  0
 45147  1  0
 48148  1  0
 48149  1  0
 48150  1  0
 49151  1  0
 50152  1  0
 52153  1  0
 53154  1  0
 56155  1  0
 56156  1  0
 56157  1  0
 57158  1  0
 58159  1  0
 65160  1  0
 66161  1  0
 69162  1  0
 69163  1  0
 69164  1  0
 70165  1  0
 71166  1  0
 73167  1  0
 74168  1  0
 77169  1  0
 77170  1  0
 77171  1  0
 78172  1  0
 79173  1  0
 86174  1  0
 87175  1  0
 90176  1  0
 90177  1  0
 90178  1  0
 91179  1  0
 92180  1  0
 94181  1  0
 95182  1  0
 98183  1  0
 98184  1  0
 98185  1  0
 99186  1  0
100187  1  0
104188  1  0
107189  1  0
107190  1  0
108191  1  0
108192  1  0
108193  1  0
111194  1  0
119195  1  0
120196  1  0
M  END

