
     RDKit          3D

176191  0  0  0  0  0  0  0  0999 V2000
    6.7103    0.4042   -0.1705 C   0  0  0  0  0  0  0  0  0  0  0  0
    6.3808    0.9701   -1.3477 C   0  0  0  0  0  0  0  0  0  0  0  0
    5.0340    1.4287   -1.7212 C   0  0  0  0  0  0  0  0  0  0  0  0
    3.9441    1.0471   -1.2174 O   0  0  0  0  0  0  0  0  0  0  0  0
    5.1655    2.4043   -2.7790 C   0  0  0  0  0  0  0  0  0  0  0  0
    4.1737    3.2268   -3.3103 C   0  0  0  0  0  0  0  0  0  0  0  0
    4.5448    4.2136   -4.2370 C   0  0  0  0  0  0  0  0  0  0  0  0
    3.5784    5.0710   -4.7919 C   0  0  0  0  0  0  0  0  0  0  0  0
    3.9579    6.0734   -5.6844 C   0  0  0  0  0  0  0  0  0  0  0  0
    5.3011    6.2212   -6.0447 C   0  0  0  0  0  0  0  0  0  0  0  0
    5.6621    7.2010   -6.9089 F   0  0  0  0  0  0  0  0  0  0  0  0
    6.2767    5.3785   -5.4990 C   0  0  0  0  0  0  0  0  0  0  0  0
    5.9136    4.3691   -4.5932 C   0  0  0  0  0  0  0  0  0  0  0  0
    6.8912    3.5299   -4.0251 C   0  0  0  0  0  0  0  0  0  0  0  0
    6.4969    2.5179   -3.1392 C   0  0  0  0  0  0  0  0  0  0  0  0
    7.3085    1.5313   -2.3677 C   0  0  0  0  0  0  0  0  0  0  0  0
    8.5380    1.0616   -2.6926 C   0  0  0  0  0  0  0  0  0  0  0  0
    9.2608    1.5356   -3.8412 C   0  0  0  0  0  0  0  0  0  0  0  0
    9.8430    1.9040   -4.7709 N   0  0  0  0  0  0  0  0  0  0  0  0
    9.1380   -0.0536   -2.0057 C   0  0  0  0  0  0  0  0  0  0  0  0
    9.6247   -0.9605   -1.4743 N   0  0  0  0  0  0  0  0  0  0  0  0
    5.7001    0.1655    0.8790 C   0  0  0  0  0  0  0  0  0  0  0  0
    5.1658    1.2482    1.5808 C   0  0  0  0  0  0  0  0  0  0  0  0
    5.6943    2.4888    1.4216 F   0  0  0  0  0  0  0  0  0  0  0  0
    4.0381    1.0832    2.3823 C   0  0  0  0  0  0  0  0  0  0  0  0
    3.5655    2.1855    3.0200 F   0  0  0  0  0  0  0  0  0  0  0  0
    3.3849   -0.1780    2.4702 C   0  0  0  0  0  0  0  0  0  0  0  0
    4.1078   -1.3097    1.9874 C   0  0  0  0  0  0  0  0  0  0  0  0
    3.7718   -2.5829    2.3269 N   0  0  0  0  0  0  0  0  0  0  0  0
    4.4237   -3.6735    1.8257 C   0  0  0  0  0  0  0  0  0  0  0  0
    4.0141   -5.0445    2.2982 C   0  0  0  0  0  0  0  0  0  0  0  0
    4.7400   -5.4169    3.5875 C   0  0  0  0  0  0  0  0  0  0  0  0
    5.4902   -3.4712    0.9238 C   0  0  0  0  0  0  0  0  0  0  0  0
    5.8587   -2.2005    0.6213 N   0  0  0  0  0  0  0  0  0  0  0  0
    5.2327   -1.1215    1.1545 C   0  0  0  0  0  0  0  0  0  0  0  0
    6.2148   -4.5980    0.2337 C   0  0  0  0  0  0  0  0  0  0  0  0
    5.4721   -5.0027   -1.0373 C   0  0  0  0  0  0  0  0  0  0  0  0
    1.9112   -0.2078    2.8207 C   0  0  0  0  0  0  0  0  0  0  0  0
    0.9225   -1.1463    2.4146 C   0  0  0  0  0  0  0  0  0  0  0  0
    1.1543   -2.4203    1.8064 N   0  0  0  0  0  0  0  0  0  0  0  0
    0.7350   -3.5421    2.6142 C   0  0  0  0  0  0  0  0  0  0  0  0
   -0.2511   -4.4409    2.1649 C   0  0  0  0  0  0  0  0  0  0  0  0
   -0.6886   -5.4830    2.9902 C   0  0  0  0  0  0  0  0  0  0  0  0
   -0.1601   -5.6298    4.2766 C   0  0  0  0  0  0  0  0  0  0  0  0
   -0.7008   -6.9709    5.3334 S   0  0  0  0  0  0  0  0  0  0  0  0
   -2.0197   -5.9843    6.1118 C   0  0  0  0  0  0  0  0  0  0  0  0
    0.7924   -4.7213    4.7444 C   0  0  0  0  0  0  0  0  0  0  0  0
    1.2200   -3.6722    3.9285 C   0  0  0  0  0  0  0  0  0  0  0  0
    1.4088   -2.5098    0.3741 C   0  0  0  0  0  0  0  0  0  0  0  0
    1.4608   -1.3460   -0.4257 C   0  0  0  0  0  0  0  0  0  0  0  0
    1.6504   -1.4381   -1.8049 C   0  0  0  0  0  0  0  0  0  0  0  0
    1.8009   -2.6809   -2.4158 C   0  0  0  0  0  0  0  0  0  0  0  0
    1.9340   -2.7810   -4.1995 S   0  0  0  0  0  0  0  0  0  0  0  0
    3.7454   -2.6115   -4.2145 C   0  0  0  0  0  0  0  0  0  0  0  0
    1.8109   -3.8376   -1.6386 C   0  0  0  0  0  0  0  0  0  0  0  0
    1.6332   -3.7535   -0.2520 C   0  0  0  0  0  0  0  0  0  0  0  0
   -0.3744   -0.6317    2.4525 C   0  0  0  0  0  0  0  0  0  0  0  0
   -1.7276   -1.0939    1.5955 S   0  0  0  0  0  0  0  0  0  0  0  0
   -2.5120    0.4027    1.7301 C   0  0  0  0  0  0  0  0  0  0  0  0
   -1.7033    1.2943    2.4846 C   0  0  0  0  0  0  0  0  0  0  0  0
   -2.0017    2.6929    2.7451 N   0  0  0  0  0  0  0  0  0  0  0  0
   -1.1717    3.4584    3.6286 C   0  0  0  0  0  0  0  0  0  0  0  0
   -0.3529    4.4771    3.1275 C   0  0  0  0  0  0  0  0  0  0  0  0
    0.4703    5.2071    3.9884 C   0  0  0  0  0  0  0  0  0  0  0  0
    0.4896    4.9142    5.3562 C   0  0  0  0  0  0  0  0  0  0  0  0
    1.5642    5.8401    6.4536 S   0  0  0  0  0  0  0  0  0  0  0  0
    2.9890    4.7392    6.1798 C   0  0  0  0  0  0  0  0  0  0  0  0
   -0.3301    3.8971    5.8644 C   0  0  0  0  0  0  0  0  0  0  0  0
   -1.1626    3.1743    5.0036 C   0  0  0  0  0  0  0  0  0  0  0  0
   -3.2680    3.2749    2.4055 C   0  0  0  0  0  0  0  0  0  0  0  0
   -3.3409    4.3002    1.4531 C   0  0  0  0  0  0  0  0  0  0  0  0
   -4.5770    4.8347    1.0870 C   0  0  0  0  0  0  0  0  0  0  0  0
   -5.7476    4.3711    1.6961 C   0  0  0  0  0  0  0  0  0  0  0  0
   -7.3335    5.0775    1.2425 S   0  0  0  0  0  0  0  0  0  0  0  0
   -7.2149    6.4233    2.4653 C   0  0  0  0  0  0  0  0  0  0  0  0
   -5.6786    3.3624    2.6638 C   0  0  0  0  0  0  0  0  0  0  0  0
   -4.4424    2.8219    3.0254 C   0  0  0  0  0  0  0  0  0  0  0  0
   -0.5054    0.6527    2.8602 C   0  0  0  0  0  0  0  0  0  0  0  0
    1.0291    1.2085    3.2218 S   0  0  0  0  0  0  0  0  0  0  0  0
   -3.6055    0.7410    0.8016 C   0  0  0  0  0  0  0  0  0  0  0  0
   -3.3613    1.6189   -0.2702 C   0  0  0  0  0  0  0  0  0  0  0  0
   -2.1445    2.1990   -0.4149 F   0  0  0  0  0  0  0  0  0  0  0  0
   -4.3635    1.8917   -1.2062 C   0  0  0  0  0  0  0  0  0  0  0  0
   -4.1181    2.7835   -2.1990 F   0  0  0  0  0  0  0  0  0  0  0  0
   -5.6049    1.2415   -1.1266 C   0  0  0  0  0  0  0  0  0  0  0  0
   -5.8357    0.3204   -0.0918 C   0  0  0  0  0  0  0  0  0  0  0  0
   -7.0051   -0.3649   -0.0199 N   0  0  0  0  0  0  0  0  0  0  0  0
   -7.2423   -1.2923    0.9459 C   0  0  0  0  0  0  0  0  0  0  0  0
   -8.5429   -2.0495    0.8901 C   0  0  0  0  0  0  0  0  0  0  0  0
   -8.3957   -3.3152    0.0487 C   0  0  0  0  0  0  0  0  0  0  0  0
   -6.2393   -1.5496    1.9083 C   0  0  0  0  0  0  0  0  0  0  0  0
   -5.0746   -0.8514    1.8407 N   0  0  0  0  0  0  0  0  0  0  0  0
   -4.8362    0.0672    0.8678 C   0  0  0  0  0  0  0  0  0  0  0  0
   -6.4034   -2.5485    3.0231 C   0  0  0  0  0  0  0  0  0  0  0  0
   -7.0250   -1.8890    4.2494 C   0  0  0  0  0  0  0  0  0  0  0  0
   -6.6780    1.5639   -2.0870 C   0  0  0  0  0  0  0  0  0  0  0  0
   -6.6317    1.2424   -3.3956 C   0  0  0  0  0  0  0  0  0  0  0  0
   -5.5013    0.6257   -4.0995 C   0  0  0  0  0  0  0  0  0  0  0  0
   -4.5194    0.0377   -3.5730 O   0  0  0  0  0  0  0  0  0  0  0  0
   -5.7020    0.8054   -5.5232 C   0  0  0  0  0  0  0  0  0  0  0  0
   -4.8330    0.4866   -6.5642 C   0  0  0  0  0  0  0  0  0  0  0  0
   -5.1842    0.8607   -7.8750 C   0  0  0  0  0  0  0  0  0  0  0  0
   -4.3418    0.5515   -8.9548 C   0  0  0  0  0  0  0  0  0  0  0  0
   -4.6777    0.9640  -10.2479 C   0  0  0  0  0  0  0  0  0  0  0  0
   -5.8500    1.6897  -10.4705 C   0  0  0  0  0  0  0  0  0  0  0  0
   -6.1640    2.0920  -11.7262 F   0  0  0  0  0  0  0  0  0  0  0  0
   -6.7099    1.9885   -9.4084 C   0  0  0  0  0  0  0  0  0  0  0  0
   -6.3900    1.5797   -8.1039 C   0  0  0  0  0  0  0  0  0  0  0  0
   -7.2494    1.8819   -7.0277 C   0  0  0  0  0  0  0  0  0  0  0  0
   -6.9080    1.4495   -5.7389 C   0  0  0  0  0  0  0  0  0  0  0  0
   -7.6226    1.6293   -4.4460 C   0  0  0  0  0  0  0  0  0  0  0  0
   -8.9601    1.7984   -4.2801 C   0  0  0  0  0  0  0  0  0  0  0  0
   -9.8608    1.9756   -5.3898 C   0  0  0  0  0  0  0  0  0  0  0  0
  -10.5943    2.1185   -6.2719 N   0  0  0  0  0  0  0  0  0  0  0  0
   -9.6015    1.6302   -2.9998 C   0  0  0  0  0  0  0  0  0  0  0  0
  -10.1250    1.4826   -1.9803 N   0  0  0  0  0  0  0  0  0  0  0  0
    7.7385    0.2289    0.0886 H   0  0  0  0  0  0  0  0  0  0  0  0
    3.1444    3.1197   -2.9871 H   0  0  0  0  0  0  0  0  0  0  0  0
    2.5311    4.9769   -4.5146 H   0  0  0  0  0  0  0  0  0  0  0  0
    3.2075    6.7350   -6.0991 H   0  0  0  0  0  0  0  0  0  0  0  0
    7.3104    5.5127   -5.7875 H   0  0  0  0  0  0  0  0  0  0  0  0
    7.9335    3.6957   -4.2596 H   0  0  0  0  0  0  0  0  0  0  0  0
    2.9249   -5.0694    2.4871 H   0  0  0  0  0  0  0  0  0  0  0  0
    4.1889   -5.8244    1.5297 H   0  0  0  0  0  0  0  0  0  0  0  0
    4.5666   -4.6322    4.3564 H   0  0  0  0  0  0  0  0  0  0  0  0
    4.3373   -6.3737    3.9760 H   0  0  0  0  0  0  0  0  0  0  0  0
    5.8308   -5.5242    3.4038 H   0  0  0  0  0  0  0  0  0  0  0  0
    6.3369   -5.4719    0.9077 H   0  0  0  0  0  0  0  0  0  0  0  0
    7.2366   -4.2652   -0.0412 H   0  0  0  0  0  0  0  0  0  0  0  0
    4.4389   -5.3426   -0.8053 H   0  0  0  0  0  0  0  0  0  0  0  0
    5.4165   -4.1433   -1.7365 H   0  0  0  0  0  0  0  0  0  0  0  0
    6.0128   -5.8312   -1.5389 H   0  0  0  0  0  0  0  0  0  0  0  0
   -0.6941   -4.3246    1.1863 H   0  0  0  0  0  0  0  0  0  0  0  0
   -1.4475   -6.1711    2.6352 H   0  0  0  0  0  0  0  0  0  0  0  0
   -2.5393   -6.6097    6.8671 H   0  0  0  0  0  0  0  0  0  0  0  0
   -2.7518   -5.6623    5.3440 H   0  0  0  0  0  0  0  0  0  0  0  0
   -1.5820   -5.0962    6.6130 H   0  0  0  0  0  0  0  0  0  0  0  0
    1.1962   -4.8138    5.7436 H   0  0  0  0  0  0  0  0  0  0  0  0
    1.9478   -2.9690    4.3130 H   0  0  0  0  0  0  0  0  0  0  0  0
    1.3334   -0.3605    0.0040 H   0  0  0  0  0  0  0  0  0  0  0  0
    1.6618   -0.5329   -2.4015 H   0  0  0  0  0  0  0  0  0  0  0  0
    4.0725   -1.7915   -3.5431 H   0  0  0  0  0  0  0  0  0  0  0  0
    4.2055   -3.5686   -3.8999 H   0  0  0  0  0  0  0  0  0  0  0  0
    4.0675   -2.3832   -5.2525 H   0  0  0  0  0  0  0  0  0  0  0  0
    1.9421   -4.8034   -2.0996 H   0  0  0  0  0  0  0  0  0  0  0  0
    1.6695   -4.6676    0.3218 H   0  0  0  0  0  0  0  0  0  0  0  0
   -0.3384    4.6950    2.0673 H   0  0  0  0  0  0  0  0  0  0  0  0
    1.0981    5.9978    3.5921 H   0  0  0  0  0  0  0  0  0  0  0  0
    3.8435    5.0874    6.7968 H   0  0  0  0  0  0  0  0  0  0  0  0
    2.7267    3.6980    6.4673 H   0  0  0  0  0  0  0  0  0  0  0  0
    3.2859    4.7664    5.1113 H   0  0  0  0  0  0  0  0  0  0  0  0
   -0.3202    3.6704    6.9230 H   0  0  0  0  0  0  0  0  0  0  0  0
   -1.7876    2.3841    5.4035 H   0  0  0  0  0  0  0  0  0  0  0  0
   -2.4448    4.6540    0.9587 H   0  0  0  0  0  0  0  0  0  0  0  0
   -4.6251    5.6098    0.3333 H   0  0  0  0  0  0  0  0  0  0  0  0
   -8.1142    7.0675    2.3854 H   0  0  0  0  0  0  0  0  0  0  0  0
   -6.3143    7.0393    2.2700 H   0  0  0  0  0  0  0  0  0  0  0  0
   -7.1652    5.9986    3.4922 H   0  0  0  0  0  0  0  0  0  0  0  0
   -6.5803    3.0045    3.1425 H   0  0  0  0  0  0  0  0  0  0  0  0
   -4.3984    2.0349    3.7672 H   0  0  0  0  0  0  0  0  0  0  0  0
   -9.3257   -1.4052    0.4261 H   0  0  0  0  0  0  0  0  0  0  0  0
   -8.9026   -2.3070    1.9082 H   0  0  0  0  0  0  0  0  0  0  0  0
   -9.3407   -3.8943    0.0917 H   0  0  0  0  0  0  0  0  0  0  0  0
   -7.5714   -3.9515    0.4338 H   0  0  0  0  0  0  0  0  0  0  0  0
   -8.1916   -3.0503   -1.0099 H   0  0  0  0  0  0  0  0  0  0  0  0
   -7.0175   -3.4166    2.7072 H   0  0  0  0  0  0  0  0  0  0  0  0
   -5.4047   -2.9548    3.3008 H   0  0  0  0  0  0  0  0  0  0  0  0
   -6.3554   -1.0913    4.6334 H   0  0  0  0  0  0  0  0  0  0  0  0
   -8.0083   -1.4430    3.9952 H   0  0  0  0  0  0  0  0  0  0  0  0
   -7.1716   -2.6450    5.0465 H   0  0  0  0  0  0  0  0  0  0  0  0
   -7.5077    2.1221   -1.6879 H   0  0  0  0  0  0  0  0  0  0  0  0
   -3.8994   -0.0189   -6.3562 H   0  0  0  0  0  0  0  0  0  0  0  0
   -3.4233    0.0003   -8.7986 H   0  0  0  0  0  0  0  0  0  0  0  0
   -4.0226    0.7263  -11.0735 H   0  0  0  0  0  0  0  0  0  0  0  0
   -7.6227    2.5383   -9.6052 H   0  0  0  0  0  0  0  0  0  0  0  0
   -8.1372    2.4681   -7.2097 H   0  0  0  0  0  0  0  0  0  0  0  0
  1  2  2  3
  2  3  1  0
  3  4  2  0
  3  5  1  0
  5  6  2  0
  6  7  1  0
  7  8  2  0
  8  9  1  0
  9 10  2  0
 10 11  1  0
 10 12  1  0
 12 13  2  0
 13 14  1  0
 14 15  2  0
 15 16  1  0
 16 17  2  3
 17 18  1  0
 18 19  3  0
 17 20  1  0
 20 21  3  0
  1 22  1  0
 22 23  2  0
 23 24  1  0
 23 25  1  0
 25 26  1  0
 25 27  2  0
 27 28  1  0
 28 29  2  0
 29 30  1  0
 30 31  1  0
 31 32  1  0
 30 33  2  0
 33 34  1  0
 34 35  2  0
 33 36  1  0
 36 37  1  0
 27 38  1  0
 38 39  2  0
 39 40  1  0
 40 41  1  0
 41 42  2  0
 42 43  1  0
 43 44  2  0
 44 45  1  0
 45 46  1  0
 44 47  1  0
 47 48  2  0
 40 49  1  0
 49 50  2  0
 50 51  1  0
 51 52  2  0
 52 53  1  0
 53 54  1  0
 52 55  1  0
 55 56  2  0
 39 57  1  0
 57 58  1  0
 58 59  1  0
 59 60  2  0
 60 61  1  0
 61 62  1  0
 62 63  2  0
 63 64  1  0
 64 65  2  0
 65 66  1  0
 66 67  1  0
 65 68  1  0
 68 69  2  0
 61 70  1  0
 70 71  2  0
 71 72  1  0
 72 73  2  0
 73 74  1  0
 74 75  1  0
 73 76  1  0
 76 77  2  0
 60 78  1  0
 78 79  1  0
 59 80  1  0
 80 81  2  0
 81 82  1  0
 81 83  1  0
 83 84  1  0
 83 85  2  0
 85 86  1  0
 86 87  2  0
 87 88  1  0
 88 89  1  0
 89 90  1  0
 88 91  2  0
 91 92  1  0
 92 93  2  0
 91 94  1  0
 94 95  1  0
 85 96  1  0
 96 97  2  3
 97 98  1  0
 98 99  2  0
 98100  1  0
100101  2  0
101102  1  0
102103  2  0
103104  1  0
104105  2  0
105106  1  0
105107  1  0
107108  2  0
108109  1  0
109110  2  0
110111  1  0
111112  2  3
112113  1  0
113114  3  0
112115  1  0
115116  3  0
 16  2  1  0
 35 22  1  0
 79 38  1  0
 93 80  1  0
111 97  1  0
 15  5  1  0
 35 28  1  0
 48 41  1  0
 56 49  1  0
 78 57  2  0
 93 86  1  0
110100  1  0
 13  7  1  0
 69 62  1  0
 77 70  1  0
108102  1  0
  1117  1  0
  6118  1  0
  8119  1  0
  9120  1  0
 12121  1  0
 14122  1  0
 31123  1  0
 31124  1  0
 32125  1  0
 32126  1  0
 32127  1  0
 36128  1  0
 36129  1  0
 37130  1  0
 37131  1  0
 37132  1  0
 42133  1  0
 43134  1  0
 46135  1  0
 46136  1  0
 46137  1  0
 47138  1  0
 48139  1  0
 50140  1  0
 51141  1  0
 54142  1  0
 54143  1  0
 54144  1  0
 55145  1  0
 56146  1  0
 63147  1  0
 64148  1  0
 67149  1  0
 67150  1  0
 67151  1  0
 68152  1  0
 69153  1  0
 71154  1  0
 72155  1  0
 75156  1  0
 75157  1  0
 75158  1  0
 76159  1  0
 77160  1  0
 89161  1  0
 89162  1  0
 90163  1  0
 90164  1  0
 90165  1  0
 94166  1  0
 94167  1  0
 95168  1  0
 95169  1  0
 95170  1  0
 96171  1  0
101172  1  0
103173  1  0
104174  1  0
107175  1  0
109176  1  0
M  END

