
     RDKit          3D

260283  0  0  0  0  0  0  0  0999 V2000
   -0.4163   -5.6830   -6.2305 C   0  0  0  0  0  0  0  0  0  0  0  0
    0.8746   -5.9885   -6.4431 C   0  0  0  0  0  0  0  0  0  0  0  0
    2.0145   -5.0842   -6.2884 C   0  0  0  0  0  0  0  0  0  0  0  0
    2.0551   -4.0436   -5.5829 O   0  0  0  0  0  0  0  0  0  0  0  0
    3.1305   -5.6354   -7.0289 C   0  0  0  0  0  0  0  0  0  0  0  0
    4.3814   -5.0673   -7.2413 C   0  0  0  0  0  0  0  0  0  0  0  0
    5.3130   -5.7694   -8.0285 C   0  0  0  0  0  0  0  0  0  0  0  0
    6.5962   -5.2501   -8.2383 C   0  0  0  0  0  0  0  0  0  0  0  0
    7.5289   -5.9673   -8.9988 C   0  0  0  0  0  0  0  0  0  0  0  0
    7.1769   -7.1858   -9.5801 C   0  0  0  0  0  0  0  0  0  0  0  0
    8.0812   -7.8642  -10.3300 F   0  0  0  0  0  0  0  0  0  0  0  0
    5.9023   -7.7271   -9.3747 C   0  0  0  0  0  0  0  0  0  0  0  0
    4.9574   -7.0261   -8.5999 C   0  0  0  0  0  0  0  0  0  0  0  0
    3.6668   -7.5575   -8.3807 C   0  0  0  0  0  0  0  0  0  0  0  0
    2.7673   -6.8615   -7.5635 C   0  0  0  0  0  0  0  0  0  0  0  0
    1.3902   -7.2082   -7.1183 C   0  0  0  0  0  0  0  0  0  0  0  0
    0.8629   -8.4593   -7.0047 C   0  0  0  0  0  0  0  0  0  0  0  0
   -0.2869   -8.7240   -6.1762 C   0  0  0  0  0  0  0  0  0  0  0  0
   -1.2108   -8.9344   -5.5115 N   0  0  0  0  0  0  0  0  0  0  0  0
    1.5259   -9.6268   -7.5231 C   0  0  0  0  0  0  0  0  0  0  0  0
    2.0476  -10.5794   -7.9321 N   0  0  0  0  0  0  0  0  0  0  0  0
   -0.8725   -4.5303   -5.4536 C   0  0  0  0  0  0  0  0  0  0  0  0
   -0.8811   -3.1710   -5.8252 C   0  0  0  0  0  0  0  0  0  0  0  0
   -0.3682   -2.6469   -7.0590 N   0  0  0  0  0  0  0  0  0  0  0  0
   -1.0135   -3.0982   -8.2566 C   0  0  0  0  0  0  0  0  0  0  0  0
   -2.3033   -2.6430   -8.5636 C   0  0  0  0  0  0  0  0  0  0  0  0
   -2.9601   -3.1147   -9.7012 C   0  0  0  0  0  0  0  0  0  0  0  0
   -2.3383   -4.0591  -10.5279 C   0  0  0  0  0  0  0  0  0  0  0  0
   -3.2000   -4.7039  -11.9640 S   0  0  0  0  0  0  0  0  0  0  0  0
   -4.1043   -5.9432  -10.9831 C   0  0  0  0  0  0  0  0  0  0  0  0
   -1.0453   -4.5069  -10.2293 C   0  0  0  0  0  0  0  0  0  0  0  0
   -0.3801   -4.0222   -9.1005 C   0  0  0  0  0  0  0  0  0  0  0  0
    0.6244   -1.5837   -7.0949 C   0  0  0  0  0  0  0  0  0  0  0  0
    1.2885   -1.1684   -5.9175 C   0  0  0  0  0  0  0  0  0  0  0  0
    2.2387   -0.1495   -5.9526 C   0  0  0  0  0  0  0  0  0  0  0  0
    2.5743    0.4635   -7.1590 C   0  0  0  0  0  0  0  0  0  0  0  0
    3.8021    1.7717   -7.1889 S   0  0  0  0  0  0  0  0  0  0  0  0
    5.2170    0.6371   -7.3784 C   0  0  0  0  0  0  0  0  0  0  0  0
    1.9302    0.0717   -8.3364 C   0  0  0  0  0  0  0  0  0  0  0  0
    0.9623   -0.9393   -8.3076 C   0  0  0  0  0  0  0  0  0  0  0  0
   -1.5461   -2.4080   -4.8671 C   0  0  0  0  0  0  0  0  0  0  0  0
   -1.9892   -0.8052   -4.7016 S   0  0  0  0  0  0  0  0  0  0  0  0
   -2.7506   -0.9919   -3.1760 C   0  0  0  0  0  0  0  0  0  0  0  0
   -2.6460   -2.3560   -2.8158 C   0  0  0  0  0  0  0  0  0  0  0  0
   -3.2411   -2.9929   -1.6774 N   0  0  0  0  0  0  0  0  0  0  0  0
   -4.5818   -3.5411   -1.8160 C   0  0  0  0  0  0  0  0  0  0  0  0
   -5.2265   -4.2084   -0.7476 C   0  0  0  0  0  0  0  0  0  0  0  0
   -6.4968   -4.7776   -0.9214 C   0  0  0  0  0  0  0  0  0  0  0  0
   -7.1698   -4.6458   -2.1377 C   0  0  0  0  0  0  0  0  0  0  0  0
   -8.8057   -5.3532   -2.3503 S   0  0  0  0  0  0  0  0  0  0  0  0
   -8.1682   -6.8875   -3.0961 C   0  0  0  0  0  0  0  0  0  0  0  0
   -6.5652   -3.9545   -3.1913 C   0  0  0  0  0  0  0  0  0  0  0  0
   -5.2871   -3.4161   -3.0387 C   0  0  0  0  0  0  0  0  0  0  0  0
   -2.3149   -3.4812   -0.6798 C   0  0  0  0  0  0  0  0  0  0  0  0
   -1.4674   -2.5836   -0.0042 C   0  0  0  0  0  0  0  0  0  0  0  0
   -0.6501   -3.0324    1.0341 C   0  0  0  0  0  0  0  0  0  0  0  0
   -0.6637   -4.3815    1.4044 C   0  0  0  0  0  0  0  0  0  0  0  0
    0.3200   -4.9308    2.7923 S   0  0  0  0  0  0  0  0  0  0  0  0
   -1.0694   -4.8221    3.9635 C   0  0  0  0  0  0  0  0  0  0  0  0
   -1.4201   -5.3004    0.6627 C   0  0  0  0  0  0  0  0  0  0  0  0
   -2.2368   -4.8523   -0.3782 C   0  0  0  0  0  0  0  0  0  0  0  0
   -1.9911   -3.0987   -3.7894 C   0  0  0  0  0  0  0  0  0  0  0  0
   -1.6529   -4.7256   -3.9552 S   0  0  0  0  0  0  0  0  0  0  0  0
   -2.9473    0.1609   -2.2677 C   0  0  0  0  0  0  0  0  0  0  0  0
   -3.4182    0.1421   -0.9286 C   0  0  0  0  0  0  0  0  0  0  0  0
   -4.6511   -0.4881   -0.4781 N   0  0  0  0  0  0  0  0  0  0  0  0
   -5.8420   -0.5175   -1.3153 C   0  0  0  0  0  0  0  0  0  0  0  0
   -5.9981    0.3386   -2.4306 C   0  0  0  0  0  0  0  0  0  0  0  0
   -7.1707    0.3153   -3.1900 C   0  0  0  0  0  0  0  0  0  0  0  0
   -8.2290   -0.5150   -2.8265 C   0  0  0  0  0  0  0  0  0  0  0  0
   -9.7491   -0.5074   -3.7800 S   0  0  0  0  0  0  0  0  0  0  0  0
  -10.4679    0.8789   -2.8409 C   0  0  0  0  0  0  0  0  0  0  0  0
   -8.1136   -1.3361   -1.7024 C   0  0  0  0  0  0  0  0  0  0  0  0
   -6.9322   -1.3442   -0.9569 C   0  0  0  0  0  0  0  0  0  0  0  0
   -4.8693   -0.5723    0.9454 C   0  0  0  0  0  0  0  0  0  0  0  0
   -4.3508   -1.6403    1.6949 C   0  0  0  0  0  0  0  0  0  0  0  0
   -4.5030   -1.6683    3.0827 C   0  0  0  0  0  0  0  0  0  0  0  0
   -5.1563   -0.6205    3.7417 C   0  0  0  0  0  0  0  0  0  0  0  0
   -5.2781   -0.6240    5.5303 S   0  0  0  0  0  0  0  0  0  0  0  0
   -3.6551    0.1778    5.7533 C   0  0  0  0  0  0  0  0  0  0  0  0
   -5.6963    0.4375    2.9974 C   0  0  0  0  0  0  0  0  0  0  0  0
   -5.5630    0.4557    1.6079 C   0  0  0  0  0  0  0  0  0  0  0  0
   -2.8023    1.1616   -0.1895 C   0  0  0  0  0  0  0  0  0  0  0  0
   -2.2964    1.2355    1.4064 S   0  0  0  0  0  0  0  0  0  0  0  0
   -1.1716    2.4955    1.1925 C   0  0  0  0  0  0  0  0  0  0  0  0
   -1.2006    2.8657   -0.1631 C   0  0  0  0  0  0  0  0  0  0  0  0
   -0.8504    4.1834   -0.6282 N   0  0  0  0  0  0  0  0  0  0  0  0
   -1.5139    5.3378   -0.0423 C   0  0  0  0  0  0  0  0  0  0  0  0
   -0.9422    6.6217   -0.1586 C   0  0  0  0  0  0  0  0  0  0  0  0
   -1.6059    7.7464    0.3449 C   0  0  0  0  0  0  0  0  0  0  0  0
   -2.8527    7.6086    0.9609 C   0  0  0  0  0  0  0  0  0  0  0  0
   -3.7031    9.0472    1.6115 S   0  0  0  0  0  0  0  0  0  0  0  0
   -4.7079    9.2872    0.1135 C   0  0  0  0  0  0  0  0  0  0  0  0
   -3.4338    6.3429    1.0841 C   0  0  0  0  0  0  0  0  0  0  0  0
   -2.7740    5.2205    0.5852 C   0  0  0  0  0  0  0  0  0  0  0  0
   -0.2554    4.2936   -1.9367 C   0  0  0  0  0  0  0  0  0  0  0  0
   -0.9022    5.0232   -2.9484 C   0  0  0  0  0  0  0  0  0  0  0  0
   -0.3813    5.0556   -4.2424 C   0  0  0  0  0  0  0  0  0  0  0  0
    0.7952    4.3588   -4.5394 C   0  0  0  0  0  0  0  0  0  0  0  0
    1.4659    4.4233   -6.1986 S   0  0  0  0  0  0  0  0  0  0  0  0
    2.3818    5.9690   -5.8883 C   0  0  0  0  0  0  0  0  0  0  0  0
    1.4426    3.6200   -3.5414 C   0  0  0  0  0  0  0  0  0  0  0  0
    0.9155    3.5794   -2.2452 C   0  0  0  0  0  0  0  0  0  0  0  0
   -2.0730    2.0586   -0.8962 C   0  0  0  0  0  0  0  0  0  0  0  0
   -1.9961    1.5574   -2.4804 S   0  0  0  0  0  0  0  0  0  0  0  0
    0.0927    2.4254    1.9343 C   0  0  0  0  0  0  0  0  0  0  0  0
    0.6361    3.3730    2.8113 C   0  0  0  0  0  0  0  0  0  0  0  0
    0.1932    4.7291    2.9663 N   0  0  0  0  0  0  0  0  0  0  0  0
    1.1301    5.7443    2.5347 C   0  0  0  0  0  0  0  0  0  0  0  0
    1.7746    5.6141    1.2909 C   0  0  0  0  0  0  0  0  0  0  0  0
    2.7554    6.5228    0.8919 C   0  0  0  0  0  0  0  0  0  0  0  0
    3.1496    7.5528    1.7536 C   0  0  0  0  0  0  0  0  0  0  0  0
    4.2186    8.5216    1.3362 C   0  0  0  0  0  0  0  0  0  0  0  0
    2.5178    7.6939    2.9980 C   0  0  0  0  0  0  0  0  0  0  0  0
    1.5278    6.7871    3.3944 C   0  0  0  0  0  0  0  0  0  0  0  0
   -0.9914    5.0221    3.7544 C   0  0  0  0  0  0  0  0  0  0  0  0
   -1.5524    6.3162    3.7645 C   0  0  0  0  0  0  0  0  0  0  0  0
   -2.6909    6.5929    4.5284 C   0  0  0  0  0  0  0  0  0  0  0  0
   -3.2976    5.5843    5.2874 C   0  0  0  0  0  0  0  0  0  0  0  0
   -4.4880    5.8997    6.1438 C   0  0  0  0  0  0  0  0  0  0  0  0
   -2.7402    4.3004    5.2959 C   0  0  0  0  0  0  0  0  0  0  0  0
   -1.6081    4.0185    4.5301 C   0  0  0  0  0  0  0  0  0  0  0  0
    1.7467    2.8696    3.4739 C   0  0  0  0  0  0  0  0  0  0  0  0
    2.7159    3.4349    4.7238 S   0  0  0  0  0  0  0  0  0  0  0  0
    3.6082    1.9822    4.8414 C   0  0  0  0  0  0  0  0  0  0  0  0
    3.1785    1.0928    3.8454 C   0  0  0  0  0  0  0  0  0  0  0  0
    3.8205   -0.1559    3.5438 N   0  0  0  0  0  0  0  0  0  0  0  0
    4.7824   -0.2300    2.4634 C   0  0  0  0  0  0  0  0  0  0  0  0
    4.9841   -1.4339    1.7668 C   0  0  0  0  0  0  0  0  0  0  0  0
    5.9714   -1.5348    0.7831 C   0  0  0  0  0  0  0  0  0  0  0  0
    6.7759   -0.4310    0.4757 C   0  0  0  0  0  0  0  0  0  0  0  0
    7.8462   -0.5422   -0.5691 C   0  0  0  0  0  0  0  0  0  0  0  0
    6.5451    0.7910    1.1232 C   0  0  0  0  0  0  0  0  0  0  0  0
    5.5579    0.8925    2.1088 C   0  0  0  0  0  0  0  0  0  0  0  0
    3.5894   -1.2839    4.4098 C   0  0  0  0  0  0  0  0  0  0  0  0
    4.6709   -2.0234    4.9107 C   0  0  0  0  0  0  0  0  0  0  0  0
    4.4489   -3.1389    5.7186 C   0  0  0  0  0  0  0  0  0  0  0  0
    3.1391   -3.5270    6.0456 C   0  0  0  0  0  0  0  0  0  0  0  0
    2.8906   -4.7625    6.8562 C   0  0  0  0  0  0  0  0  0  0  0  0
    2.0575   -2.7780    5.5547 C   0  0  0  0  0  0  0  0  0  0  0  0
    2.2805   -1.6614    4.7483 C   0  0  0  0  0  0  0  0  0  0  0  0
    2.1120    1.6139    3.1297 C   0  0  0  0  0  0  0  0  0  0  0  0
    1.0509    1.0083    1.9860 S   0  0  0  0  0  0  0  0  0  0  0  0
    4.7093    1.7348    5.7850 C   0  0  0  0  0  0  0  0  0  0  0  0
    4.6421    2.0195    7.1013 C   0  0  0  0  0  0  0  0  0  0  0  0
    3.4069    2.2625    7.8641 C   0  0  0  0  0  0  0  0  0  0  0  0
    2.2363    2.3073    7.4049 O   0  0  0  0  0  0  0  0  0  0  0  0
    3.7257    2.2503    9.2695 C   0  0  0  0  0  0  0  0  0  0  0  0
    2.8355    2.3638   10.3367 C   0  0  0  0  0  0  0  0  0  0  0  0
    3.3325    2.2385   11.6393 C   0  0  0  0  0  0  0  0  0  0  0  0
    2.4714    2.3354   12.7408 C   0  0  0  0  0  0  0  0  0  0  0  0
    2.9723    2.1924   14.0388 C   0  0  0  0  0  0  0  0  0  0  0  0
    4.3329    1.9412   14.2447 C   0  0  0  0  0  0  0  0  0  0  0  0
    4.8114    1.7954   15.5052 F   0  0  0  0  0  0  0  0  0  0  0  0
    5.2010    1.8365   13.1554 C   0  0  0  0  0  0  0  0  0  0  0  0
    4.7176    1.9840   11.8459 C   0  0  0  0  0  0  0  0  0  0  0  0
    5.5903    1.8619   10.7443 C   0  0  0  0  0  0  0  0  0  0  0  0
    5.0780    2.0142    9.4444 C   0  0  0  0  0  0  0  0  0  0  0  0
    5.7445    1.9160    8.1079 C   0  0  0  0  0  0  0  0  0  0  0  0
    7.0813    1.9222    7.8563 C   0  0  0  0  0  0  0  0  0  0  0  0
    7.6233    2.0570    6.5246 C   0  0  0  0  0  0  0  0  0  0  0  0
    8.0705    2.1653    5.4635 N   0  0  0  0  0  0  0  0  0  0  0  0
    8.0706    1.9298    8.8985 C   0  0  0  0  0  0  0  0  0  0  0  0
    8.8810    1.9388    9.7271 N   0  0  0  0  0  0  0  0  0  0  0  0
   -1.1857   -6.3768   -6.5323 H   0  0  0  0  0  0  0  0  0  0  0  0
    4.6258   -4.1094   -6.8066 H   0  0  0  0  0  0  0  0  0  0  0  0
    6.8827   -4.3015   -7.8022 H   0  0  0  0  0  0  0  0  0  0  0  0
    8.5245   -5.5648   -9.1602 H   0  0  0  0  0  0  0  0  0  0  0  0
    5.6493   -8.6777   -9.8298 H   0  0  0  0  0  0  0  0  0  0  0  0
    3.3912   -8.4995   -8.8379 H   0  0  0  0  0  0  0  0  0  0  0  0
   -2.8011   -1.9348   -7.9119 H   0  0  0  0  0  0  0  0  0  0  0  0
   -3.9644   -2.7792   -9.9194 H   0  0  0  0  0  0  0  0  0  0  0  0
   -3.4021   -6.5461  -10.3656 H   0  0  0  0  0  0  0  0  0  0  0  0
   -4.8426   -5.4375  -10.3225 H   0  0  0  0  0  0  0  0  0  0  0  0
   -4.6478   -6.6241  -11.6684 H   0  0  0  0  0  0  0  0  0  0  0  0
   -0.5669   -5.2419  -10.8630 H   0  0  0  0  0  0  0  0  0  0  0  0
    0.6146   -4.3798   -8.8708 H   0  0  0  0  0  0  0  0  0  0  0  0
    1.0829   -1.6292   -4.9628 H   0  0  0  0  0  0  0  0  0  0  0  0
    2.7204    0.1651   -5.0377 H   0  0  0  0  0  0  0  0  0  0  0  0
    6.1609    1.2205   -7.3419 H   0  0  0  0  0  0  0  0  0  0  0  0
    5.2399   -0.1191   -6.5656 H   0  0  0  0  0  0  0  0  0  0  0  0
    5.1553    0.1242   -8.3607 H   0  0  0  0  0  0  0  0  0  0  0  0
    2.1772    0.5565   -9.2764 H   0  0  0  0  0  0  0  0  0  0  0  0
    0.4796   -1.2085   -9.2398 H   0  0  0  0  0  0  0  0  0  0  0  0
   -4.7658   -4.3050    0.2209 H   0  0  0  0  0  0  0  0  0  0  0  0
   -6.9664   -5.3075   -0.1032 H   0  0  0  0  0  0  0  0  0  0  0  0
   -7.4841   -6.6561   -3.9409 H   0  0  0  0  0  0  0  0  0  0  0  0
   -9.0188   -7.4787   -3.4877 H   0  0  0  0  0  0  0  0  0  0  0  0
   -7.6297   -7.4849   -2.3328 H   0  0  0  0  0  0  0  0  0  0  0  0
   -7.0884   -3.8357   -4.1315 H   0  0  0  0  0  0  0  0  0  0  0  0
   -4.8649   -2.9045   -3.8910 H   0  0  0  0  0  0  0  0  0  0  0  0
   -1.4508   -1.5411   -0.2736 H   0  0  0  0  0  0  0  0  0  0  0  0
   -0.0345   -2.3248    1.5774 H   0  0  0  0  0  0  0  0  0  0  0  0
   -1.5473   -3.8201    3.9297 H   0  0  0  0  0  0  0  0  0  0  0  0
   -1.8181   -5.6032    3.7177 H   0  0  0  0  0  0  0  0  0  0  0  0
   -0.6915   -5.0137    4.9914 H   0  0  0  0  0  0  0  0  0  0  0  0
   -1.3995   -6.3517    0.9208 H   0  0  0  0  0  0  0  0  0  0  0  0
   -2.8078   -5.5766   -0.9447 H   0  0  0  0  0  0  0  0  0  0  0  0
   -5.2479    1.0677   -2.7004 H   0  0  0  0  0  0  0  0  0  0  0  0
   -7.2658    0.9762   -4.0449 H   0  0  0  0  0  0  0  0  0  0  0  0
   -9.8817    1.8026   -3.0271 H   0  0  0  0  0  0  0  0  0  0  0  0
  -10.4688    0.6484   -1.7536 H   0  0  0  0  0  0  0  0  0  0  0  0
  -11.5146    1.0437   -3.1702 H   0  0  0  0  0  0  0  0  0  0  0  0
   -8.9372   -1.9704   -1.4085 H   0  0  0  0  0  0  0  0  0  0  0  0
   -6.8701   -1.9909   -0.0929 H   0  0  0  0  0  0  0  0  0  0  0  0
   -3.8240   -2.4397    1.2141 H   0  0  0  0  0  0  0  0  0  0  0  0
   -4.0941   -2.4963    3.6529 H   0  0  0  0  0  0  0  0  0  0  0  0
   -3.4450    0.2760    6.8397 H   0  0  0  0  0  0  0  0  0  0  0  0
   -2.8531   -0.4399    5.2898 H   0  0  0  0  0  0  0  0  0  0  0  0
   -3.6589    1.1846    5.2894 H   0  0  0  0  0  0  0  0  0  0  0  0
   -6.2066    1.2491    3.5010 H   0  0  0  0  0  0  0  0  0  0  0  0
   -5.9510    1.2976    1.0454 H   0  0  0  0  0  0  0  0  0  0  0  0
    0.0105    6.7552   -0.6501 H   0  0  0  0  0  0  0  0  0  0  0  0
   -1.1465    8.7236    0.2564 H   0  0  0  0  0  0  0  0  0  0  0  0
   -5.4097    8.4386   -0.0101 H   0  0  0  0  0  0  0  0  0  0  0  0
   -4.0515    9.3735   -0.7786 H   0  0  0  0  0  0  0  0  0  0  0  0
   -5.2939   10.2245    0.2122 H   0  0  0  0  0  0  0  0  0  0  0  0
   -4.3966    6.2332    1.5649 H   0  0  0  0  0  0  0  0  0  0  0  0
   -3.2715    4.2634    0.6555 H   0  0  0  0  0  0  0  0  0  0  0  0
   -1.8273    5.5479   -2.7382 H   0  0  0  0  0  0  0  0  0  0  0  0
   -0.8905    5.6216   -5.0081 H   0  0  0  0  0  0  0  0  0  0  0  0
    2.9042    6.2767   -6.8187 H   0  0  0  0  0  0  0  0  0  0  0  0
    3.1331    5.8146   -5.0862 H   0  0  0  0  0  0  0  0  0  0  0  0
    1.6792    6.7790   -5.5904 H   0  0  0  0  0  0  0  0  0  0  0  0
    2.3495    3.0746   -3.7708 H   0  0  0  0  0  0  0  0  0  0  0  0
    1.4091    2.9862   -1.4857 H   0  0  0  0  0  0  0  0  0  0  0  0
    1.5200    4.7966    0.6297 H   0  0  0  0  0  0  0  0  0  0  0  0
    3.2248    6.4066   -0.0780 H   0  0  0  0  0  0  0  0  0  0  0  0
    4.8813    8.7606    2.1958 H   0  0  0  0  0  0  0  0  0  0  0  0
    3.7392    9.4548    0.9787 H   0  0  0  0  0  0  0  0  0  0  0  0
    4.8496    8.1051    0.5230 H   0  0  0  0  0  0  0  0  0  0  0  0
    2.8047    8.4897    3.6731 H   0  0  0  0  0  0  0  0  0  0  0  0
    1.0867    6.8848    4.3771 H   0  0  0  0  0  0  0  0  0  0  0  0
   -1.1167    7.1152    3.1835 H   0  0  0  0  0  0  0  0  0  0  0  0
   -3.0920    7.6012    4.5349 H   0  0  0  0  0  0  0  0  0  0  0  0
   -5.1244    4.9943    6.2759 H   0  0  0  0  0  0  0  0  0  0  0  0
   -5.1080    6.6950    5.6763 H   0  0  0  0  0  0  0  0  0  0  0  0
   -4.1370    6.2468    7.1366 H   0  0  0  0  0  0  0  0  0  0  0  0
   -3.1712    3.5225    5.9135 H   0  0  0  0  0  0  0  0  0  0  0  0
   -1.2219    3.0055    4.5547 H   0  0  0  0  0  0  0  0  0  0  0  0
    4.3821   -2.3068    1.9932 H   0  0  0  0  0  0  0  0  0  0  0  0
    6.1194   -2.4792    0.2726 H   0  0  0  0  0  0  0  0  0  0  0  0
    7.4272   -0.2624   -1.5585 H   0  0  0  0  0  0  0  0  0  0  0  0
    8.6987    0.1272   -0.3253 H   0  0  0  0  0  0  0  0  0  0  0  0
    8.2330   -1.5836   -0.6208 H   0  0  0  0  0  0  0  0  0  0  0  0
    7.1400    1.6632    0.8791 H   0  0  0  0  0  0  0  0  0  0  0  0
    5.4266    1.8376    2.6174 H   0  0  0  0  0  0  0  0  0  0  0  0
    5.6875   -1.7316    4.6700 H   0  0  0  0  0  0  0  0  0  0  0  0
    5.2995   -3.7075    6.0782 H   0  0  0  0  0  0  0  0  0  0  0  0
    3.7901   -5.0348    7.4503 H   0  0  0  0  0  0  0  0  0  0  0  0
    2.6365   -5.6064    6.1782 H   0  0  0  0  0  0  0  0  0  0  0  0
    2.0461   -4.5925    7.5602 H   0  0  0  0  0  0  0  0  0  0  0  0
    1.0383   -3.0716    5.7836 H   0  0  0  0  0  0  0  0  0  0  0  0
    1.4362   -1.1056    4.3633 H   0  0  0  0  0  0  0  0  0  0  0  0
    5.5807    1.2514    5.3793 H   0  0  0  0  0  0  0  0  0  0  0  0
    1.7825    2.5278   10.1513 H   0  0  0  0  0  0  0  0  0  0  0  0
    1.4131    2.5292   12.6042 H   0  0  0  0  0  0  0  0  0  0  0  0
    2.3057    2.2732   14.8878 H   0  0  0  0  0  0  0  0  0  0  0  0
    6.2542    1.6519   13.3360 H   0  0  0  0  0  0  0  0  0  0  0  0
    6.6240    1.6215   10.9225 H   0  0  0  0  0  0  0  0  0  0  0  0
  1  2  2  3
  2  3  1  0
  3  4  2  0
  3  5  1  0
  5  6  2  0
  6  7  1  0
  7  8  2  0
  8  9  1  0
  9 10  2  0
 10 11  1  0
 10 12  1  0
 12 13  2  0
 13 14  1  0
 14 15  2  0
 15 16  1  0
 16 17  2  3
 17 18  1  0
 18 19  3  0
 17 20  1  0
 20 21  3  0
  1 22  1  0
 22 23  2  0
 23 24  1  0
 24 25  1  0
 25 26  2  0
 26 27  1  0
 27 28  2  0
 28 29  1  0
 29 30  1  0
 28 31  1  0
 31 32  2  0
 24 33  1  0
 33 34  2  0
 34 35  1  0
 35 36  2  0
 36 37  1  0
 37 38  1  0
 36 39  1  0
 39 40  2  0
 23 41  1  0
 41 42  1  0
 42 43  1  0
 43 44  2  0
 44 45  1  0
 45 46  1  0
 46 47  2  0
 47 48  1  0
 48 49  2  0
 49 50  1  0
 50 51  1  0
 49 52  1  0
 52 53  2  0
 45 54  1  0
 54 55  2  0
 55 56  1  0
 56 57  2  0
 57 58  1  0
 58 59  1  0
 57 60  1  0
 60 61  2  0
 44 62  1  0
 62 63  1  0
 43 64  1  0
 64 65  2  0
 65 66  1  0
 66 67  1  0
 67 68  2  0
 68 69  1  0
 69 70  2  0
 70 71  1  0
 71 72  1  0
 70 73  1  0
 73 74  2  0
 66 75  1  0
 75 76  2  0
 76 77  1  0
 77 78  2  0
 78 79  1  0
 79 80  1  0
 78 81  1  0
 81 82  2  0
 65 83  1  0
 83 84  1  0
 84 85  1  0
 85 86  2  0
 86 87  1  0
 87 88  1  0
 88 89  2  0
 89 90  1  0
 90 91  2  0
 91 92  1  0
 92 93  1  0
 91 94  1  0
 94 95  2  0
 87 96  1  0
 96 97  2  0
 97 98  1  0
 98 99  2  0
 99100  1  0
100101  1  0
 99102  1  0
102103  2  0
 86104  1  0
104105  1  0
 85106  1  0
106107  2  0
107108  1  0
108109  1  0
109110  2  0
110111  1  0
111112  2  0
112113  1  0
112114  1  0
114115  2  0
108116  1  0
116117  2  0
117118  1  0
118119  2  0
119120  1  0
119121  1  0
121122  2  0
107123  1  0
123124  1  0
124125  1  0
125126  2  0
126127  1  0
127128  1  0
128129  2  0
129130  1  0
130131  2  0
131132  1  0
131133  1  0
133134  2  0
127135  1  0
135136  2  0
136137  1  0
137138  2  0
138139  1  0
138140  1  0
140141  2  0
126142  1  0
142143  1  0
125144  1  0
144145  2  3
145146  1  0
146147  2  0
146148  1  0
148149  2  0
149150  1  0
150151  2  0
151152  1  0
152153  2  0
153154  1  0
153155  1  0
155156  2  0
156157  1  0
157158  2  0
158159  1  0
159160  2  3
160161  1  0
161162  3  0
160163  1  0
163164  3  0
 16  2  1  0
 63 22  1  0
105 64  1  0
143106  1  0
159145  1  0
 15  5  1  0
 32 25  1  0
 40 33  1  0
 62 41  2  0
 74 67  1  0
 82 75  1  0
104 83  2  0
115109  1  0
122116  1  0
142123  2  0
158148  1  0
 13  7  1  0
 53 46  1  0
 61 54  1  0
 95 88  1  0
103 96  1  0
134128  1  0
141135  1  0
156150  1  0
  1165  1  0
  6166  1  0
  8167  1  0
  9168  1  0
 12169  1  0
 14170  1  0
 26171  1  0
 27172  1  0
 30173  1  0
 30174  1  0
 30175  1  0
 31176  1  0
 32177  1  0
 34178  1  0
 35179  1  0
 38180  1  0
 38181  1  0
 38182  1  0
 39183  1  0
 40184  1  0
 47185  1  0
 48186  1  0
 51187  1  0
 51188  1  0
 51189  1  0
 52190  1  0
 53191  1  0
 55192  1  0
 56193  1  0
 59194  1  0
 59195  1  0
 59196  1  0
 60197  1  0
 61198  1  0
 68199  1  0
 69200  1  0
 72201  1  0
 72202  1  0
 72203  1  0
 73204  1  0
 74205  1  0
 76206  1  0
 77207  1  0
 80208  1  0
 80209  1  0
 80210  1  0
 81211  1  0
 82212  1  0
 89213  1  0
 90214  1  0
 93215  1  0
 93216  1  0
 93217  1  0
 94218  1  0
 95219  1  0
 97220  1  0
 98221  1  0
101222  1  0
101223  1  0
101224  1  0
102225  1  0
103226  1  0
110227  1  0
111228  1  0
113229  1  0
113230  1  0
113231  1  0
114232  1  0
115233  1  0
117234  1  0
118235  1  0
120236  1  0
120237  1  0
120238  1  0
121239  1  0
122240  1  0
129241  1  0
130242  1  0
132243  1  0
132244  1  0
132245  1  0
133246  1  0
134247  1  0
136248  1  0
137249  1  0
139250  1  0
139251  1  0
139252  1  0
140253  1  0
141254  1  0
144255  1  0
149256  1  0
151257  1  0
152258  1  0
155259  1  0
157260  1  0
M  END

