
     RDKit          3D

139155  0  0  0  0  0  0  0  0999 V2000
    2.8784   -1.2422    6.7594 C   0  0  0  0  0  0  0  0  0  0  0  0
    2.5555   -0.4286    7.7833 C   0  0  0  0  0  0  0  0  0  0  0  0
    3.5318   -0.0210    8.7943 C   0  0  0  0  0  0  0  0  0  0  0  0
    4.6162   -0.6075    9.0581 O   0  0  0  0  0  0  0  0  0  0  0  0
    3.1103    1.2572    9.3388 C   0  0  0  0  0  0  0  0  0  0  0  0
    3.8354    2.1350   10.1468 C   0  0  0  0  0  0  0  0  0  0  0  0
    3.3084    3.4171   10.3880 C   0  0  0  0  0  0  0  0  0  0  0  0
    4.0181    4.3443   11.1670 C   0  0  0  0  0  0  0  0  0  0  0  0
    3.5257    5.6397   11.3410 C   0  0  0  0  0  0  0  0  0  0  0  0
    2.3199    6.0217   10.7438 C   0  0  0  0  0  0  0  0  0  0  0  0
    1.8800    7.2949   10.8660 F   0  0  0  0  0  0  0  0  0  0  0  0
    1.5929    5.1058    9.9771 C   0  0  0  0  0  0  0  0  0  0  0  0
    2.0713    3.7998    9.7957 C   0  0  0  0  0  0  0  0  0  0  0  0
    1.3701    2.8926    8.9761 C   0  0  0  0  0  0  0  0  0  0  0  0
    1.8909    1.6063    8.7857 C   0  0  0  0  0  0  0  0  0  0  0  0
    1.3999    0.5093    7.9158 C   0  0  0  0  0  0  0  0  0  0  0  0
    0.0980    0.2402    7.6409 C   0  0  0  0  0  0  0  0  0  0  0  0
   -0.3333   -0.9974    7.0513 C   0  0  0  0  0  0  0  0  0  0  0  0
   -0.6979   -1.9845    6.5701 N   0  0  0  0  0  0  0  0  0  0  0  0
   -0.9652    1.1096    8.0740 C   0  0  0  0  0  0  0  0  0  0  0  0
   -1.8300    1.7934    8.4266 N   0  0  0  0  0  0  0  0  0  0  0  0
    2.2184   -1.2092    5.4352 C   0  0  0  0  0  0  0  0  0  0  0  0
    2.0535   -0.0055    4.7304 C   0  0  0  0  0  0  0  0  0  0  0  0
    1.4084    0.0297    3.4728 C   0  0  0  0  0  0  0  0  0  0  0  0
    1.3398    1.3277    2.8734 N   0  0  0  0  0  0  0  0  0  0  0  0
    2.0839    2.2025    3.9788 S   0  0  0  0  0  4  0  0  0  0  0  0
    2.5335    1.2651    5.1873 N   0  0  0  0  0  0  0  0  0  0  0  0
    0.9000   -1.1369    2.8774 C   0  0  0  0  0  0  0  0  0  0  0  0
    1.0822   -2.3522    3.5602 C   0  0  0  0  0  0  0  0  0  0  0  0
    0.5858   -3.5358    3.1146 N   0  0  0  0  0  0  0  0  0  0  0  0
    1.0845   -4.5570    4.3141 S   0  0  0  0  0  0  0  0  0  0  0  0
    1.8906   -3.6119    5.4054 N   0  0  0  0  0  0  0  0  0  0  0  0
    1.7744   -2.3917    4.8169 C   0  0  0  0  0  0  0  0  0  0  0  0
    0.1783   -1.0422    1.5941 C   0  0  0  0  0  0  0  0  0  0  0  0
    0.5414   -1.6237    0.3619 C   0  0  0  0  0  0  0  0  0  0  0  0
    1.4862   -2.6904    0.1848 N   0  0  0  0  0  0  0  0  0  0  0  0
    2.7757   -2.3667   -0.3630 C   0  0  0  0  0  0  0  0  0  0  0  0
    3.2068   -2.9655   -1.5595 C   0  0  0  0  0  0  0  0  0  0  0  0
    4.4678   -2.6749   -2.0824 C   0  0  0  0  0  0  0  0  0  0  0  0
    5.3061   -1.7689   -1.4210 C   0  0  0  0  0  0  0  0  0  0  0  0
    6.9291   -1.3967   -2.0863 S   0  0  0  0  0  0  0  0  0  0  0  0
    6.2976   -0.1503   -3.2469 C   0  0  0  0  0  0  0  0  0  0  0  0
    4.8868   -1.1700   -0.2285 C   0  0  0  0  0  0  0  0  0  0  0  0
    3.6260   -1.4624    0.2973 C   0  0  0  0  0  0  0  0  0  0  0  0
    1.0425   -4.0693    0.2722 C   0  0  0  0  0  0  0  0  0  0  0  0
   -0.3250   -4.4063    0.1381 C   0  0  0  0  0  0  0  0  0  0  0  0
   -0.7492   -5.7260    0.2959 C   0  0  0  0  0  0  0  0  0  0  0  0
    0.1772   -6.7328    0.5845 C   0  0  0  0  0  0  0  0  0  0  0  0
   -0.3780   -8.4173    0.8431 S   0  0  0  0  0  0  0  0  0  0  0  0
   -0.5438   -8.2068    2.6413 C   0  0  0  0  0  0  0  0  0  0  0  0
    1.5352   -6.4175    0.7057 C   0  0  0  0  0  0  0  0  0  0  0  0
    1.9663   -5.0969    0.5529 C   0  0  0  0  0  0  0  0  0  0  0  0
   -0.2268   -1.1139   -0.6800 C   0  0  0  0  0  0  0  0  0  0  0  0
   -0.3090   -1.4087   -2.3272 S   0  0  0  0  0  0  0  0  0  0  0  0
   -1.5898   -0.3087   -2.5905 C   0  0  0  0  0  0  0  0  0  0  0  0
   -1.9582    0.2865   -1.3660 C   0  0  0  0  0  0  0  0  0  0  0  0
   -3.0684    1.1875   -1.1799 N   0  0  0  0  0  0  0  0  0  0  0  0
   -2.9554    2.2681   -0.2291 C   0  0  0  0  0  0  0  0  0  0  0  0
   -3.9762    2.4968    0.7092 C   0  0  0  0  0  0  0  0  0  0  0  0
   -3.8209    3.4713    1.7026 C   0  0  0  0  0  0  0  0  0  0  0  0
   -2.6517    4.2364    1.7569 C   0  0  0  0  0  0  0  0  0  0  0  0
   -2.4290    5.4548    3.0564 S   0  0  0  0  0  0  0  0  0  0  0  0
   -3.2127    6.7986    2.1104 C   0  0  0  0  0  0  0  0  0  0  0  0
   -1.6391    4.0296    0.8142 C   0  0  0  0  0  0  0  0  0  0  0  0
   -1.7903    3.0541   -0.1772 C   0  0  0  0  0  0  0  0  0  0  0  0
   -4.3216    0.9349   -1.8523 C   0  0  0  0  0  0  0  0  0  0  0  0
   -5.0826    2.0026   -2.3659 C   0  0  0  0  0  0  0  0  0  0  0  0
   -6.2758    1.7549   -3.0531 C   0  0  0  0  0  0  0  0  0  0  0  0
   -6.7206    0.4406   -3.2287 C   0  0  0  0  0  0  0  0  0  0  0  0
   -8.2449    0.1172   -4.1134 S   0  0  0  0  0  0  0  0  0  0  0  0
   -7.4298   -0.0147   -5.7359 C   0  0  0  0  0  0  0  0  0  0  0  0
   -5.9821   -0.6254   -2.7068 C   0  0  0  0  0  0  0  0  0  0  0  0
   -4.7910   -0.3802   -2.0193 C   0  0  0  0  0  0  0  0  0  0  0  0
   -1.1612   -0.1980   -0.3259 C   0  0  0  0  0  0  0  0  0  0  0  0
   -1.0935    0.0610    1.3271 S   0  0  0  0  0  0  0  0  0  0  0  0
   -2.1184    0.0095   -3.9323 C   0  0  0  0  0  0  0  0  0  0  0  0
   -2.2186    1.3375   -4.3765 C   0  0  0  0  0  0  0  0  0  0  0  0
   -2.5536    1.6384   -5.7190 C   0  0  0  0  0  0  0  0  0  0  0  0
   -2.5226    3.0312   -6.0492 N   0  0  0  0  0  0  0  0  0  0  0  0
   -2.0781    3.6486   -4.6464 S   0  0  0  0  0  4  0  0  0  0  0  0
   -1.8786    2.4816   -3.5820 N   0  0  0  0  0  0  0  0  0  0  0  0
   -2.7804    0.6201   -6.6555 C   0  0  0  0  0  0  0  0  0  0  0  0
   -2.7705   -0.7071   -6.2036 C   0  0  0  0  0  0  0  0  0  0  0  0
   -3.0212   -1.7647   -7.0204 N   0  0  0  0  0  0  0  0  0  0  0  0
   -2.8162   -3.0181   -5.9654 S   0  0  0  0  0  0  0  0  0  0  0  0
   -2.4133   -2.3312   -4.5174 N   0  0  0  0  0  0  0  0  0  0  0  0
   -2.4413   -1.0148   -4.8464 C   0  0  0  0  0  0  0  0  0  0  0  0
   -2.7045    0.9242   -8.0958 C   0  0  0  0  0  0  0  0  0  0  0  0
   -1.5123    1.0591   -8.7144 C   0  0  0  0  0  0  0  0  0  0  0  0
   -0.1886    0.8032   -8.0854 C   0  0  0  0  0  0  0  0  0  0  0  0
    0.0316    0.4150   -6.9067 O   0  0  0  0  0  0  0  0  0  0  0  0
    0.8236    1.0406   -9.0793 C   0  0  0  0  0  0  0  0  0  0  0  0
    2.2114    0.9789   -9.0909 C   0  0  0  0  0  0  0  0  0  0  0  0
    2.7037    1.3248  -10.3516 C   0  0  0  0  0  0  0  0  0  0  0  0
    4.4025    1.3901  -10.7778 Cl  0  0  0  0  0  0  0  0  0  0  0  0
    1.4169    1.6955  -11.4054 S   0  0  0  0  0  0  0  0  0  0  0  0
    0.2354    1.4058  -10.2397 C   0  0  0  0  0  0  0  0  0  0  0  0
   -1.2351    1.4747  -10.1333 C   0  0  0  0  0  0  0  0  0  0  0  0
   -2.0737    1.9087  -11.0982 C   0  0  0  0  0  0  0  0  0  0  0  0
   -3.4954    2.0346  -10.9105 C   0  0  0  0  0  0  0  0  0  0  0  0
   -4.6400    2.1530  -10.7850 N   0  0  0  0  0  0  0  0  0  0  0  0
   -1.5717    2.3293  -12.3834 C   0  0  0  0  0  0  0  0  0  0  0  0
   -1.1764    2.6736  -13.4145 N   0  0  0  0  0  0  0  0  0  0  0  0
    3.7832   -1.8350    6.8341 H   0  0  0  0  0  0  0  0  0  0  0  0
    4.8042    1.8405   10.5387 H   0  0  0  0  0  0  0  0  0  0  0  0
    4.9641    4.0735   11.6230 H   0  0  0  0  0  0  0  0  0  0  0  0
    4.0876    6.3538   11.9261 H   0  0  0  0  0  0  0  0  0  0  0  0
    0.6587    5.4182    9.5165 H   0  0  0  0  0  0  0  0  0  0  0  0
    0.4780    3.2206    8.4623 H   0  0  0  0  0  0  0  0  0  0  0  0
    2.5587   -3.6541   -2.0895 H   0  0  0  0  0  0  0  0  0  0  0  0
    4.7856   -3.1355   -3.0097 H   0  0  0  0  0  0  0  0  0  0  0  0
    5.6602   -0.6368   -4.0092 H   0  0  0  0  0  0  0  0  0  0  0  0
    5.7164    0.6266   -2.7024 H   0  0  0  0  0  0  0  0  0  0  0  0
    7.1546    0.3408   -3.7534 H   0  0  0  0  0  0  0  0  0  0  0  0
    5.5367   -0.4769    0.2934 H   0  0  0  0  0  0  0  0  0  0  0  0
    3.3129   -0.9996    1.2247 H   0  0  0  0  0  0  0  0  0  0  0  0
   -1.0697   -3.6502   -0.0800 H   0  0  0  0  0  0  0  0  0  0  0  0
   -1.8030   -5.9625    0.2011 H   0  0  0  0  0  0  0  0  0  0  0  0
    0.4400   -7.9486    3.0859 H   0  0  0  0  0  0  0  0  0  0  0  0
   -1.2774   -7.3997    2.8597 H   0  0  0  0  0  0  0  0  0  0  0  0
   -0.9129   -9.1543    3.0865 H   0  0  0  0  0  0  0  0  0  0  0  0
    2.2568   -7.1917    0.9354 H   0  0  0  0  0  0  0  0  0  0  0  0
    3.0175   -4.8686    0.6905 H   0  0  0  0  0  0  0  0  0  0  0  0
   -4.8771    1.8941    0.6953 H   0  0  0  0  0  0  0  0  0  0  0  0
   -4.6045    3.6164    2.4363 H   0  0  0  0  0  0  0  0  0  0  0  0
   -2.6964    6.9492    1.1359 H   0  0  0  0  0  0  0  0  0  0  0  0
   -4.2819    6.5627    1.9295 H   0  0  0  0  0  0  0  0  0  0  0  0
   -3.1483    7.7386    2.6981 H   0  0  0  0  0  0  0  0  0  0  0  0
   -0.7293    4.6151    0.8517 H   0  0  0  0  0  0  0  0  0  0  0  0
   -0.9905    2.8962   -0.8910 H   0  0  0  0  0  0  0  0  0  0  0  0
   -4.7339    3.0204   -2.2587 H   0  0  0  0  0  0  0  0  0  0  0  0
   -6.8425    2.5855   -3.4516 H   0  0  0  0  0  0  0  0  0  0  0  0
   -6.6526   -0.8090   -5.7075 H   0  0  0  0  0  0  0  0  0  0  0  0
   -6.9637    0.9569   -6.0184 H   0  0  0  0  0  0  0  0  0  0  0  0
   -8.1916   -0.2906   -6.4974 H   0  0  0  0  0  0  0  0  0  0  0  0
   -6.3231   -1.6453   -2.8383 H   0  0  0  0  0  0  0  0  0  0  0  0
   -4.2316   -1.2172   -1.6262 H   0  0  0  0  0  0  0  0  0  0  0  0
   -3.6404    1.0586   -8.6094 H   0  0  0  0  0  0  0  0  0  0  0  0
    2.8196    0.7004   -8.2442 H   0  0  0  0  0  0  0  0  0  0  0  0
  1  2  2  3
  2  3  1  0
  3  4  2  0
  3  5  1  0
  5  6  2  0
  6  7  1  0
  7  8  2  0
  8  9  1  0
  9 10  2  0
 10 11  1  0
 10 12  1  0
 12 13  2  0
 13 14  1  0
 14 15  2  0
 15 16  1  0
 16 17  2  3
 17 18  1  0
 18 19  3  0
 17 20  1  0
 20 21  3  0
  1 22  1  0
 22 23  2  0
 23 24  1  0
 24 25  1  0
 25 26  2  0
 26 27  2  0
 24 28  2  0
 28 29  1  0
 29 30  2  0
 30 31  1  0
 31 32  1  0
 32 33  2  0
 28 34  1  0
 34 35  2  0
 35 36  1  0
 36 37  1  0
 37 38  2  0
 38 39  1  0
 39 40  2  0
 40 41  1  0
 41 42  1  0
 40 43  1  0
 43 44  2  0
 36 45  1  0
 45 46  2  0
 46 47  1  0
 47 48  2  0
 48 49  1  0
 49 50  1  0
 48 51  1  0
 51 52  2  0
 35 53  1  0
 53 54  1  0
 54 55  1  0
 55 56  2  0
 56 57  1  0
 57 58  1  0
 58 59  2  0
 59 60  1  0
 60 61  2  0
 61 62  1  0
 62 63  1  0
 61 64  1  0
 64 65  2  0
 57 66  1  0
 66 67  2  0
 67 68  1  0
 68 69  2  0
 69 70  1  0
 70 71  1  0
 69 72  1  0
 72 73  2  0
 56 74  1  0
 74 75  1  0
 55 76  1  0
 76 77  2  0
 77 78  1  0
 78 79  1  0
 79 80  2  0
 80 81  2  0
 78 82  2  0
 82 83  1  0
 83 84  2  0
 84 85  1  0
 85 86  1  0
 86 87  2  0
 82 88  1  0
 88 89  2  3
 89 90  1  0
 90 91  2  0
 90 92  1  0
 92 93  1  0
 93 94  2  0
 94 95  1  0
 94 96  1  0
 96 97  1  0
 97 98  1  0
 98 99  2  3
 99100  1  0
100101  3  0
 99102  1  0
102103  3  0
 16  2  1  0
 33 22  1  0
 75 34  1  0
 87 76  1  0
 98 89  1  0
 15  5  1  0
 27 23  1  0
 33 29  1  0
 44 37  1  0
 52 45  1  0
 74 53  2  0
 81 77  1  0
 87 83  1  0
 97 92  2  0
 13  7  1  0
 65 58  1  0
 73 66  1  0
  1104  1  0
  6105  1  0
  8106  1  0
  9107  1  0
 12108  1  0
 14109  1  0
 38110  1  0
 39111  1  0
 42112  1  0
 42113  1  0
 42114  1  0
 43115  1  0
 44116  1  0
 46117  1  0
 47118  1  0
 50119  1  0
 50120  1  0
 50121  1  0
 51122  1  0
 52123  1  0
 59124  1  0
 60125  1  0
 63126  1  0
 63127  1  0
 63128  1  0
 64129  1  0
 65130  1  0
 67131  1  0
 68132  1  0
 71133  1  0
 71134  1  0
 71135  1  0
 72136  1  0
 73137  1  0
 88138  1  0
 93139  1  0
M  END

