
     RDKit          3D

150166  0  0  0  0  0  0  0  0999 V2000
    0.0954   -3.2658   -7.7045 C   0  0  0  0  0  0  0  0  0  0  0  0
   -1.1729   -3.6548   -7.4278 C   0  0  0  0  0  0  0  0  0  0  0  0
   -1.9623   -3.1940   -6.2695 C   0  0  0  0  0  0  0  0  0  0  0  0
   -1.6020   -2.3762   -5.3879 O   0  0  0  0  0  0  0  0  0  0  0  0
   -3.2209   -3.8774   -6.2494 C   0  0  0  0  0  0  0  0  0  0  0  0
   -4.2571   -3.7034   -5.3337 C   0  0  0  0  0  0  0  0  0  0  0  0
   -5.4132   -4.4811   -5.4707 C   0  0  0  0  0  0  0  0  0  0  0  0
   -6.4738   -4.3318   -4.5688 C   0  0  0  0  0  0  0  0  0  0  0  0
   -7.6247   -5.1098   -4.7131 C   0  0  0  0  0  0  0  0  0  0  0  0
   -7.7253   -6.0402   -5.7559 C   0  0  0  0  0  0  0  0  0  0  0  0
   -8.8510   -6.7926   -5.8819 F   0  0  0  0  0  0  0  0  0  0  0  0
   -6.6677   -6.1975   -6.6622 C   0  0  0  0  0  0  0  0  0  0  0  0
   -5.5086   -5.4233   -6.5332 C   0  0  0  0  0  0  0  0  0  0  0  0
   -4.4442   -5.5731   -7.4529 C   0  0  0  0  0  0  0  0  0  0  0  0
   -3.2825   -4.7853   -7.2980 C   0  0  0  0  0  0  0  0  0  0  0  0
   -2.0219   -4.6985   -8.1101 C   0  0  0  0  0  0  0  0  0  0  0  0
   -1.7376   -5.3928   -9.2455 C   0  0  0  0  0  0  0  0  0  0  0  0
   -0.5633   -5.1536  -10.0431 C   0  0  0  0  0  0  0  0  0  0  0  0
    0.3749   -4.9755  -10.6991 N   0  0  0  0  0  0  0  0  0  0  0  0
   -2.6000   -6.4202   -9.7776 C   0  0  0  0  0  0  0  0  0  0  0  0
   -3.2707   -7.2459  -10.2231 N   0  0  0  0  0  0  0  0  0  0  0  0
    0.8084   -2.3104   -6.8350 C   0  0  0  0  0  0  0  0  0  0  0  0
    0.4385   -0.9548   -6.8121 C   0  0  0  0  0  0  0  0  0  0  0  0
    0.6896   -0.1539   -5.6706 C   0  0  0  0  0  0  0  0  0  0  0  0
    0.0764    1.1408   -5.7035 N   0  0  0  0  0  0  0  0  0  0  0  0
   -0.6594    1.0762   -7.1226 S   0  0  0  0  0  4  0  0  0  0  0  0
   -0.3857   -0.3406   -7.8099 N   0  0  0  0  0  0  0  0  0  0  0  0
    1.3420   -0.6800   -4.5471 C   0  0  0  0  0  0  0  0  0  0  0  0
    1.8828   -1.9775   -4.6529 C   0  0  0  0  0  0  0  0  0  0  0  0
    2.5650   -2.5764   -3.6399 N   0  0  0  0  0  0  0  0  0  0  0  0
    2.8084   -4.0798   -4.2769 S   0  0  0  0  0  0  0  0  0  0  0  0
    2.0913   -4.0595   -5.7648 N   0  0  0  0  0  0  0  0  0  0  0  0
    1.6196   -2.7847   -5.7993 C   0  0  0  0  0  0  0  0  0  0  0  0
    1.1171   -0.0830   -3.2145 C   0  0  0  0  0  0  0  0  0  0  0  0
    2.0241   -0.0610   -2.1450 C   0  0  0  0  0  0  0  0  0  0  0  0
    3.4390    0.1662   -2.3293 N   0  0  0  0  0  0  0  0  0  0  0  0
    4.3923   -0.2436   -1.3238 C   0  0  0  0  0  0  0  0  0  0  0  0
    5.3702    0.6540   -0.8560 C   0  0  0  0  0  0  0  0  0  0  0  0
    6.2813    0.2718    0.1265 C   0  0  0  0  0  0  0  0  0  0  0  0
    6.2179   -1.0099    0.6781 C   0  0  0  0  0  0  0  0  0  0  0  0
    7.3887   -1.5085    1.9481 S   0  0  0  0  0  0  0  0  0  0  0  0
    6.3560   -0.8897    3.3173 C   0  0  0  0  0  0  0  0  0  0  0  0
    5.2538   -1.9169    0.2277 C   0  0  0  0  0  0  0  0  0  0  0  0
    4.3421   -1.5341   -0.7719 C   0  0  0  0  0  0  0  0  0  0  0  0
    3.8524    1.0784   -3.3648 C   0  0  0  0  0  0  0  0  0  0  0  0
    3.1387    2.2748   -3.5766 C   0  0  0  0  0  0  0  0  0  0  0  0
    3.5484    3.1829   -4.5639 C   0  0  0  0  0  0  0  0  0  0  0  0
    4.6868    2.9172   -5.3230 C   0  0  0  0  0  0  0  0  0  0  0  0
    5.2592    4.1346   -6.5109 S   0  0  0  0  0  0  0  0  0  0  0  0
    6.2278    5.0447   -5.2651 C   0  0  0  0  0  0  0  0  0  0  0  0
    5.3965    1.7214   -5.1260 C   0  0  0  0  0  0  0  0  0  0  0  0
    4.9770    0.8017   -4.1599 C   0  0  0  0  0  0  0  0  0  0  0  0
    1.3488    0.1019   -0.9314 C   0  0  0  0  0  0  0  0  0  0  0  0
    1.7586    0.0318    0.6811 S   0  0  0  0  0  0  0  0  0  0  0  0
    0.1620    0.2596    1.2575 C   0  0  0  0  0  0  0  0  0  0  0  0
   -0.6714    0.5615    0.1546 C   0  0  0  0  0  0  0  0  0  0  0  0
   -1.8300    1.4456    0.1982 N   0  0  0  0  0  0  0  0  0  0  0  0
   -2.4223    1.8956    1.4320 C   0  0  0  0  0  0  0  0  0  0  0  0
   -3.8019    1.7782    1.6238 C   0  0  0  0  0  0  0  0  0  0  0  0
   -4.4032    2.2590    2.7963 C   0  0  0  0  0  0  0  0  0  0  0  0
   -3.6168    2.8226    3.8043 C   0  0  0  0  0  0  0  0  0  0  0  0
   -4.3466    3.3149    5.3673 S   0  0  0  0  0  0  0  0  0  0  0  0
   -3.9243    1.7359    6.1819 C   0  0  0  0  0  0  0  0  0  0  0  0
   -2.2471    2.9895    3.5992 C   0  0  0  0  0  0  0  0  0  0  0  0
   -1.6495    2.5327    2.4204 C   0  0  0  0  0  0  0  0  0  0  0  0
   -2.1014    2.2764   -0.9487 C   0  0  0  0  0  0  0  0  0  0  0  0
   -3.2781    2.1075   -1.6970 C   0  0  0  0  0  0  0  0  0  0  0  0
   -3.5133    2.9046   -2.8270 C   0  0  0  0  0  0  0  0  0  0  0  0
   -2.5796    3.8649   -3.2216 C   0  0  0  0  0  0  0  0  0  0  0  0
   -2.8414    4.8126   -4.7315 S   0  0  0  0  0  0  0  0  0  0  0  0
   -3.3283    6.3357   -3.8559 C   0  0  0  0  0  0  0  0  0  0  0  0
   -1.3979    4.0324   -2.4768 C   0  0  0  0  0  0  0  0  0  0  0  0
   -1.1718    3.2617   -1.3347 C   0  0  0  0  0  0  0  0  0  0  0  0
    0.0215    0.3265   -1.0377 C   0  0  0  0  0  0  0  0  0  0  0  0
   -0.4573    0.2173   -2.6375 S   0  0  0  0  0  0  0  0  0  0  0  0
   -0.2737   -0.3134    2.5611 C   0  0  0  0  0  0  0  0  0  0  0  0
    0.6913   -0.5678    3.5611 C   0  0  0  0  0  0  0  0  0  0  0  0
    0.2706   -1.1618    4.7457 C   0  0  0  0  0  0  0  0  0  0  0  0
    1.0326   -1.4685    5.9505 C   0  0  0  0  0  0  0  0  0  0  0  0
    2.2811   -1.4132    6.0849 O   0  0  0  0  0  0  0  0  0  0  0  0
    0.0626   -1.8578    6.9732 C   0  0  0  0  0  0  0  0  0  0  0  0
   -1.2075   -1.8228    6.4118 C   0  0  0  0  0  0  0  0  0  0  0  0
   -1.0653   -1.4107    5.0021 C   0  0  0  0  0  0  0  0  0  0  0  0
   -2.0303   -1.2144    4.0226 C   0  0  0  0  0  0  0  0  0  0  0  0
   -1.6166   -0.7386    2.7666 C   0  0  0  0  0  0  0  0  0  0  0  0
   -2.3554   -1.8137    7.2090 C   0  0  0  0  0  0  0  0  0  0  0  0
   -2.1863   -1.7620    8.6000 C   0  0  0  0  0  0  0  0  0  0  0  0
   -0.8945   -1.7470    9.1688 C   0  0  0  0  0  0  0  0  0  0  0  0
    0.2480   -1.8605    8.3479 C   0  0  0  0  0  0  0  0  0  0  0  0
   -0.6886   -1.2005   10.5189 C   0  0  0  0  0  0  0  0  0  0  0  0
   -0.3236    0.0934   10.6766 C   0  0  0  0  0  0  0  0  0  0  0  0
   -0.2065    1.0881    9.5952 C   0  0  0  0  0  0  0  0  0  0  0  0
   -0.6769    0.9799    8.4314 O   0  0  0  0  0  0  0  0  0  0  0  0
    0.5060    2.2394   10.0930 C   0  0  0  0  0  0  0  0  0  0  0  0
    1.0283    3.3132    9.3718 C   0  0  0  0  0  0  0  0  0  0  0  0
    0.6825    3.4964    7.6489 Cl  0  0  0  0  0  0  0  0  0  0  0  0
    1.8795    4.2155   10.0301 C   0  0  0  0  0  0  0  0  0  0  0  0
    2.5527    5.5811    9.1475 Cl  0  0  0  0  0  0  0  0  0  0  0  0
    2.2601    3.9734   11.3743 C   0  0  0  0  0  0  0  0  0  0  0  0
    3.4184    5.0492   12.1551 Cl  0  0  0  0  0  0  0  0  0  0  0  0
    1.7374    2.8663   12.0803 C   0  0  0  0  0  0  0  0  0  0  0  0
    2.4610    2.4021   13.6148 Cl  0  0  0  0  0  0  0  0  0  0  0  0
    0.7733    2.0550   11.4378 C   0  0  0  0  0  0  0  0  0  0  0  0
    0.1446    0.7840   11.9074 C   0  0  0  0  0  0  0  0  0  0  0  0
   -0.2852    0.5387   13.1672 C   0  0  0  0  0  0  0  0  0  0  0  0
   -0.7485   -0.7485   13.6135 C   0  0  0  0  0  0  0  0  0  0  0  0
   -1.1041   -1.7785   14.0119 N   0  0  0  0  0  0  0  0  0  0  0  0
   -0.4490    1.6179   14.1137 C   0  0  0  0  0  0  0  0  0  0  0  0
   -0.6168    2.4867   14.8673 N   0  0  0  0  0  0  0  0  0  0  0  0
    0.6774   -3.7346   -8.4755 H   0  0  0  0  0  0  0  0  0  0  0  0
   -4.1557   -2.9813   -4.5269 H   0  0  0  0  0  0  0  0  0  0  0  0
   -6.4140   -3.6188   -3.7575 H   0  0  0  0  0  0  0  0  0  0  0  0
   -8.4459   -4.9924   -4.0190 H   0  0  0  0  0  0  0  0  0  0  0  0
   -6.7676   -6.9138   -7.4667 H   0  0  0  0  0  0  0  0  0  0  0  0
   -4.5476   -6.2947   -8.2422 H   0  0  0  0  0  0  0  0  0  0  0  0
    5.4284    1.6629   -1.2554 H   0  0  0  0  0  0  0  0  0  0  0  0
    7.0227    0.9831    0.4851 H   0  0  0  0  0  0  0  0  0  0  0  0
    5.3472   -1.3485    3.2814 H   0  0  0  0  0  0  0  0  0  0  0  0
    6.2602    0.2163    3.2674 H   0  0  0  0  0  0  0  0  0  0  0  0
    6.8412   -1.1597    4.2795 H   0  0  0  0  0  0  0  0  0  0  0  0
    5.1948   -2.9151    0.6505 H   0  0  0  0  0  0  0  0  0  0  0  0
    3.5938   -2.2447   -1.1074 H   0  0  0  0  0  0  0  0  0  0  0  0
    2.2763    2.5231   -2.9717 H   0  0  0  0  0  0  0  0  0  0  0  0
    2.9943    4.0997   -4.7112 H   0  0  0  0  0  0  0  0  0  0  0  0
    7.0333    4.3925   -4.8643 H   0  0  0  0  0  0  0  0  0  0  0  0
    5.5679    5.3796   -4.4354 H   0  0  0  0  0  0  0  0  0  0  0  0
    6.6861    5.9335   -5.7405 H   0  0  0  0  0  0  0  0  0  0  0  0
    6.2890    1.5168   -5.7171 H   0  0  0  0  0  0  0  0  0  0  0  0
    5.5359   -0.1116   -4.0115 H   0  0  0  0  0  0  0  0  0  0  0  0
   -4.4153    1.2841    0.8765 H   0  0  0  0  0  0  0  0  0  0  0  0
   -5.4683    2.1654    2.9265 H   0  0  0  0  0  0  0  0  0  0  0  0
   -4.0733    1.8430    7.2726 H   0  0  0  0  0  0  0  0  0  0  0  0
   -2.8614    1.4628    6.0077 H   0  0  0  0  0  0  0  0  0  0  0  0
   -4.5845    0.9195    5.8184 H   0  0  0  0  0  0  0  0  0  0  0  0
   -1.6399    3.4970    4.3506 H   0  0  0  0  0  0  0  0  0  0  0  0
   -0.5893    2.6937    2.2733 H   0  0  0  0  0  0  0  0  0  0  0  0
   -3.9971    1.3461   -1.4327 H   0  0  0  0  0  0  0  0  0  0  0  0
   -4.4072    2.7435   -3.4187 H   0  0  0  0  0  0  0  0  0  0  0  0
   -4.1936    6.1392   -3.1878 H   0  0  0  0  0  0  0  0  0  0  0  0
   -2.4762    6.7184   -3.2588 H   0  0  0  0  0  0  0  0  0  0  0  0
   -3.6116    7.0976   -4.6067 H   0  0  0  0  0  0  0  0  0  0  0  0
   -0.6606    4.7633   -2.7830 H   0  0  0  0  0  0  0  0  0  0  0  0
   -0.2664    3.4058   -0.7598 H   0  0  0  0  0  0  0  0  0  0  0  0
    1.7375   -0.2911    3.4340 H   0  0  0  0  0  0  0  0  0  0  0  0
   -3.0767   -1.4321    4.2223 H   0  0  0  0  0  0  0  0  0  0  0  0
   -2.3591   -0.6826    1.9769 H   0  0  0  0  0  0  0  0  0  0  0  0
   -3.3350   -1.6938    6.7590 H   0  0  0  0  0  0  0  0  0  0  0  0
   -3.0512   -1.6011    9.2256 H   0  0  0  0  0  0  0  0  0  0  0  0
    1.2458   -1.7548    8.7577 H   0  0  0  0  0  0  0  0  0  0  0  0
   -0.7094   -1.8997   11.3421 H   0  0  0  0  0  0  0  0  0  0  0  0
  1  2  2  3
  2  3  1  0
  3  4  2  0
  3  5  1  0
  5  6  2  0
  6  7  1  0
  7  8  2  0
  8  9  1  0
  9 10  2  0
 10 11  1  0
 10 12  1  0
 12 13  2  0
 13 14  1  0
 14 15  2  0
 15 16  1  0
 16 17  2  3
 17 18  1  0
 18 19  3  0
 17 20  1  0
 20 21  3  0
  1 22  1  0
 22 23  2  0
 23 24  1  0
 24 25  1  0
 25 26  2  0
 26 27  2  0
 24 28  2  0
 28 29  1  0
 29 30  2  0
 30 31  1  0
 31 32  1  0
 32 33  2  0
 28 34  1  0
 34 35  2  0
 35 36  1  0
 36 37  1  0
 37 38  2  0
 38 39  1  0
 39 40  2  0
 40 41  1  0
 41 42  1  0
 40 43  1  0
 43 44  2  0
 36 45  1  0
 45 46  2  0
 46 47  1  0
 47 48  2  0
 48 49  1  0
 49 50  1  0
 48 51  1  0
 51 52  2  0
 35 53  1  0
 53 54  1  0
 54 55  1  0
 55 56  2  0
 56 57  1  0
 57 58  1  0
 58 59  2  0
 59 60  1  0
 60 61  2  0
 61 62  1  0
 62 63  1  0
 61 64  1  0
 64 65  2  0
 57 66  1  0
 66 67  2  0
 67 68  1  0
 68 69  2  0
 69 70  1  0
 70 71  1  0
 69 72  1  0
 72 73  2  0
 56 74  1  0
 74 75  1  0
 55 76  1  0
 76 77  2  0
 77 78  1  0
 78 79  1  0
 79 80  2  0
 79 81  1  0
 81 82  2  0
 82 83  1  0
 83 84  1  0
 84 85  2  0
 82 86  1  0
 86 87  2  0
 87 88  1  0
 88 89  2  0
 88 90  1  0
 90 91  2  3
 91 92  1  0
 92 93  2  0
 92 94  1  0
 94 95  2  0
 95 96  1  0
 95 97  1  0
 97 98  1  0
 97 99  2  0
 99100  1  0
 99101  1  0
101102  1  0
101103  2  0
103104  1  0
104105  2  3
105106  1  0
106107  3  0
105108  1  0
108109  3  0
 16  2  1  0
 33 22  1  0
 75 34  1  0
 85 76  1  0
104 91  1  0
 15  5  1  0
 27 23  1  0
 33 29  1  0
 44 37  1  0
 52 45  1  0
 74 53  2  0
 83 78  2  0
103 94  1  0
 13  7  1  0
 65 58  1  0
 73 66  1  0
 89 81  1  0
  1110  1  0
  6111  1  0
  8112  1  0
  9113  1  0
 12114  1  0
 14115  1  0
 38116  1  0
 39117  1  0
 42118  1  0
 42119  1  0
 42120  1  0
 43121  1  0
 44122  1  0
 46123  1  0
 47124  1  0
 50125  1  0
 50126  1  0
 50127  1  0
 51128  1  0
 52129  1  0
 59130  1  0
 60131  1  0
 63132  1  0
 63133  1  0
 63134  1  0
 64135  1  0
 65136  1  0
 67137  1  0
 68138  1  0
 71139  1  0
 71140  1  0
 71141  1  0
 72142  1  0
 73143  1  0
 77144  1  0
 84145  1  0
 85146  1  0
 86147  1  0
 87148  1  0
 89149  1  0
 90150  1  0
M  END

