
     RDKit          3D

258280  0  0  0  0  0  0  0  0999 V2000
    4.3061   -5.5728   -4.1553 C   0  0  0  0  0  0  0  0  0  0  0  0
    4.8090   -5.1972   -5.4042 C   0  0  0  0  0  0  0  0  0  0  0  0
    4.0514   -4.9184   -6.5553 C   0  0  0  0  0  0  0  0  0  0  0  0
    2.8286   -4.6189   -6.6209 O   0  0  0  0  0  0  0  0  0  0  0  0
    4.8984   -4.9733   -7.7912 C   0  0  0  0  0  0  0  0  0  0  0  0
    4.6126   -4.3462   -9.0358 C   0  0  0  0  0  0  0  0  0  0  0  0
    5.7009   -4.0900   -9.8742 C   0  0  0  0  0  0  0  0  0  0  0  0
    5.5172   -3.3382  -11.0303 C   0  0  0  0  0  0  0  0  0  0  0  0
    6.6245   -2.9816  -11.8143 C   0  0  0  0  0  0  0  0  0  0  0  0
    7.8942   -3.4397  -11.4705 C   0  0  0  0  0  0  0  0  0  0  0  0
    8.9638   -3.0765  -12.2238 F   0  0  0  0  0  0  0  0  0  0  0  0
    8.0926   -4.2475  -10.3526 C   0  0  0  0  0  0  0  0  0  0  0  0
    7.0199   -4.5539   -9.5154 C   0  0  0  0  0  0  0  0  0  0  0  0
    7.2366   -5.2602   -8.3238 C   0  0  0  0  0  0  0  0  0  0  0  0
    6.1567   -5.3958   -7.4625 C   0  0  0  0  0  0  0  0  0  0  0  0
    6.1945   -5.5774   -5.9414 C   0  0  0  0  0  0  0  0  0  0  0  0
    7.3207   -5.7367   -5.2149 C   0  0  0  0  0  0  0  0  0  0  0  0
    8.5706   -6.2500   -5.7219 C   0  0  0  0  0  0  0  0  0  0  0  0
    9.5947   -6.6341   -6.1236 N   0  0  0  0  0  0  0  0  0  0  0  0
    7.4195   -5.1473   -3.9240 C   0  0  0  0  0  0  0  0  0  0  0  0
    7.5256   -4.5942   -2.8619 N   0  0  0  0  0  0  0  0  0  0  0  0
    4.2659   -4.6616   -2.9545 C   0  0  0  0  0  0  0  0  0  0  0  0
    3.4852   -3.5305   -2.8496 C   0  0  0  0  0  0  0  0  0  0  0  0
    2.5870   -3.2079   -3.8799 N   0  0  0  0  0  0  0  0  0  0  0  0
    1.3205   -3.9632   -4.0678 C   0  0  0  0  0  0  0  0  0  0  0  0
    0.5327   -3.7964   -5.2442 C   0  0  0  0  0  0  0  0  0  0  0  0
   -0.7540   -4.2997   -5.3426 C   0  0  0  0  0  0  0  0  0  0  0  0
   -1.3038   -5.0517   -4.2894 C   0  0  0  0  0  0  0  0  0  0  0  0
   -2.7937   -6.0264   -4.5883 S   0  0  0  0  0  0  0  0  0  0  0  0
   -4.0584   -4.8223   -4.0192 C   0  0  0  0  0  0  0  0  0  0  0  0
   -0.4858   -5.3252   -3.1565 C   0  0  0  0  0  0  0  0  0  0  0  0
    0.8038   -4.7985   -3.0447 C   0  0  0  0  0  0  0  0  0  0  0  0
    2.7899   -1.9426   -4.5443 C   0  0  0  0  0  0  0  0  0  0  0  0
    1.7410   -1.0208   -4.5904 C   0  0  0  0  0  0  0  0  0  0  0  0
    1.8196    0.0597   -5.4044 C   0  0  0  0  0  0  0  0  0  0  0  0
    3.0148    0.3747   -6.0661 C   0  0  0  0  0  0  0  0  0  0  0  0
    3.0446    1.7852   -7.1924 S   0  0  0  0  0  0  0  0  0  0  0  0
    3.3699    3.0563   -5.9100 C   0  0  0  0  0  0  0  0  0  0  0  0
    4.1234   -0.4829   -5.9275 C   0  0  0  0  0  0  0  0  0  0  0  0
    4.0186   -1.6633   -5.1703 C   0  0  0  0  0  0  0  0  0  0  0  0
    3.2719   -3.1078   -1.5241 C   0  0  0  0  0  0  0  0  0  0  0  0
    2.2209   -1.9443   -0.8161 S   0  0  0  0  0  0  0  0  0  0  0  0
    2.7956   -2.1900    0.7125 C   0  0  0  0  0  0  0  0  0  0  0  0
    3.7893   -3.2431    0.7542 C   0  0  0  0  0  0  0  0  0  0  0  0
    4.4270   -3.7340    1.9452 N   0  0  0  0  0  0  0  0  0  0  0  0
    4.4335   -5.1615    2.1988 C   0  0  0  0  0  0  0  0  0  0  0  0
    3.2075   -5.8254    2.2978 C   0  0  0  0  0  0  0  0  0  0  0  0
    3.2241   -7.1784    2.7447 C   0  0  0  0  0  0  0  0  0  0  0  0
    4.4236   -7.8170    3.0994 C   0  0  0  0  0  0  0  0  0  0  0  0
    4.4314   -9.5353    3.6513 S   0  0  0  0  0  0  0  0  0  0  0  0
    3.9791   -9.0374    5.3519 C   0  0  0  0  0  0  0  0  0  0  0  0
    5.6397   -7.1588    2.8862 C   0  0  0  0  0  0  0  0  0  0  0  0
    5.6527   -5.8167    2.4115 C   0  0  0  0  0  0  0  0  0  0  0  0
    5.1877   -2.8659    2.8148 C   0  0  0  0  0  0  0  0  0  0  0  0
    5.2128   -3.1473    4.1888 C   0  0  0  0  0  0  0  0  0  0  0  0
    6.0511   -2.4114    5.0622 C   0  0  0  0  0  0  0  0  0  0  0  0
    6.8348   -1.3792    4.5675 C   0  0  0  0  0  0  0  0  0  0  0  0
    8.0846   -0.5935    5.6705 S   0  0  0  0  0  0  0  0  0  0  0  0
    6.9486    0.4890    6.6177 C   0  0  0  0  0  0  0  0  0  0  0  0
    6.8517   -1.1040    3.1816 C   0  0  0  0  0  0  0  0  0  0  0  0
    6.0573   -1.8573    2.2670 C   0  0  0  0  0  0  0  0  0  0  0  0
    3.9924   -3.7495   -0.5573 C   0  0  0  0  0  0  0  0  0  0  0  0
    4.9024   -5.0524   -1.3557 S   0  0  0  0  0  0  0  0  0  0  0  0
    2.0132   -1.6272    1.8924 C   0  0  0  0  0  0  0  0  0  0  0  0
    1.8198   -0.1784    2.1183 C   0  0  0  0  0  0  0  0  0  0  0  0
    2.8698    0.7710    2.0568 N   0  0  0  0  0  0  0  0  0  0  0  0
    2.9716    1.7964    3.0661 C   0  0  0  0  0  0  0  0  0  0  0  0
    3.1512    3.1421    2.6599 C   0  0  0  0  0  0  0  0  0  0  0  0
    3.4546    4.1328    3.6093 C   0  0  0  0  0  0  0  0  0  0  0  0
    3.6048    3.8073    4.9761 C   0  0  0  0  0  0  0  0  0  0  0  0
    3.9525    5.0548    6.2682 S   0  0  0  0  0  0  0  0  0  0  0  0
    4.5456    6.4625    5.2412 C   0  0  0  0  0  0  0  0  0  0  0  0
    3.3608    2.4627    5.3949 C   0  0  0  0  0  0  0  0  0  0  0  0
    3.0472    1.4462    4.4503 C   0  0  0  0  0  0  0  0  0  0  0  0
    3.7661    0.8314    0.9187 C   0  0  0  0  0  0  0  0  0  0  0  0
    3.2529    1.0060   -0.3932 C   0  0  0  0  0  0  0  0  0  0  0  0
    4.1471    1.2825   -1.4500 C   0  0  0  0  0  0  0  0  0  0  0  0
    5.5542    1.4378   -1.2259 C   0  0  0  0  0  0  0  0  0  0  0  0
    6.7211    1.3287   -2.6222 S   0  0  0  0  0  0  0  0  0  0  0  0
    6.9111    3.1280   -2.9937 C   0  0  0  0  0  0  0  0  0  0  0  0
    6.0149    1.3094    0.1038 C   0  0  0  0  0  0  0  0  0  0  0  0
    5.1308    1.0369    1.1717 C   0  0  0  0  0  0  0  0  0  0  0  0
    0.4703    0.1451    2.4742 C   0  0  0  0  0  0  0  0  0  0  0  0
   -0.4340    1.5449    2.3831 S   0  0  0  0  0  0  0  0  0  0  0  0
   -1.9527    0.7867    2.5798 C   0  0  0  0  0  0  0  0  0  0  0  0
   -1.6919   -0.6541    2.7112 C   0  0  0  0  0  0  0  0  0  0  0  0
   -2.6398   -1.6143    3.1610 N   0  0  0  0  0  0  0  0  0  0  0  0
   -2.9254   -2.6557    2.1848 C   0  0  0  0  0  0  0  0  0  0  0  0
   -3.6375   -2.3419    1.0249 C   0  0  0  0  0  0  0  0  0  0  0  0
   -4.0250   -3.3647    0.1145 C   0  0  0  0  0  0  0  0  0  0  0  0
   -3.6875   -4.7184    0.3446 C   0  0  0  0  0  0  0  0  0  0  0  0
   -4.2632   -5.9575   -0.8705 S   0  0  0  0  0  0  0  0  0  0  0  0
   -3.6167   -7.5104   -0.1413 C   0  0  0  0  0  0  0  0  0  0  0  0
   -2.8981   -5.0309    1.4993 C   0  0  0  0  0  0  0  0  0  0  0  0
   -2.5138   -3.9989    2.3789 C   0  0  0  0  0  0  0  0  0  0  0  0
   -2.5881   -2.0279    4.5682 C   0  0  0  0  0  0  0  0  0  0  0  0
   -1.5143   -1.6497    5.4297 C   0  0  0  0  0  0  0  0  0  0  0  0
   -1.4620   -2.1574    6.7361 C   0  0  0  0  0  0  0  0  0  0  0  0
   -2.4790   -3.0127    7.2503 C   0  0  0  0  0  0  0  0  0  0  0  0
   -2.4178   -3.7585    8.9083 S   0  0  0  0  0  0  0  0  0  0  0  0
   -1.6289   -2.3977    9.8654 C   0  0  0  0  0  0  0  0  0  0  0  0
   -3.4623   -3.4548    6.3596 C   0  0  0  0  0  0  0  0  0  0  0  0
   -3.5299   -2.9645    5.0390 C   0  0  0  0  0  0  0  0  0  0  0  0
   -0.3031   -0.9613    2.5789 C   0  0  0  0  0  0  0  0  0  0  0  0
    0.5438   -2.3860    2.2981 S   0  0  0  0  0  0  0  0  0  0  0  0
   -3.1681    1.3157    1.8299 C   0  0  0  0  0  0  0  0  0  0  0  0
   -4.2122    2.1863    2.3646 C   0  0  0  0  0  0  0  0  0  0  0  0
   -4.5598    2.3763    3.8022 N   0  0  0  0  0  0  0  0  0  0  0  0
   -4.3292    1.3354    4.7490 C   0  0  0  0  0  0  0  0  0  0  0  0
   -3.7223    1.6582    5.9729 C   0  0  0  0  0  0  0  0  0  0  0  0
   -3.9638    0.8682    7.1331 C   0  0  0  0  0  0  0  0  0  0  0  0
   -4.8191   -0.2586    7.0708 C   0  0  0  0  0  0  0  0  0  0  0  0
   -5.0656   -1.2090    8.6245 S   0  0  0  0  0  0  0  0  0  0  0  0
   -6.3946   -2.3757    8.1188 C   0  0  0  0  0  0  0  0  0  0  0  0
   -5.3461   -0.6480    5.7997 C   0  0  0  0  0  0  0  0  0  0  0  0
   -5.1023    0.1344    4.6421 C   0  0  0  0  0  0  0  0  0  0  0  0
   -5.7595    3.1263    4.1476 C   0  0  0  0  0  0  0  0  0  0  0  0
   -7.0038    2.7341    3.5973 C   0  0  0  0  0  0  0  0  0  0  0  0
   -8.1339    3.5107    3.8135 C   0  0  0  0  0  0  0  0  0  0  0  0
   -8.1462    4.4380    4.8946 C   0  0  0  0  0  0  0  0  0  0  0  0
   -9.6413    5.3057    5.4045 S   0  0  0  0  0  0  0  0  0  0  0  0
  -10.9322    4.1813    4.7154 C   0  0  0  0  0  0  0  0  0  0  0  0
   -6.9192    4.7296    5.5414 C   0  0  0  0  0  0  0  0  0  0  0  0
   -5.7119    4.1148    5.1115 C   0  0  0  0  0  0  0  0  0  0  0  0
   -4.8669    2.8710    1.3072 C   0  0  0  0  0  0  0  0  0  0  0  0
   -6.0411    4.0953    1.1675 S   0  0  0  0  0  0  0  0  0  0  0  0
   -6.0217    4.2373   -0.4918 C   0  0  0  0  0  0  0  0  0  0  0  0
   -4.9790    3.3275   -1.0220 C   0  0  0  0  0  0  0  0  0  0  0  0
   -4.4128    3.5130   -2.2921 N   0  0  0  0  0  0  0  0  0  0  0  0
   -4.7957    2.6609   -3.4030 C   0  0  0  0  0  0  0  0  0  0  0  0
   -3.8087    1.9942   -4.1462 C   0  0  0  0  0  0  0  0  0  0  0  0
   -4.1294    1.3923   -5.3787 C   0  0  0  0  0  0  0  0  0  0  0  0
   -5.4541    1.4386   -5.9008 C   0  0  0  0  0  0  0  0  0  0  0  0
   -5.8881    0.4198   -7.3426 S   0  0  0  0  0  0  0  0  0  0  0  0
   -5.4719    1.6495   -8.6447 C   0  0  0  0  0  0  0  0  0  0  0  0
   -6.4738    1.9901   -5.0723 C   0  0  0  0  0  0  0  0  0  0  0  0
   -6.1570    2.6081   -3.8225 C   0  0  0  0  0  0  0  0  0  0  0  0
   -3.3409    4.4696   -2.5209 C   0  0  0  0  0  0  0  0  0  0  0  0
   -2.2767    4.5665   -1.5950 C   0  0  0  0  0  0  0  0  0  0  0  0
   -1.2302    5.4409   -1.8523 C   0  0  0  0  0  0  0  0  0  0  0  0
   -1.2137    6.2801   -3.0140 C   0  0  0  0  0  0  0  0  0  0  0  0
    0.1424    7.4282   -3.3773 S   0  0  0  0  0  0  0  0  0  0  0  0
    0.9358    7.5550   -1.7185 C   0  0  0  0  0  0  0  0  0  0  0  0
   -2.2548    6.1337   -3.9443 C   0  0  0  0  0  0  0  0  0  0  0  0
   -3.3109    5.2237   -3.7182 C   0  0  0  0  0  0  0  0  0  0  0  0
   -4.3763    2.5853    0.0273 C   0  0  0  0  0  0  0  0  0  0  0  0
   -3.0857    1.4861    0.1588 S   0  0  0  0  0  0  0  0  0  0  0  0
   -6.5467    5.4053   -1.2355 C   0  0  0  0  0  0  0  0  0  0  0  0
   -6.2199    6.7288   -0.8291 C   0  0  0  0  0  0  0  0  0  0  0  0
   -5.0810    7.0551    0.0261 C   0  0  0  0  0  0  0  0  0  0  0  0
   -4.2465    6.2668    0.5946 O   0  0  0  0  0  0  0  0  0  0  0  0
   -4.9938    8.4789    0.1449 C   0  0  0  0  0  0  0  0  0  0  0  0
   -4.1919    9.1831    1.0052 C   0  0  0  0  0  0  0  0  0  0  0  0
   -4.3825   10.5534    1.0655 C   0  0  0  0  0  0  0  0  0  0  0  0
   -3.4840   11.5225    2.1586 Cl  0  0  0  0  0  0  0  0  0  0  0  0
   -5.3727   11.2112    0.3187 C   0  0  0  0  0  0  0  0  0  0  0  0
   -6.2109   10.4285   -0.5301 C   0  0  0  0  0  0  0  0  0  0  0  0
   -5.9956    9.0908   -0.6403 C   0  0  0  0  0  0  0  0  0  0  0  0
   -6.8506    8.0640   -1.3051 C   0  0  0  0  0  0  0  0  0  0  0  0
   -7.9650    8.2731   -2.1070 C   0  0  0  0  0  0  0  0  0  0  0  0
   -8.9415    7.3570   -2.2729 C   0  0  0  0  0  0  0  0  0  0  0  0
   -9.8850    6.6503   -2.3150 N   0  0  0  0  0  0  0  0  0  0  0  0
   -8.1531    9.5268   -2.8024 C   0  0  0  0  0  0  0  0  0  0  0  0
   -8.1579   10.5643   -3.2460 N   0  0  0  0  0  0  0  0  0  0  0  0
    4.9803   -6.3359   -3.7350 H   0  0  0  0  0  0  0  0  0  0  0  0
    3.6139   -3.9611   -9.2086 H   0  0  0  0  0  0  0  0  0  0  0  0
    4.5376   -2.9444  -11.2986 H   0  0  0  0  0  0  0  0  0  0  0  0
    6.4850   -2.3476  -12.6849 H   0  0  0  0  0  0  0  0  0  0  0  0
    9.1138   -4.5671  -10.0695 H   0  0  0  0  0  0  0  0  0  0  0  0
    8.2375   -5.5601   -8.0445 H   0  0  0  0  0  0  0  0  0  0  0  0
    0.9231   -3.1675   -6.0569 H   0  0  0  0  0  0  0  0  0  0  0  0
   -1.2716   -4.1062   -6.2960 H   0  0  0  0  0  0  0  0  0  0  0  0
   -4.4704   -4.2308   -4.8583 H   0  0  0  0  0  0  0  0  0  0  0  0
   -3.7612   -4.1199   -3.2138 H   0  0  0  0  0  0  0  0  0  0  0  0
   -4.9196   -5.3942   -3.6252 H   0  0  0  0  0  0  0  0  0  0  0  0
   -0.8414   -6.0010   -2.3771 H   0  0  0  0  0  0  0  0  0  0  0  0
    1.3706   -5.0172   -2.0866 H   0  0  0  0  0  0  0  0  0  0  0  0
    0.7777   -1.2738   -4.1419 H   0  0  0  0  0  0  0  0  0  0  0  0
    0.9097    0.6466   -5.5524 H   0  0  0  0  0  0  0  0  0  0  0  0
    4.4388    3.3246   -5.9123 H   0  0  0  0  0  0  0  0  0  0  0  0
    3.0673    2.7760   -4.8798 H   0  0  0  0  0  0  0  0  0  0  0  0
    2.8264    3.9805   -6.1725 H   0  0  0  0  0  0  0  0  0  0  0  0
    5.0441   -0.2785   -6.4977 H   0  0  0  0  0  0  0  0  0  0  0  0
    4.8903   -2.3581   -5.1071 H   0  0  0  0  0  0  0  0  0  0  0  0
    2.2636   -5.2972    2.1465 H   0  0  0  0  0  0  0  0  0  0  0  0
    2.2560   -7.6663    2.8416 H   0  0  0  0  0  0  0  0  0  0  0  0
    2.9434   -8.6415    5.4423 H   0  0  0  0  0  0  0  0  0  0  0  0
    3.9915   -9.9327    5.9729 H   0  0  0  0  0  0  0  0  0  0  0  0
    4.6923   -8.3176    5.8052 H   0  0  0  0  0  0  0  0  0  0  0  0
    6.6087   -7.6171    3.0693 H   0  0  0  0  0  0  0  0  0  0  0  0
    6.5891   -5.2892    2.3453 H   0  0  0  0  0  0  0  0  0  0  0  0
    4.6154   -3.9673    4.5855 H   0  0  0  0  0  0  0  0  0  0  0  0
    6.0574   -2.6939    6.0953 H   0  0  0  0  0  0  0  0  0  0  0  0
    6.8603    1.4836    6.1293 H   0  0  0  0  0  0  0  0  0  0  0  0
    5.9398    0.0561    6.8042 H   0  0  0  0  0  0  0  0  0  0  0  0
    7.4119    0.6538    7.6066 H   0  0  0  0  0  0  0  0  0  0  0  0
    7.5177   -0.3787    2.7540 H   0  0  0  0  0  0  0  0  0  0  0  0
    6.1080   -1.6845    1.1853 H   0  0  0  0  0  0  0  0  0  0  0  0
    3.1239    3.4165    1.6036 H   0  0  0  0  0  0  0  0  0  0  0  0
    3.5957    5.1199    3.2189 H   0  0  0  0  0  0  0  0  0  0  0  0
    5.2005    6.1784    4.3921 H   0  0  0  0  0  0  0  0  0  0  0  0
    5.1372    7.1117    5.9011 H   0  0  0  0  0  0  0  0  0  0  0  0
    3.6917    7.0707    4.8838 H   0  0  0  0  0  0  0  0  0  0  0  0
    3.4229    2.1842    6.4232 H   0  0  0  0  0  0  0  0  0  0  0  0
    2.9295    0.4044    4.7710 H   0  0  0  0  0  0  0  0  0  0  0  0
    2.1626    0.9803   -0.5865 H   0  0  0  0  0  0  0  0  0  0  0  0
    3.7451    1.2950   -2.4689 H   0  0  0  0  0  0  0  0  0  0  0  0
    7.0277    3.2155   -4.0890 H   0  0  0  0  0  0  0  0  0  0  0  0
    7.8526    3.5351   -2.5684 H   0  0  0  0  0  0  0  0  0  0  0  0
    6.0773    3.8064   -2.6903 H   0  0  0  0  0  0  0  0  0  0  0  0
    7.0828    1.3401    0.3499 H   0  0  0  0  0  0  0  0  0  0  0  0
    5.4810    1.0331    2.2015 H   0  0  0  0  0  0  0  0  0  0  0  0
   -3.9378   -1.3291    0.8455 H   0  0  0  0  0  0  0  0  0  0  0  0
   -4.6105   -3.0890   -0.7585 H   0  0  0  0  0  0  0  0  0  0  0  0
   -4.1657   -7.7926    0.7803 H   0  0  0  0  0  0  0  0  0  0  0  0
   -3.8029   -8.3000   -0.8826 H   0  0  0  0  0  0  0  0  0  0  0  0
   -2.5192   -7.5004    0.0525 H   0  0  0  0  0  0  0  0  0  0  0  0
   -2.6078   -6.0455    1.7461 H   0  0  0  0  0  0  0  0  0  0  0  0
   -1.9261   -4.3195    3.2400 H   0  0  0  0  0  0  0  0  0  0  0  0
   -0.7139   -0.9645    5.1312 H   0  0  0  0  0  0  0  0  0  0  0  0
   -0.6187   -1.8390    7.3143 H   0  0  0  0  0  0  0  0  0  0  0  0
   -2.2574   -1.4865   10.0187 H   0  0  0  0  0  0  0  0  0  0  0  0
   -0.6338   -2.0924    9.4734 H   0  0  0  0  0  0  0  0  0  0  0  0
   -1.4127   -2.8176   10.8593 H   0  0  0  0  0  0  0  0  0  0  0  0
   -4.2039   -4.1905    6.6596 H   0  0  0  0  0  0  0  0  0  0  0  0
   -4.3334   -3.3145    4.3874 H   0  0  0  0  0  0  0  0  0  0  0  0
   -3.1829    2.5985    6.0626 H   0  0  0  0  0  0  0  0  0  0  0  0
   -3.5291    1.1897    8.0640 H   0  0  0  0  0  0  0  0  0  0  0  0
   -7.3070   -1.8711    7.7321 H   0  0  0  0  0  0  0  0  0  0  0  0
   -6.0575   -3.1164    7.3647 H   0  0  0  0  0  0  0  0  0  0  0  0
   -6.6784   -2.9497    9.0154 H   0  0  0  0  0  0  0  0  0  0  0  0
   -5.9736   -1.5251    5.6889 H   0  0  0  0  0  0  0  0  0  0  0  0
   -5.6395   -0.1284    3.7251 H   0  0  0  0  0  0  0  0  0  0  0  0
   -7.0455    2.0117    2.7747 H   0  0  0  0  0  0  0  0  0  0  0  0
   -9.0088    3.2960    3.2143 H   0  0  0  0  0  0  0  0  0  0  0  0
  -11.8144    4.1894    5.3790 H   0  0  0  0  0  0  0  0  0  0  0  0
  -11.2527    4.5653    3.7220 H   0  0  0  0  0  0  0  0  0  0  0  0
  -10.6509    3.1068    4.6187 H   0  0  0  0  0  0  0  0  0  0  0  0
   -6.8403    5.4657    6.3221 H   0  0  0  0  0  0  0  0  0  0  0  0
   -4.7696    4.3041    5.6417 H   0  0  0  0  0  0  0  0  0  0  0  0
   -2.7579    2.0592   -3.8290 H   0  0  0  0  0  0  0  0  0  0  0  0
   -3.3308    0.9034   -5.9211 H   0  0  0  0  0  0  0  0  0  0  0  0
   -5.7124    2.7098   -8.4011 H   0  0  0  0  0  0  0  0  0  0  0  0
   -6.0463    1.3905   -9.5447 H   0  0  0  0  0  0  0  0  0  0  0  0
   -4.4122    1.5848   -8.9587 H   0  0  0  0  0  0  0  0  0  0  0  0
   -7.5159    1.9519   -5.3848 H   0  0  0  0  0  0  0  0  0  0  0  0
   -6.9348    3.1283   -3.2639 H   0  0  0  0  0  0  0  0  0  0  0  0
   -2.2594    3.9578   -0.6846 H   0  0  0  0  0  0  0  0  0  0  0  0
   -0.4539    5.4723   -1.1157 H   0  0  0  0  0  0  0  0  0  0  0  0
    1.7407    8.3031   -1.7756 H   0  0  0  0  0  0  0  0  0  0  0  0
    1.4299    6.6057   -1.4200 H   0  0  0  0  0  0  0  0  0  0  0  0
    0.2488    7.8791   -0.9049 H   0  0  0  0  0  0  0  0  0  0  0  0
   -2.2688    6.6977   -4.8702 H   0  0  0  0  0  0  0  0  0  0  0  0
   -4.1100    5.1243   -4.4507 H   0  0  0  0  0  0  0  0  0  0  0  0
   -7.3143    5.2289   -1.9653 H   0  0  0  0  0  0  0  0  0  0  0  0
   -3.4531    8.6667    1.6194 H   0  0  0  0  0  0  0  0  0  0  0  0
   -5.5935   12.2624    0.3540 H   0  0  0  0  0  0  0  0  0  0  0  0
   -7.0174   10.9209   -1.0011 H   0  0  0  0  0  0  0  0  0  0  0  0
  1  2  2  3
  2  3  1  0
  3  4  2  0
  3  5  1  0
  5  6  2  0
  6  7  1  0
  7  8  2  0
  8  9  1  0
  9 10  2  0
 10 11  1  0
 10 12  1  0
 12 13  2  0
 13 14  1  0
 14 15  2  0
 15 16  1  0
 16 17  2  3
 17 18  1  0
 18 19  3  0
 17 20  1  0
 20 21  3  0
  1 22  1  0
 22 23  2  0
 23 24  1  0
 24 25  1  0
 25 26  2  0
 26 27  1  0
 27 28  2  0
 28 29  1  0
 29 30  1  0
 28 31  1  0
 31 32  2  0
 24 33  1  0
 33 34  2  0
 34 35  1  0
 35 36  2  0
 36 37  1  0
 37 38  1  0
 36 39  1  0
 39 40  2  0
 23 41  1  0
 41 42  1  0
 42 43  1  0
 43 44  2  0
 44 45  1  0
 45 46  1  0
 46 47  2  0
 47 48  1  0
 48 49  2  0
 49 50  1  0
 50 51  1  0
 49 52  1  0
 52 53  2  0
 45 54  1  0
 54 55  2  0
 55 56  1  0
 56 57  2  0
 57 58  1  0
 58 59  1  0
 57 60  1  0
 60 61  2  0
 44 62  1  0
 62 63  1  0
 43 64  1  0
 64 65  2  0
 65 66  1  0
 66 67  1  0
 67 68  2  0
 68 69  1  0
 69 70  2  0
 70 71  1  0
 71 72  1  0
 70 73  1  0
 73 74  2  0
 66 75  1  0
 75 76  2  0
 76 77  1  0
 77 78  2  0
 78 79  1  0
 79 80  1  0
 78 81  1  0
 81 82  2  0
 65 83  1  0
 83 84  1  0
 84 85  1  0
 85 86  2  0
 86 87  1  0
 87 88  1  0
 88 89  2  0
 89 90  1  0
 90 91  2  0
 91 92  1  0
 92 93  1  0
 91 94  1  0
 94 95  2  0
 87 96  1  0
 96 97  2  0
 97 98  1  0
 98 99  2  0
 99100  1  0
100101  1  0
 99102  1  0
102103  2  0
 86104  1  0
104105  1  0
 85106  1  0
106107  2  0
107108  1  0
108109  1  0
109110  2  0
110111  1  0
111112  2  0
112113  1  0
113114  1  0
112115  1  0
115116  2  0
108117  1  0
117118  2  0
118119  1  0
119120  2  0
120121  1  0
121122  1  0
120123  1  0
123124  2  0
107125  1  0
125126  1  0
126127  1  0
127128  2  0
128129  1  0
129130  1  0
130131  2  0
131132  1  0
132133  2  0
133134  1  0
134135  1  0
133136  1  0
136137  2  0
129138  1  0
138139  2  0
139140  1  0
140141  2  0
141142  1  0
142143  1  0
141144  1  0
144145  2  0
128146  1  0
146147  1  0
127148  1  0
148149  2  3
149150  1  0
150151  2  0
150152  1  0
152153  2  0
153154  1  0
154155  1  0
154156  2  0
156157  1  0
157158  2  0
158159  1  0
159160  2  3
160161  1  0
161162  3  0
160163  1  0
163164  3  0
 16  2  1  0
 63 22  1  0
105 64  1  0
147106  1  0
159149  1  0
 15  5  1  0
 32 25  1  0
 40 33  1  0
 62 41  2  0
 74 67  1  0
 82 75  1  0
104 83  2  0
116109  1  0
124117  1  0
146125  2  0
158152  1  0
 13  7  1  0
 53 46  1  0
 61 54  1  0
 95 88  1  0
103 96  1  0
137130  1  0
145138  1  0
  1165  1  0
  6166  1  0
  8167  1  0
  9168  1  0
 12169  1  0
 14170  1  0
 26171  1  0
 27172  1  0
 30173  1  0
 30174  1  0
 30175  1  0
 31176  1  0
 32177  1  0
 34178  1  0
 35179  1  0
 38180  1  0
 38181  1  0
 38182  1  0
 39183  1  0
 40184  1  0
 47185  1  0
 48186  1  0
 51187  1  0
 51188  1  0
 51189  1  0
 52190  1  0
 53191  1  0
 55192  1  0
 56193  1  0
 59194  1  0
 59195  1  0
 59196  1  0
 60197  1  0
 61198  1  0
 68199  1  0
 69200  1  0
 72201  1  0
 72202  1  0
 72203  1  0
 73204  1  0
 74205  1  0
 76206  1  0
 77207  1  0
 80208  1  0
 80209  1  0
 80210  1  0
 81211  1  0
 82212  1  0
 89213  1  0
 90214  1  0
 93215  1  0
 93216  1  0
 93217  1  0
 94218  1  0
 95219  1  0
 97220  1  0
 98221  1  0
101222  1  0
101223  1  0
101224  1  0
102225  1  0
103226  1  0
110227  1  0
111228  1  0
114229  1  0
114230  1  0
114231  1  0
115232  1  0
116233  1  0
118234  1  0
119235  1  0
122236  1  0
122237  1  0
122238  1  0
123239  1  0
124240  1  0
131241  1  0
132242  1  0
135243  1  0
135244  1  0
135245  1  0
136246  1  0
137247  1  0
139248  1  0
140249  1  0
143250  1  0
143251  1  0
143252  1  0
144253  1  0
145254  1  0
148255  1  0
153256  1  0
156257  1  0
157258  1  0
M  END

