
     RDKit          3D

216235  0  0  0  0  0  0  0  0999 V2000
   -1.9187    7.9194    7.9411 C   0  0  0  0  0  0  0  0  0  0  0  0
   -2.0933    8.3599    6.6795 C   0  0  0  0  0  0  0  0  0  0  0  0
   -2.5553    7.5441    5.5468 C   0  0  0  0  0  0  0  0  0  0  0  0
   -2.5970    6.2840    5.5029 O   0  0  0  0  0  0  0  0  0  0  0  0
   -2.9405    8.4275    4.4705 C   0  0  0  0  0  0  0  0  0  0  0  0
   -3.5574    8.0828    3.2651 C   0  0  0  0  0  0  0  0  0  0  0  0
   -3.9162    9.1073    2.3767 C   0  0  0  0  0  0  0  0  0  0  0  0
   -4.5204    8.8085    1.1433 C   0  0  0  0  0  0  0  0  0  0  0  0
   -4.8967    9.8423    0.2779 C   0  0  0  0  0  0  0  0  0  0  0  0
   -4.6797   11.1739    0.6345 C   0  0  0  0  0  0  0  0  0  0  0  0
   -5.0539   12.1684   -0.2101 F   0  0  0  0  0  0  0  0  0  0  0  0
   -4.0797   11.4886    1.8589 C   0  0  0  0  0  0  0  0  0  0  0  0
   -3.6874   10.4672    2.7352 C   0  0  0  0  0  0  0  0  0  0  0  0
   -3.0812   10.7859    3.9733 C   0  0  0  0  0  0  0  0  0  0  0  0
   -2.6930    9.7396    4.8319 C   0  0  0  0  0  0  0  0  0  0  0  0
   -2.0548    9.7728    6.1825 C   0  0  0  0  0  0  0  0  0  0  0  0
   -1.3523   10.8078    6.7192 C   0  0  0  0  0  0  0  0  0  0  0  0
   -0.5328   10.6496    7.8923 C   0  0  0  0  0  0  0  0  0  0  0  0
    0.1366   10.5314    8.8320 N   0  0  0  0  0  0  0  0  0  0  0  0
   -1.2595   12.1008    6.0941 C   0  0  0  0  0  0  0  0  0  0  0  0
   -1.1714   13.1475    5.6061 N   0  0  0  0  0  0  0  0  0  0  0  0
   -2.0188    6.4916    8.2934 C   0  0  0  0  0  0  0  0  0  0  0  0
   -0.8585    5.6966    8.3058 C   0  0  0  0  0  0  0  0  0  0  0  0
   -1.0014    4.3142    8.4363 C   0  0  0  0  0  0  0  0  0  0  0  0
   -0.0405    3.2829    8.0725 C   0  0  0  0  0  0  0  0  0  0  0  0
    1.1850    3.4561    7.8357 O   0  0  0  0  0  0  0  0  0  0  0  0
   -0.7962    2.0514    7.8805 C   0  0  0  0  0  0  0  0  0  0  0  0
   -2.1224    2.2996    8.2128 C   0  0  0  0  0  0  0  0  0  0  0  0
   -2.2490    3.7235    8.5580 C   0  0  0  0  0  0  0  0  0  0  0  0
   -3.4151    4.4994    8.5905 C   0  0  0  0  0  0  0  0  0  0  0  0
   -3.2912    5.8949    8.4732 C   0  0  0  0  0  0  0  0  0  0  0  0
   -3.1347    1.4286    7.8117 C   0  0  0  0  0  0  0  0  0  0  0  0
   -2.8036    0.3622    6.9623 C   0  0  0  0  0  0  0  0  0  0  0  0
   -1.4833    0.2099    6.4927 C   0  0  0  0  0  0  0  0  0  0  0  0
   -0.4507    1.0073    7.0237 C   0  0  0  0  0  0  0  0  0  0  0  0
   -1.3130   -0.2657    5.1171 C   0  0  0  0  0  0  0  0  0  0  0  0
   -1.2126   -1.5788    4.6210 C   0  0  0  0  0  0  0  0  0  0  0  0
   -1.2540   -2.7720    5.4320 N   0  0  0  0  0  0  0  0  0  0  0  0
   -2.0494   -3.8903    4.9980 C   0  0  0  0  0  0  0  0  0  0  0  0
   -1.5106   -5.1876    4.9977 C   0  0  0  0  0  0  0  0  0  0  0  0
   -2.2603   -6.2613    4.5082 C   0  0  0  0  0  0  0  0  0  0  0  0
   -3.5594   -6.0518    4.0237 C   0  0  0  0  0  0  0  0  0  0  0  0
   -4.4830   -7.4157    3.3240 S   0  0  0  0  0  0  0  0  0  0  0  0
   -3.9538   -7.0507    1.6164 C   0  0  0  0  0  0  0  0  0  0  0  0
   -4.1166   -4.7669    4.0649 C   0  0  0  0  0  0  0  0  0  0  0  0
   -3.3664   -3.6898    4.5385 C   0  0  0  0  0  0  0  0  0  0  0  0
   -0.6072   -2.8033    6.7205 C   0  0  0  0  0  0  0  0  0  0  0  0
    0.6926   -2.2860    6.8748 C   0  0  0  0  0  0  0  0  0  0  0  0
    1.2916   -2.2506    8.1353 C   0  0  0  0  0  0  0  0  0  0  0  0
    0.5949   -2.7157    9.2592 C   0  0  0  0  0  0  0  0  0  0  0  0
    1.3395   -2.5963   10.8853 S   0  0  0  0  0  0  0  0  0  0  0  0
    0.9550   -0.8213   11.0589 C   0  0  0  0  0  0  0  0  0  0  0  0
   -0.6882   -3.2595    9.1071 C   0  0  0  0  0  0  0  0  0  0  0  0
   -1.2897   -3.3058    7.8446 C   0  0  0  0  0  0  0  0  0  0  0  0
   -1.2119   -1.5739    3.2154 C   0  0  0  0  0  0  0  0  0  0  0  0
   -0.9930   -2.7201    2.0094 S   0  0  0  0  0  0  0  0  0  0  0  0
   -1.1772   -1.6034    0.7243 C   0  0  0  0  0  0  0  0  0  0  0  0
   -1.4433   -0.3244    1.2501 C   0  0  0  0  0  0  0  0  0  0  0  0
   -1.9634    0.8156    0.5156 N   0  0  0  0  0  0  0  0  0  0  0  0
   -2.8848    1.6906    1.1848 C   0  0  0  0  0  0  0  0  0  0  0  0
   -2.5807    3.0522    1.3412 C   0  0  0  0  0  0  0  0  0  0  0  0
   -3.4263    3.8725    2.0998 C   0  0  0  0  0  0  0  0  0  0  0  0
   -4.5840    3.3400    2.6857 C   0  0  0  0  0  0  0  0  0  0  0  0
   -5.6296    4.3765    3.7127 S   0  0  0  0  0  0  0  0  0  0  0  0
   -4.8654    3.8188    5.2697 C   0  0  0  0  0  0  0  0  0  0  0  0
   -4.9145    1.9945    2.4836 C   0  0  0  0  0  0  0  0  0  0  0  0
   -4.0736    1.1745    1.7344 C   0  0  0  0  0  0  0  0  0  0  0  0
   -2.0556    0.8140   -0.9173 C   0  0  0  0  0  0  0  0  0  0  0  0
   -3.2020    0.2937   -1.5470 C   0  0  0  0  0  0  0  0  0  0  0  0
   -3.3565    0.4112   -2.9333 C   0  0  0  0  0  0  0  0  0  0  0  0
   -2.3577    1.0185   -3.7018 C   0  0  0  0  0  0  0  0  0  0  0  0
   -2.5539    1.1367   -5.4796 S   0  0  0  0  0  0  0  0  0  0  0  0
   -2.1228   -0.6116   -5.7609 C   0  0  0  0  0  0  0  0  0  0  0  0
   -1.2078    1.5309   -3.0797 C   0  0  0  0  0  0  0  0  0  0  0  0
   -1.0673    1.4410   -1.6863 C   0  0  0  0  0  0  0  0  0  0  0  0
   -1.3775   -0.3552    2.6430 C   0  0  0  0  0  0  0  0  0  0  0  0
   -1.4453    0.8244    3.8226 S   0  0  0  0  0  0  0  0  0  0  0  0
   -0.5982   -1.8335   -0.5968 C   0  0  0  0  0  0  0  0  0  0  0  0
    0.5770   -1.2403   -1.0321 C   0  0  0  0  0  0  0  0  0  0  0  0
    0.9760   -1.6772   -2.2990 C   0  0  0  0  0  0  0  0  0  0  0  0
    2.1748   -1.3317   -2.9487 C   0  0  0  0  0  0  0  0  0  0  0  0
    3.3155   -0.7314   -2.2112 C   0  0  0  0  0  0  0  0  0  0  0  0
    3.7522   -1.1576   -0.9598 C   0  0  0  0  0  0  0  0  0  0  0  0
    5.0172   -0.6799   -0.6042 C   0  0  0  0  0  0  0  0  0  0  0  0
    5.5900    0.1284   -1.5691 C   0  0  0  0  0  0  0  0  0  0  0  0
    7.3524    0.6783   -1.6329 Si  0  0  0  0  0  4  0  0  0  0  0  0
    7.3276    2.5377   -1.8969 C   0  0  0  0  0  0  0  0  0  0  0  0
    8.6467    3.0772   -2.4434 C   0  0  0  0  0  0  0  0  0  0  0  0
    8.1693   -0.1729   -3.1009 C   0  0  0  0  0  0  0  0  0  0  0  0
    7.9821   -1.6830   -3.0535 C   0  0  0  0  0  0  0  0  0  0  0  0
    8.1983    0.2176   -0.0091 C   0  0  0  0  0  0  0  0  0  0  0  0
    9.7155    0.1992   -0.1015 C   0  0  0  0  0  0  0  0  0  0  0  0
    4.5233    0.2585   -2.8595 S   0  0  0  0  0  0  0  0  0  0  0  0
    2.3032   -1.7826   -4.2763 C   0  0  0  0  0  0  0  0  0  0  0  0
    1.3870   -2.6466   -4.8798 C   0  0  0  0  0  0  0  0  0  0  0  0
    0.2884   -3.1449   -4.1495 C   0  0  0  0  0  0  0  0  0  0  0  0
   -0.3501   -4.4131   -4.5292 C   0  0  0  0  0  0  0  0  0  0  0  0
   -1.6923   -4.7484   -4.3637 C   0  0  0  0  0  0  0  0  0  0  0  0
   -1.9167   -6.1349   -4.3323 C   0  0  0  0  0  0  0  0  0  0  0  0
   -0.7615   -6.8911   -4.4785 C   0  0  0  0  0  0  0  0  0  0  0  0
   -0.5435   -8.6765   -4.0653 Si  0  0  0  0  0  4  0  0  0  0  0  0
    0.6904   -9.3903   -5.2979 C   0  0  0  0  0  0  0  0  0  0  0  0
    1.6964  -10.3285   -4.6454 C   0  0  0  0  0  0  0  0  0  0  0  0
    0.0902   -8.7836   -2.2837 C   0  0  0  0  0  0  0  0  0  0  0  0
   -0.6827   -7.8551   -1.3513 C   0  0  0  0  0  0  0  0  0  0  0  0
   -2.1848   -9.5866   -4.2329 C   0  0  0  0  0  0  0  0  0  0  0  0
   -2.0548  -11.0737   -3.8911 C   0  0  0  0  0  0  0  0  0  0  0  0
    0.5358   -5.8410   -4.6200 S   0  0  0  0  0  0  0  0  0  0  0  0
    0.0782   -2.5847   -2.8714 C   0  0  0  0  0  0  0  0  0  0  0  0
   -1.1442   -2.9192   -1.7595 S   0  0  0  0  0  0  0  0  0  0  0  0
    1.6626   -2.8824   -6.2454 C   0  0  0  0  0  0  0  0  0  0  0  0
    2.7927   -2.1929   -6.6972 C   0  0  0  0  0  0  0  0  0  0  0  0
    3.4664   -1.3516   -5.4148 S   0  0  0  0  0  0  0  0  0  0  0  0
    3.0714   -1.7796   -8.0834 C   0  0  0  0  0  0  0  0  0  0  0  0
    2.5701   -0.6180   -8.5523 C   0  0  0  0  0  0  0  0  0  0  0  0
    1.4826    0.1301   -7.9100 C   0  0  0  0  0  0  0  0  0  0  0  0
    0.6030   -0.3486   -7.1482 O   0  0  0  0  0  0  0  0  0  0  0  0
    1.5587    1.5129   -8.3040 C   0  0  0  0  0  0  0  0  0  0  0  0
    0.7141    2.5509   -7.9303 C   0  0  0  0  0  0  0  0  0  0  0  0
    0.9283    3.8215   -8.4938 C   0  0  0  0  0  0  0  0  0  0  0  0
    0.1110    4.9020   -8.1259 C   0  0  0  0  0  0  0  0  0  0  0  0
    0.3136    6.1610   -8.6981 C   0  0  0  0  0  0  0  0  0  0  0  0
    1.3314    6.3497   -9.6356 C   0  0  0  0  0  0  0  0  0  0  0  0
    1.5235    7.5777  -10.1831 F   0  0  0  0  0  0  0  0  0  0  0  0
    2.1486    5.2798  -10.0238 C   0  0  0  0  0  0  0  0  0  0  0  0
    1.9658    4.0132   -9.4507 C   0  0  0  0  0  0  0  0  0  0  0  0
    2.7914    2.9261   -9.8194 C   0  0  0  0  0  0  0  0  0  0  0  0
    2.5987    1.6801   -9.1929 C   0  0  0  0  0  0  0  0  0  0  0  0
    3.2717    0.3608   -9.4251 C   0  0  0  0  0  0  0  0  0  0  0  0
    4.3933    0.1599  -10.1538 C   0  0  0  0  0  0  0  0  0  0  0  0
    4.7878   -1.1381  -10.6505 C   0  0  0  0  0  0  0  0  0  0  0  0
    5.1034   -2.1695  -11.0814 N   0  0  0  0  0  0  0  0  0  0  0  0
    5.2774    1.2431  -10.5010 C   0  0  0  0  0  0  0  0  0  0  0  0
    6.0009    2.1252  -10.7373 N   0  0  0  0  0  0  0  0  0  0  0  0
   -1.7048    8.6012    8.7497 H   0  0  0  0  0  0  0  0  0  0  0  0
   -3.7663    7.0435    3.0415 H   0  0  0  0  0  0  0  0  0  0  0  0
   -4.7019    7.7780    0.8544 H   0  0  0  0  0  0  0  0  0  0  0  0
   -5.3664    9.6072   -0.6724 H   0  0  0  0  0  0  0  0  0  0  0  0
   -3.9214   12.5310    2.1149 H   0  0  0  0  0  0  0  0  0  0  0  0
   -2.9630   11.8187    4.2516 H   0  0  0  0  0  0  0  0  0  0  0  0
    0.1179    6.1280    8.0982 H   0  0  0  0  0  0  0  0  0  0  0  0
   -4.3963    4.0382    8.6157 H   0  0  0  0  0  0  0  0  0  0  0  0
   -4.1869    6.5019    8.4387 H   0  0  0  0  0  0  0  0  0  0  0  0
   -4.1720    1.6543    8.0287 H   0  0  0  0  0  0  0  0  0  0  0  0
   -3.6016   -0.2264    6.5282 H   0  0  0  0  0  0  0  0  0  0  0  0
    0.5431    0.9828    6.5879 H   0  0  0  0  0  0  0  0  0  0  0  0
   -0.4974   -5.3578    5.3493 H   0  0  0  0  0  0  0  0  0  0  0  0
   -1.8306   -7.2608    4.4955 H   0  0  0  0  0  0  0  0  0  0  0  0
   -4.4035   -6.0913    1.2719 H   0  0  0  0  0  0  0  0  0  0  0  0
   -2.8450   -6.9752    1.5546 H   0  0  0  0  0  0  0  0  0  0  0  0
   -4.2935   -7.8656    0.9448 H   0  0  0  0  0  0  0  0  0  0  0  0
   -5.1257   -4.6065    3.7031 H   0  0  0  0  0  0  0  0  0  0  0  0
   -3.8005   -2.6988    4.5447 H   0  0  0  0  0  0  0  0  0  0  0  0
    1.2301   -1.8933    6.0205 H   0  0  0  0  0  0  0  0  0  0  0  0
    2.2887   -1.8370    8.2448 H   0  0  0  0  0  0  0  0  0  0  0  0
    1.2689   -0.4755   12.0662 H   0  0  0  0  0  0  0  0  0  0  0  0
   -0.1385   -0.6428   10.9410 H   0  0  0  0  0  0  0  0  0  0  0  0
    1.5106   -0.2350   10.2938 H   0  0  0  0  0  0  0  0  0  0  0  0
   -1.2220   -3.6374    9.9692 H   0  0  0  0  0  0  0  0  0  0  0  0
   -2.2882   -3.7073    7.7505 H   0  0  0  0  0  0  0  0  0  0  0  0
   -1.6731    3.4627    0.9183 H   0  0  0  0  0  0  0  0  0  0  0  0
   -3.1750    4.9173    2.2351 H   0  0  0  0  0  0  0  0  0  0  0  0
   -5.2642    4.4208    6.1092 H   0  0  0  0  0  0  0  0  0  0  0  0
   -5.1061    2.7480    5.4494 H   0  0  0  0  0  0  0  0  0  0  0  0
   -3.7658    3.9410    5.2232 H   0  0  0  0  0  0  0  0  0  0  0  0
   -5.8179    1.5857    2.9193 H   0  0  0  0  0  0  0  0  0  0  0  0
   -4.3239    0.1324    1.6023 H   0  0  0  0  0  0  0  0  0  0  0  0
   -3.9720   -0.1870   -0.9653 H   0  0  0  0  0  0  0  0  0  0  0  0
   -4.2480    0.0172   -3.4047 H   0  0  0  0  0  0  0  0  0  0  0  0
   -1.1624   -0.8614   -5.2618 H   0  0  0  0  0  0  0  0  0  0  0  0
   -2.9280   -1.2781   -5.3777 H   0  0  0  0  0  0  0  0  0  0  0  0
   -2.0214   -0.7909   -6.8512 H   0  0  0  0  0  0  0  0  0  0  0  0
   -0.4423    2.0210   -3.6687 H   0  0  0  0  0  0  0  0  0  0  0  0
   -0.1978    1.8747   -1.2090 H   0  0  0  0  0  0  0  0  0  0  0  0
    1.1190   -0.5133   -0.4400 H   0  0  0  0  0  0  0  0  0  0  0  0
    3.2110   -1.8715   -0.3501 H   0  0  0  0  0  0  0  0  0  0  0  0
    5.5095   -0.9728    0.3101 H   0  0  0  0  0  0  0  0  0  0  0  0
    7.0850    3.0301   -0.9343 H   0  0  0  0  0  0  0  0  0  0  0  0
    6.5199    2.7724   -2.6265 H   0  0  0  0  0  0  0  0  0  0  0  0
    9.4815    2.8758   -1.7456 H   0  0  0  0  0  0  0  0  0  0  0  0
    8.8652    2.6331   -3.4360 H   0  0  0  0  0  0  0  0  0  0  0  0
    8.5582    4.1776   -2.5712 H   0  0  0  0  0  0  0  0  0  0  0  0
    9.2532    0.0702   -3.1184 H   0  0  0  0  0  0  0  0  0  0  0  0
    7.7041    0.2225   -4.0320 H   0  0  0  0  0  0  0  0  0  0  0  0
    8.5140   -2.1056   -2.1753 H   0  0  0  0  0  0  0  0  0  0  0  0
    8.3957   -2.1288   -3.9804 H   0  0  0  0  0  0  0  0  0  0  0  0
    6.9035   -1.9406   -2.9946 H   0  0  0  0  0  0  0  0  0  0  0  0
    7.8544   -0.7948    0.2935 H   0  0  0  0  0  0  0  0  0  0  0  0
    7.8757    0.9387    0.7689 H   0  0  0  0  0  0  0  0  0  0  0  0
   10.1123    1.1909   -0.4025 H   0  0  0  0  0  0  0  0  0  0  0  0
   10.1331   -0.0527    0.8957 H   0  0  0  0  0  0  0  0  0  0  0  0
   10.0556   -0.5677   -0.8284 H   0  0  0  0  0  0  0  0  0  0  0  0
   -2.4762   -4.0299   -4.1693 H   0  0  0  0  0  0  0  0  0  0  0  0
   -2.8861   -6.5748   -4.1157 H   0  0  0  0  0  0  0  0  0  0  0  0
    1.2373   -8.5568   -5.7822 H   0  0  0  0  0  0  0  0  0  0  0  0
    0.1333   -9.9384   -6.0830 H   0  0  0  0  0  0  0  0  0  0  0  0
    1.1793  -11.1273   -4.0733 H   0  0  0  0  0  0  0  0  0  0  0  0
    2.3669   -9.7621   -3.9582 H   0  0  0  0  0  0  0  0  0  0  0  0
    2.3239  -10.8029   -5.4269 H   0  0  0  0  0  0  0  0  0  0  0  0
    0.0024   -9.8282   -1.9282 H   0  0  0  0  0  0  0  0  0  0  0  0
    1.1592   -8.4934   -2.2700 H   0  0  0  0  0  0  0  0  0  0  0  0
   -1.7471   -8.1709   -1.2815 H   0  0  0  0  0  0  0  0  0  0  0  0
   -0.6347   -6.8043   -1.7093 H   0  0  0  0  0  0  0  0  0  0  0  0
   -0.2325   -7.8826   -0.3349 H   0  0  0  0  0  0  0  0  0  0  0  0
   -2.5271   -9.4877   -5.2869 H   0  0  0  0  0  0  0  0  0  0  0  0
   -2.9353   -9.1173   -3.5666 H   0  0  0  0  0  0  0  0  0  0  0  0
   -1.1860  -11.5182   -4.4201 H   0  0  0  0  0  0  0  0  0  0  0  0
   -2.9681  -11.6078   -4.2238 H   0  0  0  0  0  0  0  0  0  0  0  0
   -1.9365  -11.2095   -2.7940 H   0  0  0  0  0  0  0  0  0  0  0  0
    0.9964   -3.4355   -6.9007 H   0  0  0  0  0  0  0  0  0  0  0  0
    3.9712   -2.1991   -8.5110 H   0  0  0  0  0  0  0  0  0  0  0  0
   -0.0938    2.3718   -7.2276 H   0  0  0  0  0  0  0  0  0  0  0  0
   -0.6902    4.7719   -7.4024 H   0  0  0  0  0  0  0  0  0  0  0  0
   -0.3258    6.9859   -8.4214 H   0  0  0  0  0  0  0  0  0  0  0  0
    2.9159    5.4430  -10.7666 H   0  0  0  0  0  0  0  0  0  0  0  0
    3.5368    3.0713  -10.5883 H   0  0  0  0  0  0  0  0  0  0  0  0
  1  2  2  3
  2  3  1  0
  3  4  2  0
  3  5  1  0
  5  6  2  0
  6  7  1  0
  7  8  2  0
  8  9  1  0
  9 10  2  0
 10 11  1  0
 10 12  1  0
 12 13  2  0
 13 14  1  0
 14 15  2  0
 15 16  1  0
 16 17  2  3
 17 18  1  0
 18 19  3  0
 17 20  1  0
 20 21  3  0
  1 22  1  0
 22 23  2  0
 23 24  1  0
 24 25  1  0
 25 26  2  0
 25 27  1  0
 27 28  2  0
 28 29  1  0
 29 30  1  0
 30 31  2  0
 28 32  1  0
 32 33  2  0
 33 34  1  0
 34 35  2  0
 34 36  1  0
 36 37  2  0
 37 38  1  0
 38 39  1  0
 39 40  2  0
 40 41  1  0
 41 42  2  0
 42 43  1  0
 43 44  1  0
 42 45  1  0
 45 46  2  0
 38 47  1  0
 47 48  2  0
 48 49  1  0
 49 50  2  0
 50 51  1  0
 51 52  1  0
 50 53  1  0
 53 54  2  0
 37 55  1  0
 55 56  1  0
 56 57  1  0
 57 58  2  0
 58 59  1  0
 59 60  1  0
 60 61  2  0
 61 62  1  0
 62 63  2  0
 63 64  1  0
 64 65  1  0
 63 66  1  0
 66 67  2  0
 59 68  1  0
 68 69  2  0
 69 70  1  0
 70 71  2  0
 71 72  1  0
 72 73  1  0
 71 74  1  0
 74 75  2  0
 58 76  1  0
 76 77  1  0
 57 78  1  0
 78 79  2  0
 79 80  1  0
 80 81  2  0
 81 82  1  0
 82 83  2  0
 83 84  1  0
 84 85  2  0
 85 86  1  0
 86 87  1  0
 87 88  1  0
 86 89  1  0
 89 90  1  0
 86 91  1  0
 91 92  1  0
 85 93  1  0
 81 94  1  0
 94 95  2  0
 95 96  1  0
 96 97  1  0
 97 98  2  0
 98 99  1  0
 99100  2  0
100101  1  0
101102  1  0
102103  1  0
101104  1  0
104105  1  0
101106  1  0
106107  1  0
100108  1  0
 96109  2  0
109110  1  0
 95111  1  0
111112  2  0
112113  1  0
112114  1  0
114115  2  3
115116  1  0
116117  2  0
116118  1  0
118119  2  0
119120  1  0
120121  2  0
121122  1  0
122123  2  0
123124  1  0
123125  1  0
125126  2  0
126127  1  0
127128  2  0
128129  1  0
129130  2  3
130131  1  0
131132  3  0
130133  1  0
133134  3  0
 16  2  1  0
 31 22  1  0
 77 36  1  0
110 78  1  0
129115  1  0
 15  5  1  0
 29 24  2  0
 46 39  1  0
 54 47  1  0
 76 55  2  0
109 80  1  0
128118  1  0
 13  7  1  0
 35 27  1  0
 67 60  1  0
 75 68  1  0
 93 82  1  0
113 94  1  0
126120  1  0
108 97  1  0
  1135  1  0
  6136  1  0
  8137  1  0
  9138  1  0
 12139  1  0
 14140  1  0
 23141  1  0
 30142  1  0
 31143  1  0
 32144  1  0
 33145  1  0
 35146  1  0
 40147  1  0
 41148  1  0
 44149  1  0
 44150  1  0
 44151  1  0
 45152  1  0
 46153  1  0
 48154  1  0
 49155  1  0
 52156  1  0
 52157  1  0
 52158  1  0
 53159  1  0
 54160  1  0
 61161  1  0
 62162  1  0
 65163  1  0
 65164  1  0
 65165  1  0
 66166  1  0
 67167  1  0
 69168  1  0
 70169  1  0
 73170  1  0
 73171  1  0
 73172  1  0
 74173  1  0
 75174  1  0
 79175  1  0
 83176  1  0
 84177  1  0
 87178  1  0
 87179  1  0
 88180  1  0
 88181  1  0
 88182  1  0
 89183  1  0
 89184  1  0
 90185  1  0
 90186  1  0
 90187  1  0
 91188  1  0
 91189  1  0
 92190  1  0
 92191  1  0
 92192  1  0
 98193  1  0
 99194  1  0
102195  1  0
102196  1  0
103197  1  0
103198  1  0
103199  1  0
104200  1  0
104201  1  0
105202  1  0
105203  1  0
105204  1  0
106205  1  0
106206  1  0
107207  1  0
107208  1  0
107209  1  0
111210  1  0
114211  1  0
119212  1  0
121213  1  0
122214  1  0
125215  1  0
127216  1  0
M  END

