
     RDKit          3D

164181  0  0  0  0  0  0  0  0999 V2000
   -2.5478   -6.2640   -9.2474 C   0  0  0  0  0  0  0  0  0  0  0  0
   -2.8595   -5.2934  -10.1207 C   0  0  0  0  0  0  0  0  0  0  0  0
   -4.2444   -5.1564  -10.5945 C   0  0  0  0  0  0  0  0  0  0  0  0
   -5.0014   -6.1015  -10.9583 O   0  0  0  0  0  0  0  0  0  0  0  0
   -4.6337   -3.7617  -10.4883 C   0  0  0  0  0  0  0  0  0  0  0  0
   -5.9150   -3.2110  -10.4449 C   0  0  0  0  0  0  0  0  0  0  0  0
   -6.0597   -1.8876   -9.9749 C   0  0  0  0  0  0  0  0  0  0  0  0
   -7.3371   -1.3258   -9.8065 C   0  0  0  0  0  0  0  0  0  0  0  0
   -7.4783   -0.0421   -9.2600 C   0  0  0  0  0  0  0  0  0  0  0  0
   -6.3541    0.6970   -8.9017 C   0  0  0  0  0  0  0  0  0  0  0  0
   -6.5013    1.9215   -8.3365 F   0  0  0  0  0  0  0  0  0  0  0  0
   -5.0724    0.1555   -9.0675 C   0  0  0  0  0  0  0  0  0  0  0  0
   -4.9080   -1.1316   -9.5981 C   0  0  0  0  0  0  0  0  0  0  0  0
   -3.6300   -1.7034   -9.6853 C   0  0  0  0  0  0  0  0  0  0  0  0
   -3.5167   -3.0255  -10.1380 C   0  0  0  0  0  0  0  0  0  0  0  0
   -2.3423   -3.9036  -10.0403 C   0  0  0  0  0  0  0  0  0  0  0  0
   -1.0818   -3.5629  -10.3761 C   0  0  0  0  0  0  0  0  0  0  0  0
   -0.8173   -2.3161  -11.0344 C   0  0  0  0  0  0  0  0  0  0  0  0
   -0.6091   -1.3624  -11.6552 N   0  0  0  0  0  0  0  0  0  0  0  0
   -0.0504   -4.5622  -10.4755 C   0  0  0  0  0  0  0  0  0  0  0  0
    0.7779   -5.3668  -10.5817 N   0  0  0  0  0  0  0  0  0  0  0  0
   -2.3713   -5.9209   -7.8321 C   0  0  0  0  0  0  0  0  0  0  0  0
   -1.1358   -5.4892   -7.3006 C   0  0  0  0  0  0  0  0  0  0  0  0
   -1.1163   -5.0237   -5.9836 C   0  0  0  0  0  0  0  0  0  0  0  0
   -0.0321   -4.4170   -5.2066 C   0  0  0  0  0  0  0  0  0  0  0  0
    1.1605   -4.2634   -5.5709 O   0  0  0  0  0  0  0  0  0  0  0  0
   -0.6158   -4.0051   -3.9291 C   0  0  0  0  0  0  0  0  0  0  0  0
   -1.9594   -4.3320   -3.9521 C   0  0  0  0  0  0  0  0  0  0  0  0
   -2.2693   -4.9677   -5.2218 C   0  0  0  0  0  0  0  0  0  0  0  0
   -3.4881   -5.4216   -5.7110 C   0  0  0  0  0  0  0  0  0  0  0  0
   -3.5306   -5.9078   -7.0216 C   0  0  0  0  0  0  0  0  0  0  0  0
   -2.8163   -4.0001   -2.9051 C   0  0  0  0  0  0  0  0  0  0  0  0
   -2.2778   -3.3182   -1.8090 C   0  0  0  0  0  0  0  0  0  0  0  0
   -0.9098   -2.9505   -1.7760 C   0  0  0  0  0  0  0  0  0  0  0  0
   -0.0580   -3.3216   -2.8435 C   0  0  0  0  0  0  0  0  0  0  0  0
   -0.4146   -2.1926   -0.6121 C   0  0  0  0  0  0  0  0  0  0  0  0
   -1.2059   -1.3029    0.1388 C   0  0  0  0  0  0  0  0  0  0  0  0
   -2.1104   -0.3879   -0.5112 N   0  0  0  0  0  0  0  0  0  0  0  0
   -3.3360    0.0759    0.1075 C   0  0  0  0  0  0  0  0  0  0  0  0
   -3.9303   -0.6438    1.1605 C   0  0  0  0  0  0  0  0  0  0  0  0
   -5.0669   -0.1367    1.8134 C   0  0  0  0  0  0  0  0  0  0  0  0
   -5.6508    1.0603    1.3882 C   0  0  0  0  0  0  0  0  0  0  0  0
   -7.0765    1.7334    2.2342 S   0  0  0  0  0  0  0  0  0  0  0  0
   -6.0874    2.8722    3.2700 C   0  0  0  0  0  0  0  0  0  0  0  0
   -5.1179    1.7380    0.2875 C   0  0  0  0  0  0  0  0  0  0  0  0
   -3.9652    1.2610   -0.3407 C   0  0  0  0  0  0  0  0  0  0  0  0
   -1.5610    0.2881   -1.6542 C   0  0  0  0  0  0  0  0  0  0  0  0
   -1.9550   -0.0811   -2.9538 C   0  0  0  0  0  0  0  0  0  0  0  0
   -1.2353    0.3834   -4.0600 C   0  0  0  0  0  0  0  0  0  0  0  0
   -0.1261    1.2184   -3.8785 C   0  0  0  0  0  0  0  0  0  0  0  0
    0.8754    1.7147   -5.2816 S   0  0  0  0  0  0  0  0  0  0  0  0
    2.1604    0.4647   -4.9472 C   0  0  0  0  0  0  0  0  0  0  0  0
    0.2224    1.6450   -2.5940 C   0  0  0  0  0  0  0  0  0  0  0  0
   -0.4780    1.1696   -1.4861 C   0  0  0  0  0  0  0  0  0  0  0  0
   -0.5651   -0.9897    1.3365 C   0  0  0  0  0  0  0  0  0  0  0  0
   -0.9886   -0.1370    2.7027 S   0  0  0  0  0  0  0  0  0  0  0  0
    0.5028   -0.3501    3.5097 C   0  0  0  0  0  0  0  0  0  0  0  0
    1.3921   -1.0041    2.6152 C   0  0  0  0  0  0  0  0  0  0  0  0
    2.8275   -0.8423    2.6140 N   0  0  0  0  0  0  0  0  0  0  0  0
    3.6232   -1.9250    2.0927 C   0  0  0  0  0  0  0  0  0  0  0  0
    4.4020   -1.7315    0.9310 C   0  0  0  0  0  0  0  0  0  0  0  0
    4.8923   -2.8334    0.2258 C   0  0  0  0  0  0  0  0  0  0  0  0
    4.6031   -4.1307    0.6644 C   0  0  0  0  0  0  0  0  0  0  0  0
    5.0027   -5.5412   -0.3667 S   0  0  0  0  0  0  0  0  0  0  0  0
    3.4204   -5.4472   -1.2671 C   0  0  0  0  0  0  0  0  0  0  0  0
    3.9149   -4.3247    1.8710 C   0  0  0  0  0  0  0  0  0  0  0  0
    3.4300   -3.2249    2.5840 C   0  0  0  0  0  0  0  0  0  0  0  0
    3.4003    0.4857    2.7192 C   0  0  0  0  0  0  0  0  0  0  0  0
    4.6882    0.6605    3.2667 C   0  0  0  0  0  0  0  0  0  0  0  0
    5.1937    1.9466    3.5011 C   0  0  0  0  0  0  0  0  0  0  0  0
    4.4266    3.0772    3.1860 C   0  0  0  0  0  0  0  0  0  0  0  0
    5.0324    4.7252    3.5448 S   0  0  0  0  0  0  0  0  0  0  0  0
    4.3376    4.7482    5.2368 C   0  0  0  0  0  0  0  0  0  0  0  0
    3.1681    2.9169    2.5937 C   0  0  0  0  0  0  0  0  0  0  0  0
    2.6645    1.6330    2.3576 C   0  0  0  0  0  0  0  0  0  0  0  0
    0.7031   -1.4365    1.4622 C   0  0  0  0  0  0  0  0  0  0  0  0
    1.1049   -2.3822    0.1306 S   0  0  0  0  0  0  0  0  0  0  0  0
    0.7119   -0.0124    4.9520 C   0  0  0  0  0  0  0  0  0  0  0  0
    1.9845   -0.0772    5.5640 C   0  0  0  0  0  0  0  0  0  0  0  0
    2.1205    0.3495    6.8816 C   0  0  0  0  0  0  0  0  0  0  0  0
    3.3207    0.8069    7.5649 C   0  0  0  0  0  0  0  0  0  0  0  0
    4.5024    0.7370    7.1350 O   0  0  0  0  0  0  0  0  0  0  0  0
    2.8753    1.5061    8.7652 C   0  0  0  0  0  0  0  0  0  0  0  0
    1.4939    1.3858    8.8543 C   0  0  0  0  0  0  0  0  0  0  0  0
    1.0250    0.7165    7.6360 C   0  0  0  0  0  0  0  0  0  0  0  0
   -0.2531    0.7267    7.0901 C   0  0  0  0  0  0  0  0  0  0  0  0
   -0.4048    0.3645    5.7443 C   0  0  0  0  0  0  0  0  0  0  0  0
    0.7532    2.1228    9.7795 C   0  0  0  0  0  0  0  0  0  0  0  0
    1.4224    3.0863   10.5475 C   0  0  0  0  0  0  0  0  0  0  0  0
    2.7949    3.3412   10.3223 C   0  0  0  0  0  0  0  0  0  0  0  0
    3.5458    2.4946    9.4875 C   0  0  0  0  0  0  0  0  0  0  0  0
    3.3317    4.6766   10.6120 C   0  0  0  0  0  0  0  0  0  0  0  0
    3.0068    5.7506    9.8484 C   0  0  0  0  0  0  0  0  0  0  0  0
    2.2171    5.6751    8.6093 C   0  0  0  0  0  0  0  0  0  0  0  0
    1.6257    4.6555    8.1755 O   0  0  0  0  0  0  0  0  0  0  0  0
    2.2964    6.9400    7.9042 C   0  0  0  0  0  0  0  0  0  0  0  0
    3.0847    7.8143    8.6501 C   0  0  0  0  0  0  0  0  0  0  0  0
    3.3213    9.1135    8.1754 C   0  0  0  0  0  0  0  0  0  0  0  0
    2.7769    9.5099    6.9457 C   0  0  0  0  0  0  0  0  0  0  0  0
    1.9915    8.6232    6.1849 C   0  0  0  0  0  0  0  0  0  0  0  0
    1.4456    9.0396    4.9607 C   0  0  0  0  0  0  0  0  0  0  0  0
    0.6369    8.1752    4.2182 C   0  0  0  0  0  0  0  0  0  0  0  0
    0.3683    6.8911    4.6857 C   0  0  0  0  0  0  0  0  0  0  0  0
    0.9148    6.4541    5.8997 C   0  0  0  0  0  0  0  0  0  0  0  0
    1.7316    7.3114    6.6657 C   0  0  0  0  0  0  0  0  0  0  0  0
    3.5305    7.1528    9.9275 C   0  0  0  0  0  0  0  0  0  0  0  0
    4.2126    7.7204   10.9541 C   0  0  0  0  0  0  0  0  0  0  0  0
    4.4425    7.0369   12.2041 C   0  0  0  0  0  0  0  0  0  0  0  0
    4.6505    6.4581   13.1853 N   0  0  0  0  0  0  0  0  0  0  0  0
    4.8220    9.0201   10.8724 C   0  0  0  0  0  0  0  0  0  0  0  0
    5.3370   10.0596   10.8016 N   0  0  0  0  0  0  0  0  0  0  0  0
   -2.9828   -7.2468   -9.4364 H   0  0  0  0  0  0  0  0  0  0  0  0
   -6.7752   -3.8212  -10.6736 H   0  0  0  0  0  0  0  0  0  0  0  0
   -8.2251   -1.8976  -10.0504 H   0  0  0  0  0  0  0  0  0  0  0  0
   -8.4645    0.3737   -9.1167 H   0  0  0  0  0  0  0  0  0  0  0  0
   -4.2167    0.7369   -8.7455 H   0  0  0  0  0  0  0  0  0  0  0  0
   -2.7555   -1.1664   -9.3430 H   0  0  0  0  0  0  0  0  0  0  0  0
   -0.2329   -5.4992   -7.8911 H   0  0  0  0  0  0  0  0  0  0  0  0
   -4.3907   -5.3718   -5.1154 H   0  0  0  0  0  0  0  0  0  0  0  0
   -4.4823   -6.2321   -7.4316 H   0  0  0  0  0  0  0  0  0  0  0  0
   -3.8702   -4.2512   -2.9395 H   0  0  0  0  0  0  0  0  0  0  0  0
   -2.9321   -3.0728   -0.9844 H   0  0  0  0  0  0  0  0  0  0  0  0
    0.9985   -3.0611   -2.8427 H   0  0  0  0  0  0  0  0  0  0  0  0
   -3.5090   -1.5826    1.5018 H   0  0  0  0  0  0  0  0  0  0  0  0
   -5.5026   -0.6894    2.6351 H   0  0  0  0  0  0  0  0  0  0  0  0
   -6.7718    3.5790    3.7837 H   0  0  0  0  0  0  0  0  0  0  0  0
   -5.5233    2.2862    4.0283 H   0  0  0  0  0  0  0  0  0  0  0  0
   -5.3788    3.4604    2.6470 H   0  0  0  0  0  0  0  0  0  0  0  0
   -5.5704    2.6602   -0.0502 H   0  0  0  0  0  0  0  0  0  0  0  0
   -3.5433    1.8526   -1.1453 H   0  0  0  0  0  0  0  0  0  0  0  0
   -2.7819   -0.7635   -3.0898 H   0  0  0  0  0  0  0  0  0  0  0  0
   -1.5092    0.0469   -5.0549 H   0  0  0  0  0  0  0  0  0  0  0  0
    2.6544    0.6850   -3.9744 H   0  0  0  0  0  0  0  0  0  0  0  0
    1.7168   -0.5535   -4.9041 H   0  0  0  0  0  0  0  0  0  0  0  0
    2.9224    0.4933   -5.7529 H   0  0  0  0  0  0  0  0  0  0  0  0
    1.0719    2.3018   -2.4541 H   0  0  0  0  0  0  0  0  0  0  0  0
   -0.1531    1.4434   -0.4884 H   0  0  0  0  0  0  0  0  0  0  0  0
    4.5431   -0.7383    0.5240 H   0  0  0  0  0  0  0  0  0  0  0  0
    5.4393   -2.6880   -0.6872 H   0  0  0  0  0  0  0  0  0  0  0  0
    2.5681   -5.5322   -0.5638 H   0  0  0  0  0  0  0  0  0  0  0  0
    3.3724   -6.2732   -2.0092 H   0  0  0  0  0  0  0  0  0  0  0  0
    3.3485   -4.4846   -1.8125 H   0  0  0  0  0  0  0  0  0  0  0  0
    3.6981   -5.3264    2.2174 H   0  0  0  0  0  0  0  0  0  0  0  0
    2.8160   -3.3915    3.4623 H   0  0  0  0  0  0  0  0  0  0  0  0
    5.2810   -0.1973    3.5519 H   0  0  0  0  0  0  0  0  0  0  0  0
    6.1718    2.0699    3.9451 H   0  0  0  0  0  0  0  0  0  0  0  0
    4.9315    4.0693    5.8845 H   0  0  0  0  0  0  0  0  0  0  0  0
    3.2742    4.4300    5.2245 H   0  0  0  0  0  0  0  0  0  0  0  0
    4.4043    5.7822    5.6383 H   0  0  0  0  0  0  0  0  0  0  0  0
    2.5721    3.7838    2.3341 H   0  0  0  0  0  0  0  0  0  0  0  0
    1.6946    1.5392    1.8877 H   0  0  0  0  0  0  0  0  0  0  0  0
    2.8684   -0.4002    5.0526 H   0  0  0  0  0  0  0  0  0  0  0  0
   -1.0990    1.0801    7.6611 H   0  0  0  0  0  0  0  0  0  0  0  0
   -1.3996    0.4177    5.3231 H   0  0  0  0  0  0  0  0  0  0  0  0
   -0.3254    2.0564    9.8100 H   0  0  0  0  0  0  0  0  0  0  0  0
    0.8408    3.7533   11.1672 H   0  0  0  0  0  0  0  0  0  0  0  0
    4.5809    2.7163    9.2638 H   0  0  0  0  0  0  0  0  0  0  0  0
    4.0665    4.7264   11.4039 H   0  0  0  0  0  0  0  0  0  0  0  0
    3.9022    9.8421    8.7137 H   0  0  0  0  0  0  0  0  0  0  0  0
    2.9624   10.5176    6.5926 H   0  0  0  0  0  0  0  0  0  0  0  0
    1.6346   10.0321    4.5705 H   0  0  0  0  0  0  0  0  0  0  0  0
    0.2250    8.4922    3.2690 H   0  0  0  0  0  0  0  0  0  0  0  0
   -0.2598    6.2198    4.1131 H   0  0  0  0  0  0  0  0  0  0  0  0
    0.6584    5.4624    6.2280 H   0  0  0  0  0  0  0  0  0  0  0  0
  1  2  2  3
  2  3  1  0
  3  4  2  0
  3  5  1  0
  5  6  2  0
  6  7  1  0
  7  8  2  0
  8  9  1  0
  9 10  2  0
 10 11  1  0
 10 12  1  0
 12 13  2  0
 13 14  1  0
 14 15  2  0
 15 16  1  0
 16 17  2  3
 17 18  1  0
 18 19  3  0
 17 20  1  0
 20 21  3  0
  1 22  1  0
 22 23  2  0
 23 24  1  0
 24 25  1  0
 25 26  2  0
 25 27  1  0
 27 28  2  0
 28 29  1  0
 29 30  1  0
 30 31  2  0
 28 32  1  0
 32 33  2  0
 33 34  1  0
 34 35  2  0
 34 36  1  0
 36 37  2  0
 37 38  1  0
 38 39  1  0
 39 40  2  0
 40 41  1  0
 41 42  2  0
 42 43  1  0
 43 44  1  0
 42 45  1  0
 45 46  2  0
 38 47  1  0
 47 48  2  0
 48 49  1  0
 49 50  2  0
 50 51  1  0
 51 52  1  0
 50 53  1  0
 53 54  2  0
 37 55  1  0
 55 56  1  0
 56 57  1  0
 57 58  2  0
 58 59  1  0
 59 60  1  0
 60 61  2  0
 61 62  1  0
 62 63  2  0
 63 64  1  0
 64 65  1  0
 63 66  1  0
 66 67  2  0
 59 68  1  0
 68 69  2  0
 69 70  1  0
 70 71  2  0
 71 72  1  0
 72 73  1  0
 71 74  1  0
 74 75  2  0
 58 76  1  0
 76 77  1  0
 57 78  1  0
 78 79  2  0
 79 80  1  0
 80 81  1  0
 81 82  2  0
 81 83  1  0
 83 84  2  0
 84 85  1  0
 85 86  1  0
 86 87  2  0
 84 88  1  0
 88 89  2  0
 89 90  1  0
 90 91  2  0
 90 92  1  0
 92 93  2  3
 93 94  1  0
 94 95  2  0
 94 96  1  0
 96 97  2  0
 97 98  1  0
 98 99  2  0
 99100  1  0
100101  2  0
101102  1  0
102103  2  0
103104  1  0
104105  2  0
 97106  1  0
106107  2  3
107108  1  0
108109  3  0
107110  1  0
110111  3  0
 16  2  1  0
 31 22  1  0
 77 36  1  0
 87 78  1  0
106 93  1  0
 15  5  1  0
 29 24  2  0
 46 39  1  0
 54 47  1  0
 76 55  2  0
 85 80  2  0
105 96  1  0
 13  7  1  0
 35 27  1  0
 67 60  1  0
 75 68  1  0
 91 83  1  0
105100  1  0
  1112  1  0
  6113  1  0
  8114  1  0
  9115  1  0
 12116  1  0
 14117  1  0
 23118  1  0
 30119  1  0
 31120  1  0
 32121  1  0
 33122  1  0
 35123  1  0
 40124  1  0
 41125  1  0
 44126  1  0
 44127  1  0
 44128  1  0
 45129  1  0
 46130  1  0
 48131  1  0
 49132  1  0
 52133  1  0
 52134  1  0
 52135  1  0
 53136  1  0
 54137  1  0
 61138  1  0
 62139  1  0
 65140  1  0
 65141  1  0
 65142  1  0
 66143  1  0
 67144  1  0
 69145  1  0
 70146  1  0
 73147  1  0
 73148  1  0
 73149  1  0
 74150  1  0
 75151  1  0
 79152  1  0
 86153  1  0
 87154  1  0
 88155  1  0
 89156  1  0
 91157  1  0
 92158  1  0
 98159  1  0
 99160  1  0
101161  1  0
102162  1  0
103163  1  0
104164  1  0
M  END

