
     RDKit          3D

155171  0  0  0  0  0  0  0  0999 V2000
    2.4446    1.0240  -10.8008 C   0  0  0  0  0  0  0  0  0  0  0  0
    3.4068    1.3442   -9.8628 C   0  0  0  0  0  0  0  0  0  0  0  0
    4.8277    1.0538   -9.9521 C   0  0  0  0  0  0  0  0  0  0  0  0
    5.3325    0.3596  -10.8661 O   0  0  0  0  0  0  0  0  0  0  0  0
    5.4215    1.4232   -8.6833 C   0  0  0  0  0  0  0  0  0  0  0  0
    6.8163    1.6183   -8.4621 C   0  0  0  0  0  0  0  0  0  0  0  0
    7.2157    2.3473   -7.3121 C   0  0  0  0  0  0  0  0  0  0  0  0
    8.4891    2.4167   -6.8650 C   0  0  0  0  0  0  0  0  0  0  0  0
    8.7710    3.1291   -5.6479 C   0  0  0  0  0  0  0  0  0  0  0  0
    7.7296    3.7995   -4.9244 C   0  0  0  0  0  0  0  0  0  0  0  0
    8.0483    4.4594   -3.7695 F   0  0  0  0  0  0  0  0  0  0  0  0
    6.4486    3.7244   -5.3758 C   0  0  0  0  0  0  0  0  0  0  0  0
    6.1623    2.8463   -6.4564 C   0  0  0  0  0  0  0  0  0  0  0  0
    4.8038    2.5305   -6.6812 C   0  0  0  0  0  0  0  0  0  0  0  0
    4.4093    1.8129   -7.7940 C   0  0  0  0  0  0  0  0  0  0  0  0
    3.0305    1.9668   -8.5092 C   0  0  0  0  0  0  0  0  0  0  0  0
    2.3264    3.1465   -8.3786 C   0  0  0  0  0  0  0  0  0  0  0  0
    1.3273    3.3017   -7.2405 C   0  0  0  0  0  0  0  0  0  0  0  0
    0.6517    3.3850   -6.3508 N   0  0  0  0  0  0  0  0  0  0  0  0
    2.6429    4.3871   -9.1276 C   0  0  0  0  0  0  0  0  0  0  0  0
    2.7531    5.3735   -9.7184 N   0  0  0  0  0  0  0  0  0  0  0  0
    1.0096    0.9227  -10.4418 C   0  0  0  0  0  0  0  0  0  0  0  0
    0.6508   -0.2983   -9.8130 C   0  0  0  0  0  0  0  0  0  0  0  0
   -0.2736   -0.2353   -8.7771 C   0  0  0  0  0  0  0  0  0  0  0  0
   -0.5283   -1.1800   -7.7098 C   0  0  0  0  0  0  0  0  0  0  0  0
   -0.0666   -2.3588   -7.6815 O   0  0  0  0  0  0  0  0  0  0  0  0
   -1.2921   -0.5181   -6.6632 C   0  0  0  0  0  0  0  0  0  0  0  0
   -1.5133    0.7946   -7.0817 C   0  0  0  0  0  0  0  0  0  0  0  0
   -0.8728    0.9992   -8.4318 C   0  0  0  0  0  0  0  0  0  0  0  0
   -0.6967    2.1519   -9.1762 C   0  0  0  0  0  0  0  0  0  0  0  0
    0.2455    2.0773  -10.2515 C   0  0  0  0  0  0  0  0  0  0  0  0
   -2.0945    1.7220   -6.1841 C   0  0  0  0  0  0  0  0  0  0  0  0
   -2.2588    1.3438   -4.8341 C   0  0  0  0  0  0  0  0  0  0  0  0
   -1.9023    0.0382   -4.3695 C   0  0  0  0  0  0  0  0  0  0  0  0
   -1.5330   -0.9267   -5.3345 C   0  0  0  0  0  0  0  0  0  0  0  0
   -1.5805   -0.1375   -2.9032 C   0  0  0  0  0  0  0  0  0  0  0  0
   -0.2843   -0.0525   -2.3552 C   0  0  0  0  0  0  0  0  0  0  0  0
    0.8822   -0.5889   -3.0669 N   0  0  0  0  0  0  0  0  0  0  0  0
    2.1978    0.0035   -3.0791 C   0  0  0  0  0  0  0  0  0  0  0  0
    2.7775    0.4788   -4.2615 C   0  0  0  0  0  0  0  0  0  0  0  0
    4.1475    0.5363   -4.3801 C   0  0  0  0  0  0  0  0  0  0  0  0
    5.0038    0.2790   -3.2872 C   0  0  0  0  0  0  0  0  0  0  0  0
    6.8249    0.5188   -3.5601 S   0  0  0  0  0  0  0  0  0  0  0  0
    7.4500   -0.2050   -2.0157 C   0  0  0  0  0  0  0  0  0  0  0  0
    4.4313   -0.0870   -2.0368 C   0  0  0  0  0  0  0  0  0  0  0  0
    3.0218   -0.2793   -1.9702 C   0  0  0  0  0  0  0  0  0  0  0  0
    0.8102   -1.9623   -3.5577 C   0  0  0  0  0  0  0  0  0  0  0  0
    1.3392   -2.4142   -4.8159 C   0  0  0  0  0  0  0  0  0  0  0  0
    1.2836   -3.7572   -5.2383 C   0  0  0  0  0  0  0  0  0  0  0  0
    0.7065   -4.7327   -4.4163 C   0  0  0  0  0  0  0  0  0  0  0  0
    1.0066   -6.4583   -4.7353 S   0  0  0  0  0  0  0  0  0  0  0  0
   -0.5667   -7.2111   -4.1731 C   0  0  0  0  0  0  0  0  0  0  0  0
    0.1497   -4.3087   -3.1412 C   0  0  0  0  0  0  0  0  0  0  0  0
    0.1761   -2.9501   -2.7345 C   0  0  0  0  0  0  0  0  0  0  0  0
   -0.3157    0.1779   -0.9547 C   0  0  0  0  0  0  0  0  0  0  0  0
    0.8209    0.5355    0.2435 S   0  0  0  0  0  0  0  0  0  0  0  0
   -0.2669    0.7210    1.4863 C   0  0  0  0  0  0  0  0  0  0  0  0
   -1.5651    0.4132    0.9985 C   0  0  0  0  0  0  0  0  0  0  0  0
   -2.5179   -0.2291    1.8887 N   0  0  0  0  0  0  0  0  0  0  0  0
   -2.0341   -1.3832    2.6796 C   0  0  0  0  0  0  0  0  0  0  0  0
   -1.1129   -2.2900    2.1226 C   0  0  0  0  0  0  0  0  0  0  0  0
   -0.5589   -3.3858    2.8602 C   0  0  0  0  0  0  0  0  0  0  0  0
   -0.9552   -3.5761    4.2446 C   0  0  0  0  0  0  0  0  0  0  0  0
    0.0790   -4.5450    5.3157 S   0  0  0  0  0  0  0  0  0  0  0  0
   -0.1218   -6.2195    4.6290 C   0  0  0  0  0  0  0  0  0  0  0  0
   -1.9305   -2.7227    4.7881 C   0  0  0  0  0  0  0  0  0  0  0  0
   -2.4100   -1.6017    4.0359 C   0  0  0  0  0  0  0  0  0  0  0  0
   -3.8173    0.3501    2.2516 C   0  0  0  0  0  0  0  0  0  0  0  0
   -3.9184    1.6644    2.7459 C   0  0  0  0  0  0  0  0  0  0  0  0
   -5.0353    2.0448    3.5183 C   0  0  0  0  0  0  0  0  0  0  0  0
   -6.0912    1.1436    3.7141 C   0  0  0  0  0  0  0  0  0  0  0  0
   -7.6824    1.7039    4.3206 S   0  0  0  0  0  0  0  0  0  0  0  0
   -7.4709    1.4248    6.1230 C   0  0  0  0  0  0  0  0  0  0  0  0
   -5.9884   -0.1751    3.1948 C   0  0  0  0  0  0  0  0  0  0  0  0
   -4.8869   -0.5287    2.4188 C   0  0  0  0  0  0  0  0  0  0  0  0
   -1.5282    0.1861   -0.3936 C   0  0  0  0  0  0  0  0  0  0  0  0
   -2.6765   -0.0066   -1.6333 S   0  0  0  0  0  0  0  0  0  0  0  0
    0.0350    1.0323    2.9159 C   0  0  0  0  0  0  0  0  0  0  0  0
    0.6421    0.0812    3.7720 C   0  0  0  0  0  0  0  0  0  0  0  0
    0.4894    0.2810    5.1745 C   0  0  0  0  0  0  0  0  0  0  0  0
    0.8459   -0.5640    6.3426 C   0  0  0  0  0  0  0  0  0  0  0  0
    1.4162   -1.6881    6.2944 O   0  0  0  0  0  0  0  0  0  0  0  0
    0.3982    0.1622    7.5496 C   0  0  0  0  0  0  0  0  0  0  0  0
   -0.2108    1.3569    7.1452 C   0  0  0  0  0  0  0  0  0  0  0  0
   -0.1887    1.4491    5.6609 C   0  0  0  0  0  0  0  0  0  0  0  0
   -0.6625    2.4324    4.8152 C   0  0  0  0  0  0  0  0  0  0  0  0
   -0.5253    2.2387    3.4379 C   0  0  0  0  0  0  0  0  0  0  0  0
   -0.7859    2.2351    8.1000 C   0  0  0  0  0  0  0  0  0  0  0  0
   -0.6894    1.8747    9.4826 C   0  0  0  0  0  0  0  0  0  0  0  0
   -0.0765    0.6250    9.8823 C   0  0  0  0  0  0  0  0  0  0  0  0
    0.5244   -0.1892    8.9472 C   0  0  0  0  0  0  0  0  0  0  0  0
   -0.1976    0.2288   11.2359 C   0  0  0  0  0  0  0  0  0  0  0  0
   -0.7016   -0.9568   11.6021 C   0  0  0  0  0  0  0  0  0  0  0  0
   -1.5907   -1.7755   10.7304 C   0  0  0  0  0  0  0  0  0  0  0  0
   -1.9944   -1.6280    9.5488 O   0  0  0  0  0  0  0  0  0  0  0  0
   -2.1011   -2.8094   11.6009 C   0  0  0  0  0  0  0  0  0  0  0  0
   -1.7621   -2.6136   12.9270 C   0  0  0  0  0  0  0  0  0  0  0  0
   -2.6997   -3.1665   13.7792 C   0  0  0  0  0  0  0  0  0  0  0  0
   -3.7644   -4.1586   12.8340 S   0  0  0  0  0  0  0  0  0  0  0  0
   -3.1311   -3.7228   11.3439 C   0  0  0  0  0  0  0  0  0  0  0  0
   -3.9807   -3.9571    9.7813 Cl  0  0  0  0  0  0  0  0  0  0  0  0
   -0.8052   -1.4815   13.1165 C   0  0  0  0  0  0  0  0  0  0  0  0
   -0.1209   -0.9428   14.2001 C   0  0  0  0  0  0  0  0  0  0  0  0
   -0.0091   -1.5964   15.4758 C   0  0  0  0  0  0  0  0  0  0  0  0
    0.1658   -2.0709   16.5498 N   0  0  0  0  0  0  0  0  0  0  0  0
    1.0097   -0.0600   13.9570 C   0  0  0  0  0  0  0  0  0  0  0  0
    2.0088    0.4134   13.6027 N   0  0  0  0  0  0  0  0  0  0  0  0
    2.7231    0.9378  -11.7834 H   0  0  0  0  0  0  0  0  0  0  0  0
    7.5674    1.1403   -9.1307 H   0  0  0  0  0  0  0  0  0  0  0  0
    9.2636    1.9400   -7.4651 H   0  0  0  0  0  0  0  0  0  0  0  0
    9.8020    3.2112   -5.3615 H   0  0  0  0  0  0  0  0  0  0  0  0
    5.6097    4.1294   -4.7541 H   0  0  0  0  0  0  0  0  0  0  0  0
    4.0835    3.1166   -6.1630 H   0  0  0  0  0  0  0  0  0  0  0  0
    1.2794   -1.2302   -9.8455 H   0  0  0  0  0  0  0  0  0  0  0  0
   -1.0937    3.1300   -8.8849 H   0  0  0  0  0  0  0  0  0  0  0  0
    0.6491    2.9927  -10.6274 H   0  0  0  0  0  0  0  0  0  0  0  0
   -2.2849    2.7658   -6.4883 H   0  0  0  0  0  0  0  0  0  0  0  0
   -2.5922    2.1125   -4.1166 H   0  0  0  0  0  0  0  0  0  0  0  0
   -1.2759   -1.9469   -5.0813 H   0  0  0  0  0  0  0  0  0  0  0  0
    2.1480    0.5786   -5.1293 H   0  0  0  0  0  0  0  0  0  0  0  0
    4.5604    0.6629   -5.3369 H   0  0  0  0  0  0  0  0  0  0  0  0
    8.5276   -0.2400   -2.1317 H   0  0  0  0  0  0  0  0  0  0  0  0
    7.1287   -1.2596   -1.8716 H   0  0  0  0  0  0  0  0  0  0  0  0
    7.2432    0.4343   -1.1201 H   0  0  0  0  0  0  0  0  0  0  0  0
    5.0154   -0.2907   -1.1230 H   0  0  0  0  0  0  0  0  0  0  0  0
    2.6449   -0.8248   -1.1123 H   0  0  0  0  0  0  0  0  0  0  0  0
    1.7710   -1.7040   -5.4892 H   0  0  0  0  0  0  0  0  0  0  0  0
    1.7527   -4.0197   -6.1827 H   0  0  0  0  0  0  0  0  0  0  0  0
   -0.9440   -7.9107   -4.9367 H   0  0  0  0  0  0  0  0  0  0  0  0
   -1.3855   -6.4907   -3.9112 H   0  0  0  0  0  0  0  0  0  0  0  0
   -0.3586   -7.8107   -3.2732 H   0  0  0  0  0  0  0  0  0  0  0  0
   -0.3100   -5.0215   -2.4420 H   0  0  0  0  0  0  0  0  0  0  0  0
   -0.2608   -2.6917   -1.7680 H   0  0  0  0  0  0  0  0  0  0  0  0
   -0.7494   -2.1580    1.0977 H   0  0  0  0  0  0  0  0  0  0  0  0
    0.2238   -3.9851    2.4038 H   0  0  0  0  0  0  0  0  0  0  0  0
   -1.0788   -6.6957    4.8901 H   0  0  0  0  0  0  0  0  0  0  0  0
    0.7295   -6.8145    5.0843 H   0  0  0  0  0  0  0  0  0  0  0  0
    0.0929   -6.2941    3.5336 H   0  0  0  0  0  0  0  0  0  0  0  0
   -2.2158   -2.7583    5.7940 H   0  0  0  0  0  0  0  0  0  0  0  0
   -3.0221   -0.9183    4.5626 H   0  0  0  0  0  0  0  0  0  0  0  0
   -3.1122    2.3476    2.6519 H   0  0  0  0  0  0  0  0  0  0  0  0
   -5.1215    3.0766    3.8274 H   0  0  0  0  0  0  0  0  0  0  0  0
   -7.0732    0.4258    6.4057 H   0  0  0  0  0  0  0  0  0  0  0  0
   -6.8315    2.1930    6.5890 H   0  0  0  0  0  0  0  0  0  0  0  0
   -8.4436    1.5289    6.6291 H   0  0  0  0  0  0  0  0  0  0  0  0
   -6.7754   -0.9086    3.2976 H   0  0  0  0  0  0  0  0  0  0  0  0
   -4.7558   -1.5770    2.1499 H   0  0  0  0  0  0  0  0  0  0  0  0
    1.0407   -0.8869    3.4864 H   0  0  0  0  0  0  0  0  0  0  0  0
   -1.1688    3.3169    5.1753 H   0  0  0  0  0  0  0  0  0  0  0  0
   -0.9706    2.9782    2.7299 H   0  0  0  0  0  0  0  0  0  0  0  0
   -1.2962    3.1757    7.8277 H   0  0  0  0  0  0  0  0  0  0  0  0
   -1.2355    2.5212   10.1991 H   0  0  0  0  0  0  0  0  0  0  0  0
    0.8934   -1.1654    9.1635 H   0  0  0  0  0  0  0  0  0  0  0  0
   -0.0666    0.9337   12.0426 H   0  0  0  0  0  0  0  0  0  0  0  0
   -2.7680   -3.2008   14.8837 H   0  0  0  0  0  0  0  0  0  0  0  0
  1  2  2  3
  2  3  1  0
  3  4  2  0
  3  5  1  0
  5  6  2  0
  6  7  1  0
  7  8  2  0
  8  9  1  0
  9 10  2  0
 10 11  1  0
 10 12  1  0
 12 13  2  0
 13 14  1  0
 14 15  2  0
 15 16  1  0
 16 17  2  3
 17 18  1  0
 18 19  3  0
 17 20  1  0
 20 21  3  0
  1 22  1  0
 22 23  2  0
 23 24  1  0
 24 25  1  0
 25 26  2  0
 25 27  1  0
 27 28  2  0
 28 29  1  0
 29 30  1  0
 30 31  2  0
 28 32  1  0
 32 33  2  0
 33 34  1  0
 34 35  2  0
 34 36  1  0
 36 37  2  0
 37 38  1  0
 38 39  1  0
 39 40  2  0
 40 41  1  0
 41 42  2  0
 42 43  1  0
 43 44  1  0
 42 45  1  0
 45 46  2  0
 38 47  1  0
 47 48  2  0
 48 49  1  0
 49 50  2  0
 50 51  1  0
 51 52  1  0
 50 53  1  0
 53 54  2  0
 37 55  1  0
 55 56  1  0
 56 57  1  0
 57 58  2  0
 58 59  1  0
 59 60  1  0
 60 61  2  0
 61 62  1  0
 62 63  2  0
 63 64  1  0
 64 65  1  0
 63 66  1  0
 66 67  2  0
 59 68  1  0
 68 69  2  0
 69 70  1  0
 70 71  2  0
 71 72  1  0
 72 73  1  0
 71 74  1  0
 74 75  2  0
 58 76  1  0
 76 77  1  0
 57 78  1  0
 78 79  2  0
 79 80  1  0
 80 81  1  0
 81 82  2  0
 81 83  1  0
 83 84  2  0
 84 85  1  0
 85 86  1  0
 86 87  2  0
 84 88  1  0
 88 89  2  0
 89 90  1  0
 90 91  2  0
 90 92  1  0
 92 93  2  3
 93 94  1  0
 94 95  2  0
 94 96  1  0
 96 97  1  0
 97 98  2  0
 98 99  1  0
 99100  1  0
100101  1  0
 97102  1  0
102103  2  3
103104  1  0
104105  3  0
103106  1  0
106107  3  0
 16  2  1  0
 31 22  1  0
 77 36  1  0
 87 78  1  0
102 93  1  0
 15  5  1  0
 29 24  2  0
 46 39  1  0
 54 47  1  0
 76 55  2  0
 85 80  2  0
100 96  2  0
 13  7  1  0
 35 27  1  0
 67 60  1  0
 75 68  1  0
 91 83  1  0
  1108  1  0
  6109  1  0
  8110  1  0
  9111  1  0
 12112  1  0
 14113  1  0
 23114  1  0
 30115  1  0
 31116  1  0
 32117  1  0
 33118  1  0
 35119  1  0
 40120  1  0
 41121  1  0
 44122  1  0
 44123  1  0
 44124  1  0
 45125  1  0
 46126  1  0
 48127  1  0
 49128  1  0
 52129  1  0
 52130  1  0
 52131  1  0
 53132  1  0
 54133  1  0
 61134  1  0
 62135  1  0
 65136  1  0
 65137  1  0
 65138  1  0
 66139  1  0
 67140  1  0
 69141  1  0
 70142  1  0
 73143  1  0
 73144  1  0
 73145  1  0
 74146  1  0
 75147  1  0
 79148  1  0
 86149  1  0
 87150  1  0
 88151  1  0
 89152  1  0
 91153  1  0
 92154  1  0
 98155  1  0
M  END

