
     RDKit          3D

208227  0  0  0  0  0  0  0  0999 V2000
    4.1428    3.8110    6.9365 C   0  0  0  0  0  0  0  0  0  0  0  0
    3.6860    4.9798    7.4146 C   0  0  0  0  0  0  0  0  0  0  0  0
    2.3030    5.4621    7.2895 C   0  0  0  0  0  0  0  0  0  0  0  0
    1.4132    5.0104    6.5118 O   0  0  0  0  0  0  0  0  0  0  0  0
    2.0667    6.4614    8.3063 C   0  0  0  0  0  0  0  0  0  0  0  0
    0.8679    7.1135    8.5860 C   0  0  0  0  0  0  0  0  0  0  0  0
    0.8182    7.9717    9.6944 C   0  0  0  0  0  0  0  0  0  0  0  0
   -0.3726    8.6350   10.0214 C   0  0  0  0  0  0  0  0  0  0  0  0
   -0.4331    9.4493   11.1557 C   0  0  0  0  0  0  0  0  0  0  0  0
    0.6934    9.6091   11.9684 C   0  0  0  0  0  0  0  0  0  0  0  0
    0.6168   10.3827   13.0816 F   0  0  0  0  0  0  0  0  0  0  0  0
    1.8917    8.9668   11.6438 C   0  0  0  0  0  0  0  0  0  0  0  0
    1.9732    8.1498   10.5075 C   0  0  0  0  0  0  0  0  0  0  0  0
    3.1736    7.4847   10.1859 C   0  0  0  0  0  0  0  0  0  0  0  0
    3.2103    6.6412    9.0619 C   0  0  0  0  0  0  0  0  0  0  0  0
    4.3131    5.8040    8.4971 C   0  0  0  0  0  0  0  0  0  0  0  0
    5.6403    5.8843    8.7763 C   0  0  0  0  0  0  0  0  0  0  0  0
    6.6349    5.2546    7.9472 C   0  0  0  0  0  0  0  0  0  0  0  0
    7.4415    4.7641    7.2756 N   0  0  0  0  0  0  0  0  0  0  0  0
    6.1630    6.6238    9.8964 C   0  0  0  0  0  0  0  0  0  0  0  0
    6.5958    7.2093   10.7964 N   0  0  0  0  0  0  0  0  0  0  0  0
    3.3637    2.9842    6.0098 C   0  0  0  0  0  0  0  0  0  0  0  0
    2.9827    3.3366    4.7014 C   0  0  0  0  0  0  0  0  0  0  0  0
    3.6984    4.2978    3.9014 N   0  0  0  0  0  0  0  0  0  0  0  0
    5.1405    4.2563    3.8729 C   0  0  0  0  0  0  0  0  0  0  0  0
    5.8830    5.4492    3.8656 C   0  0  0  0  0  0  0  0  0  0  0  0
    7.2810    5.4128    3.8247 C   0  0  0  0  0  0  0  0  0  0  0  0
    7.9532    4.1836    3.7872 C   0  0  0  0  0  0  0  0  0  0  0  0
    9.4549    4.1436    3.8138 C   0  0  0  0  0  0  0  0  0  0  0  0
    7.2149    2.9914    3.8008 C   0  0  0  0  0  0  0  0  0  0  0  0
    5.8197    3.0254    3.8357 C   0  0  0  0  0  0  0  0  0  0  0  0
    3.0095    5.1151    2.9456 C   0  0  0  0  0  0  0  0  0  0  0  0
    2.1314    6.1200    3.3778 C   0  0  0  0  0  0  0  0  0  0  0  0
    1.5387    6.9851    2.4564 C   0  0  0  0  0  0  0  0  0  0  0  0
    1.8138    6.8537    1.0867 C   0  0  0  0  0  0  0  0  0  0  0  0
    1.2403    7.8248    0.0977 C   0  0  0  0  0  0  0  0  0  0  0  0
    2.6911    5.8459    0.6506 C   0  0  0  0  0  0  0  0  0  0  0  0
    3.2873    4.9836    1.5746 C   0  0  0  0  0  0  0  0  0  0  0  0
    2.1364    2.3603    4.1637 C   0  0  0  0  0  0  0  0  0  0  0  0
    1.2783    2.2046    2.7387 S   0  0  0  0  0  0  0  0  0  0  0  0
    0.6481    0.6682    3.1395 C   0  0  0  0  0  0  0  0  0  0  0  0
    1.2029    0.2152    4.3587 C   0  0  0  0  0  0  0  0  0  0  0  0
    1.3787   -1.1782    4.7431 N   0  0  0  0  0  0  0  0  0  0  0  0
    2.5925   -1.5357    5.4228 C   0  0  0  0  0  0  0  0  0  0  0  0
    3.8215   -1.3940    4.7592 C   0  0  0  0  0  0  0  0  0  0  0  0
    5.0195   -1.5912    5.4462 C   0  0  0  0  0  0  0  0  0  0  0  0
    5.0082   -1.9760    6.7948 C   0  0  0  0  0  0  0  0  0  0  0  0
    6.2877   -2.0332    7.5681 C   0  0  0  0  0  0  0  0  0  0  0  0
    3.7765   -2.1525    7.4502 C   0  0  0  0  0  0  0  0  0  0  0  0
    2.5739   -1.9470    6.7627 C   0  0  0  0  0  0  0  0  0  0  0  0
    0.7917   -2.2631    4.0074 C   0  0  0  0  0  0  0  0  0  0  0  0
    1.1516   -2.4877    2.6681 C   0  0  0  0  0  0  0  0  0  0  0  0
    0.7099   -3.6283    1.9950 C   0  0  0  0  0  0  0  0  0  0  0  0
   -0.0655   -4.5859    2.6635 C   0  0  0  0  0  0  0  0  0  0  0  0
   -0.4993   -5.8335    1.9487 C   0  0  0  0  0  0  0  0  0  0  0  0
   -0.3742   -4.3965    4.0202 C   0  0  0  0  0  0  0  0  0  0  0  0
    0.0407   -3.2359    4.6827 C   0  0  0  0  0  0  0  0  0  0  0  0
    1.9507    1.2544    4.9357 C   0  0  0  0  0  0  0  0  0  0  0  0
    2.7509    1.4541    6.4032 S   0  0  0  0  0  0  0  0  0  0  0  0
   -0.4700    0.0761    2.3977 C   0  0  0  0  0  0  0  0  0  0  0  0
   -0.5491   -0.0067    0.7196 S   0  0  0  0  0  0  0  0  0  0  0  0
   -2.1113   -0.6086    0.6869 C   0  0  0  0  0  0  0  0  0  0  0  0
   -2.8367   -1.1422   -0.4433 C   0  0  0  0  0  0  0  0  0  0  0  0
   -3.9671   -1.8906   -0.2307 C   0  0  0  0  0  0  0  0  0  0  0  0
   -4.5381   -1.9855    1.0481 O   0  0  0  0  0  0  0  0  0  0  0  0
   -4.0710   -1.2121    2.1850 C   0  0  0  0  0  0  0  0  0  0  0  0
   -4.2116   -2.1136    3.4397 C   0  0  0  0  0  0  0  0  0  0  0  0
   -3.5615   -3.4807    3.2415 C   0  0  0  0  0  0  0  0  0  0  0  0
   -4.9990    0.0296    2.2866 C   0  0  0  0  0  0  0  0  0  0  0  0
   -4.7532    0.9298    3.4969 C   0  0  0  0  0  0  0  0  0  0  0  0
   -2.6123   -0.7545    1.9690 C   0  0  0  0  0  0  0  0  0  0  0  0
   -1.6781   -0.3558    2.9458 C   0  0  0  0  0  0  0  0  0  0  0  0
   -4.4010   -2.5888   -1.3634 C   0  0  0  0  0  0  0  0  0  0  0  0
   -3.5680   -2.3702   -2.4635 C   0  0  0  0  0  0  0  0  0  0  0  0
   -2.3072   -1.3411   -2.0138 S   0  0  0  0  0  0  0  0  0  0  0  0
   -3.6256   -3.0166   -3.7800 C   0  0  0  0  0  0  0  0  0  0  0  0
   -4.4897   -2.6128   -4.8218 C   0  0  0  0  0  0  0  0  0  0  0  0
   -5.7976   -2.0330   -4.6087 N   0  0  0  0  0  0  0  0  0  0  0  0
   -6.3280   -1.0439   -5.5122 C   0  0  0  0  0  0  0  0  0  0  0  0
   -7.5546   -1.2695   -6.1630 C   0  0  0  0  0  0  0  0  0  0  0  0
   -8.0754   -0.3164   -7.0404 C   0  0  0  0  0  0  0  0  0  0  0  0
   -7.3887    0.8850   -7.2657 C   0  0  0  0  0  0  0  0  0  0  0  0
   -7.9430    1.8874   -8.2338 C   0  0  0  0  0  0  0  0  0  0  0  0
   -6.1577    1.1080   -6.6274 C   0  0  0  0  0  0  0  0  0  0  0  0
   -5.6362    0.1540   -5.7476 C   0  0  0  0  0  0  0  0  0  0  0  0
   -6.6876   -2.6036   -3.6287 C   0  0  0  0  0  0  0  0  0  0  0  0
   -7.5014   -1.7718   -2.8420 C   0  0  0  0  0  0  0  0  0  0  0  0
   -8.3625   -2.3168   -1.8878 C   0  0  0  0  0  0  0  0  0  0  0  0
   -8.4149   -3.7051   -1.6982 C   0  0  0  0  0  0  0  0  0  0  0  0
   -9.3646   -4.2912   -0.6952 C   0  0  0  0  0  0  0  0  0  0  0  0
   -7.6230   -4.5431   -2.4990 C   0  0  0  0  0  0  0  0  0  0  0  0
   -6.7654   -3.9966   -3.4574 C   0  0  0  0  0  0  0  0  0  0  0  0
   -3.9017   -2.8359   -6.0766 C   0  0  0  0  0  0  0  0  0  0  0  0
   -4.0993   -2.0831   -7.5616 S   0  0  0  0  0  0  0  0  0  0  0  0
   -2.5710   -2.4970   -8.1760 C   0  0  0  0  0  0  0  0  0  0  0  0
   -1.8945   -3.2592   -7.1999 C   0  0  0  0  0  0  0  0  0  0  0  0
   -0.4868   -3.5730   -7.2248 N   0  0  0  0  0  0  0  0  0  0  0  0
   -0.0596   -4.9168   -6.8914 C   0  0  0  0  0  0  0  0  0  0  0  0
    1.1042   -5.1380   -6.1304 C   0  0  0  0  0  0  0  0  0  0  0  0
    1.4820   -6.4347   -5.7703 C   0  0  0  0  0  0  0  0  0  0  0  0
    0.7137   -7.5359   -6.1735 C   0  0  0  0  0  0  0  0  0  0  0  0
    1.0929   -8.9213   -5.7434 C   0  0  0  0  0  0  0  0  0  0  0  0
   -0.4556   -7.3234   -6.9159 C   0  0  0  0  0  0  0  0  0  0  0  0
   -0.8386   -6.0274   -7.2714 C   0  0  0  0  0  0  0  0  0  0  0  0
    0.4706   -2.5021   -7.2795 C   0  0  0  0  0  0  0  0  0  0  0  0
    0.3624   -1.4071   -6.4086 C   0  0  0  0  0  0  0  0  0  0  0  0
    1.3204   -0.3917   -6.4259 C   0  0  0  0  0  0  0  0  0  0  0  0
    2.3898   -0.4474   -7.3311 C   0  0  0  0  0  0  0  0  0  0  0  0
    3.4040    0.6577   -7.3457 C   0  0  0  0  0  0  0  0  0  0  0  0
    2.5013   -1.5411   -8.2043 C   0  0  0  0  0  0  0  0  0  0  0  0
    1.5489   -2.5657   -8.1754 C   0  0  0  0  0  0  0  0  0  0  0  0
   -2.6701   -3.4158   -6.0508 C   0  0  0  0  0  0  0  0  0  0  0  0
   -2.2045   -3.6455   -4.4673 S   0  0  0  0  0  0  0  0  0  0  0  0
   -1.9270   -1.6892   -9.2213 C   0  0  0  0  0  0  0  0  0  0  0  0
   -1.1344   -2.1690  -10.1912 C   0  0  0  0  0  0  0  0  0  0  0  0
   -1.0583   -3.5595  -10.6417 C   0  0  0  0  0  0  0  0  0  0  0  0
   -1.6162   -4.5421  -10.0930 O   0  0  0  0  0  0  0  0  0  0  0  0
   -0.3929   -3.5789  -11.9388 C   0  0  0  0  0  0  0  0  0  0  0  0
   -0.2574   -4.6433  -12.8365 C   0  0  0  0  0  0  0  0  0  0  0  0
   -0.6974   -6.2826  -12.3600 Cl  0  0  0  0  0  0  0  0  0  0  0  0
    0.2243   -4.3723  -14.1317 C   0  0  0  0  0  0  0  0  0  0  0  0
    0.4229   -5.6873  -15.2895 Cl  0  0  0  0  0  0  0  0  0  0  0  0
    0.4725   -3.0359  -14.5307 C   0  0  0  0  0  0  0  0  0  0  0  0
    0.9575   -2.6906  -16.1920 Cl  0  0  0  0  0  0  0  0  0  0  0  0
    0.3031   -1.9771  -13.6134 C   0  0  0  0  0  0  0  0  0  0  0  0
    0.3076   -0.3115  -14.1996 Cl  0  0  0  0  0  0  0  0  0  0  0  0
   -0.0383   -2.2846  -12.2819 C   0  0  0  0  0  0  0  0  0  0  0  0
   -0.3329   -1.3657  -11.1546 C   0  0  0  0  0  0  0  0  0  0  0  0
    0.3979   -0.2760  -10.8208 C   0  0  0  0  0  0  0  0  0  0  0  0
    0.0801    0.5619   -9.6934 C   0  0  0  0  0  0  0  0  0  0  0  0
   -0.1739    1.2532   -8.7920 N   0  0  0  0  0  0  0  0  0  0  0  0
    1.6488    0.0251  -11.4744 C   0  0  0  0  0  0  0  0  0  0  0  0
    2.6595    0.2661  -11.9899 N   0  0  0  0  0  0  0  0  0  0  0  0
    5.0411    3.3738    7.3399 H   0  0  0  0  0  0  0  0  0  0  0  0
   -0.0032    6.9423    7.9648 H   0  0  0  0  0  0  0  0  0  0  0  0
   -1.2579    8.5175    9.4092 H   0  0  0  0  0  0  0  0  0  0  0  0
   -1.3593    9.9546   11.4068 H   0  0  0  0  0  0  0  0  0  0  0  0
    2.7556    9.1077   12.2857 H   0  0  0  0  0  0  0  0  0  0  0  0
    4.0259    7.6113   10.8302 H   0  0  0  0  0  0  0  0  0  0  0  0
    5.3778    6.4023    3.9171 H   0  0  0  0  0  0  0  0  0  0  0  0
    7.8418    6.3391    3.8385 H   0  0  0  0  0  0  0  0  0  0  0  0
    9.8169    4.5247    4.7964 H   0  0  0  0  0  0  0  0  0  0  0  0
    9.8329    3.1042    3.6749 H   0  0  0  0  0  0  0  0  0  0  0  0
    9.8688    4.7788    2.9998 H   0  0  0  0  0  0  0  0  0  0  0  0
    7.7170    2.0325    3.7916 H   0  0  0  0  0  0  0  0  0  0  0  0
    5.2681    2.0922    3.8301 H   0  0  0  0  0  0  0  0  0  0  0  0
    1.9387    6.2597    4.4286 H   0  0  0  0  0  0  0  0  0  0  0  0
    0.8786    7.7639    2.8170 H   0  0  0  0  0  0  0  0  0  0  0  0
    0.4204    8.4275    0.5461 H   0  0  0  0  0  0  0  0  0  0  0  0
    0.8306    7.2823   -0.7817 H   0  0  0  0  0  0  0  0  0  0  0  0
    2.0364    8.5201   -0.2402 H   0  0  0  0  0  0  0  0  0  0  0  0
    2.9136    5.7351   -0.4012 H   0  0  0  0  0  0  0  0  0  0  0  0
    3.9730    4.2201    1.2294 H   0  0  0  0  0  0  0  0  0  0  0  0
    3.8480   -1.0723    3.7277 H   0  0  0  0  0  0  0  0  0  0  0  0
    5.9618   -1.4272    4.9325 H   0  0  0  0  0  0  0  0  0  0  0  0
    6.5009   -1.0296    7.9894 H   0  0  0  0  0  0  0  0  0  0  0  0
    6.2147   -2.7654    8.3956 H   0  0  0  0  0  0  0  0  0  0  0  0
    7.1283   -2.3328    6.9120 H   0  0  0  0  0  0  0  0  0  0  0  0
    3.7473   -2.4237    8.4976 H   0  0  0  0  0  0  0  0  0  0  0  0
    1.6312   -2.0591    7.2863 H   0  0  0  0  0  0  0  0  0  0  0  0
    1.7802   -1.7807    2.1437 H   0  0  0  0  0  0  0  0  0  0  0  0
    0.9852   -3.7741    0.9543 H   0  0  0  0  0  0  0  0  0  0  0  0
    0.3277   -6.5810    1.9535 H   0  0  0  0  0  0  0  0  0  0  0  0
   -0.7686   -5.6004    0.8953 H   0  0  0  0  0  0  0  0  0  0  0  0
   -1.3919   -6.2769    2.4388 H   0  0  0  0  0  0  0  0  0  0  0  0
   -0.9519   -5.1406    4.5547 H   0  0  0  0  0  0  0  0  0  0  0  0
   -0.1996   -3.1143    5.7327 H   0  0  0  0  0  0  0  0  0  0  0  0
   -5.2895   -2.2693    3.6675 H   0  0  0  0  0  0  0  0  0  0  0  0
   -3.7565   -1.6312    4.3305 H   0  0  0  0  0  0  0  0  0  0  0  0
   -4.1480   -4.0924    2.5240 H   0  0  0  0  0  0  0  0  0  0  0  0
   -2.5361   -3.3555    2.8478 H   0  0  0  0  0  0  0  0  0  0  0  0
   -3.5157   -4.0208    4.2122 H   0  0  0  0  0  0  0  0  0  0  0  0
   -4.8837    0.6420    1.3659 H   0  0  0  0  0  0  0  0  0  0  0  0
   -6.0565   -0.3127    2.3130 H   0  0  0  0  0  0  0  0  0  0  0  0
   -3.7336    1.3663    3.4671 H   0  0  0  0  0  0  0  0  0  0  0  0
   -4.8988    0.3778    4.4504 H   0  0  0  0  0  0  0  0  0  0  0  0
   -5.4851    1.7687    3.4765 H   0  0  0  0  0  0  0  0  0  0  0  0
   -1.8764   -0.3494    4.0077 H   0  0  0  0  0  0  0  0  0  0  0  0
   -5.2277   -3.2773   -1.3485 H   0  0  0  0  0  0  0  0  0  0  0  0
   -8.0941   -2.1964   -6.0040 H   0  0  0  0  0  0  0  0  0  0  0  0
   -9.0146   -0.5148   -7.5396 H   0  0  0  0  0  0  0  0  0  0  0  0
   -7.4750    2.8846   -8.0901 H   0  0  0  0  0  0  0  0  0  0  0  0
   -7.7503    1.5457   -9.2713 H   0  0  0  0  0  0  0  0  0  0  0  0
   -9.0374    1.9963   -8.0862 H   0  0  0  0  0  0  0  0  0  0  0  0
   -5.6021    2.0185   -6.8078 H   0  0  0  0  0  0  0  0  0  0  0  0
   -4.6874    0.3369   -5.2594 H   0  0  0  0  0  0  0  0  0  0  0  0
   -7.4639   -0.6973   -2.9708 H   0  0  0  0  0  0  0  0  0  0  0  0
   -8.9892   -1.6572   -1.3020 H   0  0  0  0  0  0  0  0  0  0  0  0
  -10.3565   -4.4409   -1.1699 H   0  0  0  0  0  0  0  0  0  0  0  0
   -8.9912   -5.2682   -0.3222 H   0  0  0  0  0  0  0  0  0  0  0  0
   -9.4789   -3.6120    0.1760 H   0  0  0  0  0  0  0  0  0  0  0  0
   -7.6665   -5.6189   -2.3781 H   0  0  0  0  0  0  0  0  0  0  0  0
   -6.1642   -4.6595   -4.0664 H   0  0  0  0  0  0  0  0  0  0  0  0
    1.7061   -4.3085   -5.7864 H   0  0  0  0  0  0  0  0  0  0  0  0
    2.3694   -6.5775   -5.1686 H   0  0  0  0  0  0  0  0  0  0  0  0
    0.7554   -9.6692   -6.4914 H   0  0  0  0  0  0  0  0  0  0  0  0
    0.6183   -9.1447   -4.7647 H   0  0  0  0  0  0  0  0  0  0  0  0
    2.1965   -9.0115   -5.6429 H   0  0  0  0  0  0  0  0  0  0  0  0
   -1.0749   -8.1613   -7.2141 H   0  0  0  0  0  0  0  0  0  0  0  0
   -1.7538   -5.8964   -7.8367 H   0  0  0  0  0  0  0  0  0  0  0  0
   -0.4517   -1.3541   -5.6977 H   0  0  0  0  0  0  0  0  0  0  0  0
    1.2271    0.4369   -5.7367 H   0  0  0  0  0  0  0  0  0  0  0  0
    2.8895    1.6353   -7.4612 H   0  0  0  0  0  0  0  0  0  0  0  0
    3.9688    0.6559   -6.3895 H   0  0  0  0  0  0  0  0  0  0  0  0
    4.1221    0.5400   -8.1855 H   0  0  0  0  0  0  0  0  0  0  0  0
    3.3187   -1.6005   -8.9125 H   0  0  0  0  0  0  0  0  0  0  0  0
    1.6445   -3.4051   -8.8536 H   0  0  0  0  0  0  0  0  0  0  0  0
   -2.1132   -0.6266   -9.1690 H   0  0  0  0  0  0  0  0  0  0  0  0
  1  2  2  3
  2  3  1  0
  3  4  2  0
  3  5  1  0
  5  6  2  0
  6  7  1  0
  7  8  2  0
  8  9  1  0
  9 10  2  0
 10 11  1  0
 10 12  1  0
 12 13  2  0
 13 14  1  0
 14 15  2  0
 15 16  1  0
 16 17  2  3
 17 18  1  0
 18 19  3  0
 17 20  1  0
 20 21  3  0
  1 22  1  0
 22 23  2  0
 23 24  1  0
 24 25  1  0
 25 26  2  0
 26 27  1  0
 27 28  2  0
 28 29  1  0
 28 30  1  0
 30 31  2  0
 24 32  1  0
 32 33  2  0
 33 34  1  0
 34 35  2  0
 35 36  1  0
 35 37  1  0
 37 38  2  0
 23 39  1  0
 39 40  1  0
 40 41  1  0
 41 42  2  0
 42 43  1  0
 43 44  1  0
 44 45  2  0
 45 46  1  0
 46 47  2  0
 47 48  1  0
 47 49  1  0
 49 50  2  0
 43 51  1  0
 51 52  2  0
 52 53  1  0
 53 54  2  0
 54 55  1  0
 54 56  1  0
 56 57  2  0
 42 58  1  0
 58 59  1  0
 41 60  1  0
 60 61  1  0
 61 62  1  0
 62 63  1  0
 63 64  2  0
 64 65  1  0
 65 66  1  0
 66 67  1  0
 67 68  1  0
 66 69  1  0
 69 70  1  0
 66 71  1  0
 71 72  1  0
 64 73  1  0
 73 74  2  0
 74 75  1  0
 74 76  1  0
 76 77  2  0
 77 78  1  0
 78 79  1  0
 79 80  2  0
 80 81  1  0
 81 82  2  0
 82 83  1  0
 82 84  1  0
 84 85  2  0
 78 86  1  0
 86 87  2  0
 87 88  1  0
 88 89  2  0
 89 90  1  0
 89 91  1  0
 91 92  2  0
 77 93  1  0
 93 94  1  0
 94 95  1  0
 95 96  2  0
 96 97  1  0
 97 98  1  0
 98 99  2  0
 99100  1  0
100101  2  0
101102  1  0
101103  1  0
103104  2  0
 97105  1  0
105106  2  0
106107  1  0
107108  2  0
108109  1  0
108110  1  0
110111  2  0
 96112  1  0
112113  1  0
 95114  1  0
114115  2  3
115116  1  0
116117  2  0
116118  1  0
118119  2  0
119120  1  0
119121  1  0
121122  1  0
121123  2  0
123124  1  0
123125  1  0
125126  1  0
125127  2  0
127128  1  0
128129  2  3
129130  1  0
130131  3  0
129132  1  0
132133  3  0
 16  2  1  0
 59 22  1  0
 72 60  2  0
113 76  1  0
128115  1  0
 15  5  1  0
 31 25  1  0
 38 32  1  0
 58 39  2  0
 71 62  2  0
 85 79  1  0
 92 86  1  0
112 93  2  0
127118  1  0
 13  7  1  0
 50 44  1  0
 57 51  1  0
 75 63  1  0
104 98  1  0
111105  1  0
  1134  1  0
  6135  1  0
  8136  1  0
  9137  1  0
 12138  1  0
 14139  1  0
 26140  1  0
 27141  1  0
 29142  1  0
 29143  1  0
 29144  1  0
 30145  1  0
 31146  1  0
 33147  1  0
 34148  1  0
 36149  1  0
 36150  1  0
 36151  1  0
 37152  1  0
 38153  1  0
 45154  1  0
 46155  1  0
 48156  1  0
 48157  1  0
 48158  1  0
 49159  1  0
 50160  1  0
 52161  1  0
 53162  1  0
 55163  1  0
 55164  1  0
 55165  1  0
 56166  1  0
 57167  1  0
 67168  1  0
 67169  1  0
 68170  1  0
 68171  1  0
 68172  1  0
 69173  1  0
 69174  1  0
 70175  1  0
 70176  1  0
 70177  1  0
 72178  1  0
 73179  1  0
 80180  1  0
 81181  1  0
 83182  1  0
 83183  1  0
 83184  1  0
 84185  1  0
 85186  1  0
 87187  1  0
 88188  1  0
 90189  1  0
 90190  1  0
 90191  1  0
 91192  1  0
 92193  1  0
 99194  1  0
100195  1  0
102196  1  0
102197  1  0
102198  1  0
103199  1  0
104200  1  0
106201  1  0
107202  1  0
109203  1  0
109204  1  0
109205  1  0
110206  1  0
111207  1  0
114208  1  0
M  END

