
     RDKit          3D

204223  0  0  0  0  0  0  0  0999 V2000
   -5.5650   -1.9557   -0.7495 C   0  0  0  0  0  0  0  0  0  0  0  0
   -5.9943   -0.7912   -0.2247 C   0  0  0  0  0  0  0  0  0  0  0  0
   -5.1168    0.3215    0.1680 C   0  0  0  0  0  0  0  0  0  0  0  0
   -3.8604    0.2982    0.2314 O   0  0  0  0  0  0  0  0  0  0  0  0
   -5.9243    1.4164    0.6317 C   0  0  0  0  0  0  0  0  0  0  0  0
   -5.4811    2.6585    1.0782 C   0  0  0  0  0  0  0  0  0  0  0  0
   -6.4326    3.5764    1.5446 C   0  0  0  0  0  0  0  0  0  0  0  0
   -6.0306    4.8471    1.9879 C   0  0  0  0  0  0  0  0  0  0  0  0
   -6.9828    5.7582    2.4449 C   0  0  0  0  0  0  0  0  0  0  0  0
   -8.3336    5.4159    2.4711 C   0  0  0  0  0  0  0  0  0  0  0  0
   -9.2543    6.3060    2.9238 F   0  0  0  0  0  0  0  0  0  0  0  0
   -8.7517    4.1456    2.0412 C   0  0  0  0  0  0  0  0  0  0  0  0
   -7.8104    3.2173    1.5731 C   0  0  0  0  0  0  0  0  0  0  0  0
   -8.2199    1.9457    1.1236 C   0  0  0  0  0  0  0  0  0  0  0  0
   -7.2577    1.0458    0.6277 C   0  0  0  0  0  0  0  0  0  0  0  0
   -7.3997   -0.3430    0.0712 C   0  0  0  0  0  0  0  0  0  0  0  0
   -8.5638   -0.9919   -0.2294 C   0  0  0  0  0  0  0  0  0  0  0  0
   -8.6096   -2.3022   -0.8185 C   0  0  0  0  0  0  0  0  0  0  0  0
   -8.6758   -3.3618   -1.2839 N   0  0  0  0  0  0  0  0  0  0  0  0
   -9.8549   -0.3995   -0.0278 C   0  0  0  0  0  0  0  0  0  0  0  0
  -10.9116    0.0552    0.1295 N   0  0  0  0  0  0  0  0  0  0  0  0
   -4.1902   -2.1440   -1.2425 C   0  0  0  0  0  0  0  0  0  0  0  0
   -3.4856   -1.2807   -2.1173 C   0  0  0  0  0  0  0  0  0  0  0  0
   -4.1043   -0.2620   -2.9527 N   0  0  0  0  0  0  0  0  0  0  0  0
   -5.4943   -0.3474   -3.3358 C   0  0  0  0  0  0  0  0  0  0  0  0
   -6.0384   -1.5530   -3.8005 C   0  0  0  0  0  0  0  0  0  0  0  0
   -7.4013   -1.6471   -4.0950 C   0  0  0  0  0  0  0  0  0  0  0  0
   -8.2346   -0.5274   -3.9542 C   0  0  0  0  0  0  0  0  0  0  0  0
   -9.7107   -0.6405   -4.2008 C   0  0  0  0  0  0  0  0  0  0  0  0
   -7.6873    0.6915   -3.5140 C   0  0  0  0  0  0  0  0  0  0  0  0
   -6.3267    0.7796   -3.2133 C   0  0  0  0  0  0  0  0  0  0  0  0
   -3.3353    0.7797   -3.5723 C   0  0  0  0  0  0  0  0  0  0  0  0
   -3.1501    0.7637   -4.9565 C   0  0  0  0  0  0  0  0  0  0  0  0
   -2.6233    1.8817   -5.6105 C   0  0  0  0  0  0  0  0  0  0  0  0
   -2.2677    3.0274   -4.8806 C   0  0  0  0  0  0  0  0  0  0  0  0
   -1.8106    4.2744   -5.5827 C   0  0  0  0  0  0  0  0  0  0  0  0
   -2.4091    3.0229   -3.4853 C   0  0  0  0  0  0  0  0  0  0  0  0
   -2.9472    1.9064   -2.8291 C   0  0  0  0  0  0  0  0  0  0  0  0
   -2.1290   -1.6103   -2.1160 C   0  0  0  0  0  0  0  0  0  0  0  0
   -0.7379   -0.9233   -2.7440 S   0  0  0  0  0  0  0  0  0  0  0  0
    0.3216   -2.0831   -2.0629 C   0  0  0  0  0  0  0  0  0  0  0  0
   -0.4325   -3.0370   -1.3529 C   0  0  0  0  0  0  0  0  0  0  0  0
    0.0588   -4.3599   -1.0711 N   0  0  0  0  0  0  0  0  0  0  0  0
    0.4144   -5.2367   -2.1725 C   0  0  0  0  0  0  0  0  0  0  0  0
    1.3168   -6.3018   -1.9867 C   0  0  0  0  0  0  0  0  0  0  0  0
    1.6845   -7.1199   -3.0662 C   0  0  0  0  0  0  0  0  0  0  0  0
    1.1568   -6.8915   -4.3430 C   0  0  0  0  0  0  0  0  0  0  0  0
    1.6038   -7.7162   -5.5142 C   0  0  0  0  0  0  0  0  0  0  0  0
    0.2427   -5.8457   -4.5329 C   0  0  0  0  0  0  0  0  0  0  0  0
   -0.1243   -5.0295   -3.4632 C   0  0  0  0  0  0  0  0  0  0  0  0
    0.0368   -4.8637    0.2728 C   0  0  0  0  0  0  0  0  0  0  0  0
    1.1336   -4.6412    1.1165 C   0  0  0  0  0  0  0  0  0  0  0  0
    1.1450   -5.1573    2.4056 C   0  0  0  0  0  0  0  0  0  0  0  0
    0.0813   -5.9359    2.8712 C   0  0  0  0  0  0  0  0  0  0  0  0
    0.1543   -6.5429    4.2410 C   0  0  0  0  0  0  0  0  0  0  0  0
   -1.0016   -6.2024    2.0166 C   0  0  0  0  0  0  0  0  0  0  0  0
   -1.0258   -5.6678    0.7214 C   0  0  0  0  0  0  0  0  0  0  0  0
   -1.7933   -2.7199   -1.3904 C   0  0  0  0  0  0  0  0  0  0  0  0
   -3.1545   -3.3420   -0.6340 S   0  0  0  0  0  0  0  0  0  0  0  0
    1.7449   -1.7967   -1.8417 C   0  0  0  0  0  0  0  0  0  0  0  0
    2.4849   -0.9453   -2.6686 C   0  0  0  0  0  0  0  0  0  0  0  0
    2.5552   -1.1632   -4.0830 N   0  0  0  0  0  0  0  0  0  0  0  0
    1.7837   -0.4067   -5.0439 C   0  0  0  0  0  0  0  0  0  0  0  0
    1.4719    0.9467   -4.8155 C   0  0  0  0  0  0  0  0  0  0  0  0
    0.8835    1.7107   -5.8285 C   0  0  0  0  0  0  0  0  0  0  0  0
    0.5482    1.1300   -7.0542 C   0  0  0  0  0  0  0  0  0  0  0  0
   -0.1430    2.1351   -8.3651 S   0  0  0  0  0  0  0  0  0  0  0  0
    1.4762    2.4261   -9.1469 C   0  0  0  0  0  0  0  0  0  0  0  0
    0.7834   -0.2347   -7.2579 C   0  0  0  0  0  0  0  0  0  0  0  0
    1.4064   -0.9963   -6.2665 C   0  0  0  0  0  0  0  0  0  0  0  0
    3.5578   -2.0914   -4.5344 C   0  0  0  0  0  0  0  0  0  0  0  0
    4.7414   -1.6263   -5.1181 C   0  0  0  0  0  0  0  0  0  0  0  0
    5.7692   -2.5209   -5.4310 C   0  0  0  0  0  0  0  0  0  0  0  0
    5.6149   -3.8854   -5.1632 C   0  0  0  0  0  0  0  0  0  0  0  0
    6.9728   -5.0089   -5.4865 S   0  0  0  0  0  0  0  0  0  0  0  0
    7.6465   -4.8752   -3.8008 C   0  0  0  0  0  0  0  0  0  0  0  0
    4.4197   -4.3590   -4.6097 C   0  0  0  0  0  0  0  0  0  0  0  0
    3.3946   -3.4643   -4.2812 C   0  0  0  0  0  0  0  0  0  0  0  0
    3.5123   -0.2859   -1.9777 C   0  0  0  0  0  0  0  0  0  0  0  0
    3.8101    1.3649   -2.0888 S   0  0  0  0  0  0  0  0  0  0  0  0
    4.1284    1.6392   -0.4479 C   0  0  0  0  0  0  0  0  0  0  0  0
    4.1315    0.3851    0.1968 C   0  0  0  0  0  0  0  0  0  0  0  0
    4.3778    0.2387    1.6199 N   0  0  0  0  0  0  0  0  0  0  0  0
    4.3175   -1.0298    2.2900 C   0  0  0  0  0  0  0  0  0  0  0  0
    5.2069   -2.0593    1.9342 C   0  0  0  0  0  0  0  0  0  0  0  0
    5.4142   -3.1406    2.7959 C   0  0  0  0  0  0  0  0  0  0  0  0
    4.7392   -3.2088    4.0238 C   0  0  0  0  0  0  0  0  0  0  0  0
    5.2923   -4.3681    5.2805 S   0  0  0  0  0  0  0  0  0  0  0  0
    3.8224   -5.4412    5.2072 C   0  0  0  0  0  0  0  0  0  0  0  0
    3.7884   -2.2240    4.3425 C   0  0  0  0  0  0  0  0  0  0  0  0
    3.5632   -1.1564    3.4707 C   0  0  0  0  0  0  0  0  0  0  0  0
    5.1786    1.2463    2.2629 C   0  0  0  0  0  0  0  0  0  0  0  0
    6.4921    1.4727    1.8214 C   0  0  0  0  0  0  0  0  0  0  0  0
    7.2765    2.4623    2.4142 C   0  0  0  0  0  0  0  0  0  0  0  0
    6.7597    3.2409    3.4570 C   0  0  0  0  0  0  0  0  0  0  0  0
    7.7829    4.4965    4.2245 S   0  0  0  0  0  0  0  0  0  0  0  0
    7.2451    5.8306    3.1092 C   0  0  0  0  0  0  0  0  0  0  0  0
    5.4470    3.0189    3.9038 C   0  0  0  0  0  0  0  0  0  0  0  0
    4.6608    2.0199    3.3150 C   0  0  0  0  0  0  0  0  0  0  0  0
    3.6331   -0.6251   -0.6476 C   0  0  0  0  0  0  0  0  0  0  0  0
    2.3917   -1.6935   -0.2869 S   0  0  0  0  0  0  0  0  0  0  0  0
    3.4131    2.7385    0.2236 C   0  0  0  0  0  0  0  0  0  0  0  0
    2.0820    2.4808    0.6276 C   0  0  0  0  0  0  0  0  0  0  0  0
    1.4625    3.3711    1.4896 C   0  0  0  0  0  0  0  0  0  0  0  0
    0.2151    3.1947    2.2146 C   0  0  0  0  0  0  0  0  0  0  0  0
   -0.5700    2.2214    2.1149 O   0  0  0  0  0  0  0  0  0  0  0  0
    0.1310    4.2986    3.1541 C   0  0  0  0  0  0  0  0  0  0  0  0
    1.2507    5.1004    2.9968 C   0  0  0  0  0  0  0  0  0  0  0  0
    2.1019    4.5108    1.9442 C   0  0  0  0  0  0  0  0  0  0  0  0
    3.4046    4.8186    1.5193 C   0  0  0  0  0  0  0  0  0  0  0  0
    4.0623    3.9279    0.6414 C   0  0  0  0  0  0  0  0  0  0  0  0
    1.4579    6.2074    3.8226 C   0  0  0  0  0  0  0  0  0  0  0  0
    0.5083    6.4822    4.8287 C   0  0  0  0  0  0  0  0  0  0  0  0
   -0.6002    5.6220    5.0250 C   0  0  0  0  0  0  0  0  0  0  0  0
   -0.8064    4.5316    4.1525 C   0  0  0  0  0  0  0  0  0  0  0  0
   -1.6399    5.8989    6.0358 C   0  0  0  0  0  0  0  0  0  0  0  0
   -1.4391    6.0062    7.3650 C   0  0  0  0  0  0  0  0  0  0  0  0
   -0.1436    6.0257    8.0398 C   0  0  0  0  0  0  0  0  0  0  0  0
    0.9760    5.7783    7.5173 O   0  0  0  0  0  0  0  0  0  0  0  0
   -0.3572    6.2819    9.4546 C   0  0  0  0  0  0  0  0  0  0  0  0
    0.6076    6.3930   10.4642 C   0  0  0  0  0  0  0  0  0  0  0  0
    2.3254    6.4185   10.0783 Cl  0  0  0  0  0  0  0  0  0  0  0  0
    0.1726    6.4749   11.7987 C   0  0  0  0  0  0  0  0  0  0  0  0
    1.3464    6.7004   13.1032 Cl  0  0  0  0  0  0  0  0  0  0  0  0
   -1.2012    6.3199   12.1038 C   0  0  0  0  0  0  0  0  0  0  0  0
   -1.7270    6.3001   13.7870 Cl  0  0  0  0  0  0  0  0  0  0  0  0
   -2.1447    6.1511   11.0655 C   0  0  0  0  0  0  0  0  0  0  0  0
   -3.7451    5.5298   11.4771 Cl  0  0  0  0  0  0  0  0  0  0  0  0
   -1.7134    6.2905    9.7267 C   0  0  0  0  0  0  0  0  0  0  0  0
   -2.4709    6.2209    8.4398 C   0  0  0  0  0  0  0  0  0  0  0  0
   -3.7942    6.5068    8.2624 C   0  0  0  0  0  0  0  0  0  0  0  0
   -4.5450    6.0832    7.1086 C   0  0  0  0  0  0  0  0  0  0  0  0
   -5.1509    5.7346    6.1828 N   0  0  0  0  0  0  0  0  0  0  0  0
   -4.5467    7.2787    9.2067 C   0  0  0  0  0  0  0  0  0  0  0  0
   -5.1776    7.8967    9.9648 N   0  0  0  0  0  0  0  0  0  0  0  0
   -6.2043   -2.8217   -0.8069 H   0  0  0  0  0  0  0  0  0  0  0  0
   -4.4251    2.9017    1.0624 H   0  0  0  0  0  0  0  0  0  0  0  0
   -4.9858    5.1190    1.9859 H   0  0  0  0  0  0  0  0  0  0  0  0
   -6.6656    6.7316    2.7857 H   0  0  0  0  0  0  0  0  0  0  0  0
   -9.8078    3.8992    2.0624 H   0  0  0  0  0  0  0  0  0  0  0  0
   -9.2637    1.6909    1.1859 H   0  0  0  0  0  0  0  0  0  0  0  0
   -5.4071   -2.4297   -3.9012 H   0  0  0  0  0  0  0  0  0  0  0  0
   -7.8060   -2.6011   -4.4189 H   0  0  0  0  0  0  0  0  0  0  0  0
   -9.9377   -1.4935   -4.8667 H   0  0  0  0  0  0  0  0  0  0  0  0
  -10.2366   -0.7811   -3.2363 H   0  0  0  0  0  0  0  0  0  0  0  0
  -10.0877    0.2835   -4.6884 H   0  0  0  0  0  0  0  0  0  0  0  0
   -8.3157    1.5589   -3.3852 H   0  0  0  0  0  0  0  0  0  0  0  0
   -5.9267    1.7145   -2.8441 H   0  0  0  0  0  0  0  0  0  0  0  0
   -3.4516   -0.1003   -5.5388 H   0  0  0  0  0  0  0  0  0  0  0  0
   -2.5276    1.8560   -6.6911 H   0  0  0  0  0  0  0  0  0  0  0  0
   -2.5194    5.1082   -5.3682 H   0  0  0  0  0  0  0  0  0  0  0  0
   -1.7694    4.1303   -6.6843 H   0  0  0  0  0  0  0  0  0  0  0  0
   -0.7990    4.5642   -5.2248 H   0  0  0  0  0  0  0  0  0  0  0  0
   -2.1486    3.9069   -2.9124 H   0  0  0  0  0  0  0  0  0  0  0  0
   -3.1245    1.9544   -1.7652 H   0  0  0  0  0  0  0  0  0  0  0  0
    1.7459   -6.4981   -1.0136 H   0  0  0  0  0  0  0  0  0  0  0  0
    2.3936   -7.9221   -2.8999 H   0  0  0  0  0  0  0  0  0  0  0  0
    2.1088   -8.6467   -5.1857 H   0  0  0  0  0  0  0  0  0  0  0  0
    2.3049   -7.1224   -6.1322 H   0  0  0  0  0  0  0  0  0  0  0  0
    0.7252   -8.0037   -6.1321 H   0  0  0  0  0  0  0  0  0  0  0  0
   -0.1641   -5.6512   -5.5165 H   0  0  0  0  0  0  0  0  0  0  0  0
   -0.8309   -4.2369   -3.6554 H   0  0  0  0  0  0  0  0  0  0  0  0
    2.0111   -4.1246    0.7514 H   0  0  0  0  0  0  0  0  0  0  0  0
    2.0040   -4.9727    3.0371 H   0  0  0  0  0  0  0  0  0  0  0  0
    0.9771   -7.2938    4.2748 H   0  0  0  0  0  0  0  0  0  0  0  0
    0.3592   -5.7500    4.9926 H   0  0  0  0  0  0  0  0  0  0  0  0
   -0.7968   -7.0456    4.5201 H   0  0  0  0  0  0  0  0  0  0  0  0
   -1.8196   -6.8248    2.3471 H   0  0  0  0  0  0  0  0  0  0  0  0
   -1.8538   -5.9012    0.0611 H   0  0  0  0  0  0  0  0  0  0  0  0
    1.7127    1.4245   -3.8783 H   0  0  0  0  0  0  0  0  0  0  0  0
    0.7041    2.7606   -5.6619 H   0  0  0  0  0  0  0  0  0  0  0  0
    1.9395    1.4576   -9.4519 H   0  0  0  0  0  0  0  0  0  0  0  0
    2.1511    2.9496   -8.4313 H   0  0  0  0  0  0  0  0  0  0  0  0
    1.3374    3.0604  -10.0474 H   0  0  0  0  0  0  0  0  0  0  0  0
    0.5148   -0.6976   -8.1962 H   0  0  0  0  0  0  0  0  0  0  0  0
    1.6108   -2.0390   -6.4588 H   0  0  0  0  0  0  0  0  0  0  0  0
    4.8649   -0.5615   -5.2898 H   0  0  0  0  0  0  0  0  0  0  0  0
    6.6852   -2.1416   -5.8629 H   0  0  0  0  0  0  0  0  0  0  0  0
    6.9222   -5.2839   -3.0690 H   0  0  0  0  0  0  0  0  0  0  0  0
    7.8527   -3.8154   -3.5563 H   0  0  0  0  0  0  0  0  0  0  0  0
    8.5900   -5.4508   -3.7285 H   0  0  0  0  0  0  0  0  0  0  0  0
    4.2953   -5.4153   -4.4044 H   0  0  0  0  0  0  0  0  0  0  0  0
    2.4883   -3.8284   -3.8146 H   0  0  0  0  0  0  0  0  0  0  0  0
    5.8168   -1.9686    1.0478 H   0  0  0  0  0  0  0  0  0  0  0  0
    6.1616   -3.8839    2.5491 H   0  0  0  0  0  0  0  0  0  0  0  0
    3.9197   -6.2224    5.9944 H   0  0  0  0  0  0  0  0  0  0  0  0
    2.8997   -4.8612    5.4072 H   0  0  0  0  0  0  0  0  0  0  0  0
    3.7845   -5.9601    4.2250 H   0  0  0  0  0  0  0  0  0  0  0  0
    3.2810   -2.2485    5.3006 H   0  0  0  0  0  0  0  0  0  0  0  0
    2.8649   -0.3751    3.7558 H   0  0  0  0  0  0  0  0  0  0  0  0
    6.9055    0.8747    1.0199 H   0  0  0  0  0  0  0  0  0  0  0  0
    8.2871    2.6202    2.0622 H   0  0  0  0  0  0  0  0  0  0  0  0
    6.2639    6.2262    3.4434 H   0  0  0  0  0  0  0  0  0  0  0  0
    7.1609    5.4623    2.0689 H   0  0  0  0  0  0  0  0  0  0  0  0
    7.9935    6.6461    3.1369 H   0  0  0  0  0  0  0  0  0  0  0  0
    5.0353    3.6278    4.7010 H   0  0  0  0  0  0  0  0  0  0  0  0
    3.6464    1.8720    3.6652 H   0  0  0  0  0  0  0  0  0  0  0  0
    1.5920    1.5551    0.3595 H   0  0  0  0  0  0  0  0  0  0  0  0
    3.9168    5.6963    1.8920 H   0  0  0  0  0  0  0  0  0  0  0  0
    5.0890    4.1144    0.3532 H   0  0  0  0  0  0  0  0  0  0  0  0
    2.3278    6.8331    3.6920 H   0  0  0  0  0  0  0  0  0  0  0  0
    0.6402    7.3501    5.4559 H   0  0  0  0  0  0  0  0  0  0  0  0
   -1.6661    3.8733    4.2596 H   0  0  0  0  0  0  0  0  0  0  0  0
   -2.6282    5.9021    5.6303 H   0  0  0  0  0  0  0  0  0  0  0  0
  1  2  2  3
  2  3  1  0
  3  4  2  0
  3  5  1  0
  5  6  2  0
  6  7  1  0
  7  8  2  0
  8  9  1  0
  9 10  2  0
 10 11  1  0
 10 12  1  0
 12 13  2  0
 13 14  1  0
 14 15  2  0
 15 16  1  0
 16 17  2  3
 17 18  1  0
 18 19  3  0
 17 20  1  0
 20 21  3  0
  1 22  1  0
 22 23  2  0
 23 24  1  0
 24 25  1  0
 25 26  2  0
 26 27  1  0
 27 28  2  0
 28 29  1  0
 28 30  1  0
 30 31  2  0
 24 32  1  0
 32 33  2  0
 33 34  1  0
 34 35  2  0
 35 36  1  0
 35 37  1  0
 37 38  2  0
 23 39  1  0
 39 40  1  0
 40 41  1  0
 41 42  2  0
 42 43  1  0
 43 44  1  0
 44 45  2  0
 45 46  1  0
 46 47  2  0
 47 48  1  0
 47 49  1  0
 49 50  2  0
 43 51  1  0
 51 52  2  0
 52 53  1  0
 53 54  2  0
 54 55  1  0
 54 56  1  0
 56 57  2  0
 42 58  1  0
 58 59  1  0
 41 60  1  0
 60 61  2  0
 61 62  1  0
 62 63  1  0
 63 64  2  0
 64 65  1  0
 65 66  2  0
 66 67  1  0
 67 68  1  0
 66 69  1  0
 69 70  2  0
 62 71  1  0
 71 72  2  0
 72 73  1  0
 73 74  2  0
 74 75  1  0
 75 76  1  0
 74 77  1  0
 77 78  2  0
 61 79  1  0
 79 80  1  0
 80 81  1  0
 81 82  2  0
 82 83  1  0
 83 84  1  0
 84 85  2  0
 85 86  1  0
 86 87  2  0
 87 88  1  0
 88 89  1  0
 87 90  1  0
 90 91  2  0
 83 92  1  0
 92 93  2  0
 93 94  1  0
 94 95  2  0
 95 96  1  0
 96 97  1  0
 95 98  1  0
 98 99  2  0
 82100  1  0
100101  1  0
 81102  1  0
102103  2  0
103104  1  0
104105  1  0
105106  2  0
105107  1  0
107108  2  0
108109  1  0
109110  1  0
110111  2  0
108112  1  0
112113  2  0
113114  1  0
114115  2  0
114116  1  0
116117  2  3
117118  1  0
118119  2  0
118120  1  0
120121  2  0
121122  1  0
121123  1  0
123124  1  0
123125  2  0
125126  1  0
125127  1  0
127128  1  0
127129  2  0
129130  1  0
130131  2  3
131132  1  0
132133  3  0
131134  1  0
134135  3  0
 16  2  1  0
 59 22  1  0
101 60  1  0
111102  1  0
130117  1  0
 15  5  1  0
 31 25  1  0
 38 32  1  0
 58 39  2  0
 70 63  1  0
 78 71  1  0
100 79  2  0
109104  2  0
129120  1  0
 13  7  1  0
 50 44  1  0
 57 51  1  0
 91 84  1  0
 99 92  1  0
115107  1  0
  1136  1  0
  6137  1  0
  8138  1  0
  9139  1  0
 12140  1  0
 14141  1  0
 26142  1  0
 27143  1  0
 29144  1  0
 29145  1  0
 29146  1  0
 30147  1  0
 31148  1  0
 33149  1  0
 34150  1  0
 36151  1  0
 36152  1  0
 36153  1  0
 37154  1  0
 38155  1  0
 45156  1  0
 46157  1  0
 48158  1  0
 48159  1  0
 48160  1  0
 49161  1  0
 50162  1  0
 52163  1  0
 53164  1  0
 55165  1  0
 55166  1  0
 55167  1  0
 56168  1  0
 57169  1  0
 64170  1  0
 65171  1  0
 68172  1  0
 68173  1  0
 68174  1  0
 69175  1  0
 70176  1  0
 72177  1  0
 73178  1  0
 76179  1  0
 76180  1  0
 76181  1  0
 77182  1  0
 78183  1  0
 85184  1  0
 86185  1  0
 89186  1  0
 89187  1  0
 89188  1  0
 90189  1  0
 91190  1  0
 93191  1  0
 94192  1  0
 97193  1  0
 97194  1  0
 97195  1  0
 98196  1  0
 99197  1  0
103198  1  0
110199  1  0
111200  1  0
112201  1  0
113202  1  0
115203  1  0
116204  1  0
M  END

