
     RDKit          3D

260283  0  0  0  0  0  0  0  0999 V2000
    5.8532   -2.2129   -6.4922 C   0  0  0  0  0  0  0  0  0  0  0  0
    6.8401   -2.4713   -5.6149 C   0  0  0  0  0  0  0  0  0  0  0  0
    8.1684   -2.9026   -6.0500 C   0  0  0  0  0  0  0  0  0  0  0  0
    8.6149   -2.8448   -7.2260 O   0  0  0  0  0  0  0  0  0  0  0  0
    8.8619   -3.4721   -4.9152 C   0  0  0  0  0  0  0  0  0  0  0  0
   10.1434   -4.0200   -4.8762 C   0  0  0  0  0  0  0  0  0  0  0  0
   10.6274   -4.5119   -3.6506 C   0  0  0  0  0  0  0  0  0  0  0  0
   11.9323   -5.0212   -3.5531 C   0  0  0  0  0  0  0  0  0  0  0  0
   12.4063   -5.4948   -2.3247 C   0  0  0  0  0  0  0  0  0  0  0  0
   11.5879   -5.4759   -1.1929 C   0  0  0  0  0  0  0  0  0  0  0  0
   12.0633   -5.9342   -0.0080 F   0  0  0  0  0  0  0  0  0  0  0  0
   10.2832   -4.9807   -1.2804 C   0  0  0  0  0  0  0  0  0  0  0  0
    9.7943   -4.4826   -2.4975 C   0  0  0  0  0  0  0  0  0  0  0  0
    8.4924   -3.9428   -2.5756 C   0  0  0  0  0  0  0  0  0  0  0  0
    8.0486   -3.4029   -3.7955 C   0  0  0  0  0  0  0  0  0  0  0  0
    6.8064   -2.6386   -4.1252 C   0  0  0  0  0  0  0  0  0  0  0  0
    6.1055   -1.8863   -3.2350 C   0  0  0  0  0  0  0  0  0  0  0  0
    6.2100   -2.0658   -1.8142 C   0  0  0  0  0  0  0  0  0  0  0  0
    6.2768   -2.2049   -0.6628 N   0  0  0  0  0  0  0  0  0  0  0  0
    5.4109   -0.6904   -3.6163 C   0  0  0  0  0  0  0  0  0  0  0  0
    4.8607    0.2964   -3.8743 N   0  0  0  0  0  0  0  0  0  0  0  0
    4.4347   -2.0010   -6.1670 C   0  0  0  0  0  0  0  0  0  0  0  0
    3.7047   -0.8012   -6.3601 C   0  0  0  0  0  0  0  0  0  0  0  0
    4.2104    0.3977   -7.0106 N   0  0  0  0  0  0  0  0  0  0  0  0
    5.2282    0.3075   -8.0149 C   0  0  0  0  0  0  0  0  0  0  0  0
    4.9789   -0.3903   -9.2042 C   0  0  0  0  0  0  0  0  0  0  0  0
    5.9581   -0.4596  -10.1960 C   0  0  0  0  0  0  0  0  0  0  0  0
    7.1968    0.1782  -10.0163 C   0  0  0  0  0  0  0  0  0  0  0  0
    8.2665    0.0818  -11.0628 C   0  0  0  0  0  0  0  0  0  0  0  0
    7.4431    0.8691   -8.8213 C   0  0  0  0  0  0  0  0  0  0  0  0
    6.4599    0.9436   -7.8292 C   0  0  0  0  0  0  0  0  0  0  0  0
    3.4282    1.5987   -7.0267 C   0  0  0  0  0  0  0  0  0  0  0  0
    2.3547    1.7196   -7.9238 C   0  0  0  0  0  0  0  0  0  0  0  0
    1.5250    2.8440   -7.8772 C   0  0  0  0  0  0  0  0  0  0  0  0
    1.7692    3.8629   -6.9458 C   0  0  0  0  0  0  0  0  0  0  0  0
    0.8646    5.0545   -6.8576 C   0  0  0  0  0  0  0  0  0  0  0  0
    2.8537    3.7458   -6.0592 C   0  0  0  0  0  0  0  0  0  0  0  0
    3.6822    2.6233   -6.1041 C   0  0  0  0  0  0  0  0  0  0  0  0
    2.4475   -0.9136   -5.7489 C   0  0  0  0  0  0  0  0  0  0  0  0
    1.3107    0.1997   -5.2355 S   0  0  0  0  0  0  0  0  0  0  0  0
    0.3526   -0.9132   -4.3862 C   0  0  0  0  0  0  0  0  0  0  0  0
    0.9178   -2.1964   -4.5248 C   0  0  0  0  0  0  0  0  0  0  0  0
    0.2577   -3.4257   -4.1649 N   0  0  0  0  0  0  0  0  0  0  0  0
    1.0245   -4.4814   -3.5627 C   0  0  0  0  0  0  0  0  0  0  0  0
    1.3751   -5.6131   -4.3172 C   0  0  0  0  0  0  0  0  0  0  0  0
    2.1176   -6.6455   -3.7375 C   0  0  0  0  0  0  0  0  0  0  0  0
    2.4964   -6.5699   -2.3881 C   0  0  0  0  0  0  0  0  0  0  0  0
    3.3310   -7.6620   -1.7872 C   0  0  0  0  0  0  0  0  0  0  0  0
    2.1398   -5.4411   -1.6318 C   0  0  0  0  0  0  0  0  0  0  0  0
    1.3993   -4.4062   -2.2163 C   0  0  0  0  0  0  0  0  0  0  0  0
   -1.0569   -3.7296   -4.6926 C   0  0  0  0  0  0  0  0  0  0  0  0
   -1.5236   -3.1201   -5.8699 C   0  0  0  0  0  0  0  0  0  0  0  0
   -2.8082   -3.3865   -6.3482 C   0  0  0  0  0  0  0  0  0  0  0  0
   -3.6449   -4.2830   -5.6705 C   0  0  0  0  0  0  0  0  0  0  0  0
   -5.0436   -4.5355   -6.1566 C   0  0  0  0  0  0  0  0  0  0  0  0
   -3.1843   -4.9011   -4.5034 C   0  0  0  0  0  0  0  0  0  0  0  0
   -1.9000   -4.6305   -4.0179 C   0  0  0  0  0  0  0  0  0  0  0  0
    2.1257   -2.1325   -5.2377 C   0  0  0  0  0  0  0  0  0  0  0  0
    3.4489   -3.1566   -5.3971 S   0  0  0  0  0  0  0  0  0  0  0  0
   -0.5489   -0.4734   -3.3093 C   0  0  0  0  0  0  0  0  0  0  0  0
   -0.2658    0.5976   -2.4452 C   0  0  0  0  0  0  0  0  0  0  0  0
    1.0581    1.1177   -2.2123 N   0  0  0  0  0  0  0  0  0  0  0  0
    1.3863    2.5070   -2.4783 C   0  0  0  0  0  0  0  0  0  0  0  0
    0.3863    3.4697   -2.7102 C   0  0  0  0  0  0  0  0  0  0  0  0
    0.7074    4.8327   -2.7456 C   0  0  0  0  0  0  0  0  0  0  0  0
    2.0341    5.2479   -2.5801 C   0  0  0  0  0  0  0  0  0  0  0  0
    2.4206    6.9884   -2.3847 S   0  0  0  0  0  0  0  0  0  0  0  0
    2.6542    7.3134   -4.1545 C   0  0  0  0  0  0  0  0  0  0  0  0
    3.0454    4.2956   -2.4512 C   0  0  0  0  0  0  0  0  0  0  0  0
    2.7281    2.9361   -2.4075 C   0  0  0  0  0  0  0  0  0  0  0  0
    1.8375    0.4019   -1.2336 C   0  0  0  0  0  0  0  0  0  0  0  0
    2.4025   -0.8461   -1.5402 C   0  0  0  0  0  0  0  0  0  0  0  0
    2.9807   -1.6269   -0.5347 C   0  0  0  0  0  0  0  0  0  0  0  0
    3.0127   -1.1605    0.7825 C   0  0  0  0  0  0  0  0  0  0  0  0
    3.6386   -2.2157    2.0842 S   0  0  0  0  0  0  0  0  0  0  0  0
    2.0080   -2.9648    2.4109 C   0  0  0  0  0  0  0  0  0  0  0  0
    2.5270    0.1166    1.0830 C   0  0  0  0  0  0  0  0  0  0  0  0
    1.9458    0.8960    0.0794 C   0  0  0  0  0  0  0  0  0  0  0  0
   -1.2697    0.7343   -1.4955 C   0  0  0  0  0  0  0  0  0  0  0  0
   -1.3918    1.6667   -0.1249 S   0  0  0  0  0  0  0  0  0  0  0  0
   -2.7525    0.8665    0.4897 C   0  0  0  0  0  0  0  0  0  0  0  0
   -3.0995   -0.1837   -0.3848 C   0  0  0  0  0  0  0  0  0  0  0  0
   -4.1124   -1.1676   -0.1118 N   0  0  0  0  0  0  0  0  0  0  0  0
   -3.8279   -2.5686   -0.3090 C   0  0  0  0  0  0  0  0  0  0  0  0
   -4.7802   -3.4037   -0.9122 C   0  0  0  0  0  0  0  0  0  0  0  0
   -4.4965   -4.7512   -1.1449 C   0  0  0  0  0  0  0  0  0  0  0  0
   -3.2563   -5.2822   -0.7698 C   0  0  0  0  0  0  0  0  0  0  0  0
   -2.8771   -7.0025   -1.1052 S   0  0  0  0  0  0  0  0  0  0  0  0
   -3.5723   -7.5933    0.4690 C   0  0  0  0  0  0  0  0  0  0  0  0
   -2.3026   -4.4596   -0.1592 C   0  0  0  0  0  0  0  0  0  0  0  0
   -2.5845   -3.1106    0.0671 C   0  0  0  0  0  0  0  0  0  0  0  0
   -5.4056   -0.7436    0.3694 C   0  0  0  0  0  0  0  0  0  0  0  0
   -6.0825    0.3245   -0.2450 C   0  0  0  0  0  0  0  0  0  0  0  0
   -7.3251    0.7407    0.2386 C   0  0  0  0  0  0  0  0  0  0  0  0
   -7.8944    0.1107    1.3496 C   0  0  0  0  0  0  0  0  0  0  0  0
   -9.4745    0.6700    1.9888 S   0  0  0  0  0  0  0  0  0  0  0  0
  -10.4336   -0.4405    0.9065 C   0  0  0  0  0  0  0  0  0  0  0  0
   -7.2240   -0.9501    1.9685 C   0  0  0  0  0  0  0  0  0  0  0  0
   -5.9923   -1.3815    1.4726 C   0  0  0  0  0  0  0  0  0  0  0  0
   -2.2514   -0.1992   -1.5066 C   0  0  0  0  0  0  0  0  0  0  0  0
   -1.9806   -1.2528   -2.7915 S   0  0  0  0  0  0  0  0  0  0  0  0
   -3.2152    1.0994    1.8643 C   0  0  0  0  0  0  0  0  0  0  0  0
   -3.1740    2.3685    2.4729 C   0  0  0  0  0  0  0  0  0  0  0  0
   -3.0622    3.6100    1.7522 N   0  0  0  0  0  0  0  0  0  0  0  0
   -1.9862    4.5252    2.0548 C   0  0  0  0  0  0  0  0  0  0  0  0
   -2.2372    5.9017    2.1577 C   0  0  0  0  0  0  0  0  0  0  0  0
   -1.2012    6.7887    2.4708 C   0  0  0  0  0  0  0  0  0  0  0  0
    0.0966    6.3072    2.6638 C   0  0  0  0  0  0  0  0  0  0  0  0
    1.4391    7.4482    2.9967 S   0  0  0  0  0  0  0  0  0  0  0  0
    1.8208    7.6903    1.2316 C   0  0  0  0  0  0  0  0  0  0  0  0
    0.3539    4.9378    2.5867 C   0  0  0  0  0  0  0  0  0  0  0  0
   -0.6849    4.0481    2.2983 C   0  0  0  0  0  0  0  0  0  0  0  0
   -4.0840    3.9490    0.7935 C   0  0  0  0  0  0  0  0  0  0  0  0
   -3.7368    4.4677   -0.4656 C   0  0  0  0  0  0  0  0  0  0  0  0
   -4.7263    4.7712   -1.4025 C   0  0  0  0  0  0  0  0  0  0  0  0
   -6.0772    4.5826   -1.0819 C   0  0  0  0  0  0  0  0  0  0  0  0
   -7.3495    4.9505   -2.2905 S   0  0  0  0  0  0  0  0  0  0  0  0
   -7.6710    6.6244   -1.6523 C   0  0  0  0  0  0  0  0  0  0  0  0
   -6.4315    4.0771    0.1733 C   0  0  0  0  0  0  0  0  0  0  0  0
   -5.4417    3.7532    1.1024 C   0  0  0  0  0  0  0  0  0  0  0  0
   -3.1170    2.2718    3.8538 C   0  0  0  0  0  0  0  0  0  0  0  0
   -2.7424    3.3765    5.0574 S   0  0  0  0  0  0  0  0  0  0  0  0
   -2.5498    2.1822    6.2610 C   0  0  0  0  0  0  0  0  0  0  0  0
   -2.8563    0.9252    5.7167 C   0  0  0  0  0  0  0  0  0  0  0  0
   -2.9270   -0.2815    6.4797 N   0  0  0  0  0  0  0  0  0  0  0  0
   -1.7014   -0.9323    6.8573 C   0  0  0  0  0  0  0  0  0  0  0  0
   -0.7327   -1.2381    5.8891 C   0  0  0  0  0  0  0  0  0  0  0  0
    0.4537   -1.8800    6.2553 C   0  0  0  0  0  0  0  0  0  0  0  0
    0.6937   -2.1973    7.5973 C   0  0  0  0  0  0  0  0  0  0  0  0
    2.2219   -3.0142    8.0483 S   0  0  0  0  0  0  0  0  0  0  0  0
    1.4854   -4.6812    8.0565 C   0  0  0  0  0  0  0  0  0  0  0  0
   -0.2547   -1.8679    8.5735 C   0  0  0  0  0  0  0  0  0  0  0  0
   -1.4500   -1.2440    8.2052 C   0  0  0  0  0  0  0  0  0  0  0  0
   -4.2037   -0.7258    6.9929 C   0  0  0  0  0  0  0  0  0  0  0  0
   -5.2162    0.2023    7.3039 C   0  0  0  0  0  0  0  0  0  0  0  0
   -6.4452   -0.2290    7.8074 C   0  0  0  0  0  0  0  0  0  0  0  0
   -6.6779   -1.5937    8.0089 C   0  0  0  0  0  0  0  0  0  0  0  0
   -8.2501   -2.1497    8.6700 S   0  0  0  0  0  0  0  0  0  0  0  0
   -7.6810   -2.0498   10.3953 C   0  0  0  0  0  0  0  0  0  0  0  0
   -5.6814   -2.5257    7.6969 C   0  0  0  0  0  0  0  0  0  0  0  0
   -4.4517   -2.0939    7.1947 C   0  0  0  0  0  0  0  0  0  0  0  0
   -3.1390    1.0133    4.3558 C   0  0  0  0  0  0  0  0  0  0  0  0
   -3.2039   -0.0933    3.0912 S   0  0  0  0  0  0  0  0  0  0  0  0
   -2.1222    2.4554    7.6441 C   0  0  0  0  0  0  0  0  0  0  0  0
   -1.0425    3.2053    7.9329 C   0  0  0  0  0  0  0  0  0  0  0  0
   -0.1043    3.7734    6.9565 C   0  0  0  0  0  0  0  0  0  0  0  0
    0.1581    3.3063    5.8148 O   0  0  0  0  0  0  0  0  0  0  0  0
    0.5303    4.9262    7.5510 C   0  0  0  0  0  0  0  0  0  0  0  0
    1.3301    5.8765    6.9251 C   0  0  0  0  0  0  0  0  0  0  0  0
    1.7103    7.0173    7.6590 C   0  0  0  0  0  0  0  0  0  0  0  0
    2.5003    8.0138    7.0668 C   0  0  0  0  0  0  0  0  0  0  0  0
    2.8277    9.1679    7.7838 C   0  0  0  0  0  0  0  0  0  0  0  0
    2.3736    9.3353    9.0962 C   0  0  0  0  0  0  0  0  0  0  0  0
    2.6848   10.4636    9.7817 F   0  0  0  0  0  0  0  0  0  0  0  0
    1.5924    8.3455    9.7034 C   0  0  0  0  0  0  0  0  0  0  0  0
    1.2602    7.1791    8.9982 C   0  0  0  0  0  0  0  0  0  0  0  0
    0.4648    6.1850    9.6046 C   0  0  0  0  0  0  0  0  0  0  0  0
    0.1232    5.0451    8.8702 C   0  0  0  0  0  0  0  0  0  0  0  0
   -0.7495    3.8880    9.2267 C   0  0  0  0  0  0  0  0  0  0  0  0
   -1.0088    3.4238   10.4735 C   0  0  0  0  0  0  0  0  0  0  0  0
   -0.5253    4.0903   11.6564 C   0  0  0  0  0  0  0  0  0  0  0  0
   -0.1397    4.6113   12.6163 N   0  0  0  0  0  0  0  0  0  0  0  0
   -1.6469    2.1520   10.6982 C   0  0  0  0  0  0  0  0  0  0  0  0
   -2.1583    1.1247   10.8863 N   0  0  0  0  0  0  0  0  0  0  0  0
    6.1066   -2.2094   -7.5441 H   0  0  0  0  0  0  0  0  0  0  0  0
   10.7571   -4.0393   -5.7656 H   0  0  0  0  0  0  0  0  0  0  0  0
   12.5856   -5.0421   -4.4181 H   0  0  0  0  0  0  0  0  0  0  0  0
   13.4180   -5.8703   -2.2541 H   0  0  0  0  0  0  0  0  0  0  0  0
    9.6621   -4.9682   -0.3895 H   0  0  0  0  0  0  0  0  0  0  0  0
    7.8569   -3.9622   -1.7043 H   0  0  0  0  0  0  0  0  0  0  0  0
    4.0266   -0.8861   -9.3544 H   0  0  0  0  0  0  0  0  0  0  0  0
    5.7561   -1.0157  -11.1031 H   0  0  0  0  0  0  0  0  0  0  0  0
    7.8337   -0.1614  -12.0548 H   0  0  0  0  0  0  0  0  0  0  0  0
    8.8019    1.0503  -11.1548 H   0  0  0  0  0  0  0  0  0  0  0  0
    8.9963   -0.7063  -10.7830 H   0  0  0  0  0  0  0  0  0  0  0  0
    8.3971    1.3538   -8.6565 H   0  0  0  0  0  0  0  0  0  0  0  0
    6.6576    1.4880   -6.9152 H   0  0  0  0  0  0  0  0  0  0  0  0
    2.1450    0.9296   -8.6355 H   0  0  0  0  0  0  0  0  0  0  0  0
    0.6894    2.9135   -8.5660 H   0  0  0  0  0  0  0  0  0  0  0  0
    0.3269    5.0448   -5.8835 H   0  0  0  0  0  0  0  0  0  0  0  0
    0.1130    5.0532   -7.6780 H   0  0  0  0  0  0  0  0  0  0  0  0
    1.4627    5.9866   -6.9515 H   0  0  0  0  0  0  0  0  0  0  0  0
    3.0415    4.5205   -5.3308 H   0  0  0  0  0  0  0  0  0  0  0  0
    4.5056    2.5391   -5.4060 H   0  0  0  0  0  0  0  0  0  0  0  0
    1.0977   -5.6757   -5.3614 H   0  0  0  0  0  0  0  0  0  0  0  0
    2.4021   -7.4981   -4.3412 H   0  0  0  0  0  0  0  0  0  0  0  0
    2.9272   -8.6569   -2.0723 H   0  0  0  0  0  0  0  0  0  0  0  0
    4.3735   -7.5715   -2.1581 H   0  0  0  0  0  0  0  0  0  0  0  0
    3.3385   -7.5993   -0.6783 H   0  0  0  0  0  0  0  0  0  0  0  0
    2.4293   -5.3617   -0.5911 H   0  0  0  0  0  0  0  0  0  0  0  0
    1.0994   -3.5552   -1.6186 H   0  0  0  0  0  0  0  0  0  0  0  0
   -0.8998   -2.4358   -6.4303 H   0  0  0  0  0  0  0  0  0  0  0  0
   -3.1497   -2.8875   -7.2458 H   0  0  0  0  0  0  0  0  0  0  0  0
   -5.7511   -3.8723   -5.6179 H   0  0  0  0  0  0  0  0  0  0  0  0
   -5.1248   -4.3413   -7.2451 H   0  0  0  0  0  0  0  0  0  0  0  0
   -5.3317   -5.5938   -5.9744 H   0  0  0  0  0  0  0  0  0  0  0  0
   -3.8185   -5.5890   -3.9610 H   0  0  0  0  0  0  0  0  0  0  0  0
   -1.5680   -5.1103   -3.1071 H   0  0  0  0  0  0  0  0  0  0  0  0
   -0.6546    3.1844   -2.7820 H   0  0  0  0  0  0  0  0  0  0  0  0
   -0.0862    5.5633   -2.8509 H   0  0  0  0  0  0  0  0  0  0  0  0
    3.5019    6.7179   -4.5459 H   0  0  0  0  0  0  0  0  0  0  0  0
    2.8837    8.3905   -4.2904 H   0  0  0  0  0  0  0  0  0  0  0  0
    1.7257    7.0755   -4.7069 H   0  0  0  0  0  0  0  0  0  0  0  0
    4.0754    4.6009   -2.3349 H   0  0  0  0  0  0  0  0  0  0  0  0
    3.5230    2.2193   -2.2603 H   0  0  0  0  0  0  0  0  0  0  0  0
    2.3778   -1.2194   -2.5491 H   0  0  0  0  0  0  0  0  0  0  0  0
    3.3663   -2.6108   -0.7826 H   0  0  0  0  0  0  0  0  0  0  0  0
    2.1014   -3.6997    3.2389 H   0  0  0  0  0  0  0  0  0  0  0  0
    1.2763   -2.1819    2.7041 H   0  0  0  0  0  0  0  0  0  0  0  0
    1.6456   -3.4880    1.4999 H   0  0  0  0  0  0  0  0  0  0  0  0
    2.5579    0.4825    2.1011 H   0  0  0  0  0  0  0  0  0  0  0  0
    1.5346    1.8639    0.3333 H   0  0  0  0  0  0  0  0  0  0  0  0
   -5.7422   -3.0066   -1.2141 H   0  0  0  0  0  0  0  0  0  0  0  0
   -5.2349   -5.3795   -1.6349 H   0  0  0  0  0  0  0  0  0  0  0  0
   -3.0883   -7.0736    1.3221 H   0  0  0  0  0  0  0  0  0  0  0  0
   -4.6655   -7.4074    0.4872 H   0  0  0  0  0  0  0  0  0  0  0  0
   -3.3909   -8.6842    0.5644 H   0  0  0  0  0  0  0  0  0  0  0  0
   -1.3385   -4.8647    0.1200 H   0  0  0  0  0  0  0  0  0  0  0  0
   -1.8346   -2.4865    0.5347 H   0  0  0  0  0  0  0  0  0  0  0  0
   -5.6497    0.8252   -1.1010 H   0  0  0  0  0  0  0  0  0  0  0  0
   -7.8454    1.5543   -0.2464 H   0  0  0  0  0  0  0  0  0  0  0  0
  -11.5183   -0.2816    1.0889 H   0  0  0  0  0  0  0  0  0  0  0  0
  -10.1836   -1.5023    1.1271 H   0  0  0  0  0  0  0  0  0  0  0  0
  -10.2138   -0.2155   -0.1600 H   0  0  0  0  0  0  0  0  0  0  0  0
   -7.6567   -1.4377    2.8328 H   0  0  0  0  0  0  0  0  0  0  0  0
   -5.4811   -2.2007    1.9638 H   0  0  0  0  0  0  0  0  0  0  0  0
   -3.2359    6.2882    2.0061 H   0  0  0  0  0  0  0  0  0  0  0  0
   -1.4099    7.8474    2.5555 H   0  0  0  0  0  0  0  0  0  0  0  0
    2.0132    6.7189    0.7302 H   0  0  0  0  0  0  0  0  0  0  0  0
    2.7326    8.3157    1.1426 H   0  0  0  0  0  0  0  0  0  0  0  0
    0.9759    8.2066    0.7277 H   0  0  0  0  0  0  0  0  0  0  0  0
    1.3578    4.5623    2.7452 H   0  0  0  0  0  0  0  0  0  0  0  0
   -0.4645    2.9905    2.2588 H   0  0  0  0  0  0  0  0  0  0  0  0
   -2.6957    4.6304   -0.7205 H   0  0  0  0  0  0  0  0  0  0  0  0
   -4.4458    5.1567   -2.3753 H   0  0  0  0  0  0  0  0  0  0  0  0
   -8.4508    7.1058   -2.2775 H   0  0  0  0  0  0  0  0  0  0  0  0
   -8.0388    6.5704   -0.6084 H   0  0  0  0  0  0  0  0  0  0  0  0
   -6.7469    7.2344   -1.6913 H   0  0  0  0  0  0  0  0  0  0  0  0
   -7.4758    3.9331    0.4267 H   0  0  0  0  0  0  0  0  0  0  0  0
   -5.7280    3.3670    2.0711 H   0  0  0  0  0  0  0  0  0  0  0  0
   -0.9060   -1.0047    4.8470 H   0  0  0  0  0  0  0  0  0  0  0  0
    1.1868   -2.1263    5.4962 H   0  0  0  0  0  0  0  0  0  0  0  0
    0.8562   -4.7951    8.9620 H   0  0  0  0  0  0  0  0  0  0  0  0
    2.2957   -5.4387    8.0962 H   0  0  0  0  0  0  0  0  0  0  0  0
    0.8713   -4.8503    7.1463 H   0  0  0  0  0  0  0  0  0  0  0  0
   -0.0655   -2.0997    9.6133 H   0  0  0  0  0  0  0  0  0  0  0  0
   -2.1790   -0.9958    8.9650 H   0  0  0  0  0  0  0  0  0  0  0  0
   -5.0552    1.2629    7.1814 H   0  0  0  0  0  0  0  0  0  0  0  0
   -7.2142    0.4944    8.0522 H   0  0  0  0  0  0  0  0  0  0  0  0
   -6.7905   -2.6971   10.5435 H   0  0  0  0  0  0  0  0  0  0  0  0
   -7.4286   -0.9990   10.6484 H   0  0  0  0  0  0  0  0  0  0  0  0
   -8.4950   -2.3925   11.0658 H   0  0  0  0  0  0  0  0  0  0  0  0
   -5.8575   -3.5840    7.8514 H   0  0  0  0  0  0  0  0  0  0  0  0
   -3.6960   -2.8252    6.9523 H   0  0  0  0  0  0  0  0  0  0  0  0
   -2.7946    2.1302    8.4211 H   0  0  0  0  0  0  0  0  0  0  0  0
    1.6137    5.7559    5.8867 H   0  0  0  0  0  0  0  0  0  0  0  0
    2.8582    7.9005    6.0505 H   0  0  0  0  0  0  0  0  0  0  0  0
    3.4360    9.9305    7.3205 H   0  0  0  0  0  0  0  0  0  0  0  0
    1.2438    8.4996   10.7201 H   0  0  0  0  0  0  0  0  0  0  0  0
    0.0878    6.3493   10.6016 H   0  0  0  0  0  0  0  0  0  0  0  0
  1  2  2  3
  2  3  1  0
  3  4  2  0
  3  5  1  0
  5  6  2  0
  6  7  1  0
  7  8  2  0
  8  9  1  0
  9 10  2  0
 10 11  1  0
 10 12  1  0
 12 13  2  0
 13 14  1  0
 14 15  2  0
 15 16  1  0
 16 17  2  3
 17 18  1  0
 18 19  3  0
 17 20  1  0
 20 21  3  0
  1 22  1  0
 22 23  2  0
 23 24  1  0
 24 25  1  0
 25 26  2  0
 26 27  1  0
 27 28  2  0
 28 29  1  0
 28 30  1  0
 30 31  2  0
 24 32  1  0
 32 33  2  0
 33 34  1  0
 34 35  2  0
 35 36  1  0
 35 37  1  0
 37 38  2  0
 23 39  1  0
 39 40  1  0
 40 41  1  0
 41 42  2  0
 42 43  1  0
 43 44  1  0
 44 45  2  0
 45 46  1  0
 46 47  2  0
 47 48  1  0
 47 49  1  0
 49 50  2  0
 43 51  1  0
 51 52  2  0
 52 53  1  0
 53 54  2  0
 54 55  1  0
 54 56  1  0
 56 57  2  0
 42 58  1  0
 58 59  1  0
 41 60  1  0
 60 61  2  0
 61 62  1  0
 62 63  1  0
 63 64  2  0
 64 65  1  0
 65 66  2  0
 66 67  1  0
 67 68  1  0
 66 69  1  0
 69 70  2  0
 62 71  1  0
 71 72  2  0
 72 73  1  0
 73 74  2  0
 74 75  1  0
 75 76  1  0
 74 77  1  0
 77 78  2  0
 61 79  1  0
 79 80  1  0
 80 81  1  0
 81 82  2  0
 82 83  1  0
 83 84  1  0
 84 85  2  0
 85 86  1  0
 86 87  2  0
 87 88  1  0
 88 89  1  0
 87 90  1  0
 90 91  2  0
 83 92  1  0
 92 93  2  0
 93 94  1  0
 94 95  2  0
 95 96  1  0
 96 97  1  0
 95 98  1  0
 98 99  2  0
 82100  1  0
100101  1  0
 81102  1  0
102103  2  0
103104  1  0
104105  1  0
105106  2  0
106107  1  0
107108  2  0
108109  1  0
109110  1  0
108111  1  0
111112  2  0
104113  1  0
113114  2  0
114115  1  0
115116  2  0
116117  1  0
117118  1  0
116119  1  0
119120  2  0
103121  1  0
121122  1  0
122123  1  0
123124  2  0
124125  1  0
125126  1  0
126127  2  0
127128  1  0
128129  2  0
129130  1  0
130131  1  0
129132  1  0
132133  2  0
125134  1  0
134135  2  0
135136  1  0
136137  2  0
137138  1  0
138139  1  0
137140  1  0
140141  2  0
124142  1  0
142143  1  0
123144  1  0
144145  2  3
145146  1  0
146147  2  0
146148  1  0
148149  2  0
149150  1  0
150151  2  0
151152  1  0
152153  2  0
153154  1  0
153155  1  0
155156  2  0
156157  1  0
157158  2  0
158159  1  0
159160  2  3
160161  1  0
161162  3  0
160163  1  0
163164  3  0
 16  2  1  0
 59 22  1  0
101 60  1  0
143102  1  0
159145  1  0
 15  5  1  0
 31 25  1  0
 38 32  1  0
 58 39  2  0
 70 63  1  0
 78 71  1  0
100 79  2  0
112105  1  0
120113  1  0
142121  2  0
158148  1  0
 13  7  1  0
 50 44  1  0
 57 51  1  0
 91 84  1  0
 99 92  1  0
133126  1  0
141134  1  0
156150  1  0
  1165  1  0
  6166  1  0
  8167  1  0
  9168  1  0
 12169  1  0
 14170  1  0
 26171  1  0
 27172  1  0
 29173  1  0
 29174  1  0
 29175  1  0
 30176  1  0
 31177  1  0
 33178  1  0
 34179  1  0
 36180  1  0
 36181  1  0
 36182  1  0
 37183  1  0
 38184  1  0
 45185  1  0
 46186  1  0
 48187  1  0
 48188  1  0
 48189  1  0
 49190  1  0
 50191  1  0
 52192  1  0
 53193  1  0
 55194  1  0
 55195  1  0
 55196  1  0
 56197  1  0
 57198  1  0
 64199  1  0
 65200  1  0
 68201  1  0
 68202  1  0
 68203  1  0
 69204  1  0
 70205  1  0
 72206  1  0
 73207  1  0
 76208  1  0
 76209  1  0
 76210  1  0
 77211  1  0
 78212  1  0
 85213  1  0
 86214  1  0
 89215  1  0
 89216  1  0
 89217  1  0
 90218  1  0
 91219  1  0
 93220  1  0
 94221  1  0
 97222  1  0
 97223  1  0
 97224  1  0
 98225  1  0
 99226  1  0
106227  1  0
107228  1  0
110229  1  0
110230  1  0
110231  1  0
111232  1  0
112233  1  0
114234  1  0
115235  1  0
118236  1  0
118237  1  0
118238  1  0
119239  1  0
120240  1  0
127241  1  0
128242  1  0
131243  1  0
131244  1  0
131245  1  0
132246  1  0
133247  1  0
135248  1  0
136249  1  0
139250  1  0
139251  1  0
139252  1  0
140253  1  0
141254  1  0
144255  1  0
149256  1  0
151257  1  0
152258  1  0
155259  1  0
157260  1  0
M  END

