
     RDKit          3D

208226  0  0  0  0  0  0  0  0999 V2000
    4.7508   -6.0551   -0.2812 C   0  0  0  0  0  0  0  0  0  0  0  0
    6.0637   -5.9605   -0.0233 C   0  0  0  0  0  0  0  0  0  0  0  0
    7.0653   -6.7391   -0.7512 C   0  0  0  0  0  0  0  0  0  0  0  0
    6.8607   -7.8199   -1.3694 O   0  0  0  0  0  0  0  0  0  0  0  0
    8.3090   -5.9932   -0.7407 C   0  0  0  0  0  0  0  0  0  0  0  0
    9.5279   -6.3305   -1.3341 C   0  0  0  0  0  0  0  0  0  0  0  0
   10.6101   -5.4462   -1.1913 C   0  0  0  0  0  0  0  0  0  0  0  0
   11.8696   -5.7633   -1.7294 C   0  0  0  0  0  0  0  0  0  0  0  0
   12.9415   -4.8791   -1.5769 C   0  0  0  0  0  0  0  0  0  0  0  0
   12.7646   -3.6691   -0.9013 C   0  0  0  0  0  0  0  0  0  0  0  0
   13.8160   -2.8229   -0.7456 F   0  0  0  0  0  0  0  0  0  0  0  0
   11.5172   -3.3370   -0.3606 C   0  0  0  0  0  0  0  0  0  0  0  0
   10.4350   -4.2197   -0.4869 C   0  0  0  0  0  0  0  0  0  0  0  0
    9.1961   -3.9117    0.1027 C   0  0  0  0  0  0  0  0  0  0  0  0
    8.1422   -4.8266   -0.0146 C   0  0  0  0  0  0  0  0  0  0  0  0
    6.7869   -4.8183    0.5977 C   0  0  0  0  0  0  0  0  0  0  0  0
    6.5148   -4.3218    1.8303 C   0  0  0  0  0  0  0  0  0  0  0  0
    7.2222   -3.1889    2.3756 C   0  0  0  0  0  0  0  0  0  0  0  0
    7.7790   -2.2794    2.8257 N   0  0  0  0  0  0  0  0  0  0  0  0
    5.6536   -5.0196    2.7506 C   0  0  0  0  0  0  0  0  0  0  0  0
    4.9754   -5.5828    3.4977 N   0  0  0  0  0  0  0  0  0  0  0  0
    3.8181   -4.9345   -0.0996 C   0  0  0  0  0  0  0  0  0  0  0  0
    3.4918   -3.9738   -1.0765 C   0  0  0  0  0  0  0  0  0  0  0  0
    3.9623   -3.9904   -2.4352 N   0  0  0  0  0  0  0  0  0  0  0  0
    3.7652   -5.1800   -3.2270 C   0  0  0  0  0  0  0  0  0  0  0  0
    4.7757   -5.6415   -4.0840 C   0  0  0  0  0  0  0  0  0  0  0  0
    4.5954   -6.8209   -4.8122 C   0  0  0  0  0  0  0  0  0  0  0  0
    3.4095   -7.5603   -4.6866 C   0  0  0  0  0  0  0  0  0  0  0  0
    3.1995   -8.8043   -5.4967 C   0  0  0  0  0  0  0  0  0  0  0  0
    2.3908   -7.0903   -3.8460 C   0  0  0  0  0  0  0  0  0  0  0  0
    2.5686   -5.9111   -3.1203 C   0  0  0  0  0  0  0  0  0  0  0  0
    4.5367   -2.7971   -3.0052 C   0  0  0  0  0  0  0  0  0  0  0  0
    5.4066   -1.9964   -2.2443 C   0  0  0  0  0  0  0  0  0  0  0  0
    5.9513   -0.8308   -2.7909 C   0  0  0  0  0  0  0  0  0  0  0  0
    5.6281   -0.4422   -4.1010 C   0  0  0  0  0  0  0  0  0  0  0  0
    6.2608    0.7810   -4.6938 C   0  0  0  0  0  0  0  0  0  0  0  0
    4.7628   -1.2433   -4.8651 C   0  0  0  0  0  0  0  0  0  0  0  0
    4.2158   -2.4055   -4.3163 C   0  0  0  0  0  0  0  0  0  0  0  0
    2.5731   -3.0515   -0.5865 C   0  0  0  0  0  0  0  0  0  0  0  0
    1.7705   -1.7107   -1.2024 S   0  0  0  0  0  0  0  0  0  0  0  0
    0.9270   -1.3699    0.2476 C   0  0  0  0  0  0  0  0  0  0  0  0
    1.2851   -2.3431    1.2082 C   0  0  0  0  0  0  0  0  0  0  0  0
    0.9751   -2.3039    2.6110 N   0  0  0  0  0  0  0  0  0  0  0  0
    2.0522   -1.8866    3.4761 C   0  0  0  0  0  0  0  0  0  0  0  0
    2.5824   -2.7691    4.4302 C   0  0  0  0  0  0  0  0  0  0  0  0
    3.6982   -2.4056    5.1888 C   0  0  0  0  0  0  0  0  0  0  0  0
    4.3152   -1.1611    4.9851 C   0  0  0  0  0  0  0  0  0  0  0  0
    5.5076   -0.7695    5.8047 C   0  0  0  0  0  0  0  0  0  0  0  0
    3.7750   -0.2702    4.0435 C   0  0  0  0  0  0  0  0  0  0  0  0
    2.6573   -0.6337    3.2879 C   0  0  0  0  0  0  0  0  0  0  0  0
   -0.2561   -2.8776    3.1234 C   0  0  0  0  0  0  0  0  0  0  0  0
   -0.6230   -2.7105    4.4736 C   0  0  0  0  0  0  0  0  0  0  0  0
   -1.8470   -3.1960    4.9498 C   0  0  0  0  0  0  0  0  0  0  0  0
   -2.7429   -3.8246    4.0755 C   0  0  0  0  0  0  0  0  0  0  0  0
   -4.0681   -4.3096    4.5879 C   0  0  0  0  0  0  0  0  0  0  0  0
   -2.3837   -4.0145    2.7340 C   0  0  0  0  0  0  0  0  0  0  0  0
   -1.1541   -3.5449    2.2641 C   0  0  0  0  0  0  0  0  0  0  0  0
    2.1809   -3.2615    0.6890 C   0  0  0  0  0  0  0  0  0  0  0  0
    2.9131   -4.6330    1.3063 S   0  0  0  0  0  0  0  0  0  0  0  0
   -0.0384   -0.2592    0.4389 C   0  0  0  0  0  0  0  0  0  0  0  0
   -0.5850    0.5801   -0.5588 C   0  0  0  0  0  0  0  0  0  0  0  0
   -0.3876    0.4114   -1.9706 N   0  0  0  0  0  0  0  0  0  0  0  0
    0.6433    1.1685   -2.6500 C   0  0  0  0  0  0  0  0  0  0  0  0
    1.0648    2.4197   -2.1577 C   0  0  0  0  0  0  0  0  0  0  0  0
    2.0436    3.1525   -2.8316 C   0  0  0  0  0  0  0  0  0  0  0  0
    2.6262    2.6477   -3.9996 C   0  0  0  0  0  0  0  0  0  0  0  0
    3.9015    3.5821   -4.8445 S   0  0  0  0  0  0  0  0  0  0  0  0
    2.7273    4.4516   -5.9294 C   0  0  0  0  0  0  0  0  0  0  0  0
    2.2218    1.4009   -4.4936 C   0  0  0  0  0  0  0  0  0  0  0  0
    1.2371    0.6665   -3.8238 C   0  0  0  0  0  0  0  0  0  0  0  0
   -1.4053   -0.3040   -2.7037 C   0  0  0  0  0  0  0  0  0  0  0  0
   -1.9461    0.2279   -3.8894 C   0  0  0  0  0  0  0  0  0  0  0  0
   -3.0012   -0.4216   -4.5427 C   0  0  0  0  0  0  0  0  0  0  0  0
   -3.5319   -1.6018   -4.0109 C   0  0  0  0  0  0  0  0  0  0  0  0
   -4.8814   -2.4416   -4.8467 S   0  0  0  0  0  0  0  0  0  0  0  0
   -6.1710   -1.6308   -3.8530 C   0  0  0  0  0  0  0  0  0  0  0  0
   -2.9988   -2.1404   -2.8358 C   0  0  0  0  0  0  0  0  0  0  0  0
   -1.9473   -1.4945   -2.1819 C   0  0  0  0  0  0  0  0  0  0  0  0
   -1.6325    1.3559   -0.0530 C   0  0  0  0  0  0  0  0  0  0  0  0
   -2.8511    2.2375   -0.7925 S   0  0  0  0  0  0  0  0  0  0  0  0
   -3.8100    2.3076    0.6095 C   0  0  0  0  0  0  0  0  0  0  0  0
   -3.1831    1.6217    1.6565 C   0  0  0  0  0  0  0  0  0  0  0  0
   -3.9018    1.0631    2.7687 N   0  0  0  0  0  0  0  0  0  0  0  0
   -3.4184    1.3204    4.0947 C   0  0  0  0  0  0  0  0  0  0  0  0
   -3.7214    2.5360    4.7335 C   0  0  0  0  0  0  0  0  0  0  0  0
   -3.2293    2.7975    6.0168 C   0  0  0  0  0  0  0  0  0  0  0  0
   -2.4095    1.8591    6.6564 C   0  0  0  0  0  0  0  0  0  0  0  0
   -1.7916    2.1867    8.3108 S   0  0  0  0  0  0  0  0  0  0  0  0
   -0.3270    3.1025    7.7358 C   0  0  0  0  0  0  0  0  0  0  0  0
   -2.1196    0.6400    6.0230 C   0  0  0  0  0  0  0  0  0  0  0  0
   -2.6396    0.3679    4.7576 C   0  0  0  0  0  0  0  0  0  0  0  0
   -4.9255    0.0621    2.5401 C   0  0  0  0  0  0  0  0  0  0  0  0
   -4.9558   -0.6838    1.3419 C   0  0  0  0  0  0  0  0  0  0  0  0
   -5.9802   -1.5985    1.0967 C   0  0  0  0  0  0  0  0  0  0  0  0
   -6.9853   -1.7960    2.0489 C   0  0  0  0  0  0  0  0  0  0  0  0
   -8.3478   -2.9088    1.6973 S   0  0  0  0  0  0  0  0  0  0  0  0
   -7.5052   -4.3655    2.3835 C   0  0  0  0  0  0  0  0  0  0  0  0
   -6.9484   -1.0924    3.2557 C   0  0  0  0  0  0  0  0  0  0  0  0
   -5.9234   -0.1731    3.5012 C   0  0  0  0  0  0  0  0  0  0  0  0
   -1.9460    1.1389    1.2469 C   0  0  0  0  0  0  0  0  0  0  0  0
   -0.9181   -0.0098    1.8717 S   0  0  0  0  0  0  0  0  0  0  0  0
   -5.0915    3.0119    0.7278 C   0  0  0  0  0  0  0  0  0  0  0  0
   -5.2428    4.1076    1.4729 C   0  0  0  0  0  0  0  0  0  0  0  0
   -6.3881    4.8525    1.0525 C   0  0  0  0  0  0  0  0  0  0  0  0
   -6.9935    4.0541    0.0001 C   0  0  0  0  0  0  0  0  0  0  0  0
   -7.9940    4.3644   -0.6984 O   0  0  0  0  0  0  0  0  0  0  0  0
   -6.1943    2.8785   -0.1941 N   0  0  0  0  0  0  0  0  0  0  0  0
   -6.3377    1.9035   -1.2716 C   0  0  0  0  0  0  0  0  0  0  0  0
   -5.9819    2.5223   -2.6241 C   0  0  0  0  0  0  0  0  0  0  0  0
   -6.1187    6.1581    1.0842 C   0  0  0  0  0  0  0  0  0  0  0  0
   -4.8243    6.4042    1.6722 N   0  0  0  0  0  0  0  0  0  0  0  0
   -4.3630    7.6392    2.3084 C   0  0  0  0  0  0  0  0  0  0  0  0
   -2.9324    7.9614    1.8934 C   0  0  0  0  0  0  0  0  0  0  0  0
   -4.2741    5.1016    1.8895 C   0  0  0  0  0  0  0  0  0  0  0  0
   -3.1145    4.8701    2.3171 O   0  0  0  0  0  0  0  0  0  0  0  0
   -7.0648    7.1937    0.6369 C   0  0  0  0  0  0  0  0  0  0  0  0
   -6.7642    8.3010   -0.0634 C   0  0  0  0  0  0  0  0  0  0  0  0
   -7.6472    9.4695   -0.0832 C   0  0  0  0  0  0  0  0  0  0  0  0
   -8.8353    9.4894    0.3446 O   0  0  0  0  0  0  0  0  0  0  0  0
   -6.8979   10.6178   -0.5443 C   0  0  0  0  0  0  0  0  0  0  0  0
   -7.2589   11.9712   -0.5518 C   0  0  0  0  0  0  0  0  0  0  0  0
   -8.8893   12.4654   -0.1171 Cl  0  0  0  0  0  0  0  0  0  0  0  0
   -6.2790   12.9284   -0.8872 C   0  0  0  0  0  0  0  0  0  0  0  0
   -6.7002   14.6410   -0.9335 Cl  0  0  0  0  0  0  0  0  0  0  0  0
   -4.9537   12.5188   -1.1432 C   0  0  0  0  0  0  0  0  0  0  0  0
   -3.7086   13.7289   -1.4788 Cl  0  0  0  0  0  0  0  0  0  0  0  0
   -4.6068   11.1539   -1.0984 C   0  0  0  0  0  0  0  0  0  0  0  0
   -2.9081   10.6730   -1.1518 Cl  0  0  0  0  0  0  0  0  0  0  0  0
   -5.6207   10.2053   -0.8732 C   0  0  0  0  0  0  0  0  0  0  0  0
   -5.5125    8.7258   -0.7597 C   0  0  0  0  0  0  0  0  0  0  0  0
   -4.8120    7.9596   -1.6367 C   0  0  0  0  0  0  0  0  0  0  0  0
   -4.7321    6.5325   -1.5579 C   0  0  0  0  0  0  0  0  0  0  0  0
   -4.5939    5.3824   -1.5118 N   0  0  0  0  0  0  0  0  0  0  0  0
   -4.2932    8.5040   -2.8718 C   0  0  0  0  0  0  0  0  0  0  0  0
   -3.8983    8.9107   -3.8832 N   0  0  0  0  0  0  0  0  0  0  0  0
    4.4047   -6.8789   -0.8904 H   0  0  0  0  0  0  0  0  0  0  0  0
    9.6296   -7.2623   -1.8787 H   0  0  0  0  0  0  0  0  0  0  0  0
   12.0275   -6.6915   -2.2631 H   0  0  0  0  0  0  0  0  0  0  0  0
   13.9133   -5.1355   -1.9812 H   0  0  0  0  0  0  0  0  0  0  0  0
   11.4047   -2.3991    0.1682 H   0  0  0  0  0  0  0  0  0  0  0  0
    9.0660   -2.9741    0.6198 H   0  0  0  0  0  0  0  0  0  0  0  0
    5.7090   -5.0989   -4.1700 H   0  0  0  0  0  0  0  0  0  0  0  0
    5.3835   -7.1600   -5.4751 H   0  0  0  0  0  0  0  0  0  0  0  0
    4.1681   -9.2944   -5.7317 H   0  0  0  0  0  0  0  0  0  0  0  0
    2.6833   -8.5491   -6.4448 H   0  0  0  0  0  0  0  0  0  0  0  0
    2.5760   -9.5335   -4.9335 H   0  0  0  0  0  0  0  0  0  0  0  0
    1.4567   -7.6356   -3.7543 H   0  0  0  0  0  0  0  0  0  0  0  0
    1.7747   -5.5690   -2.4658 H   0  0  0  0  0  0  0  0  0  0  0  0
    5.6712   -2.2850   -1.2341 H   0  0  0  0  0  0  0  0  0  0  0  0
    6.6250   -0.2346   -2.1962 H   0  0  0  0  0  0  0  0  0  0  0  0
    7.3150    0.5548   -4.9552 H   0  0  0  0  0  0  0  0  0  0  0  0
    5.7268    1.1050   -5.6085 H   0  0  0  0  0  0  0  0  0  0  0  0
    6.2386    1.6128   -3.9569 H   0  0  0  0  0  0  0  0  0  0  0  0
    4.5046   -0.9591   -5.8819 H   0  0  0  0  0  0  0  0  0  0  0  0
    3.5374   -3.0009   -4.9155 H   0  0  0  0  0  0  0  0  0  0  0  0
    2.1443   -3.7478    4.5673 H   0  0  0  0  0  0  0  0  0  0  0  0
    4.0923   -3.1017    5.9233 H   0  0  0  0  0  0  0  0  0  0  0  0
    6.1084    0.0124    5.2888 H   0  0  0  0  0  0  0  0  0  0  0  0
    5.1700   -0.3824    6.7893 H   0  0  0  0  0  0  0  0  0  0  0  0
    6.1633   -1.6514    5.9671 H   0  0  0  0  0  0  0  0  0  0  0  0
    4.2264    0.7014    3.8822 H   0  0  0  0  0  0  0  0  0  0  0  0
    2.2658    0.0524    2.5468 H   0  0  0  0  0  0  0  0  0  0  0  0
    0.0166   -2.1751    5.1616 H   0  0  0  0  0  0  0  0  0  0  0  0
   -2.1092   -3.0473    5.9905 H   0  0  0  0  0  0  0  0  0  0  0  0
   -4.7429   -4.5912    3.7516 H   0  0  0  0  0  0  0  0  0  0  0  0
   -3.9126   -5.1985    5.2348 H   0  0  0  0  0  0  0  0  0  0  0  0
   -4.5666   -3.5106    5.1747 H   0  0  0  0  0  0  0  0  0  0  0  0
   -3.0568   -4.5097    2.0474 H   0  0  0  0  0  0  0  0  0  0  0  0
   -0.9150   -3.6905    1.2190 H   0  0  0  0  0  0  0  0  0  0  0  0
    0.6217    2.8376   -1.2633 H   0  0  0  0  0  0  0  0  0  0  0  0
    2.3465    4.1168   -2.4424 H   0  0  0  0  0  0  0  0  0  0  0  0
    3.2915    5.1417   -6.5894 H   0  0  0  0  0  0  0  0  0  0  0  0
    2.1769    3.7214   -6.5591 H   0  0  0  0  0  0  0  0  0  0  0  0
    2.0105    5.0412   -5.3226 H   0  0  0  0  0  0  0  0  0  0  0  0
    2.6646    1.0043   -5.3969 H   0  0  0  0  0  0  0  0  0  0  0  0
    0.9421   -0.2973   -4.2206 H   0  0  0  0  0  0  0  0  0  0  0  0
   -1.5739    1.1601   -4.2877 H   0  0  0  0  0  0  0  0  0  0  0  0
   -3.4110    0.0021   -5.4486 H   0  0  0  0  0  0  0  0  0  0  0  0
   -6.1359   -0.5349   -4.0159 H   0  0  0  0  0  0  0  0  0  0  0  0
   -6.0268   -1.8592   -2.7754 H   0  0  0  0  0  0  0  0  0  0  0  0
   -7.1636   -2.0124   -4.1747 H   0  0  0  0  0  0  0  0  0  0  0  0
   -3.4103   -3.0517   -2.4193 H   0  0  0  0  0  0  0  0  0  0  0  0
   -1.5667   -1.9214   -1.2627 H   0  0  0  0  0  0  0  0  0  0  0  0
   -4.3574    3.2608    4.2485 H   0  0  0  0  0  0  0  0  0  0  0  0
   -3.4783    3.7351    6.5078 H   0  0  0  0  0  0  0  0  0  0  0  0
    0.3178    2.4426    7.1193 H   0  0  0  0  0  0  0  0  0  0  0  0
   -0.6447    3.9854    7.1409 H   0  0  0  0  0  0  0  0  0  0  0  0
    0.2456    3.4515    8.6223 H   0  0  0  0  0  0  0  0  0  0  0  0
   -1.4965   -0.0928    6.5142 H   0  0  0  0  0  0  0  0  0  0  0  0
   -2.4313   -0.5844    4.2822 H   0  0  0  0  0  0  0  0  0  0  0  0
   -4.1868   -0.5610    0.5872 H   0  0  0  0  0  0  0  0  0  0  0  0
   -5.9985   -2.1443    0.1613 H   0  0  0  0  0  0  0  0  0  0  0  0
   -6.5764   -4.5689    1.8155 H   0  0  0  0  0  0  0  0  0  0  0  0
   -7.2701   -4.2002    3.4552 H   0  0  0  0  0  0  0  0  0  0  0  0
   -8.1776   -5.2430    2.2989 H   0  0  0  0  0  0  0  0  0  0  0  0
   -7.7246   -1.2387    3.9980 H   0  0  0  0  0  0  0  0  0  0  0  0
   -5.9300    0.3787    4.4342 H   0  0  0  0  0  0  0  0  0  0  0  0
   -7.3910    1.5400   -1.3055 H   0  0  0  0  0  0  0  0  0  0  0  0
   -5.6909    1.0226   -1.0821 H   0  0  0  0  0  0  0  0  0  0  0  0
   -6.7102    3.3191   -2.8882 H   0  0  0  0  0  0  0  0  0  0  0  0
   -6.0094    1.7439   -3.4139 H   0  0  0  0  0  0  0  0  0  0  0  0
   -4.9588    2.9486   -2.6069 H   0  0  0  0  0  0  0  0  0  0  0  0
   -4.4222    7.5335    3.4141 H   0  0  0  0  0  0  0  0  0  0  0  0
   -5.0111    8.4870    2.0184 H   0  0  0  0  0  0  0  0  0  0  0  0
   -2.8076    7.8341    0.7982 H   0  0  0  0  0  0  0  0  0  0  0  0
   -2.6866    9.0103    2.1648 H   0  0  0  0  0  0  0  0  0  0  0  0
   -2.2225    7.2971    2.4230 H   0  0  0  0  0  0  0  0  0  0  0  0
   -8.0664    7.0977    1.0302 H   0  0  0  0  0  0  0  0  0  0  0  0
  1  2  2  3
  2  3  1  0
  3  4  2  0
  3  5  1  0
  5  6  2  0
  6  7  1  0
  7  8  2  0
  8  9  1  0
  9 10  2  0
 10 11  1  0
 10 12  1  0
 12 13  2  0
 13 14  1  0
 14 15  2  0
 15 16  1  0
 16 17  2  3
 17 18  1  0
 18 19  3  0
 17 20  1  0
 20 21  3  0
  1 22  1  0
 22 23  2  0
 23 24  1  0
 24 25  1  0
 25 26  2  0
 26 27  1  0
 27 28  2  0
 28 29  1  0
 28 30  1  0
 30 31  2  0
 24 32  1  0
 32 33  2  0
 33 34  1  0
 34 35  2  0
 35 36  1  0
 35 37  1  0
 37 38  2  0
 23 39  1  0
 39 40  1  0
 40 41  1  0
 41 42  2  0
 42 43  1  0
 43 44  1  0
 44 45  2  0
 45 46  1  0
 46 47  2  0
 47 48  1  0
 47 49  1  0
 49 50  2  0
 43 51  1  0
 51 52  2  0
 52 53  1  0
 53 54  2  0
 54 55  1  0
 54 56  1  0
 56 57  2  0
 42 58  1  0
 58 59  1  0
 41 60  1  0
 60 61  2  0
 61 62  1  0
 62 63  1  0
 63 64  2  0
 64 65  1  0
 65 66  2  0
 66 67  1  0
 67 68  1  0
 66 69  1  0
 69 70  2  0
 62 71  1  0
 71 72  2  0
 72 73  1  0
 73 74  2  0
 74 75  1  0
 75 76  1  0
 74 77  1  0
 77 78  2  0
 61 79  1  0
 79 80  1  0
 80 81  1  0
 81 82  2  0
 82 83  1  0
 83 84  1  0
 84 85  2  0
 85 86  1  0
 86 87  2  0
 87 88  1  0
 88 89  1  0
 87 90  1  0
 90 91  2  0
 83 92  1  0
 92 93  2  0
 93 94  1  0
 94 95  2  0
 95 96  1  0
 96 97  1  0
 95 98  1  0
 98 99  2  0
 82100  1  0
100101  1  0
 81102  1  0
102103  2  0
103104  1  0
104105  1  0
105106  2  0
105107  1  0
107108  1  0
108109  1  0
104110  2  0
110111  1  0
111112  1  0
112113  1  0
111114  1  0
114115  2  0
110116  1  0
116117  2  3
117118  1  0
118119  2  0
118120  1  0
120121  2  0
121122  1  0
121123  1  0
123124  1  0
123125  2  0
125126  1  0
125127  1  0
127128  1  0
127129  2  0
129130  1  0
130131  2  3
131132  1  0
132133  3  0
131134  1  0
134135  3  0
 16  2  1  0
 59 22  1  0
101 60  1  0
107102  1  0
130117  1  0
 15  5  1  0
 31 25  1  0
 38 32  1  0
 58 39  2  0
 70 63  1  0
 78 71  1  0
100 79  2  0
114103  1  0
129120  1  0
 13  7  1  0
 50 44  1  0
 57 51  1  0
 91 84  1  0
 99 92  1  0
  1136  1  0
  6137  1  0
  8138  1  0
  9139  1  0
 12140  1  0
 14141  1  0
 26142  1  0
 27143  1  0
 29144  1  0
 29145  1  0
 29146  1  0
 30147  1  0
 31148  1  0
 33149  1  0
 34150  1  0
 36151  1  0
 36152  1  0
 36153  1  0
 37154  1  0
 38155  1  0
 45156  1  0
 46157  1  0
 48158  1  0
 48159  1  0
 48160  1  0
 49161  1  0
 50162  1  0
 52163  1  0
 53164  1  0
 55165  1  0
 55166  1  0
 55167  1  0
 56168  1  0
 57169  1  0
 64170  1  0
 65171  1  0
 68172  1  0
 68173  1  0
 68174  1  0
 69175  1  0
 70176  1  0
 72177  1  0
 73178  1  0
 76179  1  0
 76180  1  0
 76181  1  0
 77182  1  0
 78183  1  0
 85184  1  0
 86185  1  0
 89186  1  0
 89187  1  0
 89188  1  0
 90189  1  0
 91190  1  0
 93191  1  0
 94192  1  0
 97193  1  0
 97194  1  0
 97195  1  0
 98196  1  0
 99197  1  0
108198  1  0
108199  1  0
109200  1  0
109201  1  0
109202  1  0
112203  1  0
112204  1  0
113205  1  0
113206  1  0
113207  1  0
116208  1  0
M  END

