
     RDKit          3D

253275  0  0  0  0  0  0  0  0999 V2000
    5.4266    2.1615   -3.7264 C   0  0  0  0  0  0  0  0  0  0  0  0
    5.1396    3.4406   -3.4127 C   0  0  0  0  0  0  0  0  0  0  0  0
    6.1534    4.4962   -3.4179 C   0  0  0  0  0  0  0  0  0  0  0  0
    7.4023    4.3237   -3.3857 O   0  0  0  0  0  0  0  0  0  0  0  0
    5.4821    5.7771   -3.5346 C   0  0  0  0  0  0  0  0  0  0  0  0
    6.0447    7.0490   -3.6468 C   0  0  0  0  0  0  0  0  0  0  0  0
    5.1826    8.1487   -3.8141 C   0  0  0  0  0  0  0  0  0  0  0  0
    5.6961    9.4514   -3.8881 C   0  0  0  0  0  0  0  0  0  0  0  0
    4.8350   10.5375   -4.0601 C   0  0  0  0  0  0  0  0  0  0  0  0
    3.4563   10.3355   -4.1776 C   0  0  0  0  0  0  0  0  0  0  0  0
    2.6307   11.3957   -4.3546 F   0  0  0  0  0  0  0  0  0  0  0  0
    2.9270    9.0422   -4.1155 C   0  0  0  0  0  0  0  0  0  0  0  0
    3.7761    7.9420   -3.9171 C   0  0  0  0  0  0  0  0  0  0  0  0
    3.2449    6.6408   -3.8032 C   0  0  0  0  0  0  0  0  0  0  0  0
    4.1161    5.5708   -3.5605 C   0  0  0  0  0  0  0  0  0  0  0  0
    3.8188    4.1381   -3.3111 C   0  0  0  0  0  0  0  0  0  0  0  0
    2.7235    3.6878   -2.6463 C   0  0  0  0  0  0  0  0  0  0  0  0
    2.6826    2.4017   -2.0019 C   0  0  0  0  0  0  0  0  0  0  0  0
    2.6225    1.3796   -1.4683 N   0  0  0  0  0  0  0  0  0  0  0  0
    1.6014    4.5381   -2.3484 C   0  0  0  0  0  0  0  0  0  0  0  0
    0.6855    5.2140   -2.1170 N   0  0  0  0  0  0  0  0  0  0  0  0
    4.4332    1.1634   -4.1681 C   0  0  0  0  0  0  0  0  0  0  0  0
    4.2596   -0.1469   -3.6544 C   0  0  0  0  0  0  0  0  0  0  0  0
    5.1636   -0.8160   -2.7343 N   0  0  0  0  0  0  0  0  0  0  0  0
    4.7545   -1.9638   -1.9722 C   0  0  0  0  0  0  0  0  0  0  0  0
    3.8944   -1.8199   -0.8737 C   0  0  0  0  0  0  0  0  0  0  0  0
    3.5435   -2.9316   -0.1039 C   0  0  0  0  0  0  0  0  0  0  0  0
    4.0794   -4.1966   -0.3984 C   0  0  0  0  0  0  0  0  0  0  0  0
    3.7864   -5.3749    0.4784 C   0  0  0  0  0  0  0  0  0  0  0  0
    4.9511   -4.3376   -1.4881 C   0  0  0  0  0  0  0  0  0  0  0  0
    5.2796   -3.2299   -2.2742 C   0  0  0  0  0  0  0  0  0  0  0  0
    6.5730   -0.5311   -2.7458 C   0  0  0  0  0  0  0  0  0  0  0  0
    7.2224   -0.1848   -1.5536 C   0  0  0  0  0  0  0  0  0  0  0  0
    8.5961    0.0611   -1.5469 C   0  0  0  0  0  0  0  0  0  0  0  0
    9.3429   -0.0587   -2.7285 C   0  0  0  0  0  0  0  0  0  0  0  0
   10.8118    0.2451   -2.7200 C   0  0  0  0  0  0  0  0  0  0  0  0
    8.6915   -0.4010   -3.9248 C   0  0  0  0  0  0  0  0  0  0  0  0
    7.3155   -0.6502   -3.9301 C   0  0  0  0  0  0  0  0  0  0  0  0
    3.0316   -0.6704   -4.0991 C   0  0  0  0  0  0  0  0  0  0  0  0
    2.0228   -1.8848   -3.5411 S   0  0  0  0  0  0  0  0  0  0  0  0
    0.6315   -1.3744   -4.3842 C   0  0  0  0  0  0  0  0  0  0  0  0
    0.9873   -0.2607   -5.1652 C   0  0  0  0  0  0  0  0  0  0  0  0
    0.0943    0.3834   -6.0944 N   0  0  0  0  0  0  0  0  0  0  0  0
   -0.7071   -0.4262   -6.9761 C   0  0  0  0  0  0  0  0  0  0  0  0
   -0.1859   -1.6157   -7.5224 C   0  0  0  0  0  0  0  0  0  0  0  0
   -0.9736   -2.4208   -8.3508 C   0  0  0  0  0  0  0  0  0  0  0  0
   -2.2929   -2.0500   -8.6472 C   0  0  0  0  0  0  0  0  0  0  0  0
   -3.1618   -2.9410   -9.4868 C   0  0  0  0  0  0  0  0  0  0  0  0
   -2.8180   -0.8690   -8.1014 C   0  0  0  0  0  0  0  0  0  0  0  0
   -2.0265   -0.0576   -7.2792 C   0  0  0  0  0  0  0  0  0  0  0  0
    0.1443    1.8102   -6.2818 C   0  0  0  0  0  0  0  0  0  0  0  0
    0.5706    2.3478   -7.5080 C   0  0  0  0  0  0  0  0  0  0  0  0
    0.7129    3.7320   -7.6584 C   0  0  0  0  0  0  0  0  0  0  0  0
    0.3998    4.5954   -6.5966 C   0  0  0  0  0  0  0  0  0  0  0  0
    0.6263    6.0712   -6.7221 C   0  0  0  0  0  0  0  0  0  0  0  0
   -0.0402    4.0558   -5.3790 C   0  0  0  0  0  0  0  0  0  0  0  0
   -0.1557    2.6729   -5.2180 C   0  0  0  0  0  0  0  0  0  0  0  0
    2.3198    0.1171   -4.9498 C   0  0  0  0  0  0  0  0  0  0  0  0
    3.1489    1.5413   -5.2227 S   0  0  0  0  0  0  0  0  0  0  0  0
   -0.7115   -1.5695   -3.7921 C   0  0  0  0  0  0  0  0  0  0  0  0
   -0.9474   -2.5581   -2.8192 C   0  0  0  0  0  0  0  0  0  0  0  0
   -0.5870   -3.9456   -3.0052 N   0  0  0  0  0  0  0  0  0  0  0  0
   -0.6304   -4.4822   -4.3417 C   0  0  0  0  0  0  0  0  0  0  0  0
   -1.7748   -4.2883   -5.1389 C   0  0  0  0  0  0  0  0  0  0  0  0
   -1.9084   -4.9570   -6.3553 C   0  0  0  0  0  0  0  0  0  0  0  0
   -0.8991   -5.8201   -6.7949 C   0  0  0  0  0  0  0  0  0  0  0  0
   -1.1334   -6.7602   -8.3013 S   0  0  0  0  0  0  0  0  0  0  0  0
   -1.9244   -8.1604   -7.4439 C   0  0  0  0  0  0  0  0  0  0  0  0
    0.2666   -5.9785   -6.0318 C   0  0  0  0  0  0  0  0  0  0  0  0
    0.3971   -5.3164   -4.8054 C   0  0  0  0  0  0  0  0  0  0  0  0
   -0.7723   -4.8967   -1.9393 C   0  0  0  0  0  0  0  0  0  0  0  0
    0.1412   -4.9704   -0.8760 C   0  0  0  0  0  0  0  0  0  0  0  0
   -0.0380   -5.9224    0.1388 C   0  0  0  0  0  0  0  0  0  0  0  0
   -1.1244   -6.8079    0.0882 C   0  0  0  0  0  0  0  0  0  0  0  0
   -1.3052   -8.1086    1.3119 S   0  0  0  0  0  0  0  0  0  0  0  0
   -2.5574   -7.2452    2.3182 C   0  0  0  0  0  0  0  0  0  0  0  0
   -2.0423   -6.7254   -0.9642 C   0  0  0  0  0  0  0  0  0  0  0  0
   -1.8717   -5.7713   -1.9665 C   0  0  0  0  0  0  0  0  0  0  0  0
   -1.7994   -2.0927   -1.8135 C   0  0  0  0  0  0  0  0  0  0  0  0
   -1.8473   -2.4165   -0.1706 S   0  0  0  0  0  0  0  0  0  0  0  0
   -2.6374   -0.9661    0.2521 C   0  0  0  0  0  0  0  0  0  0  0  0
   -2.8863   -0.2233   -0.9139 C   0  0  0  0  0  0  0  0  0  0  0  0
   -4.0491    0.6137   -1.0336 N   0  0  0  0  0  0  0  0  0  0  0  0
   -5.3043   -0.0724   -1.1836 C   0  0  0  0  0  0  0  0  0  0  0  0
   -5.8397   -0.2817   -2.4639 C   0  0  0  0  0  0  0  0  0  0  0  0
   -6.9977   -1.0545   -2.6189 C   0  0  0  0  0  0  0  0  0  0  0  0
   -7.6131   -1.6280   -1.5019 C   0  0  0  0  0  0  0  0  0  0  0  0
   -9.0812   -2.6408   -1.6938 S   0  0  0  0  0  0  0  0  0  0  0  0
  -10.2200   -1.2451   -1.4397 C   0  0  0  0  0  0  0  0  0  0  0  0
   -7.0784   -1.4193   -0.2238 C   0  0  0  0  0  0  0  0  0  0  0  0
   -5.9303   -0.6416   -0.0655 C   0  0  0  0  0  0  0  0  0  0  0  0
   -3.9941    2.0507   -0.9221 C   0  0  0  0  0  0  0  0  0  0  0  0
   -5.0963    2.7663   -0.4118 C   0  0  0  0  0  0  0  0  0  0  0  0
   -5.0430    4.1557   -0.2842 C   0  0  0  0  0  0  0  0  0  0  0  0
   -3.9031    4.8545   -0.6906 C   0  0  0  0  0  0  0  0  0  0  0  0
   -3.8559    6.6430   -0.5606 S   0  0  0  0  0  0  0  0  0  0  0  0
   -4.6679    6.9093   -2.1656 C   0  0  0  0  0  0  0  0  0  0  0  0
   -2.8019    4.1561   -1.1901 C   0  0  0  0  0  0  0  0  0  0  0  0
   -2.8399    2.7623   -1.3020 C   0  0  0  0  0  0  0  0  0  0  0  0
   -2.3602   -0.8702   -2.0323 C   0  0  0  0  0  0  0  0  0  0  0  0
   -1.7129   -0.2352   -3.4333 S   0  0  0  0  0  0  0  0  0  0  0  0
   -2.7830   -0.4489    1.6296 C   0  0  0  0  0  0  0  0  0  0  0  0
   -2.5952   -1.1672    2.8279 C   0  0  0  0  0  0  0  0  0  0  0  0
   -2.0863   -2.5043    2.9051 N   0  0  0  0  0  0  0  0  0  0  0  0
   -3.0505   -3.4928    3.3155 C   0  0  0  0  0  0  0  0  0  0  0  0
   -2.9702   -4.0772    4.5921 C   0  0  0  0  0  0  0  0  0  0  0  0
   -3.9980   -4.9027    5.0550 C   0  0  0  0  0  0  0  0  0  0  0  0
   -5.1214   -5.1526    4.2520 C   0  0  0  0  0  0  0  0  0  0  0  0
   -6.2670   -5.9569    4.7925 C   0  0  0  0  0  0  0  0  0  0  0  0
   -5.2066   -4.5640    2.9824 C   0  0  0  0  0  0  0  0  0  0  0  0
   -4.1754   -3.7434    2.5166 C   0  0  0  0  0  0  0  0  0  0  0  0
   -0.6508   -2.7292    3.0135 C   0  0  0  0  0  0  0  0  0  0  0  0
    0.2630   -1.6476    2.9965 C   0  0  0  0  0  0  0  0  0  0  0  0
    1.6280   -1.8567    3.2160 C   0  0  0  0  0  0  0  0  0  0  0  0
    2.1194   -3.1484    3.4348 C   0  0  0  0  0  0  0  0  0  0  0  0
    3.5839   -3.3557    3.6999 C   0  0  0  0  0  0  0  0  0  0  0  0
    1.2423   -4.2373    3.3604 C   0  0  0  0  0  0  0  0  0  0  0  0
   -0.1250   -4.0273    3.1438 C   0  0  0  0  0  0  0  0  0  0  0  0
   -2.5885   -0.3243    3.9347 C   0  0  0  0  0  0  0  0  0  0  0  0
   -2.0219   -0.5603    5.4911 S   0  0  0  0  0  0  0  0  0  0  0  0
   -1.8297    1.1032    5.8082 C   0  0  0  0  0  0  0  0  0  0  0  0
   -2.2343    1.8466    4.6878 C   0  0  0  0  0  0  0  0  0  0  0  0
   -1.8804    3.2212    4.4780 N   0  0  0  0  0  0  0  0  0  0  0  0
   -0.4893    3.5870    4.3461 C   0  0  0  0  0  0  0  0  0  0  0  0
   -0.0329    4.8317    4.8111 C   0  0  0  0  0  0  0  0  0  0  0  0
    1.3011    5.2099    4.6401 C   0  0  0  0  0  0  0  0  0  0  0  0
    2.1994    4.3543    3.9834 C   0  0  0  0  0  0  0  0  0  0  0  0
    3.6279    4.7737    3.7897 C   0  0  0  0  0  0  0  0  0  0  0  0
    1.7601    3.0970    3.5484 C   0  0  0  0  0  0  0  0  0  0  0  0
    0.4272    2.7164    3.7285 C   0  0  0  0  0  0  0  0  0  0  0  0
   -2.9242    4.1905    4.2709 C   0  0  0  0  0  0  0  0  0  0  0  0
   -2.8296    5.1294    3.2299 C   0  0  0  0  0  0  0  0  0  0  0  0
   -3.8149    6.1055    3.0662 C   0  0  0  0  0  0  0  0  0  0  0  0
   -4.9185    6.1516    3.9319 C   0  0  0  0  0  0  0  0  0  0  0  0
   -5.9984    7.1761    3.7388 C   0  0  0  0  0  0  0  0  0  0  0  0
   -5.0318    5.1983    4.9528 C   0  0  0  0  0  0  0  0  0  0  0  0
   -4.0401    4.2264    5.1256 C   0  0  0  0  0  0  0  0  0  0  0  0
   -2.6646    1.0042    3.6623 C   0  0  0  0  0  0  0  0  0  0  0  0
   -2.8250    1.2168    2.0077 S   0  0  0  0  0  0  0  0  0  0  0  0
   -1.3467    1.6495    7.0872 C   0  0  0  0  0  0  0  0  0  0  0  0
   -0.3259    1.0902    7.7707 C   0  0  0  0  0  0  0  0  0  0  0  0
    0.7253    0.2610    7.1672 C   0  0  0  0  0  0  0  0  0  0  0  0
    0.9154    0.0797    5.9342 O   0  0  0  0  0  0  0  0  0  0  0  0
    1.6215   -0.1688    8.2091 C   0  0  0  0  0  0  0  0  0  0  0  0
    2.7386   -0.9931    8.0760 C   0  0  0  0  0  0  0  0  0  0  0  0
    3.4771   -1.3208    9.2260 C   0  0  0  0  0  0  0  0  0  0  0  0
    4.6627   -2.2389    9.1023 C   0  0  0  0  0  0  0  0  0  0  0  0
    3.0781   -0.8079   10.4792 C   0  0  0  0  0  0  0  0  0  0  0  0
    3.7630   -1.1352   11.6087 F   0  0  0  0  0  0  0  0  0  0  0  0
    1.9682    0.0488   10.5810 C   0  0  0  0  0  0  0  0  0  0  0  0
    1.2287    0.3644    9.4233 C   0  0  0  0  0  0  0  0  0  0  0  0
   -0.0075    1.1862    9.2363 C   0  0  0  0  0  0  0  0  0  0  0  0
   -0.7965    1.7097   10.2194 C   0  0  0  0  0  0  0  0  0  0  0  0
   -0.5283    1.5229   11.6201 C   0  0  0  0  0  0  0  0  0  0  0  0
   -0.3464    1.3588   12.7542 N   0  0  0  0  0  0  0  0  0  0  0  0
   -2.0143    2.4269    9.9588 C   0  0  0  0  0  0  0  0  0  0  0  0
   -2.9991    3.0074    9.7744 N   0  0  0  0  0  0  0  0  0  0  0  0
    6.4676    1.8828   -3.7796 H   0  0  0  0  0  0  0  0  0  0  0  0
    7.1190    7.1756   -3.6049 H   0  0  0  0  0  0  0  0  0  0  0  0
    6.7613    9.6306   -3.7988 H   0  0  0  0  0  0  0  0  0  0  0  0
    5.2382   11.5415   -4.1037 H   0  0  0  0  0  0  0  0  0  0  0  0
    1.8556    8.9027   -4.2042 H   0  0  0  0  0  0  0  0  0  0  0  0
    2.1828    6.4811   -3.9218 H   0  0  0  0  0  0  0  0  0  0  0  0
    3.5049   -0.8505   -0.6092 H   0  0  0  0  0  0  0  0  0  0  0  0
    2.8614   -2.8029    0.7224 H   0  0  0  0  0  0  0  0  0  0  0  0
    3.4641   -6.2366   -0.1413 H   0  0  0  0  0  0  0  0  0  0  0  0
    2.9847   -5.1481    1.2087 H   0  0  0  0  0  0  0  0  0  0  0  0
    4.7053   -5.6549    1.0384 H   0  0  0  0  0  0  0  0  0  0  0  0
    5.3789   -5.3041   -1.7240 H   0  0  0  0  0  0  0  0  0  0  0  0
    5.9548   -3.3530   -3.1117 H   0  0  0  0  0  0  0  0  0  0  0  0
    6.6583   -0.0994   -0.6320 H   0  0  0  0  0  0  0  0  0  0  0  0
    9.0830    0.3389   -0.6182 H   0  0  0  0  0  0  0  0  0  0  0  0
   11.2848   -0.1857   -1.8126 H   0  0  0  0  0  0  0  0  0  0  0  0
   10.9621    1.3455   -2.7211 H   0  0  0  0  0  0  0  0  0  0  0  0
   11.3141   -0.1880   -3.6100 H   0  0  0  0  0  0  0  0  0  0  0  0
    9.2484   -0.4804   -4.8503 H   0  0  0  0  0  0  0  0  0  0  0  0
    6.8247   -0.9314   -4.8550 H   0  0  0  0  0  0  0  0  0  0  0  0
    0.8322   -1.9187   -7.3154 H   0  0  0  0  0  0  0  0  0  0  0  0
   -0.5566   -3.3369   -8.7506 H   0  0  0  0  0  0  0  0  0  0  0  0
   -2.5462   -3.6231  -10.1116 H   0  0  0  0  0  0  0  0  0  0  0  0
   -3.7968   -2.3295  -10.1631 H   0  0  0  0  0  0  0  0  0  0  0  0
   -3.8206   -3.5442   -8.8230 H   0  0  0  0  0  0  0  0  0  0  0  0
   -3.8399   -0.5806   -8.3074 H   0  0  0  0  0  0  0  0  0  0  0  0
   -2.4518    0.8452   -6.8611 H   0  0  0  0  0  0  0  0  0  0  0  0
    0.8324    1.6917   -8.3308 H   0  0  0  0  0  0  0  0  0  0  0  0
    1.0798    4.1273   -8.5983 H   0  0  0  0  0  0  0  0  0  0  0  0
    0.5315    6.3990   -7.7776 H   0  0  0  0  0  0  0  0  0  0  0  0
    1.6445    6.3205   -6.3613 H   0  0  0  0  0  0  0  0  0  0  0  0
   -0.1168    6.6349   -6.1165 H   0  0  0  0  0  0  0  0  0  0  0  0
   -0.2839    4.7051   -4.5508 H   0  0  0  0  0  0  0  0  0  0  0  0
   -0.4658    2.2720   -4.2629 H   0  0  0  0  0  0  0  0  0  0  0  0
   -2.5901   -3.6738   -4.7843 H   0  0  0  0  0  0  0  0  0  0  0  0
   -2.8202   -4.8465   -6.9273 H   0  0  0  0  0  0  0  0  0  0  0  0
   -2.7513   -7.8022   -6.7954 H   0  0  0  0  0  0  0  0  0  0  0  0
   -2.3449   -8.8658   -8.1880 H   0  0  0  0  0  0  0  0  0  0  0  0
   -1.1702   -8.6905   -6.8289 H   0  0  0  0  0  0  0  0  0  0  0  0
    1.0486   -6.6447   -6.3676 H   0  0  0  0  0  0  0  0  0  0  0  0
    1.2785   -5.4739   -4.2022 H   0  0  0  0  0  0  0  0  0  0  0  0
    0.9926   -4.3047   -0.8452 H   0  0  0  0  0  0  0  0  0  0  0  0
    0.6756   -5.9908    0.9491 H   0  0  0  0  0  0  0  0  0  0  0  0
   -2.0605   -6.6901    3.1324 H   0  0  0  0  0  0  0  0  0  0  0  0
   -3.2220   -8.0012    2.7845 H   0  0  0  0  0  0  0  0  0  0  0  0
   -3.1739   -6.5512    1.7107 H   0  0  0  0  0  0  0  0  0  0  0  0
   -2.8793   -7.4079   -1.0125 H   0  0  0  0  0  0  0  0  0  0  0  0
   -2.5888   -5.7260   -2.7731 H   0  0  0  0  0  0  0  0  0  0  0  0
   -5.3504    0.1368   -3.3329 H   0  0  0  0  0  0  0  0  0  0  0  0
   -7.4034   -1.2194   -3.6090 H   0  0  0  0  0  0  0  0  0  0  0  0
   -9.9032   -0.6328   -0.5703 H   0  0  0  0  0  0  0  0  0  0  0  0
  -10.2485   -0.6155   -2.3514 H   0  0  0  0  0  0  0  0  0  0  0  0
  -11.2360   -1.6386   -1.2373 H   0  0  0  0  0  0  0  0  0  0  0  0
   -7.5470   -1.8655    0.6423 H   0  0  0  0  0  0  0  0  0  0  0  0
   -5.5275   -0.4849    0.9276 H   0  0  0  0  0  0  0  0  0  0  0  0
   -5.9921    2.2506   -0.0865 H   0  0  0  0  0  0  0  0  0  0  0  0
   -5.8934    4.6911    0.1216 H   0  0  0  0  0  0  0  0  0  0  0  0
   -4.0247    6.5245   -2.9850 H   0  0  0  0  0  0  0  0  0  0  0  0
   -5.6532    6.4004   -2.1927 H   0  0  0  0  0  0  0  0  0  0  0  0
   -4.8230    7.9983   -2.3064 H   0  0  0  0  0  0  0  0  0  0  0  0
   -1.9149    4.6924   -1.4929 H   0  0  0  0  0  0  0  0  0  0  0  0
   -1.9745    2.2418   -1.6886 H   0  0  0  0  0  0  0  0  0  0  0  0
   -2.1343   -3.8544    5.2421 H   0  0  0  0  0  0  0  0  0  0  0  0
   -3.9307   -5.3254    6.0504 H   0  0  0  0  0  0  0  0  0  0  0  0
   -6.9528   -5.2884    5.3554 H   0  0  0  0  0  0  0  0  0  0  0  0
   -5.9019   -6.7536    5.4767 H   0  0  0  0  0  0  0  0  0  0  0  0
   -6.8394   -6.4412    3.9709 H   0  0  0  0  0  0  0  0  0  0  0  0
   -6.0772   -4.7246    2.3603 H   0  0  0  0  0  0  0  0  0  0  0  0
   -4.2729   -3.2698    1.5480 H   0  0  0  0  0  0  0  0  0  0  0  0
   -0.0711   -0.6357    2.8351 H   0  0  0  0  0  0  0  0  0  0  0  0
    2.3010   -1.0075    3.2223 H   0  0  0  0  0  0  0  0  0  0  0  0
    3.9247   -2.6554    4.4900 H   0  0  0  0  0  0  0  0  0  0  0  0
    4.1679   -3.1658    2.7765 H   0  0  0  0  0  0  0  0  0  0  0  0
    3.7881   -4.3943    4.0372 H   0  0  0  0  0  0  0  0  0  0  0  0
    1.6100   -5.2481    3.4757 H   0  0  0  0  0  0  0  0  0  0  0  0
   -0.7709   -4.8881    3.0933 H   0  0  0  0  0  0  0  0  0  0  0  0
   -0.7112    5.5094    5.3131 H   0  0  0  0  0  0  0  0  0  0  0  0
    1.6337    6.1741    5.0065 H   0  0  0  0  0  0  0  0  0  0  0  0
    4.1828    4.6393    4.7426 H   0  0  0  0  0  0  0  0  0  0  0  0
    3.6732    5.8441    3.4908 H   0  0  0  0  0  0  0  0  0  0  0  0
    4.1167    4.1729    2.9947 H   0  0  0  0  0  0  0  0  0  0  0  0
    2.4432    2.4131    3.0522 H   0  0  0  0  0  0  0  0  0  0  0  0
    0.1098    1.7532    3.3535 H   0  0  0  0  0  0  0  0  0  0  0  0
   -1.9899    5.1071    2.5457 H   0  0  0  0  0  0  0  0  0  0  0  0
   -3.7131    6.8358    2.2750 H   0  0  0  0  0  0  0  0  0  0  0  0
   -5.6593    7.9963    3.0677 H   0  0  0  0  0  0  0  0  0  0  0  0
   -6.2797    7.6186    4.7169 H   0  0  0  0  0  0  0  0  0  0  0  0
   -6.8866    6.6890    3.2877 H   0  0  0  0  0  0  0  0  0  0  0  0
   -5.8809    5.2197    5.6259 H   0  0  0  0  0  0  0  0  0  0  0  0
   -4.1292    3.5174    5.9397 H   0  0  0  0  0  0  0  0  0  0  0  0
   -1.9169    2.4715    7.4899 H   0  0  0  0  0  0  0  0  0  0  0  0
    3.0161   -1.3837    7.1040 H   0  0  0  0  0  0  0  0  0  0  0  0
    4.3140   -3.2656    8.8556 H   0  0  0  0  0  0  0  0  0  0  0  0
    5.2497   -2.2757   10.0430 H   0  0  0  0  0  0  0  0  0  0  0  0
    5.3360   -1.8762    8.2943 H   0  0  0  0  0  0  0  0  0  0  0  0
    1.7290    0.4448   11.5527 H   0  0  0  0  0  0  0  0  0  0  0  0
  1  2  2  3
  2  3  1  0
  3  4  2  0
  3  5  1  0
  5  6  2  0
  6  7  1  0
  7  8  2  0
  8  9  1  0
  9 10  2  0
 10 11  1  0
 10 12  1  0
 12 13  2  0
 13 14  1  0
 14 15  2  0
 15 16  1  0
 16 17  2  3
 17 18  1  0
 18 19  3  0
 17 20  1  0
 20 21  3  0
  1 22  1  0
 22 23  2  0
 23 24  1  0
 24 25  1  0
 25 26  2  0
 26 27  1  0
 27 28  2  0
 28 29  1  0
 28 30  1  0
 30 31  2  0
 24 32  1  0
 32 33  2  0
 33 34  1  0
 34 35  2  0
 35 36  1  0
 35 37  1  0
 37 38  2  0
 23 39  1  0
 39 40  1  0
 40 41  1  0
 41 42  2  0
 42 43  1  0
 43 44  1  0
 44 45  2  0
 45 46  1  0
 46 47  2  0
 47 48  1  0
 47 49  1  0
 49 50  2  0
 43 51  1  0
 51 52  2  0
 52 53  1  0
 53 54  2  0
 54 55  1  0
 54 56  1  0
 56 57  2  0
 42 58  1  0
 58 59  1  0
 41 60  1  0
 60 61  2  0
 61 62  1  0
 62 63  1  0
 63 64  2  0
 64 65  1  0
 65 66  2  0
 66 67  1  0
 67 68  1  0
 66 69  1  0
 69 70  2  0
 62 71  1  0
 71 72  2  0
 72 73  1  0
 73 74  2  0
 74 75  1  0
 75 76  1  0
 74 77  1  0
 77 78  2  0
 61 79  1  0
 79 80  1  0
 80 81  1  0
 81 82  2  0
 82 83  1  0
 83 84  1  0
 84 85  2  0
 85 86  1  0
 86 87  2  0
 87 88  1  0
 88 89  1  0
 87 90  1  0
 90 91  2  0
 83 92  1  0
 92 93  2  0
 93 94  1  0
 94 95  2  0
 95 96  1  0
 96 97  1  0
 95 98  1  0
 98 99  2  0
 82100  1  0
100101  1  0
 81102  1  0
102103  2  0
103104  1  0
104105  1  0
105106  2  0
106107  1  0
107108  2  0
108109  1  0
108110  1  0
110111  2  0
104112  1  0
112113  2  0
113114  1  0
114115  2  0
115116  1  0
115117  1  0
117118  2  0
103119  1  0
119120  1  0
120121  1  0
121122  2  0
122123  1  0
123124  1  0
124125  2  0
125126  1  0
126127  2  0
127128  1  0
127129  1  0
129130  2  0
123131  1  0
131132  2  0
132133  1  0
133134  2  0
134135  1  0
134136  1  0
136137  2  0
122138  1  0
138139  1  0
121140  1  0
140141  2  3
141142  1  0
142143  2  0
142144  1  0
144145  2  0
145146  1  0
146147  1  0
146148  2  0
148149  1  0
148150  1  0
150151  2  0
151152  1  0
152153  2  3
153154  1  0
154155  3  0
153156  1  0
156157  3  0
 16  2  1  0
 59 22  1  0
101 60  1  0
139102  1  0
152141  1  0
 15  5  1  0
 31 25  1  0
 38 32  1  0
 58 39  2  0
 70 63  1  0
 78 71  1  0
100 79  2  0
111105  1  0
118112  1  0
138119  2  0
151144  1  0
 13  7  1  0
 50 44  1  0
 57 51  1  0
 91 84  1  0
 99 92  1  0
130124  1  0
137131  1  0
  1158  1  0
  6159  1  0
  8160  1  0
  9161  1  0
 12162  1  0
 14163  1  0
 26164  1  0
 27165  1  0
 29166  1  0
 29167  1  0
 29168  1  0
 30169  1  0
 31170  1  0
 33171  1  0
 34172  1  0
 36173  1  0
 36174  1  0
 36175  1  0
 37176  1  0
 38177  1  0
 45178  1  0
 46179  1  0
 48180  1  0
 48181  1  0
 48182  1  0
 49183  1  0
 50184  1  0
 52185  1  0
 53186  1  0
 55187  1  0
 55188  1  0
 55189  1  0
 56190  1  0
 57191  1  0
 64192  1  0
 65193  1  0
 68194  1  0
 68195  1  0
 68196  1  0
 69197  1  0
 70198  1  0
 72199  1  0
 73200  1  0
 76201  1  0
 76202  1  0
 76203  1  0
 77204  1  0
 78205  1  0
 85206  1  0
 86207  1  0
 89208  1  0
 89209  1  0
 89210  1  0
 90211  1  0
 91212  1  0
 93213  1  0
 94214  1  0
 97215  1  0
 97216  1  0
 97217  1  0
 98218  1  0
 99219  1  0
106220  1  0
107221  1  0
109222  1  0
109223  1  0
109224  1  0
110225  1  0
111226  1  0
113227  1  0
114228  1  0
116229  1  0
116230  1  0
116231  1  0
117232  1  0
118233  1  0
125234  1  0
126235  1  0
128236  1  0
128237  1  0
128238  1  0
129239  1  0
130240  1  0
132241  1  0
133242  1  0
135243  1  0
135244  1  0
135245  1  0
136246  1  0
137247  1  0
140248  1  0
145249  1  0
147250  1  0
147251  1  0
147252  1  0
150253  1  0
M  END

