
     RDKit          3D

250272  0  0  0  0  0  0  0  0999 V2000
    6.6238   -3.1871   -5.6517 C   0  0  0  0  0  0  0  0  0  0  0  0
    6.6910   -2.6900   -6.8924 C   0  0  0  0  0  0  0  0  0  0  0  0
    7.8703   -3.1766   -7.6712 C   0  0  0  0  0  0  0  0  0  0  0  0
    9.0643   -2.8076   -7.4975 O   0  0  0  0  0  0  0  0  0  0  0  0
    7.4487   -4.2673   -8.5180 C   0  0  0  0  0  0  0  0  0  0  0  0
    8.2244   -5.3574   -8.9514 C   0  0  0  0  0  0  0  0  0  0  0  0
    7.5764   -6.5921   -9.1413 C   0  0  0  0  0  0  0  0  0  0  0  0
    8.3077   -7.7292   -9.5650 C   0  0  0  0  0  0  0  0  0  0  0  0
    7.7069   -8.9824   -9.5090 C   0  0  0  0  0  0  0  0  0  0  0  0
    6.3565   -9.1268   -9.1880 C   0  0  0  0  0  0  0  0  0  0  0  0
    5.8207  -10.3537   -9.0253 F   0  0  0  0  0  0  0  0  0  0  0  0
    5.5935   -7.9917   -8.8586 C   0  0  0  0  0  0  0  0  0  0  0  0
    6.1896   -6.7343   -8.8780 C   0  0  0  0  0  0  0  0  0  0  0  0
    5.4455   -5.6012   -8.4865 C   0  0  0  0  0  0  0  0  0  0  0  0
    6.0796   -4.3709   -8.4403 C   0  0  0  0  0  0  0  0  0  0  0  0
    5.5853   -3.1647   -7.7398 C   0  0  0  0  0  0  0  0  0  0  0  0
    4.4505   -2.5180   -8.0614 C   0  0  0  0  0  0  0  0  0  0  0  0
    3.3676   -3.2694   -8.6963 C   0  0  0  0  0  0  0  0  0  0  0  0
    2.5037   -3.8920   -9.1523 N   0  0  0  0  0  0  0  0  0  0  0  0
    4.1789   -1.1576   -7.7176 C   0  0  0  0  0  0  0  0  0  0  0  0
    3.8956   -0.0437   -7.5109 N   0  0  0  0  0  0  0  0  0  0  0  0
    5.5490   -2.8485   -4.6983 C   0  0  0  0  0  0  0  0  0  0  0  0
    5.0974   -1.5992   -4.2051 C   0  0  0  0  0  0  0  0  0  0  0  0
    5.6870   -0.3138   -4.5080 N   0  0  0  0  0  0  0  0  0  0  0  0
    5.1109    0.9115   -4.0451 C   0  0  0  0  0  0  0  0  0  0  0  0
    3.8297    1.3101   -4.4722 C   0  0  0  0  0  0  0  0  0  0  0  0
    3.2983    2.5361   -4.0671 C   0  0  0  0  0  0  0  0  0  0  0  0
    4.0518    3.3939   -3.2425 C   0  0  0  0  0  0  0  0  0  0  0  0
    3.5418    4.7514   -2.9044 C   0  0  0  0  0  0  0  0  0  0  0  0
    5.3439    3.0048   -2.8328 C   0  0  0  0  0  0  0  0  0  0  0  0
    5.8505    1.7660   -3.2141 C   0  0  0  0  0  0  0  0  0  0  0  0
    6.9715   -0.1698   -5.1536 C   0  0  0  0  0  0  0  0  0  0  0  0
    7.0897    0.6896   -6.2508 C   0  0  0  0  0  0  0  0  0  0  0  0
    8.3283    0.8887   -6.8541 C   0  0  0  0  0  0  0  0  0  0  0  0
    9.4677    0.2272   -6.3692 C   0  0  0  0  0  0  0  0  0  0  0  0
   10.8024    0.4818   -7.0177 C   0  0  0  0  0  0  0  0  0  0  0  0
    9.3520   -0.6305   -5.2600 C   0  0  0  0  0  0  0  0  0  0  0  0
    8.1113   -0.7828   -4.6264 C   0  0  0  0  0  0  0  0  0  0  0  0
    4.0246   -1.7998   -3.3036 C   0  0  0  0  0  0  0  0  0  0  0  0
    2.9916   -0.8312   -2.4213 S   0  0  0  0  0  0  0  0  0  0  0  0
    2.0681   -2.0611   -1.6966 C   0  0  0  0  0  0  0  0  0  0  0  0
    2.6476   -3.2769   -2.1105 C   0  0  0  0  0  0  0  0  0  0  0  0
    2.3450   -4.5837   -1.5874 N   0  0  0  0  0  0  0  0  0  0  0  0
    3.4631   -5.3531   -1.0445 C   0  0  0  0  0  0  0  0  0  0  0  0
    3.6299   -6.7183   -1.3559 C   0  0  0  0  0  0  0  0  0  0  0  0
    4.7329   -7.4320   -0.8788 C   0  0  0  0  0  0  0  0  0  0  0  0
    5.6933   -6.7866   -0.0842 C   0  0  0  0  0  0  0  0  0  0  0  0
    6.9015   -7.5433    0.4055 C   0  0  0  0  0  0  0  0  0  0  0  0
    5.5629   -5.4222    0.1955 C   0  0  0  0  0  0  0  0  0  0  0  0
    4.4608   -4.7122   -0.2896 C   0  0  0  0  0  0  0  0  0  0  0  0
    1.1117   -5.2456   -1.9554 C   0  0  0  0  0  0  0  0  0  0  0  0
    0.5241   -5.0223   -3.2183 C   0  0  0  0  0  0  0  0  0  0  0  0
   -0.6378   -5.7024   -3.5778 C   0  0  0  0  0  0  0  0  0  0  0  0
   -1.2322   -6.6088   -2.6865 C   0  0  0  0  0  0  0  0  0  0  0  0
   -2.4915   -7.3103   -3.0985 C   0  0  0  0  0  0  0  0  0  0  0  0
   -0.6483   -6.8389   -1.4335 C   0  0  0  0  0  0  0  0  0  0  0  0
    0.5235   -6.1658   -1.0832 C   0  0  0  0  0  0  0  0  0  0  0  0
    3.6917   -3.0694   -3.0316 C   0  0  0  0  0  0  0  0  0  0  0  0
    4.6848   -4.0884   -3.9056 S   0  0  0  0  0  0  0  0  0  0  0  0
    0.7453   -1.7251   -1.0742 C   0  0  0  0  0  0  0  0  0  0  0  0
    0.1855   -2.0841    0.1813 C   0  0  0  0  0  0  0  0  0  0  0  0
    0.5392   -3.2389    0.9609 N   0  0  0  0  0  0  0  0  0  0  0  0
    1.7487   -3.2080    1.7695 C   0  0  0  0  0  0  0  0  0  0  0  0
    2.1648   -2.0058    2.3670 C   0  0  0  0  0  0  0  0  0  0  0  0
    3.2262   -1.9934    3.2737 C   0  0  0  0  0  0  0  0  0  0  0  0
    3.8792   -3.1891    3.6181 C   0  0  0  0  0  0  0  0  0  0  0  0
    5.1223   -3.1696    4.9059 S   0  0  0  0  0  0  0  0  0  0  0  0
    3.9437   -3.4127    6.2788 C   0  0  0  0  0  0  0  0  0  0  0  0
    3.5059   -4.3844    2.9888 C   0  0  0  0  0  0  0  0  0  0  0  0
    2.4573   -4.3840    2.0571 C   0  0  0  0  0  0  0  0  0  0  0  0
   -0.5347   -4.1906    1.2577 C   0  0  0  0  0  0  0  0  0  0  0  0
   -0.5463   -4.9297    2.4588 C   0  0  0  0  0  0  0  0  0  0  0  0
   -1.5974   -5.7979    2.7588 C   0  0  0  0  0  0  0  0  0  0  0  0
   -2.6837   -5.9098    1.8928 C   0  0  0  0  0  0  0  0  0  0  0  0
   -4.0625   -6.9755    2.3174 S   0  0  0  0  0  0  0  0  0  0  0  0
   -4.9045   -5.6807    3.2806 C   0  0  0  0  0  0  0  0  0  0  0  0
   -2.7182   -5.1628    0.7154 C   0  0  0  0  0  0  0  0  0  0  0  0
   -1.6327   -4.3328    0.3874 C   0  0  0  0  0  0  0  0  0  0  0  0
   -0.8016   -1.1653    0.5991 C   0  0  0  0  0  0  0  0  0  0  0  0
   -1.5655   -0.8397    2.0623 S   0  0  0  0  0  0  0  0  0  0  0  0
   -2.2351    0.6640    1.5731 C   0  0  0  0  0  0  0  0  0  0  0  0
   -1.8232    0.9037    0.2538 C   0  0  0  0  0  0  0  0  0  0  0  0
   -1.8311    2.2008   -0.3934 N   0  0  0  0  0  0  0  0  0  0  0  0
   -0.8348    3.1608    0.0121 C   0  0  0  0  0  0  0  0  0  0  0  0
    0.5223    2.9412   -0.2842 C   0  0  0  0  0  0  0  0  0  0  0  0
    1.4850    3.9012    0.0040 C   0  0  0  0  0  0  0  0  0  0  0  0
    1.1006    5.1174    0.6004 C   0  0  0  0  0  0  0  0  0  0  0  0
    2.3437    6.3849    0.8609 S   0  0  0  0  0  0  0  0  0  0  0  0
    3.0516    5.6104    2.3455 C   0  0  0  0  0  0  0  0  0  0  0  0
   -0.2387    5.3327    0.9408 C   0  0  0  0  0  0  0  0  0  0  0  0
   -1.2096    4.3668    0.6194 C   0  0  0  0  0  0  0  0  0  0  0  0
   -2.4915    2.3145   -1.6728 C   0  0  0  0  0  0  0  0  0  0  0  0
   -1.9065    2.9902   -2.7608 C   0  0  0  0  0  0  0  0  0  0  0  0
   -2.5607    3.0623   -3.9966 C   0  0  0  0  0  0  0  0  0  0  0  0
   -3.8250    2.4525   -4.1582 C   0  0  0  0  0  0  0  0  0  0  0  0
   -4.7367    2.6557   -5.6921 S   0  0  0  0  0  0  0  0  0  0  0  0
   -4.0857    1.1876   -6.5476 C   0  0  0  0  0  0  0  0  0  0  0  0
   -4.3928    1.7555   -3.1002 C   0  0  0  0  0  0  0  0  0  0  0  0
   -3.7289    1.6810   -1.8742 C   0  0  0  0  0  0  0  0  0  0  0  0
   -1.0661   -0.1562   -0.2502 C   0  0  0  0  0  0  0  0  0  0  0  0
   -0.1045   -0.3424   -1.5922 S   0  0  0  0  0  0  0  0  0  0  0  0
   -2.9624    1.6091    2.4626 C   0  0  0  0  0  0  0  0  0  0  0  0
   -4.2346    2.1776    2.2793 C   0  0  0  0  0  0  0  0  0  0  0  0
   -5.2141    1.7805    1.2622 N   0  0  0  0  0  0  0  0  0  0  0  0
   -5.8659    2.7703    0.3870 C   0  0  0  0  0  0  0  0  0  0  0  0
   -5.6099    4.1641    0.5287 C   0  0  0  0  0  0  0  0  0  0  0  0
   -6.3646    5.0983   -0.1745 C   0  0  0  0  0  0  0  0  0  0  0  0
   -7.3220    4.6948   -1.1011 C   0  0  0  0  0  0  0  0  0  0  0  0
   -8.1587    5.7367   -1.7755 C   0  0  0  0  0  0  0  0  0  0  0  0
   -7.4864    3.3363   -1.3691 C   0  0  0  0  0  0  0  0  0  0  0  0
   -6.7632    2.3760   -0.6480 C   0  0  0  0  0  0  0  0  0  0  0  0
   -5.8625    0.5082    1.5400 C   0  0  0  0  0  0  0  0  0  0  0  0
   -6.4663    0.2843    2.8028 C   0  0  0  0  0  0  0  0  0  0  0  0
   -7.1815   -0.8921    3.0585 C   0  0  0  0  0  0  0  0  0  0  0  0
   -7.3667   -1.8292    2.0274 C   0  0  0  0  0  0  0  0  0  0  0  0
   -8.2381   -3.0362    2.2304 C   0  0  0  0  0  0  0  0  0  0  0  0
   -6.6930   -1.6616    0.8121 C   0  0  0  0  0  0  0  0  0  0  0  0
   -5.9190   -0.5202    0.5840 C   0  0  0  0  0  0  0  0  0  0  0  0
   -4.5402    3.0544    3.3276 C   0  0  0  0  0  0  0  0  0  0  0  0
   -5.8920    3.9595    3.7171 S   0  0  0  0  0  0  0  0  0  0  0  0
   -5.1206    4.7975    4.9784 C   0  0  0  0  0  0  0  0  0  0  0  0
   -3.8780    4.2125    5.2266 C   0  0  0  0  0  0  0  0  0  0  0  0
   -3.2119    4.2876    6.4934 N   0  0  0  0  0  0  0  0  0  0  0  0
   -3.6436    3.3671    7.5300 C   0  0  0  0  0  0  0  0  0  0  0  0
   -2.7855    2.3403    7.9452 C   0  0  0  0  0  0  0  0  0  0  0  0
   -3.2186    1.3936    8.8659 C   0  0  0  0  0  0  0  0  0  0  0  0
   -4.5185    1.4576    9.3917 C   0  0  0  0  0  0  0  0  0  0  0  0
   -5.0212    0.3874   10.3207 C   0  0  0  0  0  0  0  0  0  0  0  0
   -5.3797    2.4860    8.9837 C   0  0  0  0  0  0  0  0  0  0  0  0
   -4.9427    3.4418    8.0627 C   0  0  0  0  0  0  0  0  0  0  0  0
   -1.9348    4.9591    6.6356 C   0  0  0  0  0  0  0  0  0  0  0  0
   -1.1045    5.1481    5.5179 C   0  0  0  0  0  0  0  0  0  0  0  0
    0.1864    5.6230    5.6692 C   0  0  0  0  0  0  0  0  0  0  0  0
    0.6671    5.9286    6.9494 C   0  0  0  0  0  0  0  0  0  0  0  0
    2.0856    6.3730    7.1288 C   0  0  0  0  0  0  0  0  0  0  0  0
   -0.1836    5.8370    8.0586 C   0  0  0  0  0  0  0  0  0  0  0  0
   -1.4762    5.3527    7.9014 C   0  0  0  0  0  0  0  0  0  0  0  0
   -3.5834    3.2564    4.2456 C   0  0  0  0  0  0  0  0  0  0  0  0
   -2.3012    2.2056    3.9241 S   0  0  0  0  0  0  0  0  0  0  0  0
   -5.7727    5.8898    5.7026 C   0  0  0  0  0  0  0  0  0  0  0  0
   -5.4740    7.2097    5.6269 C   0  0  0  0  0  0  0  0  0  0  0  0
   -4.2605    7.8111    5.0802 C   0  0  0  0  0  0  0  0  0  0  0  0
   -3.2156    7.1713    4.7779 O   0  0  0  0  0  0  0  0  0  0  0  0
   -4.3485    9.2505    5.2280 C   0  0  0  0  0  0  0  0  0  0  0  0
   -3.3462   10.2088    5.0617 C   0  0  0  0  0  0  0  0  0  0  0  0
   -3.6276   11.5530    5.3744 C   0  0  0  0  0  0  0  0  0  0  0  0
   -2.4070   12.7734    5.0755 Cl  0  0  0  0  0  0  0  0  0  0  0  0
   -4.8613   11.8747    5.9681 C   0  0  0  0  0  0  0  0  0  0  0  0
   -5.1364   13.1679    6.3038 F   0  0  0  0  0  0  0  0  0  0  0  0
   -5.8038   10.8733    6.2258 C   0  0  0  0  0  0  0  0  0  0  0  0
   -5.6027    9.5960    5.7252 C   0  0  0  0  0  0  0  0  0  0  0  0
   -6.3974    8.3622    5.9183 C   0  0  0  0  0  0  0  0  0  0  0  0
   -7.7630    8.3627    5.9384 C   0  0  0  0  0  0  0  0  0  0  0  0
   -8.5527    9.5751    5.6090 C   0  0  0  0  0  0  0  0  0  0  0  0
   -9.1935   10.4900    5.2911 N   0  0  0  0  0  0  0  0  0  0  0  0
   -8.5441    7.1583    5.7677 C   0  0  0  0  0  0  0  0  0  0  0  0
   -9.1991    6.2358    5.5565 N   0  0  0  0  0  0  0  0  0  0  0  0
    7.0341   -4.1903   -5.5019 H   0  0  0  0  0  0  0  0  0  0  0  0
    9.2897   -5.2817   -9.0202 H   0  0  0  0  0  0  0  0  0  0  0  0
    9.3436   -7.6487   -9.8454 H   0  0  0  0  0  0  0  0  0  0  0  0
    8.2742   -9.8638   -9.8260 H   0  0  0  0  0  0  0  0  0  0  0  0
    4.5539   -8.1115   -8.5692 H   0  0  0  0  0  0  0  0  0  0  0  0
    4.4137   -5.6672   -8.1707 H   0  0  0  0  0  0  0  0  0  0  0  0
    3.2406    0.6714   -5.1119 H   0  0  0  0  0  0  0  0  0  0  0  0
    2.2957    2.8125   -4.3830 H   0  0  0  0  0  0  0  0  0  0  0  0
    3.8369    5.4537   -3.7136 H   0  0  0  0  0  0  0  0  0  0  0  0
    2.4307    4.7403   -2.8167 H   0  0  0  0  0  0  0  0  0  0  0  0
    3.9772    5.0959   -1.9407 H   0  0  0  0  0  0  0  0  0  0  0  0
    5.9699    3.6542   -2.2312 H   0  0  0  0  0  0  0  0  0  0  0  0
    6.8378    1.4673   -2.9005 H   0  0  0  0  0  0  0  0  0  0  0  0
    6.2294    1.2186   -6.6470 H   0  0  0  0  0  0  0  0  0  0  0  0
    8.4094    1.5808   -7.6913 H   0  0  0  0  0  0  0  0  0  0  0  0
   10.6977    0.7466   -8.0858 H   0  0  0  0  0  0  0  0  0  0  0  0
   11.4374   -0.4335   -6.9506 H   0  0  0  0  0  0  0  0  0  0  0  0
   11.2918    1.3092   -6.4670 H   0  0  0  0  0  0  0  0  0  0  0  0
   10.2213   -1.1546   -4.8709 H   0  0  0  0  0  0  0  0  0  0  0  0
    8.0207   -1.4494   -3.7744 H   0  0  0  0  0  0  0  0  0  0  0  0
    2.9224   -7.2466   -1.9865 H   0  0  0  0  0  0  0  0  0  0  0  0
    4.8419   -8.4821   -1.1289 H   0  0  0  0  0  0  0  0  0  0  0  0
    7.1928   -7.1971    1.4234 H   0  0  0  0  0  0  0  0  0  0  0  0
    6.6875   -8.6382    0.4684 H   0  0  0  0  0  0  0  0  0  0  0  0
    7.7504   -7.3778   -0.2940 H   0  0  0  0  0  0  0  0  0  0  0  0
    6.3074   -4.8890    0.7920 H   0  0  0  0  0  0  0  0  0  0  0  0
    4.3654   -3.6674   -0.0451 H   0  0  0  0  0  0  0  0  0  0  0  0
    0.9784   -4.3506   -3.9265 H   0  0  0  0  0  0  0  0  0  0  0  0
   -1.0655   -5.5257   -4.5632 H   0  0  0  0  0  0  0  0  0  0  0  0
   -2.7621   -8.1063   -2.3632 H   0  0  0  0  0  0  0  0  0  0  0  0
   -3.3256   -6.5820   -3.1569 H   0  0  0  0  0  0  0  0  0  0  0  0
   -2.3562   -7.7877   -4.0899 H   0  0  0  0  0  0  0  0  0  0  0  0
   -1.1064   -7.5227   -0.7291 H   0  0  0  0  0  0  0  0  0  0  0  0
    0.9574   -6.3597   -0.1077 H   0  0  0  0  0  0  0  0  0  0  0  0
    1.6464   -1.0844    2.1778 H   0  0  0  0  0  0  0  0  0  0  0  0
    3.5122   -1.0532    3.7321 H   0  0  0  0  0  0  0  0  0  0  0  0
    2.8953   -3.4833    5.9179 H   0  0  0  0  0  0  0  0  0  0  0  0
    4.2241   -4.3431    6.8195 H   0  0  0  0  0  0  0  0  0  0  0  0
    4.0079   -2.5708    6.9944 H   0  0  0  0  0  0  0  0  0  0  0  0
    4.0046   -5.3177    3.2324 H   0  0  0  0  0  0  0  0  0  0  0  0
    2.1703   -5.3237    1.5983 H   0  0  0  0  0  0  0  0  0  0  0  0
    0.2022   -4.8118    3.2210 H   0  0  0  0  0  0  0  0  0  0  0  0
   -1.5786   -6.3611    3.6947 H   0  0  0  0  0  0  0  0  0  0  0  0
   -4.1820   -5.0888    3.8880 H   0  0  0  0  0  0  0  0  0  0  0  0
   -5.4650   -5.0051    2.6041 H   0  0  0  0  0  0  0  0  0  0  0  0
   -5.6241   -6.1726    3.9721 H   0  0  0  0  0  0  0  0  0  0  0  0
   -3.5605   -5.2252    0.0342 H   0  0  0  0  0  0  0  0  0  0  0  0
   -1.6820   -3.7833   -0.5380 H   0  0  0  0  0  0  0  0  0  0  0  0
    0.8639    2.0205   -0.7459 H   0  0  0  0  0  0  0  0  0  0  0  0
    2.5090    3.7133   -0.2722 H   0  0  0  0  0  0  0  0  0  0  0  0
    3.5894    4.6790    2.0736 H   0  0  0  0  0  0  0  0  0  0  0  0
    3.7667    6.3164    2.8073 H   0  0  0  0  0  0  0  0  0  0  0  0
    2.2520    5.3845    3.0713 H   0  0  0  0  0  0  0  0  0  0  0  0
   -0.5458    6.2706    1.3959 H   0  0  0  0  0  0  0  0  0  0  0  0
   -2.2505    4.5347    0.8628 H   0  0  0  0  0  0  0  0  0  0  0  0
   -0.9276    3.4525   -2.6688 H   0  0  0  0  0  0  0  0  0  0  0  0
   -2.1039    3.6041   -4.8158 H   0  0  0  0  0  0  0  0  0  0  0  0
   -4.2944    0.2667   -5.9521 H   0  0  0  0  0  0  0  0  0  0  0  0
   -4.5945    1.0958   -7.5363 H   0  0  0  0  0  0  0  0  0  0  0  0
   -2.9886    1.3519   -6.6830 H   0  0  0  0  0  0  0  0  0  0  0  0
   -5.3794    1.3061   -3.1977 H   0  0  0  0  0  0  0  0  0  0  0  0
   -4.1860    1.1404   -1.0690 H   0  0  0  0  0  0  0  0  0  0  0  0
   -4.7785    4.5551    1.1080 H   0  0  0  0  0  0  0  0  0  0  0  0
   -6.1866    6.1561    0.0144 H   0  0  0  0  0  0  0  0  0  0  0  0
   -8.8045    6.2153   -1.0144 H   0  0  0  0  0  0  0  0  0  0  0  0
   -8.8004    5.2757   -2.5518 H   0  0  0  0  0  0  0  0  0  0  0  0
   -7.5097    6.5088   -2.2357 H   0  0  0  0  0  0  0  0  0  0  0  0
   -8.1742    3.0010   -2.1422 H   0  0  0  0  0  0  0  0  0  0  0  0
   -6.8580    1.3352   -0.9716 H   0  0  0  0  0  0  0  0  0  0  0  0
   -6.3965    1.0189    3.5952 H   0  0  0  0  0  0  0  0  0  0  0  0
   -7.6370   -1.0448    4.0347 H   0  0  0  0  0  0  0  0  0  0  0  0
   -7.6111   -3.8928    2.5444 H   0  0  0  0  0  0  0  0  0  0  0  0
   -9.0025   -2.8305    3.0093 H   0  0  0  0  0  0  0  0  0  0  0  0
   -8.7666   -3.2796    1.2863 H   0  0  0  0  0  0  0  0  0  0  0  0
   -6.7877   -2.4072    0.0277 H   0  0  0  0  0  0  0  0  0  0  0  0
   -5.3992   -0.4622   -0.3556 H   0  0  0  0  0  0  0  0  0  0  0  0
   -1.7858    2.2546    7.5303 H   0  0  0  0  0  0  0  0  0  0  0  0
   -2.5495    0.5859    9.1510 H   0  0  0  0  0  0  0  0  0  0  0  0
   -5.5270   -0.4005    9.7276 H   0  0  0  0  0  0  0  0  0  0  0  0
   -5.7489    0.8270   11.0408 H   0  0  0  0  0  0  0  0  0  0  0  0
   -4.1894   -0.0570   10.8994 H   0  0  0  0  0  0  0  0  0  0  0  0
   -6.3935    2.5386    9.3526 H   0  0  0  0  0  0  0  0  0  0  0  0
   -5.6263    4.2255    7.7733 H   0  0  0  0  0  0  0  0  0  0  0  0
   -1.4330    4.8941    4.5205 H   0  0  0  0  0  0  0  0  0  0  0  0
    0.8094    5.7130    4.7912 H   0  0  0  0  0  0  0  0  0  0  0  0
    2.1077    7.4701    7.2952 H   0  0  0  0  0  0  0  0  0  0  0  0
    2.7021    6.1348    6.2262 H   0  0  0  0  0  0  0  0  0  0  0  0
    2.5285    5.8507    8.0012 H   0  0  0  0  0  0  0  0  0  0  0  0
    0.1644    6.1088    9.0502 H   0  0  0  0  0  0  0  0  0  0  0  0
   -2.1148    5.2524    8.7673 H   0  0  0  0  0  0  0  0  0  0  0  0
   -6.6558    5.5386    6.1935 H   0  0  0  0  0  0  0  0  0  0  0  0
   -2.3533    9.9127    4.7300 H   0  0  0  0  0  0  0  0  0  0  0  0
   -6.7654   11.1582    6.6596 H   0  0  0  0  0  0  0  0  0  0  0  0
  1  2  2  3
  2  3  1  0
  3  4  2  0
  3  5  1  0
  5  6  2  0
  6  7  1  0
  7  8  2  0
  8  9  1  0
  9 10  2  0
 10 11  1  0
 10 12  1  0
 12 13  2  0
 13 14  1  0
 14 15  2  0
 15 16  1  0
 16 17  2  3
 17 18  1  0
 18 19  3  0
 17 20  1  0
 20 21  3  0
  1 22  1  0
 22 23  2  0
 23 24  1  0
 24 25  1  0
 25 26  2  0
 26 27  1  0
 27 28  2  0
 28 29  1  0
 28 30  1  0
 30 31  2  0
 24 32  1  0
 32 33  2  0
 33 34  1  0
 34 35  2  0
 35 36  1  0
 35 37  1  0
 37 38  2  0
 23 39  1  0
 39 40  1  0
 40 41  1  0
 41 42  2  0
 42 43  1  0
 43 44  1  0
 44 45  2  0
 45 46  1  0
 46 47  2  0
 47 48  1  0
 47 49  1  0
 49 50  2  0
 43 51  1  0
 51 52  2  0
 52 53  1  0
 53 54  2  0
 54 55  1  0
 54 56  1  0
 56 57  2  0
 42 58  1  0
 58 59  1  0
 41 60  1  0
 60 61  2  0
 61 62  1  0
 62 63  1  0
 63 64  2  0
 64 65  1  0
 65 66  2  0
 66 67  1  0
 67 68  1  0
 66 69  1  0
 69 70  2  0
 62 71  1  0
 71 72  2  0
 72 73  1  0
 73 74  2  0
 74 75  1  0
 75 76  1  0
 74 77  1  0
 77 78  2  0
 61 79  1  0
 79 80  1  0
 80 81  1  0
 81 82  2  0
 82 83  1  0
 83 84  1  0
 84 85  2  0
 85 86  1  0
 86 87  2  0
 87 88  1  0
 88 89  1  0
 87 90  1  0
 90 91  2  0
 83 92  1  0
 92 93  2  0
 93 94  1  0
 94 95  2  0
 95 96  1  0
 96 97  1  0
 95 98  1  0
 98 99  2  0
 82100  1  0
100101  1  0
 81102  1  0
102103  2  0
103104  1  0
104105  1  0
105106  2  0
106107  1  0
107108  2  0
108109  1  0
108110  1  0
110111  2  0
104112  1  0
112113  2  0
113114  1  0
114115  2  0
115116  1  0
115117  1  0
117118  2  0
103119  1  0
119120  1  0
120121  1  0
121122  2  0
122123  1  0
123124  1  0
124125  2  0
125126  1  0
126127  2  0
127128  1  0
127129  1  0
129130  2  0
123131  1  0
131132  2  0
132133  1  0
133134  2  0
134135  1  0
134136  1  0
136137  2  0
122138  1  0
138139  1  0
121140  1  0
140141  2  3
141142  1  0
142143  2  0
142144  1  0
144145  2  0
145146  1  0
146147  1  0
146148  2  0
148149  1  0
148150  1  0
150151  2  0
151152  1  0
152153  2  3
153154  1  0
154155  3  0
153156  1  0
156157  3  0
 16  2  1  0
 59 22  1  0
101 60  1  0
139102  1  0
152141  1  0
 15  5  1  0
 31 25  1  0
 38 32  1  0
 58 39  2  0
 70 63  1  0
 78 71  1  0
100 79  2  0
111105  1  0
118112  1  0
138119  2  0
151144  1  0
 13  7  1  0
 50 44  1  0
 57 51  1  0
 91 84  1  0
 99 92  1  0
130124  1  0
137131  1  0
  1158  1  0
  6159  1  0
  8160  1  0
  9161  1  0
 12162  1  0
 14163  1  0
 26164  1  0
 27165  1  0
 29166  1  0
 29167  1  0
 29168  1  0
 30169  1  0
 31170  1  0
 33171  1  0
 34172  1  0
 36173  1  0
 36174  1  0
 36175  1  0
 37176  1  0
 38177  1  0
 45178  1  0
 46179  1  0
 48180  1  0
 48181  1  0
 48182  1  0
 49183  1  0
 50184  1  0
 52185  1  0
 53186  1  0
 55187  1  0
 55188  1  0
 55189  1  0
 56190  1  0
 57191  1  0
 64192  1  0
 65193  1  0
 68194  1  0
 68195  1  0
 68196  1  0
 69197  1  0
 70198  1  0
 72199  1  0
 73200  1  0
 76201  1  0
 76202  1  0
 76203  1  0
 77204  1  0
 78205  1  0
 85206  1  0
 86207  1  0
 89208  1  0
 89209  1  0
 89210  1  0
 90211  1  0
 91212  1  0
 93213  1  0
 94214  1  0
 97215  1  0
 97216  1  0
 97217  1  0
 98218  1  0
 99219  1  0
106220  1  0
107221  1  0
109222  1  0
109223  1  0
109224  1  0
110225  1  0
111226  1  0
113227  1  0
114228  1  0
116229  1  0
116230  1  0
116231  1  0
117232  1  0
118233  1  0
125234  1  0
126235  1  0
128236  1  0
128237  1  0
128238  1  0
129239  1  0
130240  1  0
132241  1  0
133242  1  0
135243  1  0
135244  1  0
135245  1  0
136246  1  0
137247  1  0
140248  1  0
145249  1  0
150250  1  0
M  END

