
     RDKit          3D

228250  0  0  0  0  0  0  0  0999 V2000
    1.5310   -6.4698    7.2301 C   0  0  0  0  0  0  0  0  0  0  0  0
    0.4919   -7.3290    7.1323 C   0  0  0  0  0  0  0  0  0  0  0  0
   -0.4877   -7.3222    6.0354 C   0  0  0  0  0  0  0  0  0  0  0  0
   -0.3715   -6.7245    4.9317 O   0  0  0  0  0  0  0  0  0  0  0  0
   -1.5397   -8.2492    6.3401 C   0  0  0  0  0  0  0  0  0  0  0  0
   -2.7359   -8.4215    5.6485 C   0  0  0  0  0  0  0  0  0  0  0  0
   -3.6543   -9.3703    6.1169 C   0  0  0  0  0  0  0  0  0  0  0  0
   -4.8875   -9.5451    5.4718 C   0  0  0  0  0  0  0  0  0  0  0  0
   -5.7875  -10.5107    5.9264 C   0  0  0  0  0  0  0  0  0  0  0  0
   -5.4640  -11.3124    7.0232 C   0  0  0  0  0  0  0  0  0  0  0  0
   -6.3431  -12.2533    7.4532 F   0  0  0  0  0  0  0  0  0  0  0  0
   -4.2390  -11.1499    7.6764 C   0  0  0  0  0  0  0  0  0  0  0  0
   -3.3318  -10.1626    7.2505 C   0  0  0  0  0  0  0  0  0  0  0  0
   -2.1198   -9.9433    7.9460 C   0  0  0  0  0  0  0  0  0  0  0  0
   -1.2366   -8.9360    7.5020 C   0  0  0  0  0  0  0  0  0  0  0  0
    0.0323   -8.3940    8.0953 C   0  0  0  0  0  0  0  0  0  0  0  0
    0.5608   -8.6967    9.3129 C   0  0  0  0  0  0  0  0  0  0  0  0
    0.0002   -9.6958   10.1811 C   0  0  0  0  0  0  0  0  0  0  0  0
   -0.4298  -10.4937   10.9009 N   0  0  0  0  0  0  0  0  0  0  0  0
    1.6939   -8.0148    9.8818 C   0  0  0  0  0  0  0  0  0  0  0  0
    2.5989   -7.4731   10.3573 N   0  0  0  0  0  0  0  0  0  0  0  0
    1.6234   -5.2826    6.3634 C   0  0  0  0  0  0  0  0  0  0  0  0
    0.5942   -4.3248    6.2150 C   0  0  0  0  0  0  0  0  0  0  0  0
   -0.4959   -4.1277    7.1571 N   0  0  0  0  0  0  0  0  0  0  0  0
   -1.7319   -3.5092    6.7619 C   0  0  0  0  0  0  0  0  0  0  0  0
   -2.0699   -2.2388    7.2521 C   0  0  0  0  0  0  0  0  0  0  0  0
   -3.2662   -1.6261    6.8613 C   0  0  0  0  0  0  0  0  0  0  0  0
   -4.1546   -2.2942    6.0030 C   0  0  0  0  0  0  0  0  0  0  0  0
   -5.4282   -1.6277    5.5608 C   0  0  0  0  0  0  0  0  0  0  0  0
   -3.8273   -3.5724    5.5254 C   0  0  0  0  0  0  0  0  0  0  0  0
   -2.6251   -4.1786    5.9069 C   0  0  0  0  0  0  0  0  0  0  0  0
   -0.3188   -4.4317    8.5555 C   0  0  0  0  0  0  0  0  0  0  0  0
    0.8212   -3.9877    9.2431 C   0  0  0  0  0  0  0  0  0  0  0  0
    1.0033   -4.3141   10.5897 C   0  0  0  0  0  0  0  0  0  0  0  0
    0.0311   -5.0635   11.2743 C   0  0  0  0  0  0  0  0  0  0  0  0
    0.2510   -5.4684   12.6989 C   0  0  0  0  0  0  0  0  0  0  0  0
   -1.1114   -5.5026   10.5897 C   0  0  0  0  0  0  0  0  0  0  0  0
   -1.2908   -5.1772    9.2414 C   0  0  0  0  0  0  0  0  0  0  0  0
    0.7251   -3.6695    4.9898 C   0  0  0  0  0  0  0  0  0  0  0  0
   -0.3051   -2.7308    4.0795 S   0  0  0  0  0  0  0  0  0  0  0  0
    0.6330   -2.7738    2.6617 C   0  0  0  0  0  0  0  0  0  0  0  0
    1.8252   -3.4896    2.9279 C   0  0  0  0  0  0  0  0  0  0  0  0
    2.9801   -3.5515    2.0614 N   0  0  0  0  0  0  0  0  0  0  0  0
    3.5686   -2.3350    1.5388 C   0  0  0  0  0  0  0  0  0  0  0  0
    4.2377   -2.3495    0.2993 C   0  0  0  0  0  0  0  0  0  0  0  0
    4.6863   -1.1612   -0.2760 C   0  0  0  0  0  0  0  0  0  0  0  0
    4.5028    0.0584    0.3820 C   0  0  0  0  0  0  0  0  0  0  0  0
    4.9559    1.3418   -0.2497 C   0  0  0  0  0  0  0  0  0  0  0  0
    3.9084    0.0742    1.6520 C   0  0  0  0  0  0  0  0  0  0  0  0
    3.4350   -1.1115    2.2250 C   0  0  0  0  0  0  0  0  0  0  0  0
    3.7222   -4.7832    1.9713 C   0  0  0  0  0  0  0  0  0  0  0  0
    5.0338   -4.8543    2.4676 C   0  0  0  0  0  0  0  0  0  0  0  0
    5.7487   -6.0550    2.4023 C   0  0  0  0  0  0  0  0  0  0  0  0
    5.1591   -7.1990    1.8432 C   0  0  0  0  0  0  0  0  0  0  0  0
    5.9358   -8.4766    1.7339 C   0  0  0  0  0  0  0  0  0  0  0  0
    3.8542   -7.1237    1.3283 C   0  0  0  0  0  0  0  0  0  0  0  0
    3.1360   -5.9245    1.3996 C   0  0  0  0  0  0  0  0  0  0  0  0
    1.8050   -4.0135    4.2298 C   0  0  0  0  0  0  0  0  0  0  0  0
    2.6817   -5.1996    5.0288 S   0  0  0  0  0  0  0  0  0  0  0  0
    0.0493   -2.3255    1.3809 C   0  0  0  0  0  0  0  0  0  0  0  0
    0.6305   -2.2546    0.1124 C   0  0  0  0  0  0  0  0  0  0  0  0
   -0.2338   -1.7185   -0.8609 C   0  0  0  0  0  0  0  0  0  0  0  0
    0.1033   -1.3491   -2.1789 C   0  0  0  0  0  0  0  0  0  0  0  0
    1.4890   -1.4473   -2.6930 C   0  0  0  0  0  0  0  0  0  0  0  0
    2.2521   -0.3811   -3.1472 C   0  0  0  0  0  0  0  0  0  0  0  0
    3.4834   -0.7600   -3.6904 C   0  0  0  0  0  0  0  0  0  0  0  0
    4.5899    0.4128   -4.3763 Cl  0  0  0  0  0  0  0  0  0  0  0  0
    3.7007   -2.1340   -3.6580 C   0  0  0  0  0  0  0  0  0  0  0  0
    4.8816   -2.8614   -4.2390 C   0  0  0  0  0  0  0  0  0  0  0  0
    5.5111   -3.7986   -3.2218 C   0  0  0  0  0  0  0  0  0  0  0  0
    2.3440   -2.8702   -2.9709 S   0  0  0  0  0  0  0  0  0  0  0  0
   -0.8950   -0.6912   -2.9228 C   0  0  0  0  0  0  0  0  0  0  0  0
   -2.1728   -0.4274   -2.4129 C   0  0  0  0  0  0  0  0  0  0  0  0
   -2.5243   -0.8455   -1.1168 C   0  0  0  0  0  0  0  0  0  0  0  0
   -3.8658   -0.6114   -0.5515 C   0  0  0  0  0  0  0  0  0  0  0  0
   -4.1585    0.1322    0.5865 C   0  0  0  0  0  0  0  0  0  0  0  0
   -5.5159    0.0928    0.9388 C   0  0  0  0  0  0  0  0  0  0  0  0
   -6.2768   -0.7101    0.0957 C   0  0  0  0  0  0  0  0  0  0  0  0
   -7.7492   -0.9780    0.2200 C   0  0  0  0  0  0  0  0  0  0  0  0
   -8.5213   -0.2594   -0.8766 C   0  0  0  0  0  0  0  0  0  0  0  0
   -5.2776   -1.3451   -1.0992 S   0  0  0  0  0  0  0  0  0  0  0  0
   -1.5140   -1.4540   -0.3610 C   0  0  0  0  0  0  0  0  0  0  0  0
   -1.5580   -1.8291    1.2627 S   0  0  0  0  0  0  0  0  0  0  0  0
   -2.9219    0.4509   -3.2132 C   0  0  0  0  0  0  0  0  0  0  0  0
   -2.2158    0.9234   -4.3247 C   0  0  0  0  0  0  0  0  0  0  0  0
   -0.7084    0.1728   -4.3522 S   0  0  0  0  0  0  0  0  0  0  0  0
   -2.4240    2.2764   -4.8721 C   0  0  0  0  0  0  0  0  0  0  0  0
   -1.6826    2.8527   -5.9285 C   0  0  0  0  0  0  0  0  0  0  0  0
   -0.9516    2.1014   -6.9121 N   0  0  0  0  0  0  0  0  0  0  0  0
   -1.5865    1.0211   -7.6285 C   0  0  0  0  0  0  0  0  0  0  0  0
   -0.8364   -0.1038   -8.0190 C   0  0  0  0  0  0  0  0  0  0  0  0
   -1.4170   -1.1039   -8.8024 C   0  0  0  0  0  0  0  0  0  0  0  0
   -2.7583   -1.0011   -9.2011 C   0  0  0  0  0  0  0  0  0  0  0  0
   -3.3492   -2.0195  -10.1292 C   0  0  0  0  0  0  0  0  0  0  0  0
   -3.5172    0.1051   -8.7895 C   0  0  0  0  0  0  0  0  0  0  0  0
   -2.9387    1.1019   -8.0010 C   0  0  0  0  0  0  0  0  0  0  0  0
    0.3737    2.5191   -7.2894 C   0  0  0  0  0  0  0  0  0  0  0  0
    1.3804    2.6622   -6.3174 C   0  0  0  0  0  0  0  0  0  0  0  0
    2.6655    3.0716   -6.6933 C   0  0  0  0  0  0  0  0  0  0  0  0
    2.9483    3.3776   -8.0361 C   0  0  0  0  0  0  0  0  0  0  0  0
    4.3281    3.7960   -8.4436 C   0  0  0  0  0  0  0  0  0  0  0  0
    1.9479    3.2183   -9.0067 C   0  0  0  0  0  0  0  0  0  0  0  0
    0.6728    2.7933   -8.6318 C   0  0  0  0  0  0  0  0  0  0  0  0
   -1.6883    4.2494   -5.8461 C   0  0  0  0  0  0  0  0  0  0  0  0
   -0.8342    5.4918   -6.6039 S   0  0  0  0  0  0  0  0  0  0  0  0
   -1.3914    6.6963   -5.5331 C   0  0  0  0  0  0  0  0  0  0  0  0
   -2.2584    6.1227   -4.5983 C   0  0  0  0  0  0  0  0  0  0  0  0
   -2.8559    6.8216   -3.4998 N   0  0  0  0  0  0  0  0  0  0  0  0
   -2.1189    7.0151   -2.2665 C   0  0  0  0  0  0  0  0  0  0  0  0
   -1.0278    6.1837   -1.9356 C   0  0  0  0  0  0  0  0  0  0  0  0
   -0.3395    6.3583   -0.7341 C   0  0  0  0  0  0  0  0  0  0  0  0
   -0.7396    7.3474    0.1735 C   0  0  0  0  0  0  0  0  0  0  0  0
    0.0057    7.5314    1.4625 C   0  0  0  0  0  0  0  0  0  0  0  0
   -1.8047    8.1943   -0.1564 C   0  0  0  0  0  0  0  0  0  0  0  0
   -2.4870    8.0310   -1.3667 C   0  0  0  0  0  0  0  0  0  0  0  0
   -4.2815    7.0177   -3.5632 C   0  0  0  0  0  0  0  0  0  0  0  0
   -4.8540    7.6314   -4.6909 C   0  0  0  0  0  0  0  0  0  0  0  0
   -6.2449    7.7180   -4.8200 C   0  0  0  0  0  0  0  0  0  0  0  0
   -7.0800    7.1716   -3.8328 C   0  0  0  0  0  0  0  0  0  0  0  0
   -8.5720    7.2345   -3.9773 C   0  0  0  0  0  0  0  0  0  0  0  0
   -6.5121    6.5880   -2.6901 C   0  0  0  0  0  0  0  0  0  0  0  0
   -5.1219    6.5049   -2.5604 C   0  0  0  0  0  0  0  0  0  0  0  0
   -2.4050    4.7619   -4.8164 C   0  0  0  0  0  0  0  0  0  0  0  0
   -3.0720    3.5277   -3.9092 S   0  0  0  0  0  0  0  0  0  0  0  0
   -0.9904    8.1038   -5.5722 C   0  0  0  0  0  0  0  0  0  0  0  0
    0.1820    8.5463   -5.0845 C   0  0  0  0  0  0  0  0  0  0  0  0
    1.2678    7.6965   -4.5780 C   0  0  0  0  0  0  0  0  0  0  0  0
    1.1907    6.4755   -4.2782 O   0  0  0  0  0  0  0  0  0  0  0  0
    2.4732    8.4957   -4.5030 C   0  0  0  0  0  0  0  0  0  0  0  0
    3.7589    8.0815   -4.1552 C   0  0  0  0  0  0  0  0  0  0  0  0
    4.8092    9.0101   -4.2347 C   0  0  0  0  0  0  0  0  0  0  0  0
    6.1207    8.6377   -3.9021 C   0  0  0  0  0  0  0  0  0  0  0  0
    7.1666    9.5589   -4.0203 C   0  0  0  0  0  0  0  0  0  0  0  0
    6.9103   10.8678   -4.4466 C   0  0  0  0  0  0  0  0  0  0  0  0
    7.9281   11.7573   -4.5480 F   0  0  0  0  0  0  0  0  0  0  0  0
    5.6089   11.2559   -4.7751 C   0  0  0  0  0  0  0  0  0  0  0  0
    4.5461   10.3428   -4.6672 C   0  0  0  0  0  0  0  0  0  0  0  0
    3.2364   10.7312   -5.0103 C   0  0  0  0  0  0  0  0  0  0  0  0
    2.1934    9.7919   -4.8990 C   0  0  0  0  0  0  0  0  0  0  0  0
    0.7326    9.9339   -5.1595 C   0  0  0  0  0  0  0  0  0  0  0  0
    0.0167   11.0891   -5.2057 C   0  0  0  0  0  0  0  0  0  0  0  0
    0.6328   12.3893   -5.1712 C   0  0  0  0  0  0  0  0  0  0  0  0
    1.1183   13.4398   -5.1470 N   0  0  0  0  0  0  0  0  0  0  0  0
   -1.4209   11.1016   -5.1289 C   0  0  0  0  0  0  0  0  0  0  0  0
   -2.5773   11.1183   -5.0577 N   0  0  0  0  0  0  0  0  0  0  0  0
    2.3016   -6.5734    7.9676 H   0  0  0  0  0  0  0  0  0  0  0  0
   -2.9547   -7.8180    4.7742 H   0  0  0  0  0  0  0  0  0  0  0  0
   -5.1573   -8.9371    4.6175 H   0  0  0  0  0  0  0  0  0  0  0  0
   -6.7404  -10.6347    5.4289 H   0  0  0  0  0  0  0  0  0  0  0  0
   -4.0028  -11.7820    8.5255 H   0  0  0  0  0  0  0  0  0  0  0  0
   -1.8987  -10.5546    8.8009 H   0  0  0  0  0  0  0  0  0  0  0  0
   -1.3982   -1.7198    7.9249 H   0  0  0  0  0  0  0  0  0  0  0  0
   -3.4989   -0.6377    7.2314 H   0  0  0  0  0  0  0  0  0  0  0  0
   -5.6958   -0.7858    6.2396 H   0  0  0  0  0  0  0  0  0  0  0  0
   -6.2660   -2.3578    5.5642 H   0  0  0  0  0  0  0  0  0  0  0  0
   -5.2981   -1.2221    4.5363 H   0  0  0  0  0  0  0  0  0  0  0  0
   -4.5013   -4.0959    4.8572 H   0  0  0  0  0  0  0  0  0  0  0  0
   -2.3922   -5.1654    5.5303 H   0  0  0  0  0  0  0  0  0  0  0  0
    1.5697   -3.3964    8.7302 H   0  0  0  0  0  0  0  0  0  0  0  0
    1.8978   -3.9850   11.0974 H   0  0  0  0  0  0  0  0  0  0  0  0
   -0.7065   -5.4517   13.2638 H   0  0  0  0  0  0  0  0  0  0  0  0
    0.6701   -6.4969   12.7284 H   0  0  0  0  0  0  0  0  0  0  0  0
    0.9585   -4.7800   13.2089 H   0  0  0  0  0  0  0  0  0  0  0  0
   -1.8617   -6.0955   11.0983 H   0  0  0  0  0  0  0  0  0  0  0  0
   -2.1805   -5.5229    8.7271 H   0  0  0  0  0  0  0  0  0  0  0  0
    4.3472   -3.2784   -0.2450 H   0  0  0  0  0  0  0  0  0  0  0  0
    5.1619   -1.1913   -1.2496 H   0  0  0  0  0  0  0  0  0  0  0  0
    5.9065    1.6726    0.2179 H   0  0  0  0  0  0  0  0  0  0  0  0
    5.1158    1.2174   -1.3430 H   0  0  0  0  0  0  0  0  0  0  0  0
    4.1866    2.1306   -0.1084 H   0  0  0  0  0  0  0  0  0  0  0  0
    3.7939    1.0064    2.1908 H   0  0  0  0  0  0  0  0  0  0  0  0
    2.9629   -1.0733    3.1978 H   0  0  0  0  0  0  0  0  0  0  0  0
    5.4908   -3.9790    2.9080 H   0  0  0  0  0  0  0  0  0  0  0  0
    6.7555   -6.0908    2.7988 H   0  0  0  0  0  0  0  0  0  0  0  0
    5.2670   -9.3563    1.8516 H   0  0  0  0  0  0  0  0  0  0  0  0
    6.4268   -8.5364    0.7399 H   0  0  0  0  0  0  0  0  0  0  0  0
    6.7173   -8.5358    2.5234 H   0  0  0  0  0  0  0  0  0  0  0  0
    3.4028   -7.9967    0.8682 H   0  0  0  0  0  0  0  0  0  0  0  0
    2.1282   -5.8818    1.0029 H   0  0  0  0  0  0  0  0  0  0  0  0
    1.6387   -2.5463   -0.1086 H   0  0  0  0  0  0  0  0  0  0  0  0
    1.9270    0.6471   -3.0945 H   0  0  0  0  0  0  0  0  0  0  0  0
    5.6569   -2.1425   -4.5781 H   0  0  0  0  0  0  0  0  0  0  0  0
    4.5536   -3.4404   -5.1324 H   0  0  0  0  0  0  0  0  0  0  0  0
    6.4068   -4.2856   -3.6602 H   0  0  0  0  0  0  0  0  0  0  0  0
    5.8199   -3.2413   -2.3095 H   0  0  0  0  0  0  0  0  0  0  0  0
    4.7845   -4.5905   -2.9308 H   0  0  0  0  0  0  0  0  0  0  0  0
   -3.4167    0.6866    1.1431 H   0  0  0  0  0  0  0  0  0  0  0  0
   -5.9172    0.6281    1.7874 H   0  0  0  0  0  0  0  0  0  0  0  0
   -7.9313   -2.0702    0.1331 H   0  0  0  0  0  0  0  0  0  0  0  0
   -8.1145   -0.6428    1.2130 H   0  0  0  0  0  0  0  0  0  0  0  0
   -9.6137   -0.4327   -0.7573 H   0  0  0  0  0  0  0  0  0  0  0  0
   -8.3343    0.8341   -0.8236 H   0  0  0  0  0  0  0  0  0  0  0  0
   -8.2144   -0.6401   -1.8730 H   0  0  0  0  0  0  0  0  0  0  0  0
   -3.8728    0.8628   -2.9018 H   0  0  0  0  0  0  0  0  0  0  0  0
    0.2046   -0.1971   -7.7343 H   0  0  0  0  0  0  0  0  0  0  0  0
   -0.8190   -1.9525   -9.1100 H   0  0  0  0  0  0  0  0  0  0  0  0
   -4.4149   -2.2023   -9.8746 H   0  0  0  0  0  0  0  0  0  0  0  0
   -3.2829   -1.6441  -11.1715 H   0  0  0  0  0  0  0  0  0  0  0  0
   -2.8037   -2.9858  -10.0629 H   0  0  0  0  0  0  0  0  0  0  0  0
   -4.5541    0.2051   -9.0976 H   0  0  0  0  0  0  0  0  0  0  0  0
   -3.5366    1.9601   -7.7149 H   0  0  0  0  0  0  0  0  0  0  0  0
    1.1760    2.4449   -5.2745 H   0  0  0  0  0  0  0  0  0  0  0  0
    3.4408    3.1580   -5.9386 H   0  0  0  0  0  0  0  0  0  0  0  0
    4.2872    4.4497   -9.3418 H   0  0  0  0  0  0  0  0  0  0  0  0
    4.9307    2.8942   -8.6827 H   0  0  0  0  0  0  0  0  0  0  0  0
    4.8236    4.3653   -7.6298 H   0  0  0  0  0  0  0  0  0  0  0  0
    2.1517    3.4353  -10.0492 H   0  0  0  0  0  0  0  0  0  0  0  0
   -0.0994    2.6993   -9.3860 H   0  0  0  0  0  0  0  0  0  0  0  0
   -0.7103    5.3879   -2.5957 H   0  0  0  0  0  0  0  0  0  0  0  0
    0.4922    5.7001   -0.4994 H   0  0  0  0  0  0  0  0  0  0  0  0
    0.7777    8.3184    1.3326 H   0  0  0  0  0  0  0  0  0  0  0  0
    0.5038    6.5869    1.7705 H   0  0  0  0  0  0  0  0  0  0  0  0
   -0.6907    7.8338    2.2745 H   0  0  0  0  0  0  0  0  0  0  0  0
   -2.1169    8.9796    0.5272 H   0  0  0  0  0  0  0  0  0  0  0  0
   -3.3034    8.7019   -1.6052 H   0  0  0  0  0  0  0  0  0  0  0  0
   -4.2228    8.0252   -5.4783 H   0  0  0  0  0  0  0  0  0  0  0  0
   -6.6668    8.1941   -5.6977 H   0  0  0  0  0  0  0  0  0  0  0  0
   -8.8596    7.3267   -5.0463 H   0  0  0  0  0  0  0  0  0  0  0  0
   -8.9656    8.1071   -3.4170 H   0  0  0  0  0  0  0  0  0  0  0  0
   -9.0352    6.3054   -3.5780 H   0  0  0  0  0  0  0  0  0  0  0  0
   -7.1416    6.1760   -1.9075 H   0  0  0  0  0  0  0  0  0  0  0  0
   -4.6938    6.0023   -1.6997 H   0  0  0  0  0  0  0  0  0  0  0  0
   -1.6875    8.7790   -6.0452 H   0  0  0  0  0  0  0  0  0  0  0  0
    3.9424    7.0599   -3.8464 H   0  0  0  0  0  0  0  0  0  0  0  0
    6.3422    7.6280   -3.5715 H   0  0  0  0  0  0  0  0  0  0  0  0
    8.1786    9.2574   -3.7819 H   0  0  0  0  0  0  0  0  0  0  0  0
    5.4289   12.2691   -5.1079 H   0  0  0  0  0  0  0  0  0  0  0  0
    3.0585   11.7320   -5.3746 H   0  0  0  0  0  0  0  0  0  0  0  0
  1  2  2  3
  2  3  1  0
  3  4  2  0
  3  5  1  0
  5  6  2  0
  6  7  1  0
  7  8  2  0
  8  9  1  0
  9 10  2  0
 10 11  1  0
 10 12  1  0
 12 13  2  0
 13 14  1  0
 14 15  2  0
 15 16  1  0
 16 17  2  3
 17 18  1  0
 18 19  3  0
 17 20  1  0
 20 21  3  0
  1 22  1  0
 22 23  2  0
 23 24  1  0
 24 25  1  0
 25 26  2  0
 26 27  1  0
 27 28  2  0
 28 29  1  0
 28 30  1  0
 30 31  2  0
 24 32  1  0
 32 33  2  0
 33 34  1  0
 34 35  2  0
 35 36  1  0
 35 37  1  0
 37 38  2  0
 23 39  1  0
 39 40  1  0
 40 41  1  0
 41 42  2  0
 42 43  1  0
 43 44  1  0
 44 45  2  0
 45 46  1  0
 46 47  2  0
 47 48  1  0
 47 49  1  0
 49 50  2  0
 43 51  1  0
 51 52  2  0
 52 53  1  0
 53 54  2  0
 54 55  1  0
 54 56  1  0
 56 57  2  0
 42 58  1  0
 58 59  1  0
 41 60  1  0
 60 61  2  0
 61 62  1  0
 62 63  2  0
 63 64  1  0
 64 65  2  0
 65 66  1  0
 66 67  1  0
 66 68  2  0
 68 69  1  0
 69 70  1  0
 68 71  1  0
 63 72  1  0
 72 73  2  0
 73 74  1  0
 74 75  1  0
 75 76  2  0
 76 77  1  0
 77 78  2  0
 78 79  1  0
 79 80  1  0
 78 81  1  0
 74 82  2  0
 82 83  1  0
 73 84  1  0
 84 85  2  0
 85 86  1  0
 85 87  1  0
 87 88  2  0
 88 89  1  0
 89 90  1  0
 90 91  2  0
 91 92  1  0
 92 93  2  0
 93 94  1  0
 93 95  1  0
 95 96  2  0
 89 97  1  0
 97 98  2  0
 98 99  1  0
 99100  2  0
100101  1  0
100102  1  0
102103  2  0
 88104  1  0
104105  1  0
105106  1  0
106107  2  0
107108  1  0
108109  1  0
109110  2  0
110111  1  0
111112  2  0
112113  1  0
112114  1  0
114115  2  0
108116  1  0
116117  2  0
117118  1  0
118119  2  0
119120  1  0
119121  1  0
121122  2  0
107123  1  0
123124  1  0
106125  1  0
125126  2  3
126127  1  0
127128  2  0
127129  1  0
129130  2  0
130131  1  0
131132  2  0
132133  1  0
133134  2  0
134135  1  0
134136  1  0
136137  2  0
137138  1  0
138139  2  0
139140  1  0
140141  2  3
141142  1  0
142143  3  0
141144  1  0
144145  3  0
 16  2  1  0
 59 22  1  0
 83 60  1  0
124 87  1  0
140126  1  0
 15  5  1  0
 31 25  1  0
 38 32  1  0
 58 39  2  0
 82 62  1  0
 96 90  1  0
103 97  1  0
123104  2  0
139129  1  0
 13  7  1  0
 50 44  1  0
 57 51  1  0
 71 64  1  0
 86 72  1  0
115109  1  0
122116  1  0
137131  1  0
 81 75  1  0
  1146  1  0
  6147  1  0
  8148  1  0
  9149  1  0
 12150  1  0
 14151  1  0
 26152  1  0
 27153  1  0
 29154  1  0
 29155  1  0
 29156  1  0
 30157  1  0
 31158  1  0
 33159  1  0
 34160  1  0
 36161  1  0
 36162  1  0
 36163  1  0
 37164  1  0
 38165  1  0
 45166  1  0
 46167  1  0
 48168  1  0
 48169  1  0
 48170  1  0
 49171  1  0
 50172  1  0
 52173  1  0
 53174  1  0
 55175  1  0
 55176  1  0
 55177  1  0
 56178  1  0
 57179  1  0
 61180  1  0
 65181  1  0
 69182  1  0
 69183  1  0
 70184  1  0
 70185  1  0
 70186  1  0
 76187  1  0
 77188  1  0
 79189  1  0
 79190  1  0
 80191  1  0
 80192  1  0
 80193  1  0
 84194  1  0
 91195  1  0
 92196  1  0
 94197  1  0
 94198  1  0
 94199  1  0
 95200  1  0
 96201  1  0
 98202  1  0
 99203  1  0
101204  1  0
101205  1  0
101206  1  0
102207  1  0
103208  1  0
110209  1  0
111210  1  0
113211  1  0
113212  1  0
113213  1  0
114214  1  0
115215  1  0
117216  1  0
118217  1  0
120218  1  0
120219  1  0
120220  1  0
121221  1  0
122222  1  0
125223  1  0
130224  1  0
132225  1  0
133226  1  0
136227  1  0
138228  1  0
M  END

