
     RDKit          3D

256279  0  0  0  0  0  0  0  0999 V2000
   -1.1323    2.7897   -8.0487 C   0  0  0  0  0  0  0  0  0  0  0  0
   -2.1039    3.7240   -7.9709 C   0  0  0  0  0  0  0  0  0  0  0  0
   -3.1335    3.8408   -9.0136 C   0  0  0  0  0  0  0  0  0  0  0  0
   -3.0011    3.5210  -10.2280 O   0  0  0  0  0  0  0  0  0  0  0  0
   -4.3944    4.1608   -8.3643 C   0  0  0  0  0  0  0  0  0  0  0  0
   -5.6834    4.0674   -8.8896 C   0  0  0  0  0  0  0  0  0  0  0  0
   -6.7783    4.1309   -8.0078 C   0  0  0  0  0  0  0  0  0  0  0  0
   -8.0873    3.9720   -8.4875 C   0  0  0  0  0  0  0  0  0  0  0  0
   -9.1595    3.9383   -7.5972 C   0  0  0  0  0  0  0  0  0  0  0  0
   -8.9439    4.0701   -6.2245 C   0  0  0  0  0  0  0  0  0  0  0  0
   -9.9871    4.0071   -5.3619 F   0  0  0  0  0  0  0  0  0  0  0  0
   -7.6511    4.2475   -5.7345 C   0  0  0  0  0  0  0  0  0  0  0  0
   -6.5585    4.2912   -6.6086 C   0  0  0  0  0  0  0  0  0  0  0  0
   -5.2435    4.4262   -6.1108 C   0  0  0  0  0  0  0  0  0  0  0  0
   -4.1696    4.3697   -7.0126 C   0  0  0  0  0  0  0  0  0  0  0  0
   -2.7149    4.3105   -6.7510 C   0  0  0  0  0  0  0  0  0  0  0  0
   -2.0531    5.0371   -5.8281 C   0  0  0  0  0  0  0  0  0  0  0  0
   -2.7297    5.7131   -4.7514 C   0  0  0  0  0  0  0  0  0  0  0  0
   -3.2618    6.2493   -3.8748 N   0  0  0  0  0  0  0  0  0  0  0  0
   -0.6278    5.2476   -5.9352 C   0  0  0  0  0  0  0  0  0  0  0  0
    0.5119    5.4367   -6.0351 N   0  0  0  0  0  0  0  0  0  0  0  0
   -0.6004    1.9761   -6.9108 C   0  0  0  0  0  0  0  0  0  0  0  0
    0.1504    0.7667   -7.0256 C   0  0  0  0  0  0  0  0  0  0  0  0
    1.2141    0.5436   -7.9855 N   0  0  0  0  0  0  0  0  0  0  0  0
    1.1981    1.1809   -9.2708 C   0  0  0  0  0  0  0  0  0  0  0  0
    1.8071    2.4352   -9.4386 C   0  0  0  0  0  0  0  0  0  0  0  0
    1.7785    3.0676  -10.6812 C   0  0  0  0  0  0  0  0  0  0  0  0
    1.1408    2.4601  -11.7716 C   0  0  0  0  0  0  0  0  0  0  0  0
    1.1594    3.1198  -13.1178 C   0  0  0  0  0  0  0  0  0  0  0  0
    0.5707    1.1852  -11.6133 C   0  0  0  0  0  0  0  0  0  0  0  0
    0.5918    0.5538  -10.3673 C   0  0  0  0  0  0  0  0  0  0  0  0
    2.5128    0.1178   -7.5230 C   0  0  0  0  0  0  0  0  0  0  0  0
    3.2710   -0.7744   -8.2974 C   0  0  0  0  0  0  0  0  0  0  0  0
    4.5927   -1.0676   -7.9465 C   0  0  0  0  0  0  0  0  0  0  0  0
    5.1777   -0.4626   -6.8252 C   0  0  0  0  0  0  0  0  0  0  0  0
    6.6318   -0.6927   -6.5315 C   0  0  0  0  0  0  0  0  0  0  0  0
    4.4187    0.4127   -6.0373 C   0  0  0  0  0  0  0  0  0  0  0  0
    3.0969    0.7067   -6.3886 C   0  0  0  0  0  0  0  0  0  0  0  0
    0.0320   -0.0023   -5.8495 C   0  0  0  0  0  0  0  0  0  0  0  0
    0.5556   -1.5278   -5.3260 S   0  0  0  0  0  0  0  0  0  0  0  0
   -0.0680   -1.3324   -3.7433 C   0  0  0  0  0  0  0  0  0  0  0  0
   -0.6208   -0.0485   -3.6179 C   0  0  0  0  0  0  0  0  0  0  0  0
   -0.6171    0.6780   -2.3744 N   0  0  0  0  0  0  0  0  0  0  0  0
    0.6596    0.7751   -1.7190 C   0  0  0  0  0  0  0  0  0  0  0  0
    0.8641    0.1043   -0.5187 C   0  0  0  0  0  0  0  0  0  0  0  0
    2.1025    0.1477    0.1227 C   0  0  0  0  0  0  0  0  0  0  0  0
    3.1728    0.8279   -0.4675 C   0  0  0  0  0  0  0  0  0  0  0  0
    4.5167    0.8105    0.1972 C   0  0  0  0  0  0  0  0  0  0  0  0
    2.9708    1.5179   -1.6746 C   0  0  0  0  0  0  0  0  0  0  0  0
    1.7173    1.4878   -2.3007 C   0  0  0  0  0  0  0  0  0  0  0  0
   -1.7331    1.4948   -1.9392 C   0  0  0  0  0  0  0  0  0  0  0  0
   -3.0135    1.3275   -2.4988 C   0  0  0  0  0  0  0  0  0  0  0  0
   -4.0755    2.1586   -2.1145 C   0  0  0  0  0  0  0  0  0  0  0  0
   -3.8839    3.1541   -1.1489 C   0  0  0  0  0  0  0  0  0  0  0  0
   -5.0283    4.0102   -0.6953 C   0  0  0  0  0  0  0  0  0  0  0  0
   -2.6283    3.2904   -0.5438 C   0  0  0  0  0  0  0  0  0  0  0  0
   -1.5620    2.4802   -0.9424 C   0  0  0  0  0  0  0  0  0  0  0  0
   -0.6140    0.6079   -4.8339 C   0  0  0  0  0  0  0  0  0  0  0  0
   -1.1919    2.0777   -5.3197 S   0  0  0  0  0  0  0  0  0  0  0  0
   -0.2208   -2.3635   -2.6957 C   0  0  0  0  0  0  0  0  0  0  0  0
    0.8261   -2.9094   -1.9360 C   0  0  0  0  0  0  0  0  0  0  0  0
    1.8860   -3.6217   -2.5913 N   0  0  0  0  0  0  0  0  0  0  0  0
    3.2031   -3.0711   -2.7605 C   0  0  0  0  0  0  0  0  0  0  0  0
    3.9049   -3.3048   -3.9572 C   0  0  0  0  0  0  0  0  0  0  0  0
    5.2524   -2.9566   -4.0688 C   0  0  0  0  0  0  0  0  0  0  0  0
    5.9136   -2.3666   -2.9879 C   0  0  0  0  0  0  0  0  0  0  0  0
    7.6707   -2.0245   -3.0855 S   0  0  0  0  0  0  0  0  0  0  0  0
    8.1543   -3.6685   -2.4642 C   0  0  0  0  0  0  0  0  0  0  0  0
    5.2128   -2.0931   -1.8095 C   0  0  0  0  0  0  0  0  0  0  0  0
    3.8604   -2.4350   -1.6980 C   0  0  0  0  0  0  0  0  0  0  0  0
    1.6478   -4.9942   -2.9536 C   0  0  0  0  0  0  0  0  0  0  0  0
    0.6714   -5.3226   -3.9072 C   0  0  0  0  0  0  0  0  0  0  0  0
    0.4267   -6.6593   -4.2360 C   0  0  0  0  0  0  0  0  0  0  0  0
    1.1535   -7.6802   -3.6111 C   0  0  0  0  0  0  0  0  0  0  0  0
    0.8294   -9.3972   -4.0154 S   0  0  0  0  0  0  0  0  0  0  0  0
   -0.5713   -9.5383   -2.8629 C   0  0  0  0  0  0  0  0  0  0  0  0
    2.1322   -7.3571   -2.6632 C   0  0  0  0  0  0  0  0  0  0  0  0
    2.3812   -6.0204   -2.3373 C   0  0  0  0  0  0  0  0  0  0  0  0
    0.3540   -3.3376   -0.6770 C   0  0  0  0  0  0  0  0  0  0  0  0
    1.0740   -3.1071    0.8269 S   0  0  0  0  0  0  0  0  0  0  0  0
   -0.3502   -2.9430    1.7445 C   0  0  0  0  0  0  0  0  0  0  0  0
   -1.4147   -3.0769    0.8446 C   0  0  0  0  0  0  0  0  0  0  0  0
   -2.7490   -3.3942    1.2679 N   0  0  0  0  0  0  0  0  0  0  0  0
   -3.8280   -2.4253    1.2768 C   0  0  0  0  0  0  0  0  0  0  0  0
   -5.0775   -2.7588    1.8424 C   0  0  0  0  0  0  0  0  0  0  0  0
   -6.1552   -1.8757    1.7709 C   0  0  0  0  0  0  0  0  0  0  0  0
   -5.9993   -0.6322    1.1610 C   0  0  0  0  0  0  0  0  0  0  0  0
   -7.4029    0.4792    1.0325 S   0  0  0  0  0  0  0  0  0  0  0  0
   -6.9878    1.3258    2.5774 C   0  0  0  0  0  0  0  0  0  0  0  0
   -4.7475   -0.2531    0.6643 C   0  0  0  0  0  0  0  0  0  0  0  0
   -3.6651   -1.1381    0.7245 C   0  0  0  0  0  0  0  0  0  0  0  0
   -3.0212   -4.7879    1.4921 C   0  0  0  0  0  0  0  0  0  0  0  0
   -3.8286   -5.5072    0.5971 C   0  0  0  0  0  0  0  0  0  0  0  0
   -4.0948   -6.8608    0.8238 C   0  0  0  0  0  0  0  0  0  0  0  0
   -3.5304   -7.5139    1.9262 C   0  0  0  0  0  0  0  0  0  0  0  0
   -3.8524   -9.2513    2.2163 S   0  0  0  0  0  0  0  0  0  0  0  0
   -2.3444   -9.8054    1.3555 C   0  0  0  0  0  0  0  0  0  0  0  0
   -2.7203   -6.7972    2.8199 C   0  0  0  0  0  0  0  0  0  0  0  0
   -2.4675   -5.4416    2.5999 C   0  0  0  0  0  0  0  0  0  0  0  0
   -0.9969   -3.2336   -0.4776 C   0  0  0  0  0  0  0  0  0  0  0  0
   -1.6680   -2.4937   -1.8160 S   0  0  0  0  0  0  0  0  0  0  0  0
   -0.4438   -1.9162    2.7974 C   0  0  0  0  0  0  0  0  0  0  0  0
   -0.5696   -2.0744    4.1902 C   0  0  0  0  0  0  0  0  0  0  0  0
   -0.3621   -3.3126    4.8907 N   0  0  0  0  0  0  0  0  0  0  0  0
    0.7949   -4.1134    4.5688 C   0  0  0  0  0  0  0  0  0  0  0  0
    0.7063   -5.5163    4.5157 C   0  0  0  0  0  0  0  0  0  0  0  0
    1.8073   -6.2808    4.1185 C   0  0  0  0  0  0  0  0  0  0  0  0
    3.0181   -5.6580    3.7783 C   0  0  0  0  0  0  0  0  0  0  0  0
    4.2062   -6.4750    3.3681 C   0  0  0  0  0  0  0  0  0  0  0  0
    3.1255   -4.2643    3.8774 C   0  0  0  0  0  0  0  0  0  0  0  0
    2.0243   -3.4988    4.2652 C   0  0  0  0  0  0  0  0  0  0  0  0
   -1.2626   -3.6884    5.9517 C   0  0  0  0  0  0  0  0  0  0  0  0
   -0.7663   -4.2348    7.1480 C   0  0  0  0  0  0  0  0  0  0  0  0
   -1.6358   -4.5384    8.2003 C   0  0  0  0  0  0  0  0  0  0  0  0
   -3.0136   -4.3169    8.0686 C   0  0  0  0  0  0  0  0  0  0  0  0
   -3.9313   -4.5777    9.2249 C   0  0  0  0  0  0  0  0  0  0  0  0
   -3.5144   -3.7725    6.8775 C   0  0  0  0  0  0  0  0  0  0  0  0
   -2.6467   -3.4658    5.8248 C   0  0  0  0  0  0  0  0  0  0  0  0
   -0.7700   -0.8339    4.8193 C   0  0  0  0  0  0  0  0  0  0  0  0
   -0.9801   -0.2896    6.4005 S   0  0  0  0  0  0  0  0  0  0  0  0
   -1.0473    1.3617    5.9564 C   0  0  0  0  0  0  0  0  0  0  0  0
   -0.8988    1.4841    4.5701 C   0  0  0  0  0  0  0  0  0  0  0  0
   -0.7754    2.7283    3.8513 N   0  0  0  0  0  0  0  0  0  0  0  0
    0.4359    3.0282    3.1118 C   0  0  0  0  0  0  0  0  0  0  0  0
    1.6856    2.5480    3.5461 C   0  0  0  0  0  0  0  0  0  0  0  0
    2.8615    2.9484    2.9098 C   0  0  0  0  0  0  0  0  0  0  0  0
    2.8113    3.7923    1.7890 C   0  0  0  0  0  0  0  0  0  0  0  0
    4.0647    4.2715    1.1202 C   0  0  0  0  0  0  0  0  0  0  0  0
    1.5673    4.2062    1.3006 C   0  0  0  0  0  0  0  0  0  0  0  0
    0.3942    3.8340    1.9586 C   0  0  0  0  0  0  0  0  0  0  0  0
   -1.8809    3.6561    3.8362 C   0  0  0  0  0  0  0  0  0  0  0  0
   -3.1733    3.2156    3.5143 C   0  0  0  0  0  0  0  0  0  0  0  0
   -4.2127    4.1374    3.3602 C   0  0  0  0  0  0  0  0  0  0  0  0
   -3.9782    5.5081    3.5296 C   0  0  0  0  0  0  0  0  0  0  0  0
   -5.0801    6.4962    3.2882 C   0  0  0  0  0  0  0  0  0  0  0  0
   -2.6910    5.9507    3.8616 C   0  0  0  0  0  0  0  0  0  0  0  0
   -1.6521    5.0299    4.0272 C   0  0  0  0  0  0  0  0  0  0  0  0
   -0.7621    0.2379    3.9837 C   0  0  0  0  0  0  0  0  0  0  0  0
   -0.5778   -0.2639    2.4199 S   0  0  0  0  0  0  0  0  0  0  0  0
   -1.2477    2.4926    6.8674 C   0  0  0  0  0  0  0  0  0  0  0  0
   -0.2418    3.3157    7.2086 C   0  0  0  0  0  0  0  0  0  0  0  0
    1.1779    2.9620    7.1543 C   0  0  0  0  0  0  0  0  0  0  0  0
    1.6515    1.8299    6.8673 O   0  0  0  0  0  0  0  0  0  0  0  0
    1.9490    4.0661    7.6725 C   0  0  0  0  0  0  0  0  0  0  0  0
    3.3299    4.1330    7.8458 C   0  0  0  0  0  0  0  0  0  0  0  0
    3.8792    5.2835    8.4362 C   0  0  0  0  0  0  0  0  0  0  0  0
    5.2675    5.3956    8.6192 C   0  0  0  0  0  0  0  0  0  0  0  0
    5.8065    6.5428    9.2055 C   0  0  0  0  0  0  0  0  0  0  0  0
    4.9698    7.5839    9.6199 C   0  0  0  0  0  0  0  0  0  0  0  0
    5.5048    8.6913   10.1866 F   0  0  0  0  0  0  0  0  0  0  0  0
    3.5838    7.4818    9.4549 C   0  0  0  0  0  0  0  0  0  0  0  0
    3.0245    6.3380    8.8610 C   0  0  0  0  0  0  0  0  0  0  0  0
    1.6285    6.2251    8.6929 C   0  0  0  0  0  0  0  0  0  0  0  0
    1.0967    5.0807    8.0734 C   0  0  0  0  0  0  0  0  0  0  0  0
   -0.3174    4.7059    7.7661 C   0  0  0  0  0  0  0  0  0  0  0  0
   -1.4004    5.5348    7.7733 C   0  0  0  0  0  0  0  0  0  0  0  0
   -2.7009    5.1334    7.2933 C   0  0  0  0  0  0  0  0  0  0  0  0
   -3.7450    4.8306    6.9045 N   0  0  0  0  0  0  0  0  0  0  0  0
   -1.3311    6.9161    8.1775 C   0  0  0  0  0  0  0  0  0  0  0  0
   -1.3030    8.0287    8.4928 N   0  0  0  0  0  0  0  0  0  0  0  0
   -0.9698    2.3951   -9.0419 H   0  0  0  0  0  0  0  0  0  0  0  0
   -5.8271    3.8417   -9.9426 H   0  0  0  0  0  0  0  0  0  0  0  0
   -8.2735    3.8394   -9.5489 H   0  0  0  0  0  0  0  0  0  0  0  0
  -10.1609    3.8056   -7.9721 H   0  0  0  0  0  0  0  0  0  0  0  0
   -7.4885    4.3219   -4.6646 H   0  0  0  0  0  0  0  0  0  0  0  0
   -5.0659    4.4872   -5.0467 H   0  0  0  0  0  0  0  0  0  0  0  0
    2.2884    2.9224   -8.5965 H   0  0  0  0  0  0  0  0  0  0  0  0
    2.2488    4.0362  -10.7914 H   0  0  0  0  0  0  0  0  0  0  0  0
    0.2582    2.8375  -13.7019 H   0  0  0  0  0  0  0  0  0  0  0  0
    1.1723    4.2274  -13.0182 H   0  0  0  0  0  0  0  0  0  0  0  0
    2.0718    2.8023  -13.6668 H   0  0  0  0  0  0  0  0  0  0  0  0
    0.1048    0.6839  -12.4539 H   0  0  0  0  0  0  0  0  0  0  0  0
    0.1387   -0.4237  -10.2542 H   0  0  0  0  0  0  0  0  0  0  0  0
    2.8439   -1.2284   -9.1822 H   0  0  0  0  0  0  0  0  0  0  0  0
    5.1725   -1.7405   -8.5657 H   0  0  0  0  0  0  0  0  0  0  0  0
    7.2461   -0.1234   -7.2597 H   0  0  0  0  0  0  0  0  0  0  0  0
    6.8932   -0.3658   -5.5051 H   0  0  0  0  0  0  0  0  0  0  0  0
    6.8812   -1.7709   -6.6258 H   0  0  0  0  0  0  0  0  0  0  0  0
    4.8595    0.9017   -5.1768 H   0  0  0  0  0  0  0  0  0  0  0  0
    2.5402    1.4214   -5.7955 H   0  0  0  0  0  0  0  0  0  0  0  0
    0.0623   -0.4873   -0.1200 H   0  0  0  0  0  0  0  0  0  0  0  0
    2.2379   -0.3809    1.0583 H   0  0  0  0  0  0  0  0  0  0  0  0
    5.3234    1.0749   -0.5204 H   0  0  0  0  0  0  0  0  0  0  0  0
    4.5349    1.5215    1.0439 H   0  0  0  0  0  0  0  0  0  0  0  0
    4.7250   -0.2015    0.6029 H   0  0  0  0  0  0  0  0  0  0  0  0
    3.7848    2.0667   -2.1322 H   0  0  0  0  0  0  0  0  0  0  0  0
    1.5713    2.0114   -3.2364 H   0  0  0  0  0  0  0  0  0  0  0  0
   -3.1935    0.5560   -3.2353 H   0  0  0  0  0  0  0  0  0  0  0  0
   -5.0469    2.0203   -2.5715 H   0  0  0  0  0  0  0  0  0  0  0  0
   -5.7364    4.1893   -1.5324 H   0  0  0  0  0  0  0  0  0  0  0  0
   -5.5599    3.4974    0.1322 H   0  0  0  0  0  0  0  0  0  0  0  0
   -4.6615    4.9937   -0.3333 H   0  0  0  0  0  0  0  0  0  0  0  0
   -2.4783    4.0355    0.2279 H   0  0  0  0  0  0  0  0  0  0  0  0
   -0.6025    2.6325   -0.4690 H   0  0  0  0  0  0  0  0  0  0  0  0
    3.4180   -3.7967   -4.7877 H   0  0  0  0  0  0  0  0  0  0  0  0
    5.7907   -3.1828   -4.9824 H   0  0  0  0  0  0  0  0  0  0  0  0
    7.7645   -3.8215   -1.4328 H   0  0  0  0  0  0  0  0  0  0  0  0
    7.7612   -4.4637   -3.1310 H   0  0  0  0  0  0  0  0  0  0  0  0
    9.2627   -3.7358   -2.4425 H   0  0  0  0  0  0  0  0  0  0  0  0
    5.7265   -1.6541   -0.9661 H   0  0  0  0  0  0  0  0  0  0  0  0
    3.3528   -2.2696   -0.7601 H   0  0  0  0  0  0  0  0  0  0  0  0
    0.0994   -4.5474   -4.3961 H   0  0  0  0  0  0  0  0  0  0  0  0
   -0.3316   -6.9014   -4.9701 H   0  0  0  0  0  0  0  0  0  0  0  0
   -0.8793  -10.5991   -2.7952 H   0  0  0  0  0  0  0  0  0  0  0  0
   -1.4244   -8.9412   -3.2426 H   0  0  0  0  0  0  0  0  0  0  0  0
   -0.2850   -9.1796   -1.8540 H   0  0  0  0  0  0  0  0  0  0  0  0
    2.7016   -8.1383   -2.1761 H   0  0  0  0  0  0  0  0  0  0  0  0
    3.1256   -5.7796   -1.5886 H   0  0  0  0  0  0  0  0  0  0  0  0
   -5.2378   -3.7138    2.3212 H   0  0  0  0  0  0  0  0  0  0  0  0
   -7.1097   -2.1638    2.1899 H   0  0  0  0  0  0  0  0  0  0  0  0
   -7.7696    2.0730    2.8145 H   0  0  0  0  0  0  0  0  0  0  0  0
   -6.0172    1.8333    2.4375 H   0  0  0  0  0  0  0  0  0  0  0  0
   -6.9118    0.6008    3.4090 H   0  0  0  0  0  0  0  0  0  0  0  0
   -4.6103    0.7254    0.2314 H   0  0  0  0  0  0  0  0  0  0  0  0
   -2.7180   -0.8207    0.3077 H   0  0  0  0  0  0  0  0  0  0  0  0
   -4.2556   -5.0167   -0.2652 H   0  0  0  0  0  0  0  0  0  0  0  0
   -4.7339   -7.4061    0.1373 H   0  0  0  0  0  0  0  0  0  0  0  0
   -2.4727   -9.6870    0.2588 H   0  0  0  0  0  0  0  0  0  0  0  0
   -1.4606   -9.2230    1.6868 H   0  0  0  0  0  0  0  0  0  0  0  0
   -2.1647  -10.8750    1.5806 H   0  0  0  0  0  0  0  0  0  0  0  0
   -2.2803   -7.2967    3.6717 H   0  0  0  0  0  0  0  0  0  0  0  0
   -1.8592   -4.8909    3.2986 H   0  0  0  0  0  0  0  0  0  0  0  0
   -0.2208   -6.0156    4.7574 H   0  0  0  0  0  0  0  0  0  0  0  0
    1.7175   -7.3602    4.0682 H   0  0  0  0  0  0  0  0  0  0  0  0
    4.8464   -5.9079    2.6589 H   0  0  0  0  0  0  0  0  0  0  0  0
    4.8020   -6.7310    4.2685 H   0  0  0  0  0  0  0  0  0  0  0  0
    3.8847   -7.4135    2.8672 H   0  0  0  0  0  0  0  0  0  0  0  0
    4.0625   -3.7687    3.6492 H   0  0  0  0  0  0  0  0  0  0  0  0
    2.1261   -2.4217    4.3186 H   0  0  0  0  0  0  0  0  0  0  0  0
    0.2966   -4.3964    7.2772 H   0  0  0  0  0  0  0  0  0  0  0  0
   -1.2320   -4.9336    9.1239 H   0  0  0  0  0  0  0  0  0  0  0  0
   -3.9893   -3.6692    9.8600 H   0  0  0  0  0  0  0  0  0  0  0  0
   -4.9502   -4.8350    8.8658 H   0  0  0  0  0  0  0  0  0  0  0  0
   -3.5571   -5.4245    9.8387 H   0  0  0  0  0  0  0  0  0  0  0  0
   -4.5729   -3.5755    6.7648 H   0  0  0  0  0  0  0  0  0  0  0  0
   -3.0521   -3.0465    4.9133 H   0  0  0  0  0  0  0  0  0  0  0  0
    1.7555    1.8951    4.4010 H   0  0  0  0  0  0  0  0  0  0  0  0
    3.8138    2.6058    3.3005 H   0  0  0  0  0  0  0  0  0  0  0  0
    4.0689    5.3832    1.0795 H   0  0  0  0  0  0  0  0  0  0  0  0
    4.9706    3.9410    1.6685 H   0  0  0  0  0  0  0  0  0  0  0  0
    4.1062    3.8789    0.0814 H   0  0  0  0  0  0  0  0  0  0  0  0
    1.5041    4.8306    0.4180 H   0  0  0  0  0  0  0  0  0  0  0  0
   -0.5508    4.1921    1.5733 H   0  0  0  0  0  0  0  0  0  0  0  0
   -3.3591    2.1611    3.3454 H   0  0  0  0  0  0  0  0  0  0  0  0
   -5.1984    3.7931    3.0890 H   0  0  0  0  0  0  0  0  0  0  0  0
   -6.0740    6.0419    3.4958 H   0  0  0  0  0  0  0  0  0  0  0  0
   -4.9627    7.3827    3.9493 H   0  0  0  0  0  0  0  0  0  0  0  0
   -5.0557    6.8317    2.2283 H   0  0  0  0  0  0  0  0  0  0  0  0
   -2.4865    7.0084    3.9799 H   0  0  0  0  0  0  0  0  0  0  0  0
   -0.6608    5.3872    4.2798 H   0  0  0  0  0  0  0  0  0  0  0  0
   -2.2704    2.7109    7.1113 H   0  0  0  0  0  0  0  0  0  0  0  0
    3.9561    3.3070    7.5297 H   0  0  0  0  0  0  0  0  0  0  0  0
    5.9319    4.5988    8.3082 H   0  0  0  0  0  0  0  0  0  0  0  0
    6.8794    6.6265    9.3413 H   0  0  0  0  0  0  0  0  0  0  0  0
    2.9516    8.2963    9.7917 H   0  0  0  0  0  0  0  0  0  0  0  0
    0.9976    7.0110    9.0678 H   0  0  0  0  0  0  0  0  0  0  0  0
  1  2  2  3
  2  3  1  0
  3  4  2  0
  3  5  1  0
  5  6  2  0
  6  7  1  0
  7  8  2  0
  8  9  1  0
  9 10  2  0
 10 11  1  0
 10 12  1  0
 12 13  2  0
 13 14  1  0
 14 15  2  0
 15 16  1  0
 16 17  2  3
 17 18  1  0
 18 19  3  0
 17 20  1  0
 20 21  3  0
  1 22  1  0
 22 23  2  0
 23 24  1  0
 24 25  1  0
 25 26  2  0
 26 27  1  0
 27 28  2  0
 28 29  1  0
 28 30  1  0
 30 31  2  0
 24 32  1  0
 32 33  2  0
 33 34  1  0
 34 35  2  0
 35 36  1  0
 35 37  1  0
 37 38  2  0
 23 39  1  0
 39 40  1  0
 40 41  1  0
 41 42  2  0
 42 43  1  0
 43 44  1  0
 44 45  2  0
 45 46  1  0
 46 47  2  0
 47 48  1  0
 47 49  1  0
 49 50  2  0
 43 51  1  0
 51 52  2  0
 52 53  1  0
 53 54  2  0
 54 55  1  0
 54 56  1  0
 56 57  2  0
 42 58  1  0
 58 59  1  0
 41 60  1  0
 60 61  2  0
 61 62  1  0
 62 63  1  0
 63 64  2  0
 64 65  1  0
 65 66  2  0
 66 67  1  0
 67 68  1  0
 66 69  1  0
 69 70  2  0
 62 71  1  0
 71 72  2  0
 72 73  1  0
 73 74  2  0
 74 75  1  0
 75 76  1  0
 74 77  1  0
 77 78  2  0
 61 79  1  0
 79 80  1  0
 80 81  1  0
 81 82  2  0
 82 83  1  0
 83 84  1  0
 84 85  2  0
 85 86  1  0
 86 87  2  0
 87 88  1  0
 88 89  1  0
 87 90  1  0
 90 91  2  0
 83 92  1  0
 92 93  2  0
 93 94  1  0
 94 95  2  0
 95 96  1  0
 96 97  1  0
 95 98  1  0
 98 99  2  0
 82100  1  0
100101  1  0
 81102  1  0
102103  2  0
103104  1  0
104105  1  0
105106  2  0
106107  1  0
107108  2  0
108109  1  0
108110  1  0
110111  2  0
104112  1  0
112113  2  0
113114  1  0
114115  2  0
115116  1  0
115117  1  0
117118  2  0
103119  1  0
119120  1  0
120121  1  0
121122  2  0
122123  1  0
123124  1  0
124125  2  0
125126  1  0
126127  2  0
127128  1  0
127129  1  0
129130  2  0
123131  1  0
131132  2  0
132133  1  0
133134  2  0
134135  1  0
134136  1  0
136137  2  0
122138  1  0
138139  1  0
121140  1  0
140141  2  3
141142  1  0
142143  2  0
142144  1  0
144145  2  0
145146  1  0
146147  2  0
147148  1  0
148149  2  0
149150  1  0
149151  1  0
151152  2  0
152153  1  0
153154  2  0
154155  1  0
155156  2  3
156157  1  0
157158  3  0
156159  1  0
159160  3  0
 16  2  1  0
 59 22  1  0
101 60  1  0
139102  1  0
155141  1  0
 15  5  1  0
 31 25  1  0
 38 32  1  0
 58 39  2  0
 70 63  1  0
 78 71  1  0
100 79  2  0
111105  1  0
118112  1  0
138119  2  0
154144  1  0
 13  7  1  0
 50 44  1  0
 57 51  1  0
 91 84  1  0
 99 92  1  0
130124  1  0
137131  1  0
152146  1  0
  1161  1  0
  6162  1  0
  8163  1  0
  9164  1  0
 12165  1  0
 14166  1  0
 26167  1  0
 27168  1  0
 29169  1  0
 29170  1  0
 29171  1  0
 30172  1  0
 31173  1  0
 33174  1  0
 34175  1  0
 36176  1  0
 36177  1  0
 36178  1  0
 37179  1  0
 38180  1  0
 45181  1  0
 46182  1  0
 48183  1  0
 48184  1  0
 48185  1  0
 49186  1  0
 50187  1  0
 52188  1  0
 53189  1  0
 55190  1  0
 55191  1  0
 55192  1  0
 56193  1  0
 57194  1  0
 64195  1  0
 65196  1  0
 68197  1  0
 68198  1  0
 68199  1  0
 69200  1  0
 70201  1  0
 72202  1  0
 73203  1  0
 76204  1  0
 76205  1  0
 76206  1  0
 77207  1  0
 78208  1  0
 85209  1  0
 86210  1  0
 89211  1  0
 89212  1  0
 89213  1  0
 90214  1  0
 91215  1  0
 93216  1  0
 94217  1  0
 97218  1  0
 97219  1  0
 97220  1  0
 98221  1  0
 99222  1  0
106223  1  0
107224  1  0
109225  1  0
109226  1  0
109227  1  0
110228  1  0
111229  1  0
113230  1  0
114231  1  0
116232  1  0
116233  1  0
116234  1  0
117235  1  0
118236  1  0
125237  1  0
126238  1  0
128239  1  0
128240  1  0
128241  1  0
129242  1  0
130243  1  0
132244  1  0
133245  1  0
135246  1  0
135247  1  0
135248  1  0
136249  1  0
137250  1  0
140251  1  0
145252  1  0
147253  1  0
148254  1  0
151255  1  0
153256  1  0
M  END

