
     RDKit          3D

183198  0  0  0  0  0  0  0  0999 V2000
    1.6599   -6.0245    0.0252 C   0  0  0  0  0  0  0  0  0  0  0  0
    0.7861   -6.3336    1.0051 C   0  0  0  0  0  0  0  0  0  0  0  0
   -0.2226   -5.4178    1.5686 C   0  0  0  0  0  0  0  0  0  0  0  0
   -0.6661   -4.3620    1.0436 O   0  0  0  0  0  0  0  0  0  0  0  0
   -0.5789   -5.8881    2.8844 C   0  0  0  0  0  0  0  0  0  0  0  0
   -1.3630   -5.2370    3.8373 C   0  0  0  0  0  0  0  0  0  0  0  0
   -1.4718   -5.8042    5.1164 C   0  0  0  0  0  0  0  0  0  0  0  0
   -2.2383   -5.1731    6.1081 C   0  0  0  0  0  0  0  0  0  0  0  0
   -2.3136   -5.7238    7.3905 C   0  0  0  0  0  0  0  0  0  0  0  0
   -1.6257   -6.9027    7.6936 C   0  0  0  0  0  0  0  0  0  0  0  0
   -1.6984   -7.4241    8.9428 F   0  0  0  0  0  0  0  0  0  0  0  0
   -0.8619   -7.5453    6.7144 C   0  0  0  0  0  0  0  0  0  0  0  0
   -0.7752   -7.0095    5.4198 C   0  0  0  0  0  0  0  0  0  0  0  0
    0.0108   -7.6394    4.4325 C   0  0  0  0  0  0  0  0  0  0  0  0
    0.0821   -7.0754    3.1501 C   0  0  0  0  0  0  0  0  0  0  0  0
    0.8711   -7.4862    1.9530 C   0  0  0  0  0  0  0  0  0  0  0  0
    1.3508   -8.7242    1.6731 C   0  0  0  0  0  0  0  0  0  0  0  0
    1.2197   -9.8220    2.5894 C   0  0  0  0  0  0  0  0  0  0  0  0
    1.1158  -10.7179    3.3177 N   0  0  0  0  0  0  0  0  0  0  0  0
    1.8814   -9.0600    0.3755 C   0  0  0  0  0  0  0  0  0  0  0  0
    2.3039   -9.3343   -0.6677 N   0  0  0  0  0  0  0  0  0  0  0  0
    1.5940   -4.7429   -0.6793 C   0  0  0  0  0  0  0  0  0  0  0  0
    2.1998   -3.5665   -0.2227 C   0  0  0  0  0  0  0  0  0  0  0  0
    3.4930   -3.5359    0.3999 N   0  0  0  0  0  0  0  0  0  0  0  0
    4.6530   -3.9261   -0.3772 C   0  0  0  0  0  0  0  0  0  0  0  0
    4.6798   -3.7387   -1.7737 C   0  0  0  0  0  0  0  0  0  0  0  0
    5.7763   -4.1550   -2.5272 C   0  0  0  0  0  0  0  0  0  0  0  0
    6.8818   -4.7460   -1.9019 C   0  0  0  0  0  0  0  0  0  0  0  0
    8.0476   -5.2321   -2.7147 C   0  0  0  0  0  0  0  0  0  0  0  0
    6.8695   -4.9331   -0.5125 C   0  0  0  0  0  0  0  0  0  0  0  0
    5.7660   -4.5287    0.2438 C   0  0  0  0  0  0  0  0  0  0  0  0
    3.6285   -3.0880    1.7632 C   0  0  0  0  0  0  0  0  0  0  0  0
    4.6047   -2.1343    2.1012 C   0  0  0  0  0  0  0  0  0  0  0  0
    4.8391   -1.8040    3.4390 C   0  0  0  0  0  0  0  0  0  0  0  0
    4.0994   -2.4203    4.4611 C   0  0  0  0  0  0  0  0  0  0  0  0
    4.3545   -2.0907    5.9005 C   0  0  0  0  0  0  0  0  0  0  0  0
    3.0963   -3.3407    4.1217 C   0  0  0  0  0  0  0  0  0  0  0  0
    2.8639   -3.6736    2.7834 C   0  0  0  0  0  0  0  0  0  0  0  0
    1.6096   -2.4487   -0.8016 C   0  0  0  0  0  0  0  0  0  0  0  0
    1.8704   -0.8137   -0.7083 S   0  0  0  0  0  0  0  0  0  0  0  0
    0.6507   -0.3744   -1.8349 C   0  0  0  0  0  0  0  0  0  0  0  0
    0.0735   -1.5732   -2.3306 C   0  0  0  0  0  0  0  0  0  0  0  0
   -0.6857   -1.7032   -3.5508 N   0  0  0  0  0  0  0  0  0  0  0  0
   -0.1170   -1.1727   -4.7764 C   0  0  0  0  0  0  0  0  0  0  0  0
   -0.9409   -0.7929   -5.8536 C   0  0  0  0  0  0  0  0  0  0  0  0
   -0.3878   -0.3073   -7.0411 C   0  0  0  0  0  0  0  0  0  0  0  0
    1.0005   -0.1779   -7.1750 C   0  0  0  0  0  0  0  0  0  0  0  0
    1.5801    0.3506   -8.4495 C   0  0  0  0  0  0  0  0  0  0  0  0
    1.8329   -0.5847   -6.1237 C   0  0  0  0  0  0  0  0  0  0  0  0
    1.2824   -1.0786   -4.9404 C   0  0  0  0  0  0  0  0  0  0  0  0
   -1.7132   -2.7289   -3.5935 C   0  0  0  0  0  0  0  0  0  0  0  0
   -2.5464   -2.9404   -2.4753 C   0  0  0  0  0  0  0  0  0  0  0  0
   -3.5158   -3.9482   -2.4852 C   0  0  0  0  0  0  0  0  0  0  0  0
   -3.6780   -4.7569   -3.6174 C   0  0  0  0  0  0  0  0  0  0  0  0
   -4.6950   -5.8568   -3.6196 C   0  0  0  0  0  0  0  0  0  0  0  0
   -2.8301   -4.5802   -4.7200 C   0  0  0  0  0  0  0  0  0  0  0  0
   -1.8535   -3.5806   -4.7088 C   0  0  0  0  0  0  0  0  0  0  0  0
    0.6238   -2.6944   -1.6953 C   0  0  0  0  0  0  0  0  0  0  0  0
    0.3980   -4.3569   -1.8251 S   0  0  0  0  0  0  0  0  0  0  0  0
    0.1990    1.0433   -1.9594 C   0  0  0  0  0  0  0  0  0  0  0  0
   -1.1588    1.4708   -1.8344 C   0  0  0  0  0  0  0  0  0  0  0  0
   -2.1211    1.3692   -2.9230 N   0  0  0  0  0  0  0  0  0  0  0  0
   -3.4591    0.8868   -2.6571 C   0  0  0  0  0  0  0  0  0  0  0  0
   -4.3877    1.6526   -1.9301 C   0  0  0  0  0  0  0  0  0  0  0  0
   -5.6593    1.1476   -1.6385 C   0  0  0  0  0  0  0  0  0  0  0  0
   -6.0477   -0.0950   -2.1434 C   0  0  0  0  0  0  0  0  0  0  0  0
   -7.6283   -0.7999   -1.6914 S   0  0  0  0  0  0  0  0  0  0  0  0
   -6.9104   -1.8925   -0.4238 C   0  0  0  0  0  0  0  0  0  0  0  0
   -5.1936   -0.7852   -3.0054 C   0  0  0  0  0  0  0  0  0  0  0  0
   -3.9246   -0.2746   -3.2822 C   0  0  0  0  0  0  0  0  0  0  0  0
   -1.8955    2.1178   -4.1538 C   0  0  0  0  0  0  0  0  0  0  0  0
   -0.6151    2.2035   -4.7457 C   0  0  0  0  0  0  0  0  0  0  0  0
   -0.4147    2.9089   -5.9363 C   0  0  0  0  0  0  0  0  0  0  0  0
   -1.4882    3.5605   -6.5520 C   0  0  0  0  0  0  0  0  0  0  0  0
   -1.2289    4.4670   -8.0791 S   0  0  0  0  0  0  0  0  0  0  0  0
   -1.7499    3.0835   -9.1409 C   0  0  0  0  0  0  0  0  0  0  0  0
   -2.7583    3.5049   -5.9779 C   0  0  0  0  0  0  0  0  0  0  0  0
   -2.9658    2.7862   -4.7974 C   0  0  0  0  0  0  0  0  0  0  0  0
   -1.2235    2.5789   -0.9622 C   0  0  0  0  0  0  0  0  0  0  0  0
   -2.3795    3.0596    0.1518 S   0  0  0  0  0  0  0  0  0  0  0  0
   -1.3652    4.0104    1.1157 C   0  0  0  0  0  0  0  0  0  0  0  0
   -0.0682    3.9188    0.5826 C   0  0  0  0  0  0  0  0  0  0  0  0
    1.1150    4.4315    1.2067 N   0  0  0  0  0  0  0  0  0  0  0  0
    1.9399    3.5762    2.0359 C   0  0  0  0  0  0  0  0  0  0  0  0
    3.3279    3.8000    2.1447 C   0  0  0  0  0  0  0  0  0  0  0  0
    4.0956    3.0849    3.0652 C   0  0  0  0  0  0  0  0  0  0  0  0
    3.4927    2.1215    3.8776 C   0  0  0  0  0  0  0  0  0  0  0  0
    4.4381    1.3252    5.1710 S   0  0  0  0  0  0  0  0  0  0  0  0
    4.0403    2.6000    6.4132 C   0  0  0  0  0  0  0  0  0  0  0  0
    2.1365    1.8199    3.7151 C   0  0  0  0  0  0  0  0  0  0  0  0
    1.3643    2.5336    2.7921 C   0  0  0  0  0  0  0  0  0  0  0  0
    1.4549    5.8161    0.9765 C   0  0  0  0  0  0  0  0  0  0  0  0
    1.2906    6.3948   -0.2973 C   0  0  0  0  0  0  0  0  0  0  0  0
    1.6176    7.7356   -0.5179 C   0  0  0  0  0  0  0  0  0  0  0  0
    2.1004    8.5210    0.5360 C   0  0  0  0  0  0  0  0  0  0  0  0
    2.4849   10.2485    0.2585 S   0  0  0  0  0  0  0  0  0  0  0  0
    4.2443    9.9335   -0.0790 C   0  0  0  0  0  0  0  0  0  0  0  0
    2.2585    7.9623    1.8085 C   0  0  0  0  0  0  0  0  0  0  0  0
    1.9410    6.6180    2.0261 C   0  0  0  0  0  0  0  0  0  0  0  0
   -0.0350    3.1065   -0.5519 C   0  0  0  0  0  0  0  0  0  0  0  0
    1.1959    2.2144   -1.2071 S   0  0  0  0  0  0  0  0  0  0  0  0
   -1.7556    4.4409    2.4786 C   0  0  0  0  0  0  0  0  0  0  0  0
   -2.9527    4.1230    3.0257 N   0  0  0  0  0  0  0  0  0  0  0  0
   -3.0238    4.3633    4.3353 N   0  0  0  0  0  0  0  0  0  0  0  0
   -1.8879    4.8946    4.8528 C   0  0  0  0  0  0  0  0  0  0  0  0
   -0.7218    5.0619    3.6548 S   0  0  0  0  0  0  0  0  0  0  0  0
   -1.5619    4.9575    6.2891 C   0  0  0  0  0  0  0  0  0  0  0  0
   -2.4468    4.8524    7.2989 C   0  0  0  0  0  0  0  0  0  0  0  0
   -3.8732    4.8740    7.0650 C   0  0  0  0  0  0  0  0  0  0  0  0
   -5.0161    4.9125    6.9055 N   0  0  0  0  0  0  0  0  0  0  0  0
   -1.9557    4.7232    8.6878 C   0  0  0  0  0  0  0  0  0  0  0  0
   -2.7669    4.4850    9.6232 O   0  0  0  0  0  0  0  0  0  0  0  0
   -0.5858    4.8193    8.9565 O   0  0  0  0  0  0  0  0  0  0  0  0
    0.0098    4.3848   10.1785 C   0  0  0  0  0  0  0  0  0  0  0  0
    0.0930    2.8598   10.2187 C   0  0  0  0  0  0  0  0  0  0  0  0
    2.5195   -6.6516   -0.1677 H   0  0  0  0  0  0  0  0  0  0  0  0
   -1.8414   -4.2931    3.5999 H   0  0  0  0  0  0  0  0  0  0  0  0
   -2.7760   -4.2592    5.8940 H   0  0  0  0  0  0  0  0  0  0  0  0
   -2.9050   -5.2314    8.1503 H   0  0  0  0  0  0  0  0  0  0  0  0
   -0.3378   -8.4613    6.9677 H   0  0  0  0  0  0  0  0  0  0  0  0
    0.5880   -8.5153    4.6904 H   0  0  0  0  0  0  0  0  0  0  0  0
    3.8519   -3.2720   -2.2866 H   0  0  0  0  0  0  0  0  0  0  0  0
    5.7559   -4.0223   -3.6033 H   0  0  0  0  0  0  0  0  0  0  0  0
    8.0721   -4.7386   -3.7112 H   0  0  0  0  0  0  0  0  0  0  0  0
    9.0021   -5.0037   -2.1925 H   0  0  0  0  0  0  0  0  0  0  0  0
    7.9667   -6.3317   -2.8569 H   0  0  0  0  0  0  0  0  0  0  0  0
    7.7134   -5.4015   -0.0184 H   0  0  0  0  0  0  0  0  0  0  0  0
    5.7705   -4.7062    1.3114 H   0  0  0  0  0  0  0  0  0  0  0  0
    5.2007   -1.6701    1.3258 H   0  0  0  0  0  0  0  0  0  0  0  0
    5.6147   -1.0894    3.6777 H   0  0  0  0  0  0  0  0  0  0  0  0
    4.3705   -3.0205    6.5105 H   0  0  0  0  0  0  0  0  0  0  0  0
    3.5428   -1.4319    6.2732 H   0  0  0  0  0  0  0  0  0  0  0  0
    5.3307   -1.5737    6.0313 H   0  0  0  0  0  0  0  0  0  0  0  0
    2.5147   -3.8226    4.8991 H   0  0  0  0  0  0  0  0  0  0  0  0
    2.1260   -4.4244    2.5537 H   0  0  0  0  0  0  0  0  0  0  0  0
   -2.0138   -0.8738   -5.7839 H   0  0  0  0  0  0  0  0  0  0  0  0
   -1.0449   -0.0234   -7.8519 H   0  0  0  0  0  0  0  0  0  0  0  0
    1.0912    1.3112   -8.7186 H   0  0  0  0  0  0  0  0  0  0  0  0
    1.4192   -0.3825   -9.2699 H   0  0  0  0  0  0  0  0  0  0  0  0
    2.6740    0.5415   -8.3530 H   0  0  0  0  0  0  0  0  0  0  0  0
    2.9107   -0.5226   -6.2162 H   0  0  0  0  0  0  0  0  0  0  0  0
    1.9587   -1.4066   -4.1620 H   0  0  0  0  0  0  0  0  0  0  0  0
   -2.4542   -2.3140   -1.5975 H   0  0  0  0  0  0  0  0  0  0  0  0
   -4.1395   -4.0912   -1.6101 H   0  0  0  0  0  0  0  0  0  0  0  0
   -5.0977   -6.0134   -4.6443 H   0  0  0  0  0  0  0  0  0  0  0  0
   -5.5482   -5.6046   -2.9510 H   0  0  0  0  0  0  0  0  0  0  0  0
   -4.2267   -6.7976   -3.2659 H   0  0  0  0  0  0  0  0  0  0  0  0
   -2.9166   -5.2244   -5.5855 H   0  0  0  0  0  0  0  0  0  0  0  0
   -1.1927   -3.4956   -5.5602 H   0  0  0  0  0  0  0  0  0  0  0  0
   -4.1640    2.6662   -1.6536 H   0  0  0  0  0  0  0  0  0  0  0  0
   -6.3429    1.7271   -1.0382 H   0  0  0  0  0  0  0  0  0  0  0  0
   -6.3607   -2.7169   -0.9201 H   0  0  0  0  0  0  0  0  0  0  0  0
   -7.7255   -2.3264    0.1901 H   0  0  0  0  0  0  0  0  0  0  0  0
   -6.2215   -1.3286    0.2373 H   0  0  0  0  0  0  0  0  0  0  0  0
   -5.5052   -1.7198   -3.4551 H   0  0  0  0  0  0  0  0  0  0  0  0
   -3.3031   -0.7787   -3.9920 H   0  0  0  0  0  0  0  0  0  0  0  0
    0.2385    1.6928   -4.3400 H   0  0  0  0  0  0  0  0  0  0  0  0
    0.5749    2.9448   -6.3818 H   0  0  0  0  0  0  0  0  0  0  0  0
   -1.5928    3.3613  -10.2015 H   0  0  0  0  0  0  0  0  0  0  0  0
   -2.8260    2.8670   -8.9801 H   0  0  0  0  0  0  0  0  0  0  0  0
   -1.1494    2.1814   -8.9141 H   0  0  0  0  0  0  0  0  0  0  0  0
   -3.5912    4.0117   -6.4484 H   0  0  0  0  0  0  0  0  0  0  0  0
   -3.9659    2.7708   -4.3880 H   0  0  0  0  0  0  0  0  0  0  0  0
    3.8122    4.5582    1.5438 H   0  0  0  0  0  0  0  0  0  0  0  0
    5.1527    3.3005    3.1691 H   0  0  0  0  0  0  0  0  0  0  0  0
    4.3744    2.2562    7.4122 H   0  0  0  0  0  0  0  0  0  0  0  0
    2.9448    2.7832    6.4477 H   0  0  0  0  0  0  0  0  0  0  0  0
    4.5700    3.5428    6.1593 H   0  0  0  0  0  0  0  0  0  0  0  0
    1.6705    1.0551    4.3241 H   0  0  0  0  0  0  0  0  0  0  0  0
    0.3110    2.3051    2.7151 H   0  0  0  0  0  0  0  0  0  0  0  0
    0.9161    5.8037   -1.1198 H   0  0  0  0  0  0  0  0  0  0  0  0
    1.4910    8.1634   -1.5019 H   0  0  0  0  0  0  0  0  0  0  0  0
    4.3511    9.2186   -0.9238 H   0  0  0  0  0  0  0  0  0  0  0  0
    4.7364   10.8879   -0.3513 H   0  0  0  0  0  0  0  0  0  0  0  0
    4.7344    9.5198    0.8290 H   0  0  0  0  0  0  0  0  0  0  0  0
    2.6282    8.5689    2.6266 H   0  0  0  0  0  0  0  0  0  0  0  0
    2.0622    6.2091    3.0200 H   0  0  0  0  0  0  0  0  0  0  0  0
   -0.5061    4.9994    6.5093 H   0  0  0  0  0  0  0  0  0  0  0  0
   -0.5598    4.7696   11.0493 H   0  0  0  0  0  0  0  0  0  0  0  0
    1.0417    4.7947   10.2361 H   0  0  0  0  0  0  0  0  0  0  0  0
    0.6740    2.5384   11.1111 H   0  0  0  0  0  0  0  0  0  0  0  0
    0.6036    2.4872    9.3058 H   0  0  0  0  0  0  0  0  0  0  0  0
   -0.9248    2.4218   10.2771 H   0  0  0  0  0  0  0  0  0  0  0  0
  1  2  2  3
  2  3  1  0
  3  4  2  0
  3  5  1  0
  5  6  2  0
  6  7  1  0
  7  8  2  0
  8  9  1  0
  9 10  2  0
 10 11  1  0
 10 12  1  0
 12 13  2  0
 13 14  1  0
 14 15  2  0
 15 16  1  0
 16 17  2  3
 17 18  1  0
 18 19  3  0
 17 20  1  0
 20 21  3  0
  1 22  1  0
 22 23  2  0
 23 24  1  0
 24 25  1  0
 25 26  2  0
 26 27  1  0
 27 28  2  0
 28 29  1  0
 28 30  1  0
 30 31  2  0
 24 32  1  0
 32 33  2  0
 33 34  1  0
 34 35  2  0
 35 36  1  0
 35 37  1  0
 37 38  2  0
 23 39  1  0
 39 40  1  0
 40 41  1  0
 41 42  2  0
 42 43  1  0
 43 44  1  0
 44 45  2  0
 45 46  1  0
 46 47  2  0
 47 48  1  0
 47 49  1  0
 49 50  2  0
 43 51  1  0
 51 52  2  0
 52 53  1  0
 53 54  2  0
 54 55  1  0
 54 56  1  0
 56 57  2  0
 42 58  1  0
 58 59  1  0
 41 60  1  0
 60 61  2  0
 61 62  1  0
 62 63  1  0
 63 64  2  0
 64 65  1  0
 65 66  2  0
 66 67  1  0
 67 68  1  0
 66 69  1  0
 69 70  2  0
 62 71  1  0
 71 72  2  0
 72 73  1  0
 73 74  2  0
 74 75  1  0
 75 76  1  0
 74 77  1  0
 77 78  2  0
 61 79  1  0
 79 80  1  0
 80 81  1  0
 81 82  2  0
 82 83  1  0
 83 84  1  0
 84 85  2  0
 85 86  1  0
 86 87  2  0
 87 88  1  0
 88 89  1  0
 87 90  1  0
 90 91  2  0
 83 92  1  0
 92 93  2  0
 93 94  1  0
 94 95  2  0
 95 96  1  0
 96 97  1  0
 95 98  1  0
 98 99  2  0
 82100  1  0
100101  1  0
 81102  1  0
102103  2  0
103104  1  0
104105  2  0
105106  1  0
105107  1  0
107108  2  3
108109  1  0
109110  3  0
108111  1  0
111112  2  0
111113  1  0
113114  1  0
114115  1  0
 16  2  1  0
 59 22  1  0
101 60  1  0
106102  1  0
 15  5  1  0
 31 25  1  0
 38 32  1  0
 58 39  2  0
 70 63  1  0
 78 71  1  0
100 79  2  0
 13  7  1  0
 50 44  1  0
 57 51  1  0
 91 84  1  0
 99 92  1  0
  1116  1  0
  6117  1  0
  8118  1  0
  9119  1  0
 12120  1  0
 14121  1  0
 26122  1  0
 27123  1  0
 29124  1  0
 29125  1  0
 29126  1  0
 30127  1  0
 31128  1  0
 33129  1  0
 34130  1  0
 36131  1  0
 36132  1  0
 36133  1  0
 37134  1  0
 38135  1  0
 45136  1  0
 46137  1  0
 48138  1  0
 48139  1  0
 48140  1  0
 49141  1  0
 50142  1  0
 52143  1  0
 53144  1  0
 55145  1  0
 55146  1  0
 55147  1  0
 56148  1  0
 57149  1  0
 64150  1  0
 65151  1  0
 68152  1  0
 68153  1  0
 68154  1  0
 69155  1  0
 70156  1  0
 72157  1  0
 73158  1  0
 76159  1  0
 76160  1  0
 76161  1  0
 77162  1  0
 78163  1  0
 85164  1  0
 86165  1  0
 89166  1  0
 89167  1  0
 89168  1  0
 90169  1  0
 91170  1  0
 93171  1  0
 94172  1  0
 97173  1  0
 97174  1  0
 97175  1  0
 98176  1  0
 99177  1  0
107178  1  0
114179  1  0
114180  1  0
115181  1  0
115182  1  0
115183  1  0
M  END

