
     RDKit          3D

164179  0  0  0  0  0  0  0  0999 V2000
    2.4802   -6.2130    1.9066 C   0  0  0  0  0  0  0  0  0  0  0  0
    3.4508   -6.1773    0.9781 C   0  0  0  0  0  0  0  0  0  0  0  0
    4.8584   -5.9791    1.3177 C   0  0  0  0  0  0  0  0  0  0  0  0
    5.4095   -6.2407    2.4246 O   0  0  0  0  0  0  0  0  0  0  0  0
    5.4933   -5.3024    0.2013 C   0  0  0  0  0  0  0  0  0  0  0  0
    6.7833   -4.7598    0.1330 C   0  0  0  0  0  0  0  0  0  0  0  0
    7.1635   -4.0755   -1.0373 C   0  0  0  0  0  0  0  0  0  0  0  0
    8.4279   -3.4631   -1.1364 C   0  0  0  0  0  0  0  0  0  0  0  0
    8.7860   -2.7703   -2.3009 C   0  0  0  0  0  0  0  0  0  0  0  0
    7.8975   -2.6966   -3.3779 C   0  0  0  0  0  0  0  0  0  0  0  0
    8.2499   -2.0311   -4.5094 F   0  0  0  0  0  0  0  0  0  0  0  0
    6.6438   -3.3095   -3.2985 C   0  0  0  0  0  0  0  0  0  0  0  0
    6.2486   -3.9711   -2.1248 C   0  0  0  0  0  0  0  0  0  0  0  0
    4.9548   -4.5138   -2.0192 C   0  0  0  0  0  0  0  0  0  0  0  0
    4.5868   -5.1769   -0.8410 C   0  0  0  0  0  0  0  0  0  0  0  0
    3.2949   -5.7938   -0.4524 C   0  0  0  0  0  0  0  0  0  0  0  0
    2.2943   -6.2007   -1.2723 C   0  0  0  0  0  0  0  0  0  0  0  0
    1.3412   -7.1856   -0.8398 C   0  0  0  0  0  0  0  0  0  0  0  0
    0.5953   -8.0024   -0.5007 N   0  0  0  0  0  0  0  0  0  0  0  0
    2.1581   -5.7684   -2.6464 C   0  0  0  0  0  0  0  0  0  0  0  0
    2.0314   -5.4274   -3.7478 N   0  0  0  0  0  0  0  0  0  0  0  0
    1.2384   -5.4426    1.7250 C   0  0  0  0  0  0  0  0  0  0  0  0
   -0.0764   -5.8654    1.9218 C   0  0  0  0  0  0  0  0  0  0  0  0
   -1.0188   -4.8471    1.6761 C   0  0  0  0  0  0  0  0  0  0  0  0
   -2.4727   -5.0757    1.7577 C   0  0  0  0  0  0  0  0  0  0  0  0
   -3.1740   -5.5253    0.6088 C   0  0  0  0  0  0  0  0  0  0  0  0
   -4.5744   -5.6403    0.6606 C   0  0  0  0  0  0  0  0  0  0  0  0
   -5.2772   -5.3101    1.8266 C   0  0  0  0  0  0  0  0  0  0  0  0
   -6.7669   -5.3956    1.8326 C   0  0  0  0  0  0  0  0  0  0  0  0
   -4.5825   -4.8531    2.9526 C   0  0  0  0  0  0  0  0  0  0  0  0
   -3.1843   -4.7399    2.9327 C   0  0  0  0  0  0  0  0  0  0  0  0
   -2.4627   -4.2260    4.1533 C   0  0  0  0  0  0  0  0  0  0  0  0
   -2.4538   -5.8140   -0.6855 C   0  0  0  0  0  0  0  0  0  0  0  0
   -0.4521   -3.6139    1.3300 C   0  0  0  0  0  0  0  0  0  0  0  0
    1.2117   -3.8267    1.3035 S   0  0  0  0  0  0  0  0  0  0  0  0
   -1.1420   -2.3237    1.0903 C   0  0  0  0  0  0  0  0  0  0  0  0
   -0.5523   -1.0466    1.1481 C   0  0  0  0  0  0  0  0  0  0  0  0
    0.8605   -0.7730    1.2234 N   0  0  0  0  0  0  0  0  0  0  0  0
    1.3482   -0.0412    2.3645 C   0  0  0  0  0  0  0  0  0  0  0  0
    1.9373    1.2203    2.1957 C   0  0  0  0  0  0  0  0  0  0  0  0
    2.3856    1.9436    3.3055 C   0  0  0  0  0  0  0  0  0  0  0  0
    2.2604    1.4122    4.5930 C   0  0  0  0  0  0  0  0  0  0  0  0
    2.8372    2.3530    6.0057 S   0  0  0  0  0  0  0  0  0  0  0  0
    4.5210    1.6594    5.9363 C   0  0  0  0  0  0  0  0  0  0  0  0
    1.6662    0.1567    4.7686 C   0  0  0  0  0  0  0  0  0  0  0  0
    1.2022   -0.5637    3.6624 C   0  0  0  0  0  0  0  0  0  0  0  0
    1.6788   -0.8710    0.0363 C   0  0  0  0  0  0  0  0  0  0  0  0
    1.1393   -0.6206   -1.2413 C   0  0  0  0  0  0  0  0  0  0  0  0
    1.9533   -0.6400   -2.3741 C   0  0  0  0  0  0  0  0  0  0  0  0
    3.3089   -0.9298   -2.2546 C   0  0  0  0  0  0  0  0  0  0  0  0
    4.3553   -0.8845   -3.7032 S   0  0  0  0  0  0  0  0  0  0  0  0
    4.8631    0.8413   -3.4103 C   0  0  0  0  0  0  0  0  0  0  0  0
    3.8540   -1.2338   -0.9991 C   0  0  0  0  0  0  0  0  0  0  0  0
    3.0458   -1.1924    0.1420 C   0  0  0  0  0  0  0  0  0  0  0  0
   -1.4761   -0.0466    0.8941 C   0  0  0  0  0  0  0  0  0  0  0  0
   -1.3029    1.5811    0.6150 S   0  0  0  0  0  0  0  0  0  0  0  0
   -2.8945    1.7925    0.0423 C   0  0  0  0  0  0  0  0  0  0  0  0
   -3.5598    0.5484    0.0571 C   0  0  0  0  0  0  0  0  0  0  0  0
   -4.8358    0.2745   -0.5525 N   0  0  0  0  0  0  0  0  0  0  0  0
   -4.9210    0.0965   -1.9818 C   0  0  0  0  0  0  0  0  0  0  0  0
   -6.0259    0.5910   -2.6919 C   0  0  0  0  0  0  0  0  0  0  0  0
   -6.0744    0.4725   -4.0898 C   0  0  0  0  0  0  0  0  0  0  0  0
   -5.0444   -0.1837   -4.7828 C   0  0  0  0  0  0  0  0  0  0  0  0
   -5.1200   -0.3613   -6.5703 S   0  0  0  0  0  0  0  0  0  0  0  0
   -6.2294   -1.7998   -6.5094 C   0  0  0  0  0  0  0  0  0  0  0  0
   -3.9608   -0.7084   -4.0737 C   0  0  0  0  0  0  0  0  0  0  0  0
   -3.8961   -0.5692   -2.6848 C   0  0  0  0  0  0  0  0  0  0  0  0
   -5.9473   -0.0904    0.2862 C   0  0  0  0  0  0  0  0  0  0  0  0
   -6.6688   -1.2732    0.0515 C   0  0  0  0  0  0  0  0  0  0  0  0
   -7.7277   -1.6387    0.8896 C   0  0  0  0  0  0  0  0  0  0  0  0
   -8.0774   -0.8249    1.9767 C   0  0  0  0  0  0  0  0  0  0  0  0
   -9.4298   -1.3017    3.0546 S   0  0  0  0  0  0  0  0  0  0  0  0
   -8.3475   -2.1655    4.2313 C   0  0  0  0  0  0  0  0  0  0  0  0
   -7.3671    0.3594    2.2078 C   0  0  0  0  0  0  0  0  0  0  0  0
   -6.3051    0.7218    1.3729 C   0  0  0  0  0  0  0  0  0  0  0  0
   -2.7266   -0.4533    0.5729 C   0  0  0  0  0  0  0  0  0  0  0  0
   -2.7837   -2.1320    0.6373 S   0  0  0  0  0  0  0  0  0  0  0  0
   -3.3160    3.0915   -0.5027 C   0  0  0  0  0  0  0  0  0  0  0  0
   -3.0082    4.2170    0.2905 C   0  0  0  0  0  0  0  0  0  0  0  0
   -2.6855    5.4218   -0.3330 C   0  0  0  0  0  0  0  0  0  0  0  0
   -1.7677    6.4253    0.1853 C   0  0  0  0  0  0  0  0  0  0  0  0
   -1.4287    6.5693    1.3946 O   0  0  0  0  0  0  0  0  0  0  0  0
   -1.2005    7.1148   -0.9672 C   0  0  0  0  0  0  0  0  0  0  0  0
   -1.8161    6.6340   -2.1079 C   0  0  0  0  0  0  0  0  0  0  0  0
   -2.7337    5.5485   -1.7176 C   0  0  0  0  0  0  0  0  0  0  0  0
   -3.1753    4.4875   -2.5140 C   0  0  0  0  0  0  0  0  0  0  0  0
   -3.4712    3.2557   -1.8982 C   0  0  0  0  0  0  0  0  0  0  0  0
   -1.3188    6.9577   -3.3697 C   0  0  0  0  0  0  0  0  0  0  0  0
   -0.1489    7.7351   -3.4550 C   0  0  0  0  0  0  0  0  0  0  0  0
    0.5561    8.1280   -2.2877 C   0  0  0  0  0  0  0  0  0  0  0  0
    0.0052    7.8067   -1.0265 C   0  0  0  0  0  0  0  0  0  0  0  0
    1.9735    8.5573   -2.4266 C   0  0  0  0  0  0  0  0  0  0  0  0
    2.7507    9.0386   -1.4362 C   0  0  0  0  0  0  0  0  0  0  0  0
    2.3009    9.8369   -0.2934 C   0  0  0  0  0  0  0  0  0  0  0  0
    1.1613   10.3637   -0.1708 O   0  0  0  0  0  0  0  0  0  0  0  0
    3.4439   10.0972    0.5692 C   0  0  0  0  0  0  0  0  0  0  0  0
    3.5090   10.8860    1.7219 C   0  0  0  0  0  0  0  0  0  0  0  0
    2.0532   11.6060    2.4101 Cl  0  0  0  0  0  0  0  0  0  0  0  0
    4.7680   11.1166    2.3027 C   0  0  0  0  0  0  0  0  0  0  0  0
    4.8944   12.0918    3.7706 Cl  0  0  0  0  0  0  0  0  0  0  0  0
    5.9386   10.6264    1.6813 C   0  0  0  0  0  0  0  0  0  0  0  0
    7.5266   11.0137    2.3509 Cl  0  0  0  0  0  0  0  0  0  0  0  0
    5.8480    9.8502    0.5006 C   0  0  0  0  0  0  0  0  0  0  0  0
    7.3084    9.5318   -0.4399 Cl  0  0  0  0  0  0  0  0  0  0  0  0
    4.5720    9.5227    0.0024 C   0  0  0  0  0  0  0  0  0  0  0  0
    4.1988    8.7460   -1.2134 C   0  0  0  0  0  0  0  0  0  0  0  0
    4.8316    7.6210   -1.6328 C   0  0  0  0  0  0  0  0  0  0  0  0
    4.5096    6.9646   -2.8767 C   0  0  0  0  0  0  0  0  0  0  0  0
    4.2787    6.4531   -3.8917 N   0  0  0  0  0  0  0  0  0  0  0  0
    5.7828    6.9232   -0.8031 C   0  0  0  0  0  0  0  0  0  0  0  0
    6.5395    6.3379   -0.1498 N   0  0  0  0  0  0  0  0  0  0  0  0
    2.7329   -6.4755    2.9270 H   0  0  0  0  0  0  0  0  0  0  0  0
    7.4573   -4.8520    0.9771 H   0  0  0  0  0  0  0  0  0  0  0  0
    9.1337   -3.5050   -0.3099 H   0  0  0  0  0  0  0  0  0  0  0  0
    9.7622   -2.2938   -2.3793 H   0  0  0  0  0  0  0  0  0  0  0  0
    5.9788   -3.2533   -4.1544 H   0  0  0  0  0  0  0  0  0  0  0  0
    4.2618   -4.3711   -2.8332 H   0  0  0  0  0  0  0  0  0  0  0  0
   -0.3477   -6.8756    2.1913 H   0  0  0  0  0  0  0  0  0  0  0  0
   -5.1214   -5.9665   -0.2136 H   0  0  0  0  0  0  0  0  0  0  0  0
   -7.1817   -5.2343    2.8472 H   0  0  0  0  0  0  0  0  0  0  0  0
   -7.0915   -6.3979    1.4771 H   0  0  0  0  0  0  0  0  0  0  0  0
   -7.1847   -4.6289    1.1451 H   0  0  0  0  0  0  0  0  0  0  0  0
   -5.1309   -4.5743    3.8495 H   0  0  0  0  0  0  0  0  0  0  0  0
   -3.1495   -4.0931    5.0119 H   0  0  0  0  0  0  0  0  0  0  0  0
   -1.9949   -3.2454    3.9222 H   0  0  0  0  0  0  0  0  0  0  0  0
   -1.6732   -4.9449    4.4539 H   0  0  0  0  0  0  0  0  0  0  0  0
   -3.1448   -6.2100   -1.4565 H   0  0  0  0  0  0  0  0  0  0  0  0
   -1.9844   -4.8823   -1.0678 H   0  0  0  0  0  0  0  0  0  0  0  0
   -1.6702   -6.5807   -0.5141 H   0  0  0  0  0  0  0  0  0  0  0  0
    2.0323    1.6568    1.2145 H   0  0  0  0  0  0  0  0  0  0  0  0
    2.8290    2.9224    3.1604 H   0  0  0  0  0  0  0  0  0  0  0  0
    5.1395    2.1455    6.7193 H   0  0  0  0  0  0  0  0  0  0  0  0
    4.9764    1.8517    4.9383 H   0  0  0  0  0  0  0  0  0  0  0  0
    4.4808    0.5647    6.1271 H   0  0  0  0  0  0  0  0  0  0  0  0
    1.5578   -0.2589    5.7608 H   0  0  0  0  0  0  0  0  0  0  0  0
    0.7369   -1.5293    3.8068 H   0  0  0  0  0  0  0  0  0  0  0  0
    0.0949   -0.3714   -1.3657 H   0  0  0  0  0  0  0  0  0  0  0  0
    1.5260   -0.4075   -3.3403 H   0  0  0  0  0  0  0  0  0  0  0  0
    5.5747    0.8848   -2.5577 H   0  0  0  0  0  0  0  0  0  0  0  0
    3.9867    1.4893   -3.1902 H   0  0  0  0  0  0  0  0  0  0  0  0
    5.3707    1.2254   -4.3184 H   0  0  0  0  0  0  0  0  0  0  0  0
    4.9083   -1.4691   -0.9010 H   0  0  0  0  0  0  0  0  0  0  0  0
    3.4858   -1.4077    1.1064 H   0  0  0  0  0  0  0  0  0  0  0  0
   -6.8322    1.1021   -2.1702 H   0  0  0  0  0  0  0  0  0  0  0  0
   -6.9304    0.8675   -4.6244 H   0  0  0  0  0  0  0  0  0  0  0  0
   -6.2040   -2.3115   -7.4941 H   0  0  0  0  0  0  0  0  0  0  0  0
   -7.2647   -1.4463   -6.3169 H   0  0  0  0  0  0  0  0  0  0  0  0
   -5.9158   -2.5169   -5.7227 H   0  0  0  0  0  0  0  0  0  0  0  0
   -3.1630   -1.2218   -4.5963 H   0  0  0  0  0  0  0  0  0  0  0  0
   -3.0459   -0.9886   -2.1651 H   0  0  0  0  0  0  0  0  0  0  0  0
   -6.4041   -1.9308   -0.7667 H   0  0  0  0  0  0  0  0  0  0  0  0
   -8.2854   -2.5459    0.6899 H   0  0  0  0  0  0  0  0  0  0  0  0
   -7.6319   -1.4439    4.6821 H   0  0  0  0  0  0  0  0  0  0  0  0
   -7.7849   -2.9778    3.7248 H   0  0  0  0  0  0  0  0  0  0  0  0
   -8.9605   -2.6029    5.0403 H   0  0  0  0  0  0  0  0  0  0  0  0
   -7.6451    1.0015    3.0302 H   0  0  0  0  0  0  0  0  0  0  0  0
   -5.7644    1.6427    1.5657 H   0  0  0  0  0  0  0  0  0  0  0  0
   -2.7818    4.0962    1.3410 H   0  0  0  0  0  0  0  0  0  0  0  0
   -3.1251    4.5589   -3.5914 H   0  0  0  0  0  0  0  0  0  0  0  0
   -3.6331    2.4037   -2.5380 H   0  0  0  0  0  0  0  0  0  0  0  0
   -1.7790    6.5619   -4.2679 H   0  0  0  0  0  0  0  0  0  0  0  0
    0.2759    7.9261   -4.4308 H   0  0  0  0  0  0  0  0  0  0  0  0
    0.5538    7.9450   -0.0985 H   0  0  0  0  0  0  0  0  0  0  0  0
    2.4449    8.2571   -3.3503 H   0  0  0  0  0  0  0  0  0  0  0  0
  1  2  2  3
  2  3  1  0
  3  4  2  0
  3  5  1  0
  5  6  2  0
  6  7  1  0
  7  8  2  0
  8  9  1  0
  9 10  2  0
 10 11  1  0
 10 12  1  0
 12 13  2  0
 13 14  1  0
 14 15  2  0
 15 16  1  0
 16 17  2  3
 17 18  1  0
 18 19  3  0
 17 20  1  0
 20 21  3  0
  1 22  1  0
 22 23  2  0
 23 24  1  0
 24 25  1  0
 25 26  2  0
 26 27  1  0
 27 28  2  0
 28 29  1  0
 28 30  1  0
 30 31  2  0
 31 32  1  0
 26 33  1  0
 24 34  2  0
 34 35  1  0
 34 36  1  0
 36 37  2  0
 37 38  1  0
 38 39  1  0
 39 40  2  0
 40 41  1  0
 41 42  2  0
 42 43  1  0
 43 44  1  0
 42 45  1  0
 45 46  2  0
 38 47  1  0
 47 48  2  0
 48 49  1  0
 49 50  2  0
 50 51  1  0
 51 52  1  0
 50 53  1  0
 53 54  2  0
 37 55  1  0
 55 56  1  0
 56 57  1  0
 57 58  2  0
 58 59  1  0
 59 60  1  0
 60 61  2  0
 61 62  1  0
 62 63  2  0
 63 64  1  0
 64 65  1  0
 63 66  1  0
 66 67  2  0
 59 68  1  0
 68 69  2  0
 69 70  1  0
 70 71  2  0
 71 72  1  0
 72 73  1  0
 71 74  1  0
 74 75  2  0
 58 76  1  0
 76 77  1  0
 57 78  1  0
 78 79  2  0
 79 80  1  0
 80 81  1  0
 81 82  2  0
 81 83  1  0
 83 84  2  0
 84 85  1  0
 85 86  1  0
 86 87  2  0
 84 88  1  0
 88 89  2  0
 89 90  1  0
 90 91  2  0
 90 92  1  0
 92 93  2  3
 93 94  1  0
 94 95  2  0
 94 96  1  0
 96 97  2  0
 97 98  1  0
 97 99  1  0
 99100  1  0
 99101  2  0
101102  1  0
101103  1  0
103104  1  0
103105  2  0
105106  1  0
106107  2  3
107108  1  0
108109  3  0
107110  1  0
110111  3  0
 16  2  1  0
 35 22  1  0
 77 36  1  0
 87 78  1  0
106 93  1  0
 15  5  1  0
 31 25  1  0
 46 39  1  0
 54 47  1  0
 76 55  2  0
 85 80  2  0
105 96  1  0
 13  7  1  0
 67 60  1  0
 75 68  1  0
 91 83  1  0
  1112  1  0
  6113  1  0
  8114  1  0
  9115  1  0
 12116  1  0
 14117  1  0
 23118  1  0
 27119  1  0
 29120  1  0
 29121  1  0
 29122  1  0
 30123  1  0
 32124  1  0
 32125  1  0
 32126  1  0
 33127  1  0
 33128  1  0
 33129  1  0
 40130  1  0
 41131  1  0
 44132  1  0
 44133  1  0
 44134  1  0
 45135  1  0
 46136  1  0
 48137  1  0
 49138  1  0
 52139  1  0
 52140  1  0
 52141  1  0
 53142  1  0
 54143  1  0
 61144  1  0
 62145  1  0
 65146  1  0
 65147  1  0
 65148  1  0
 66149  1  0
 67150  1  0
 69151  1  0
 70152  1  0
 73153  1  0
 73154  1  0
 73155  1  0
 74156  1  0
 75157  1  0
 79158  1  0
 86159  1  0
 87160  1  0
 88161  1  0
 89162  1  0
 91163  1  0
 92164  1  0
M  END

