
     RDKit          3D

202222  0  0  0  0  0  0  0  0999 V2000
    7.0363   -7.5845    0.8988 C   0  0  0  0  0  0  0  0  0  0  0  0
    8.2458   -6.9981    0.8415 C   0  0  0  0  0  0  0  0  0  0  0  0
    9.4165   -7.5396    1.5324 C   0  0  0  0  0  0  0  0  0  0  0  0
    9.5350   -8.7036    2.0005 O   0  0  0  0  0  0  0  0  0  0  0  0
   10.3827   -6.4680    1.6950 C   0  0  0  0  0  0  0  0  0  0  0  0
   11.5866   -6.4861    2.3996 C   0  0  0  0  0  0  0  0  0  0  0  0
   12.3185   -5.2902    2.5099 C   0  0  0  0  0  0  0  0  0  0  0  0
   13.5373   -5.2608    3.2063 C   0  0  0  0  0  0  0  0  0  0  0  0
   14.2514   -4.0644    3.3245 C   0  0  0  0  0  0  0  0  0  0  0  0
   13.7538   -2.8880    2.7590 C   0  0  0  0  0  0  0  0  0  0  0  0
   14.4489   -1.7299    2.8853 F   0  0  0  0  0  0  0  0  0  0  0  0
   12.5372   -2.8983    2.0666 C   0  0  0  0  0  0  0  0  0  0  0  0
   11.8119   -4.0928    1.9295 C   0  0  0  0  0  0  0  0  0  0  0  0
   10.5874   -4.1074    1.2298 C   0  0  0  0  0  0  0  0  0  0  0  0
    9.8963   -5.3182    1.0929 C   0  0  0  0  0  0  0  0  0  0  0  0
    8.6188   -5.6207    0.3955 C   0  0  0  0  0  0  0  0  0  0  0  0
    8.1590   -4.9962   -0.7176 C   0  0  0  0  0  0  0  0  0  0  0  0
    7.2435   -5.6379   -1.6278 C   0  0  0  0  0  0  0  0  0  0  0  0
    6.5145   -6.1552   -2.3626 N   0  0  0  0  0  0  0  0  0  0  0  0
    8.6775   -3.7290   -1.1629 C   0  0  0  0  0  0  0  0  0  0  0  0
    9.0861   -2.7087   -1.5304 N   0  0  0  0  0  0  0  0  0  0  0  0
    5.7613   -6.8883    0.6657 C   0  0  0  0  0  0  0  0  0  0  0  0
    4.6609   -7.4355    0.0106 C   0  0  0  0  0  0  0  0  0  0  0  0
    3.5989   -6.5231   -0.1383 C   0  0  0  0  0  0  0  0  0  0  0  0
    2.3934   -6.7375   -0.8508 C   0  0  0  0  0  0  0  0  0  0  0  0
    1.9862   -8.0864   -1.2973 C   0  0  0  0  0  0  0  0  0  0  0  0
    2.0728   -9.2428   -0.5221 C   0  0  0  0  0  0  0  0  0  0  0  0
    1.5210  -10.3707   -1.1386 C   0  0  0  0  0  0  0  0  0  0  0  0
    1.4189  -11.6969   -0.4440 C   0  0  0  0  0  0  0  0  0  0  0  0
    0.1062  -11.7947    0.3276 C   0  0  0  0  0  0  0  0  0  0  0  0
    0.9903  -10.1016   -2.3964 C   0  0  0  0  0  0  0  0  0  0  0  0
    0.1456  -11.2290   -3.4431 Cl  0  0  0  0  0  0  0  0  0  0  0  0
    1.2111   -8.4738   -2.7432 S   0  0  0  0  0  0  0  0  0  0  0  0
    1.5582   -5.6123   -1.0250 C   0  0  0  0  0  0  0  0  0  0  0  0
    1.8561   -4.3640   -0.4584 C   0  0  0  0  0  0  0  0  0  0  0  0
    3.0200   -4.1780    0.3140 C   0  0  0  0  0  0  0  0  0  0  0  0
    3.3536   -2.8813    0.9289 C   0  0  0  0  0  0  0  0  0  0  0  0
    3.4881   -1.6773    0.2469 C   0  0  0  0  0  0  0  0  0  0  0  0
    3.8428   -0.6102    1.0877 C   0  0  0  0  0  0  0  0  0  0  0  0
    4.1243    0.7658    0.5620 C   0  0  0  0  0  0  0  0  0  0  0  0
    5.6081    0.9298    0.2455 C   0  0  0  0  0  0  0  0  0  0  0  0
    3.9983   -0.9874    2.4216 C   0  0  0  0  0  0  0  0  0  0  0  0
    3.6833   -2.6321    2.5635 S   0  0  0  0  0  0  0  0  0  0  0  0
    4.4533    0.0519    3.7599 Cl  0  0  0  0  0  0  0  0  0  0  0  0
    3.8771   -5.2760    0.4365 C   0  0  0  0  0  0  0  0  0  0  0  0
    5.4080   -5.3039    1.1340 S   0  0  0  0  0  0  0  0  0  0  0  0
    0.8743   -3.3966   -0.7063 C   0  0  0  0  0  0  0  0  0  0  0  0
   -0.1933   -3.8831   -1.4484 C   0  0  0  0  0  0  0  0  0  0  0  0
    0.0699   -5.5035   -1.8261 S   0  0  0  0  0  0  0  0  0  0  0  0
   -1.3439   -3.0608   -1.8243 C   0  0  0  0  0  0  0  0  0  0  0  0
   -2.5875   -2.9901   -1.1428 C   0  0  0  0  0  0  0  0  0  0  0  0
   -3.1551   -3.9994   -0.2698 N   0  0  0  0  0  0  0  0  0  0  0  0
   -2.3417   -4.9471    0.4429 C   0  0  0  0  0  0  0  0  0  0  0  0
   -2.5060   -6.3232    0.2187 C   0  0  0  0  0  0  0  0  0  0  0  0
   -1.6646   -7.2447    0.8479 C   0  0  0  0  0  0  0  0  0  0  0  0
   -0.6681   -6.7984    1.7250 C   0  0  0  0  0  0  0  0  0  0  0  0
    0.4590   -7.9735    2.4754 S   0  0  0  0  0  0  0  0  0  0  0  0
   -0.5790   -8.2236    3.9475 C   0  0  0  0  0  0  0  0  0  0  0  0
   -0.5303   -5.4294    1.9862 C   0  0  0  0  0  0  0  0  0  0  0  0
   -1.3729   -4.5065    1.3576 C   0  0  0  0  0  0  0  0  0  0  0  0
   -4.5859   -4.0890   -0.1274 C   0  0  0  0  0  0  0  0  0  0  0  0
   -5.1736   -4.0573    1.1490 C   0  0  0  0  0  0  0  0  0  0  0  0
   -6.5661   -3.9950    1.2809 C   0  0  0  0  0  0  0  0  0  0  0  0
   -7.3796   -3.9844    0.1405 C   0  0  0  0  0  0  0  0  0  0  0  0
   -9.1596   -3.8504    0.3022 S   0  0  0  0  0  0  0  0  0  0  0  0
   -9.1639   -2.0391    0.1126 C   0  0  0  0  0  0  0  0  0  0  0  0
   -6.7998   -4.0647   -1.1302 C   0  0  0  0  0  0  0  0  0  0  0  0
   -5.4096   -4.1154   -1.2647 C   0  0  0  0  0  0  0  0  0  0  0  0
   -3.2063   -1.7550   -1.3812 C   0  0  0  0  0  0  0  0  0  0  0  0
   -4.3959   -0.9039   -0.5640 S   0  0  0  0  0  0  0  0  0  0  0  0
   -4.0683    0.5904   -1.3075 C   0  0  0  0  0  0  0  0  0  0  0  0
   -2.9904    0.4219   -2.1935 C   0  0  0  0  0  0  0  0  0  0  0  0
   -2.3281    1.4963   -2.8829 N   0  0  0  0  0  0  0  0  0  0  0  0
   -1.0550    1.9561   -2.3961 C   0  0  0  0  0  0  0  0  0  0  0  0
    0.1339    1.5299   -3.0121 C   0  0  0  0  0  0  0  0  0  0  0  0
    1.3659    2.0377   -2.5959 C   0  0  0  0  0  0  0  0  0  0  0  0
    1.4202    3.0112   -1.5933 C   0  0  0  0  0  0  0  0  0  0  0  0
    2.9998    3.7212   -1.1123 S   0  0  0  0  0  0  0  0  0  0  0  0
    3.0100    4.9248   -2.4766 C   0  0  0  0  0  0  0  0  0  0  0  0
    0.2408    3.4529   -0.9856 C   0  0  0  0  0  0  0  0  0  0  0  0
   -0.9915    2.9253   -1.3841 C   0  0  0  0  0  0  0  0  0  0  0  0
   -2.7634    1.8940   -4.2049 C   0  0  0  0  0  0  0  0  0  0  0  0
   -3.5350    1.0252   -5.0073 C   0  0  0  0  0  0  0  0  0  0  0  0
   -3.8534    1.3687   -6.3238 C   0  0  0  0  0  0  0  0  0  0  0  0
   -3.4050    2.5754   -6.8642 C   0  0  0  0  0  0  0  0  0  0  0  0
   -3.7342    2.9682   -8.5817 S   0  0  0  0  0  0  0  0  0  0  0  0
   -2.2714    2.0748   -9.1986 C   0  0  0  0  0  0  0  0  0  0  0  0
   -2.6854    3.4712   -6.0652 C   0  0  0  0  0  0  0  0  0  0  0  0
   -2.3686    3.1354   -4.7435 C   0  0  0  0  0  0  0  0  0  0  0  0
   -2.5356   -0.8964   -2.1949 C   0  0  0  0  0  0  0  0  0  0  0  0
   -1.0989   -1.6023   -2.6651 S   0  0  0  0  0  0  0  0  0  0  0  0
   -4.3839    1.8568   -0.6530 C   0  0  0  0  0  0  0  0  0  0  0  0
   -4.7493    3.0456   -1.2796 C   0  0  0  0  0  0  0  0  0  0  0  0
   -4.6137    4.1675   -0.4360 C   0  0  0  0  0  0  0  0  0  0  0  0
   -4.8162    5.5234   -0.7918 C   0  0  0  0  0  0  0  0  0  0  0  0
   -5.3994    5.9118   -2.0941 C   0  0  0  0  0  0  0  0  0  0  0  0
   -4.8985    6.8887   -2.9529 C   0  0  0  0  0  0  0  0  0  0  0  0
   -5.6555    7.0365   -4.1230 C   0  0  0  0  0  0  0  0  0  0  0  0
   -5.2826    7.9983   -5.2170 C   0  0  0  0  0  0  0  0  0  0  0  0
   -4.3871    7.3258   -6.2510 C   0  0  0  0  0  0  0  0  0  0  0  0
   -6.7422    6.1638   -4.1891 C   0  0  0  0  0  0  0  0  0  0  0  0
   -7.8841    6.0087   -5.5104 Cl  0  0  0  0  0  0  0  0  0  0  0  0
   -6.7709    5.2304   -2.7955 S   0  0  0  0  0  0  0  0  0  0  0  0
   -4.4014    6.4907    0.1503 C   0  0  0  0  0  0  0  0  0  0  0  0
   -3.7793    6.1467    1.3548 C   0  0  0  0  0  0  0  0  0  0  0  0
   -3.6146    4.8016    1.7184 C   0  0  0  0  0  0  0  0  0  0  0  0
   -2.8424    4.4022    2.9107 C   0  0  0  0  0  0  0  0  0  0  0  0
   -3.2861    3.5554    3.9189 C   0  0  0  0  0  0  0  0  0  0  0  0
   -2.2809    3.2121    4.8346 C   0  0  0  0  0  0  0  0  0  0  0  0
   -2.5031    2.2539    5.9690 C   0  0  0  0  0  0  0  0  0  0  0  0
   -2.1662    0.8284    5.5513 C   0  0  0  0  0  0  0  0  0  0  0  0
   -1.0415    3.7676    4.5155 C   0  0  0  0  0  0  0  0  0  0  0  0
   -1.1963    4.6882    3.1208 S   0  0  0  0  0  0  0  0  0  0  0  0
    0.4628    3.5348    5.3894 Cl  0  0  0  0  0  0  0  0  0  0  0  0
   -4.0867    3.8382    0.8177 C   0  0  0  0  0  0  0  0  0  0  0  0
   -3.8616    2.1786    0.9105 S   0  0  0  0  0  0  0  0  0  0  0  0
   -3.3489    7.2534    2.0996 C   0  0  0  0  0  0  0  0  0  0  0  0
   -3.7124    8.4764    1.5334 C   0  0  0  0  0  0  0  0  0  0  0  0
   -4.4759    8.1742    0.0536 S   0  0  0  0  0  0  0  0  0  0  0  0
   -3.2782    9.8207    1.9696 C   0  0  0  0  0  0  0  0  0  0  0  0
   -2.9528   10.1628    3.2362 C   0  0  0  0  0  0  0  0  0  0  0  0
   -3.2275    9.3720    4.4410 C   0  0  0  0  0  0  0  0  0  0  0  0
   -4.1074    8.4756    4.5434 O   0  0  0  0  0  0  0  0  0  0  0  0
   -2.5102    9.9529    5.5623 C   0  0  0  0  0  0  0  0  0  0  0  0
   -2.4620    9.5113    6.8901 C   0  0  0  0  0  0  0  0  0  0  0  0
   -3.1384    7.9507    7.3494 Cl  0  0  0  0  0  0  0  0  0  0  0  0
   -1.8376   10.3397    7.8437 C   0  0  0  0  0  0  0  0  0  0  0  0
   -1.7036    9.8036    9.5213 Cl  0  0  0  0  0  0  0  0  0  0  0  0
   -1.3617   11.6170    7.4707 C   0  0  0  0  0  0  0  0  0  0  0  0
   -0.7048   12.7041    8.6958 Cl  0  0  0  0  0  0  0  0  0  0  0  0
   -1.4444   12.0460    6.1254 C   0  0  0  0  0  0  0  0  0  0  0  0
   -1.1765   13.7486    5.7466 Cl  0  0  0  0  0  0  0  0  0  0  0  0
   -1.9317   11.1403    5.1571 C   0  0  0  0  0  0  0  0  0  0  0  0
   -2.0998   11.3110    3.6846 C   0  0  0  0  0  0  0  0  0  0  0  0
   -1.2721   12.0342    2.8922 C   0  0  0  0  0  0  0  0  0  0  0  0
   -1.6049   12.4007    1.5401 C   0  0  0  0  0  0  0  0  0  0  0  0
   -1.8725   12.7170    0.4577 N   0  0  0  0  0  0  0  0  0  0  0  0
    0.0489   12.4085    3.3220 C   0  0  0  0  0  0  0  0  0  0  0  0
    1.1276   12.6928    3.6476 N   0  0  0  0  0  0  0  0  0  0  0  0
    6.9676   -8.6132    1.2280 H   0  0  0  0  0  0  0  0  0  0  0  0
   11.9352   -7.4038    2.8584 H   0  0  0  0  0  0  0  0  0  0  0  0
   13.9420   -6.1599    3.6547 H   0  0  0  0  0  0  0  0  0  0  0  0
   15.1915   -4.0475    3.8610 H   0  0  0  0  0  0  0  0  0  0  0  0
   12.1642   -1.9772    1.6321 H   0  0  0  0  0  0  0  0  0  0  0  0
   10.1843   -3.1837    0.8406 H   0  0  0  0  0  0  0  0  0  0  0  0
    4.6670   -8.4346   -0.4073 H   0  0  0  0  0  0  0  0  0  0  0  0
    2.4863   -9.2571    0.4779 H   0  0  0  0  0  0  0  0  0  0  0  0
    1.4804  -12.5237   -1.1827 H   0  0  0  0  0  0  0  0  0  0  0  0
    2.2688  -11.8157    0.2646 H   0  0  0  0  0  0  0  0  0  0  0  0
   -0.7546  -11.7372   -0.3735 H   0  0  0  0  0  0  0  0  0  0  0  0
    0.0642  -12.7580    0.8714 H   0  0  0  0  0  0  0  0  0  0  0  0
    0.0299  -10.9677    1.0649 H   0  0  0  0  0  0  0  0  0  0  0  0
    3.3581   -1.5791   -0.8255 H   0  0  0  0  0  0  0  0  0  0  0  0
    3.8140    1.5330    1.3021 H   0  0  0  0  0  0  0  0  0  0  0  0
    3.5368    0.9309   -0.3658 H   0  0  0  0  0  0  0  0  0  0  0  0
    5.9392    0.1494   -0.4714 H   0  0  0  0  0  0  0  0  0  0  0  0
    5.7858    1.9255   -0.2099 H   0  0  0  0  0  0  0  0  0  0  0  0
    6.2148    0.8482    1.1725 H   0  0  0  0  0  0  0  0  0  0  0  0
    0.9087   -2.3835   -0.3317 H   0  0  0  0  0  0  0  0  0  0  0  0
   -3.2581   -6.6737   -0.4799 H   0  0  0  0  0  0  0  0  0  0  0  0
   -1.7763   -8.3018    0.6421 H   0  0  0  0  0  0  0  0  0  0  0  0
   -0.6512   -7.2766    4.5206 H   0  0  0  0  0  0  0  0  0  0  0  0
   -0.1129   -8.9985    4.5916 H   0  0  0  0  0  0  0  0  0  0  0  0
   -1.5938   -8.5636    3.6499 H   0  0  0  0  0  0  0  0  0  0  0  0
    0.2415   -5.0774    2.6573 H   0  0  0  0  0  0  0  0  0  0  0  0
   -1.2472   -3.4480    1.5505 H   0  0  0  0  0  0  0  0  0  0  0  0
   -4.5528   -4.0166    2.0351 H   0  0  0  0  0  0  0  0  0  0  0  0
   -7.0095   -3.9347    2.2669 H   0  0  0  0  0  0  0  0  0  0  0  0
   -8.6119   -1.5637    0.9496 H   0  0  0  0  0  0  0  0  0  0  0  0
   -8.6967   -1.7555   -0.8527 H   0  0  0  0  0  0  0  0  0  0  0  0
  -10.2113   -1.6748    0.1182 H   0  0  0  0  0  0  0  0  0  0  0  0
   -7.4253   -4.0615   -2.0139 H   0  0  0  0  0  0  0  0  0  0  0  0
   -4.9708   -4.1525   -2.2536 H   0  0  0  0  0  0  0  0  0  0  0  0
    0.0992    0.8110   -3.8218 H   0  0  0  0  0  0  0  0  0  0  0  0
    2.2745    1.6947   -3.0743 H   0  0  0  0  0  0  0  0  0  0  0  0
    2.9370    4.4011   -3.4521 H   0  0  0  0  0  0  0  0  0  0  0  0
    2.1647    5.6338   -2.3709 H   0  0  0  0  0  0  0  0  0  0  0  0
    3.9606    5.4940   -2.4483 H   0  0  0  0  0  0  0  0  0  0  0  0
    0.2734    4.2111   -0.2148 H   0  0  0  0  0  0  0  0  0  0  0  0
   -1.8935    3.3029   -0.9352 H   0  0  0  0  0  0  0  0  0  0  0  0
   -3.8616    0.0677   -4.6326 H   0  0  0  0  0  0  0  0  0  0  0  0
   -4.4198    0.6761   -6.9351 H   0  0  0  0  0  0  0  0  0  0  0  0
   -2.3270    1.0060   -8.9059 H   0  0  0  0  0  0  0  0  0  0  0  0
   -1.3457    2.5293   -8.7892 H   0  0  0  0  0  0  0  0  0  0  0  0
   -2.2464    2.1383  -10.3059 H   0  0  0  0  0  0  0  0  0  0  0  0
   -2.3530    4.4165   -6.4715 H   0  0  0  0  0  0  0  0  0  0  0  0
   -1.8027    3.8442   -4.1494 H   0  0  0  0  0  0  0  0  0  0  0  0
   -5.0100    3.0980   -2.3312 H   0  0  0  0  0  0  0  0  0  0  0  0
   -4.0033    7.4670   -2.7461 H   0  0  0  0  0  0  0  0  0  0  0  0
   -6.1955    8.3884   -5.7159 H   0  0  0  0  0  0  0  0  0  0  0  0
   -4.7443    8.8706   -4.7825 H   0  0  0  0  0  0  0  0  0  0  0  0
   -3.4737    6.9183   -5.7710 H   0  0  0  0  0  0  0  0  0  0  0  0
   -4.9320    6.4999   -6.7547 H   0  0  0  0  0  0  0  0  0  0  0  0
   -4.0800    8.0660   -7.0184 H   0  0  0  0  0  0  0  0  0  0  0  0
   -4.3006    3.1759    3.9756 H   0  0  0  0  0  0  0  0  0  0  0  0
   -1.8746    2.5498    6.8372 H   0  0  0  0  0  0  0  0  0  0  0  0
   -3.5683    2.2991    6.2914 H   0  0  0  0  0  0  0  0  0  0  0  0
   -1.0927    0.7588    5.2545 H   0  0  0  0  0  0  0  0  0  0  0  0
   -2.8016    0.5087    4.6928 H   0  0  0  0  0  0  0  0  0  0  0  0
   -2.3408    0.1435    6.4049 H   0  0  0  0  0  0  0  0  0  0  0  0
   -2.7537    7.1640    2.9964 H   0  0  0  0  0  0  0  0  0  0  0  0
   -3.1673   10.5282    1.1710 H   0  0  0  0  0  0  0  0  0  0  0  0
  1  2  2  3
  2  3  1  0
  3  4  2  0
  3  5  1  0
  5  6  2  0
  6  7  1  0
  7  8  2  0
  8  9  1  0
  9 10  2  0
 10 11  1  0
 10 12  1  0
 12 13  2  0
 13 14  1  0
 14 15  2  0
 15 16  1  0
 16 17  2  3
 17 18  1  0
 18 19  3  0
 17 20  1  0
 20 21  3  0
  1 22  1  0
 22 23  2  0
 23 24  1  0
 24 25  2  0
 25 26  1  0
 26 27  2  0
 27 28  1  0
 28 29  1  0
 29 30  1  0
 28 31  2  0
 31 32  1  0
 31 33  1  0
 25 34  1  0
 34 35  2  0
 35 36  1  0
 36 37  1  0
 37 38  2  0
 38 39  1  0
 39 40  1  0
 40 41  1  0
 39 42  2  0
 42 43  1  0
 42 44  1  0
 36 45  2  0
 45 46  1  0
 35 47  1  0
 47 48  2  0
 48 49  1  0
 48 50  1  0
 50 51  2  0
 51 52  1  0
 52 53  1  0
 53 54  2  0
 54 55  1  0
 55 56  2  0
 56 57  1  0
 57 58  1  0
 56 59  1  0
 59 60  2  0
 52 61  1  0
 61 62  2  0
 62 63  1  0
 63 64  2  0
 64 65  1  0
 65 66  1  0
 64 67  1  0
 67 68  2  0
 51 69  1  0
 69 70  1  0
 70 71  1  0
 71 72  2  0
 72 73  1  0
 73 74  1  0
 74 75  2  0
 75 76  1  0
 76 77  2  0
 77 78  1  0
 78 79  1  0
 77 80  1  0
 80 81  2  0
 73 82  1  0
 82 83  2  0
 83 84  1  0
 84 85  2  0
 85 86  1  0
 86 87  1  0
 85 88  1  0
 88 89  2  0
 72 90  1  0
 90 91  1  0
 71 92  1  0
 92 93  2  0
 93 94  1  0
 94 95  2  0
 95 96  1  0
 96 97  2  0
 97 98  1  0
 98 99  1  0
 99100  1  0
 98101  2  0
101102  1  0
101103  1  0
 95104  1  0
104105  2  0
105106  1  0
106107  1  0
107108  2  0
108109  1  0
109110  1  0
110111  1  0
109112  2  0
112113  1  0
112114  1  0
106115  2  0
115116  1  0
105117  1  0
117118  2  0
118119  1  0
118120  1  0
120121  2  3
121122  1  0
122123  2  0
122124  1  0
124125  2  0
125126  1  0
125127  1  0
127128  1  0
127129  2  0
129130  1  0
129131  1  0
131132  1  0
131133  2  0
133134  1  0
134135  2  3
135136  1  0
136137  3  0
135138  1  0
138139  3  0
 16  2  1  0
 46 22  1  0
 91 50  1  0
116 92  1  0
134121  1  0
 15  5  1  0
 45 24  1  0
 60 53  1  0
 68 61  1  0
 90 69  2  0
115 94  1  0
133124  1  0
 13  7  1  0
 33 26  1  0
 49 34  1  0
 81 74  1  0
 89 82  1  0
103 96  1  0
119104  1  0
 43 37  1  0
113107  1  0
  1140  1  0
  6141  1  0
  8142  1  0
  9143  1  0
 12144  1  0
 14145  1  0
 23146  1  0
 27147  1  0
 29148  1  0
 29149  1  0
 30150  1  0
 30151  1  0
 30152  1  0
 38153  1  0
 40154  1  0
 40155  1  0
 41156  1  0
 41157  1  0
 41158  1  0
 47159  1  0
 54160  1  0
 55161  1  0
 58162  1  0
 58163  1  0
 58164  1  0
 59165  1  0
 60166  1  0
 62167  1  0
 63168  1  0
 66169  1  0
 66170  1  0
 66171  1  0
 67172  1  0
 68173  1  0
 75174  1  0
 76175  1  0
 79176  1  0
 79177  1  0
 79178  1  0
 80179  1  0
 81180  1  0
 83181  1  0
 84182  1  0
 87183  1  0
 87184  1  0
 87185  1  0
 88186  1  0
 89187  1  0
 93188  1  0
 97189  1  0
 99190  1  0
 99191  1  0
100192  1  0
100193  1  0
100194  1  0
108195  1  0
110196  1  0
110197  1  0
111198  1  0
111199  1  0
111200  1  0
117201  1  0
120202  1  0
M  END

