142
m-ITIC-OR-4Cl.sdf
C         -0.10666        1.75154        1.40720
O         -0.23527        1.47625        2.57464
C         -0.59114        2.98114        0.91057
C         -1.45862        3.81314        1.59545
C         -1.84018        5.00680        1.01107
C         -1.33489        5.34489       -0.26305
C         -0.44430        4.46861       -0.94158
C         -0.06652        3.24976       -0.32736
C          0.84327        2.10036       -0.73049
C          1.68169        2.09924       -1.80961
C          2.55814        1.00751       -2.17222
N          3.24510        0.13155       -2.44462
C          1.84479        3.24441       -2.65700
N          2.04885        4.11066       -3.39475
C          0.66386        1.04298        0.35987
C          1.12110       -0.25060        0.42967
C          0.84597       -1.21950        1.56092
C          0.63058       -0.89013        2.91147
C          0.45036       -1.98872        3.70290
C          0.48585       -3.19818        3.07762
S          0.73723       -2.94064        1.43220
C          0.30429       -4.25186        3.96285
C          0.22048       -5.77933        3.92189
C         -0.99419       -6.27963        3.02021
C         -1.30328       -7.66032        2.80725
C         -2.28779       -8.14731        1.99437
C         -3.16061       -7.24533        1.42820
C         -2.98656       -5.88346        1.64657
C         -1.91585       -5.39370        2.41383
C          1.62860       -6.39917        3.54251
C          2.87702       -5.80399        3.85787
C          4.07333       -6.36385        3.50479
C          4.11554       -7.52746        2.82466
C          2.96834       -8.17976        2.42711
C          1.75904       -7.59500        2.80928
C         -0.08550       -5.95743        5.43447
C         -0.06367       -4.76947        6.17708
C          0.15320       -3.74448        5.23474
S          0.20689       -2.07074        5.36423
C         -0.23700       -4.69507        7.59141
C         -0.49420       -5.91086        8.27823
C         -0.64042       -6.29859        9.81264
C          0.65266       -5.87951       10.61324
C          1.04769       -6.60327       11.72923
C          2.13964       -6.25589       12.55379
C          2.85273       -5.09071       12.26828
C          2.52549       -4.36438       11.13837
C          1.47514       -4.77175       10.31137
C         -1.97649       -5.68143       10.41819
C         -3.22016       -6.36323       10.40565
C         -4.37406       -5.76031       10.92274
C         -4.33312       -4.48376       11.44022
C         -3.14478       -3.77625       11.55803
C         -2.00821       -4.39814       11.02567
C         -0.81666       -7.85544        9.61129
C         -1.01037       -8.11367        8.28591
C         -0.64480       -7.03890        7.48229
C         -0.38929       -7.12152        6.10513
S         -1.39584       -9.68293        7.81571
C         -1.07555      -10.18593        9.35311
C         -0.68401       -9.15444       10.16804
S          0.02464       -9.89962       11.47010
C          0.08181      -11.48982       10.75284
C         -0.88884      -11.49471        9.76757
C          1.36550      -12.26747       10.34145
C          2.58597      -11.77633        9.91501
C          3.89141      -12.44909        9.39346
C          4.23227      -13.76721        9.42645
C          5.44709      -14.30356        8.79220
N          6.43612      -14.55203        8.23696
C          3.44855      -14.71529       10.13596
N          2.94503      -15.61522       10.65599
C          4.73527      -11.33264        8.83788
C          5.90406      -11.25982        8.04057
C          6.37143       -9.99048        7.59494
C          5.64234       -8.81118        7.96556
C          4.55573       -8.92161        8.82022
C          4.12501      -10.16264        9.19000
C          2.87122      -10.36413        9.80946
O          2.13777       -9.43583       10.05453
Cl         7.76295       -9.99083        6.49311
Cl        -1.81012        6.85871       -1.01017
Cl         5.81167       -7.20955        7.23579
Cl        -2.94004        6.03686        1.91694
O         -3.05518       -2.53488       12.16005
C         -2.15577       -1.47517       11.89855
C         -2.60384       -0.44334       10.85682
O          2.49112       -7.01593       13.62007
C          1.83383       -8.18245       13.99710
C          2.78483       -9.32485       13.96157
O          3.08465       -9.30076        1.63959
C          2.07620      -10.12106        1.11574
C          1.69907      -11.27870        2.02500
O         -2.37294       -9.49589        1.84398
C         -3.54483      -10.16706        1.59781
C         -3.30167      -11.65880        1.48259
H         -1.82789        3.51965        2.57144
H         -0.08626        4.76370       -1.91308
H          1.70944       -0.63571       -0.39298
H          0.60271        0.05921        3.39254
H         -0.83619       -8.49033        3.26508
H         -3.98836       -7.58685        0.84601
H         -3.69827       -5.21347        1.20552
H         -1.86080       -4.32690        2.53570
H          3.08036       -4.91846        4.37424
H          5.00730       -5.89089        3.75486
H          5.10092       -7.81780        2.61751
H          0.95375       -8.07377        2.47267
H         -0.16525       -3.74521        8.10663
H          0.46607       -7.42670       11.93322
H          3.67389       -4.73868       12.88151
H          3.09230       -3.47360       10.89884
H          1.35165       -4.16852        9.46300
H         -3.31858       -7.35942       10.00246
H         -5.32825       -6.26717       10.92833
H         -5.26542       -4.10193       11.71049
H         -1.14689       -3.84915       11.10888
H         -0.42426       -8.06765        5.58804
H         -1.80830      -11.67106       10.34516
H          1.25207      -13.35339       10.34803
H          6.39892      -12.14268        7.66731
H          3.93209       -8.08426        9.10599
H         -1.98832       -0.88660       12.82708
H         -1.17039       -1.86800       11.56849
H         -3.51392        0.09236       11.20171
H         -1.93058        0.40676       10.76636
H         -2.67523       -0.90429        9.84095
H          1.36974       -8.15191       14.98267
H          0.99065       -8.40327       13.40367
H          3.57291       -8.86701       14.51985
H          2.37887      -10.24622       14.40914
H          3.29319       -9.62762       13.04205
H          1.10065       -9.59583        1.06914
H          2.39747      -10.52476        0.15409
H          1.27095      -10.84177        2.94575
H          0.83836      -11.89082        1.70403
H          2.52883      -12.00726        2.02938
H         -4.24624       -9.98486        2.43881
H         -4.00544       -9.80841        0.66524
H         -2.80831      -12.04744        2.39771
H         -2.66928      -11.87511        0.59686
H         -4.28361      -12.16346        1.36159
