106
MO-IDIC.sdf
C          3.10514        0.66498       -0.05890
C          3.08863       -0.73983       -0.05707
C          1.77075       -1.38456        0.19787
C          0.43009       -0.56162        0.24824
C          0.45320        0.81873        0.07743
C          1.78434        1.44715       -0.07596
C         -1.14622       -0.83025        0.45482
C         -1.93182        0.18151        0.53024
C         -1.13297        1.38621        0.12953
C          4.65926        0.99135       -0.09143
C          5.38091       -0.03275       -0.37117
C          4.66727       -1.28448       -0.36211
S         -2.29871       -2.07624        0.51576
C         -3.60269       -1.54332        0.83959
C         -3.35494       -0.17856        0.79336
S          5.89068        2.22851        0.01716
C          7.14570        1.53838       -0.58308
C          6.72033        0.25479       -0.61883
C         -1.60655        2.33848        1.29702
C         -1.82500        1.51666       -1.33019
C         -1.58530        2.60082       -2.39256
C         -1.18813        3.80233        1.38694
C          4.96414       -1.83373       -1.86424
C          5.47647       -2.03506        0.84766
C          4.46832       -0.98002       -3.08001
C          7.03816       -2.34659        0.91949
C          8.40198        2.26099       -0.86008
C         -4.66372       -2.54938        0.86950
C         -5.67922       -2.49486        1.69226
C          9.54706        1.61069       -1.10138
C          9.71042        0.15675       -1.19652
C         11.04036       -0.16964       -0.97307
C         11.81402        0.95781       -1.06364
C         10.92246        2.14603       -1.26756
C         -5.69418       -1.66408        2.88528
C         -7.01123       -1.73402        3.42611
C         -7.80085       -2.58129        2.65884
C         -6.98281       -3.20092        1.58477
C         11.52254       -1.44690       -0.75726
C         12.89345       -1.59950       -0.62746
C         13.73557       -0.47826       -0.75031
C         13.20169        0.80998       -0.97154
C         -7.49185       -1.05184        4.52824
C         -8.84447       -1.18581        4.83866
C         -9.67809       -1.99311        4.04479
C         -9.16025       -2.70294        2.95410
O          9.01451       -0.63572       -1.79457
O         -4.74137       -1.08706        3.39227
C         -7.38039       -4.12489        0.65797
C         11.28720        3.40765       -1.60104
C         10.35290        4.48614       -1.82054
C         12.65517        3.75848       -1.86433
C         -6.54292       -4.63806       -0.39856
C         -8.70058       -4.69516        0.61646
N          9.65843        5.39258       -2.01209
N         13.73641        4.10174       -2.09053
N         -9.73872       -5.19565        0.51148
N         -5.91677       -5.07338       -1.27001
O          1.69938        2.79410       -0.23702
C          2.64828        3.72931        0.10331
C          3.82126        3.75211       -0.77887
O          1.91187       -2.76361        0.41255
C          0.98008       -3.78223        0.73507
C         -0.15295       -3.44583        0.07842
H         -4.19160        0.44953        0.79707
H          7.27389       -0.49535       -0.81047
H         -2.72915        2.37542        1.21899
H         -1.37818        1.86489        2.28670
H         -1.57383        0.58390       -1.90206
H         -2.94640        1.46345       -1.21807
H         -0.53156        2.68955       -2.71287
H         -2.13500        2.28724       -3.31830
H         -2.01041        3.58654       -2.13113
H         -1.45080        4.26554        0.42393
H         -1.76564        4.31263        2.18625
H         -0.16145        4.02711        1.74121
H          6.06902       -1.89270       -2.06109
H          4.60124       -2.85562       -2.02388
H          5.39175       -1.37930        1.74710
H          5.03456       -3.01117        1.01935
H          4.90543        0.04808       -3.11375
H          4.76044       -1.45916       -4.05069
H          3.36671       -0.91259       -3.10025
H          7.72345       -1.47701        0.83008
H          7.38406       -2.71559        1.90928
H          7.32851       -3.23927        0.34420
H          8.36245        3.35436       -0.77357
H         -4.58623       -3.31669        0.10240
H         10.84180       -2.29055       -0.67903
H         13.29351       -2.58493       -0.44216
H         14.80137       -0.61222       -0.66715
H         13.87132        1.64439       -1.05296
H         -6.83566       -0.42136        5.11409
H         -9.24854       -0.65074        5.68260
H        -10.72825       -2.07242        4.27534
H         -9.83001       -3.30440        2.36867
H          2.91461        3.56246        1.15237
H          2.28174        4.73136        0.02498
H          3.84309        2.76158       -0.94767
H          3.89840        3.72767       -1.84838
H          4.70940        4.22625       -0.27721
H          0.96920       -4.68980        0.11858
H          0.69606       -3.93335        1.85523
H         -0.01509       -2.96106       -0.92297
H         -1.05406       -4.05997        0.31076
H         -0.18017       -2.69067        0.81448
