113
MS-4Cl.sdf
C          2.44551        1.55687       -0.74929
C          1.13883        1.64308       -1.30341
S          0.78794        3.13037       -2.01920
C          2.27048        3.69856       -1.51841
C          3.03498        2.83769       -0.82248
N          4.16862        3.45371       -0.36669
C          5.22120        2.74054        0.35285
C          4.09137        4.75857       -0.85209
C          2.93746        4.84999       -1.65310
C          2.59581        5.95281       -2.42035
N          1.47752        6.07117       -3.17750
S          1.70098        7.54957       -3.88592
N          3.16824        8.04723       -3.30006
C          3.51210        7.01471       -2.49190
C          4.62361        6.98420       -1.66226
C          4.84750        5.99958       -0.71880
N          5.77643        6.53543        0.14554
C          6.48163        5.90666        1.26427
C          7.79144        5.28468        0.75998
C          5.96210        7.86288       -0.24194
C          5.59324        7.92093       -1.52545
S          7.15655        7.84564       -2.30718
C          8.01585        8.49971       -0.98291
C          7.09335        8.59798        0.03539
C          6.24218        2.20244       -0.65042
C         13.51143        9.85446       -3.20537
O         12.38522        9.66226       -3.61114
C         14.64498        9.76869       -4.06048
C         14.60441        9.43042       -5.40322
C         15.79935        9.35758       -6.10795
Cl        15.72929        8.89819       -7.80372
C         17.01650        9.64225       -5.44822
Cl        18.53460        9.55097       -6.32427
C         17.02517        9.99559       -4.07594
C         15.80431       10.04541       -3.37165
C         15.44170       10.37320       -1.94345
C         16.28452       10.82018       -0.96679
C         15.81388       11.21493        0.33395
N         15.37640       11.51890        1.36079
C         17.70965       10.92972       -1.14206
N         18.85954       11.04104       -1.21806
C         13.94674       10.12695       -1.83014
C         13.15090       10.12878       -0.71898
C         -2.92145       -1.59618       -0.81895
C         -3.29253       -2.89569       -0.88852
C         -4.70734       -3.40365       -0.84901
C         -5.85002       -2.74143       -0.42561
C         -7.23045       -3.27642       -0.61393
N         -8.30709       -3.71377       -0.77109
C         -5.81061       -1.43684        0.22158
N         -5.70924       -0.39937        0.73149
C         -4.64147       -4.78748       -1.42777
C         -5.64494       -5.70811       -1.77989
C         -5.27716       -6.96945       -2.29289
Cl        -6.53897       -8.10868       -2.73649
C         -3.91420       -7.30918       -2.44344
Cl        -3.41346       -8.87189       -3.07254
C         -2.92733       -6.38700       -2.09170
C         -3.32023       -5.14821       -1.59783
C         -2.45861       -4.06996       -1.20647
O         -1.24783       -4.16332       -1.19179
C          7.26961        9.65807        0.93183
C          8.44778       10.33059        1.00293
C          9.54164        9.94231        0.23947
C          9.31209        9.02842       -0.79557
C         10.83521       10.44191        0.31212
C         11.67885        9.87856       -0.65617
S         10.72795        8.86700       -1.65315
N          6.35070       10.33889        1.63570
N          6.99187       11.41853        2.09263
N          8.28292       11.42107        1.76087
C          6.28473       12.67860        2.35151
C          5.74496       12.79979        3.75752
C          0.25258        0.58545       -1.20077
C          0.64323       -0.61541       -0.65060
C          1.95034       -0.76080       -0.22303
C          2.84352        0.28272       -0.25053
S         -1.37284        0.54768       -1.57421
C         -1.58640       -1.01881       -0.96826
C         -0.36627       -1.54658       -0.55939
N          2.54354       -1.84875        0.27451
N          3.79271       -1.47521        0.51443
N          4.01681       -0.19203        0.21302
C          4.82208       -2.43081        0.90901
C          5.51545       -2.99445       -0.33060
H          5.73368        3.36551        1.06801
H          4.77593        1.92780        0.96225
H          6.76973        6.67031        2.01683
H          5.80837        5.22502        1.80768
H          8.45531        6.07738        0.35540
H          8.32556        4.77184        1.58590
H          7.62254        4.56984       -0.06147
H          6.69373        3.04332       -1.21105
H          7.04520        1.64218       -0.12746
H          5.76630        1.53598       -1.39882
H         13.65397        9.21526       -5.87975
H         17.96902       10.20660       -3.60345
H         13.57336       10.28639        0.26251
H         -3.65678       -0.81948       -0.69146
H         -6.69047       -5.48540       -1.67745
H         -1.87524       -6.62209       -2.20566
H         11.11066       11.17185        1.06394
H          6.95992       13.53952        2.14141
H          5.43986       12.76702        1.62933
H          6.58078       12.78463        4.48389
H          5.21216       13.77437        3.84184
H          5.02668       11.98151        3.96123
H         -0.18573       -2.49818       -0.11133
H          5.54263       -1.94779        1.59974
H          4.35014       -3.29123        1.43418
H          5.98131       -2.18331       -0.92742
H          6.29826       -3.72328       -0.03049
H          4.77406       -3.52760       -0.96666
