147
N65-IC.sdf
C         -0.32628       -1.49692       -2.35138
C         -0.03823       -1.69952       -0.99204
C          0.95218       -0.86910       -0.45788
C          1.18245        0.41109       -0.96508
C          0.63808        0.73532       -2.22032
C         -0.03480       -0.25460       -2.94875
C          1.79468       -1.40305        0.49564
C          2.68108       -0.56924        1.21291
C          2.51080        0.84940        1.06306
C          1.86806        1.28173       -0.10067
C         -0.85481       -2.73187       -0.05400
C          0.50930       -3.54415        0.00038
C          1.73883       -2.89801        0.42386
C          2.85120        2.08408        2.00208
C          2.46663        3.22826        1.03338
C          1.94169        2.70643       -0.13768
C         -1.02184       -3.17441        1.56178
C         -2.29927       -1.80834       -0.21542
C         -2.17254       -3.87759        2.05916
C         -2.34953       -4.23700        3.41920
C         -1.40418       -3.96464        4.38573
C         -0.24202       -3.38160        3.95431
C         -0.06221       -3.00493        2.61885
C         -2.77795       -0.98864       -1.33764
C         -3.92876       -0.19272       -1.40175
C         -4.82915       -0.13684       -0.36832
C         -4.46619       -0.90047        0.73346
C         -3.26506       -1.61467        0.81926
C         -6.10025        0.78213       -0.35948
C         -7.30456        0.61365       -1.37038
C         -1.63866       -4.26895        5.86377
C         -2.48853       -5.49119        6.11066
C          4.35544        2.20082        2.45485
C          1.81034        2.04108        3.27401
C          4.98688        3.43412        2.77687
C          6.34850        3.48450        3.18887
C          7.10310        2.29703        3.31647
C          6.49010        1.10253        3.00847
C          5.17780        1.06714        2.58227
C          8.56168        2.23167        3.71536
C          8.76589        2.10630        5.22234
C          2.31699        4.64783        1.01475
C          1.71675        5.08216       -0.13292
S          1.30258        3.85351       -1.19463
S          2.54719        6.03675        1.97817
C          1.93592        7.18358        0.84664
C          1.48981        6.42985       -0.25419
C          0.75789       -4.90765       -0.12894
C          2.01782       -5.27628        0.21314
S          2.99237       -3.99066        0.69819
S         -0.10073       -6.27260       -0.55483
C          1.15734       -7.39073       -0.24065
C          2.28280       -6.62517        0.15126
C          1.06834       -8.89819       -0.35259
C         -0.07780       -9.64136       -0.16677
C          0.26083        2.06755        3.06482
C         -0.62823        1.38936        3.88500
C         -1.98085        1.25769        3.54607
C         -2.47168        1.81624        2.37169
C         -1.61371        2.46390        1.55282
C         -0.30908        2.65933        1.97898
C         -3.90085        1.78199        2.01158
C         -4.77869        2.44064        3.02940
C         -0.30591      -11.14135       -0.29255
C         -1.79683      -11.34950       -0.10993
C         -2.37312      -10.14515        0.18277
C         -1.41249       -9.12822        0.23444
C         -2.65818      -12.46381       -0.19940
C         -4.04666      -12.28661        0.00490
C         -4.57775      -11.02320        0.29917
C         -3.72930       -9.93897        0.39208
O         -1.73868       -8.02325        0.60748
C          0.59926      -12.13018       -0.50808
C          0.19437      -13.52246       -0.50646
C          2.01893      -11.92746       -0.66147
N         -0.06750      -14.65178       -0.52322
N          3.16788      -11.90604       -0.80037
C          1.81111        8.68636        1.05224
C          1.86059        9.64822        0.06590
C          1.68835       11.16568        0.12174
C          1.72930       11.64130       -1.31773
C          2.00368       10.56347       -2.11801
C          2.15758        9.39172       -1.35200
C          1.57211       12.89481       -1.95356
C          1.69542       12.97612       -3.36357
C          1.98370       11.83493       -4.12836
C          2.14467       10.61560       -3.49611
O          2.61252        8.38382       -1.84961
C          1.56868       11.96925        1.21088
C          1.48170       13.40678        1.10700
C          1.58943       11.49222        2.57589
N          1.40662       14.56204        1.12539
N          1.59994       11.18334        3.69271
H         -1.01501       -2.17265       -2.86899
H          0.78523        1.69745       -2.68200
H         -0.44707       -0.02202       -3.92830
H          3.33671       -1.05758        1.91026
H         -3.01325       -4.02552        1.39683
H         -3.22038       -4.73439        3.75452
H          0.53080       -3.21246        4.67690
H          0.88452       -2.60403        2.48457
H         -2.35947       -0.82372       -2.24943
H         -4.10078        0.38320       -2.30063
H         -5.08603       -0.85879        1.62382
H         -3.19452       -1.95307        1.79107
H         -6.55441        0.69462        0.65366
H         -5.79560        1.85233       -0.43420
H         -7.11536        0.22750       -2.38598
H         -8.15867        0.05259       -0.91207
H         -7.72338        1.61112       -1.66854
H         -0.70521       -4.21759        6.47112
H         -2.30505       -3.52300        6.29894
H         -1.96839       -6.36120        5.69138
H         -2.69094       -5.58450        7.19344
H         -3.49664       -5.35881        5.66007
H          1.95461        1.05901        3.79452
H          2.04181        2.82621        4.00293
H          4.44827        4.35975        2.69766
H          6.80994        4.44098        3.39942
H          7.03291        0.16705        3.08834
H          4.87154        0.10140        2.36755
H          9.02855        1.32865        3.24771
H          9.10168        3.11094        3.32055
H          8.29988        1.17758        5.62180
H          9.85616        2.05461        5.43555
H          8.33889        2.98913        5.73625
H          0.97730        6.73709       -1.13305
H          3.25733       -6.92885        0.45100
H          1.99280       -9.40051       -0.62099
H         -0.26753        0.95752        4.77299
H         -2.63114        0.68876        4.16648
H         -2.00841        2.80215        0.61399
H          0.29867        3.26226        1.50078
H         -4.13588        2.21354        1.00885
H         -4.15728        0.80391        2.09305
H         -4.68561        3.51449        2.86451
H         -5.70608        1.84044        3.15277
H         -4.52026        2.39450        4.07280
H         -2.32031      -13.45125       -0.43279
H         -4.71999      -13.12383       -0.06885
H         -5.63682      -10.87177        0.45329
H         -4.11099       -8.94593        0.61126
H          1.64109        8.98518        2.07871
H          1.36146       13.80164       -1.41903
H          1.57765       13.92018       -3.87489
H          2.09064       11.88364       -5.20394
H          2.37790        9.71641       -4.05813
