104
N7.sdf
C         -1.18637       -0.27840        1.34986
C         -0.04250       -1.07902        1.42712
C          1.15776       -0.41449        1.16998
C          1.01673        0.93647        0.87071
S         -0.64687        1.27262        0.91410
C          2.13797        1.88742        0.58013
C          1.88220        3.26331        0.33695
C          2.93591        4.16670        0.08527
C          4.24106        3.67460        0.07800
C          4.51562        2.34527        0.30508
C          3.48535        1.43050        0.55626
N          5.85599        2.11140        0.24590
C          6.54745        0.83570        0.45501
C          6.84810        0.16421       -0.87868
C          6.42906        3.31545       -0.01296
C          5.46206        4.29568       -0.11636
C          5.78854        5.62448       -0.35340
C          7.14721        5.96458       -0.46021
C          8.17378        4.97844       -0.35648
C          7.79450        3.62332       -0.14387
C          9.61848        5.37761       -0.42169
C         10.10311        6.68684       -0.45127
C         11.49804        6.78552       -0.43618
C         12.16514        5.56414       -0.40776
S         10.97335        4.35487       -0.41666
C         -2.62004       -0.68752        1.56666
N         -3.10116       -1.73590        2.33213
C         -4.47385       -1.74230        2.22234
C         -4.88943       -0.73091        1.39717
C         -3.72993       -0.05172        1.00718
C         -2.39425       -2.71432        3.17613
C         -2.47148       -2.31469        4.64488
O         -5.19650       -2.55833        2.76644
C         -5.99113       -0.14462        0.78061
N         -5.52603        0.92171        0.03801
C         -4.15288        0.96507        0.18933
O         -3.42652        1.77978       -0.35214
C         -6.27566        1.87448       -0.80020
C         -7.24826        2.73485        0.01288
C         -7.39885       -0.64916        0.89064
C         -8.50097       -0.35798        0.07826
C         -9.67641       -1.02710        0.44519
C         -9.52711       -1.85775        1.54160
S         -7.93019       -1.76196        2.04254
C         13.65583        5.40683       -0.37005
N         14.38111        4.30966       -0.77695
C         15.71889        4.61057       -0.58502
C         15.85217        5.86554       -0.04605
C         14.55813        6.36097        0.09927
C         13.80719        3.07208       -1.34346
C         14.83801        2.01644       -1.75802
O         16.64383        3.86762       -0.85090
C         16.75806        6.82061        0.40958
N         16.02914        7.89282        0.88203
C         14.69129        7.59752        0.68007
O         13.76523        8.32116        0.99214
C         16.59148        9.09659        1.52895
C         15.59049        9.92903        2.33522
C         18.25045        6.65119        0.41971
C         19.25130        7.57727        0.74778
C         20.55514        7.06664        0.65667
C         20.61307        5.74440        0.25471
S         19.04364        5.21940        0.01169
H         -0.00879       -2.12949        1.62639
H          2.09889       -0.94126        1.20903
H          0.86901        3.64269        0.34999
H          2.73357        5.21539       -0.09157
H          3.72987        0.39699        0.72962
H          7.47903        1.00140        1.03730
H          5.92094        0.14697        1.05743
H          7.48424        0.81582       -1.51217
H          7.37481       -0.79716       -0.70044
H          5.89597       -0.04812       -1.41189
H          5.02126        6.38579       -0.42732
H          7.38334        7.00371       -0.62650
H          8.54488        2.85291       -0.04142
H          9.48489        7.57150       -0.46229
H         11.98924        7.74321       -0.46176
H         -2.82548       -3.72721        3.01606
H         -1.33724       -2.79695        2.94971
H         -3.52263       -2.24396        4.98915
H         -1.93666       -3.06833        5.26213
H         -1.97158       -1.33114        4.78396
H         -5.57023        2.57973       -1.29018
H         -6.79318        1.33689       -1.61827
H         -6.70397        3.29429        0.80060
H         -7.74106        3.46413       -0.66605
H         -8.04258        2.14345        0.50214
H         -8.49314        0.29774       -0.77317
H        -10.61367       -0.91194       -0.08372
H        -10.30290       -2.46664        1.98673
H         13.14091        2.60458       -0.58966
H         13.21335        3.33535       -2.24463
H         15.42871        1.68023       -0.87866
H         14.31932        1.13045       -2.17858
H         15.51596        2.41735       -2.54206
H         17.32615        8.76926        2.29177
H         17.09176        9.73120        0.76484
H         15.14016        9.29339        3.13007
H         16.12554       10.76596        2.83215
H         14.79728       10.36986        1.70053
H         19.09646        8.59980        1.04070
H         21.43863        7.65087        0.87810
H         21.51110        5.15659        0.11905
