92
NDI-3TH.sdf
C         -2.94097        3.00670       -1.41430
C         -2.93909        1.81215       -2.13550
S         -1.40661        1.12571       -2.01993
C         -0.72676        2.34803       -1.07944
C         -1.70242        3.30806       -0.83156
C         -4.06717        1.20243       -2.92662
C         -5.36709        2.00362       -2.86853
C          0.68905        2.41790       -0.67311
C          1.64170        1.42679       -0.88595
C          2.93552        1.80985       -0.51383
C          3.00469        3.10194       -0.00326
S          1.44855        3.75468        0.02296
C          4.24169        3.81713        0.36281
S          5.80345        3.30801        0.01312
C          6.63334        4.66525        0.60580
C          5.64694        5.50354        1.15810
C          4.32917        5.04574        0.99705
C          8.14664        4.81939        0.56587
C          8.85525        3.60676        0.58296
C         10.25482        3.53539        0.61642
C         11.01867        4.71524        0.63925
C         10.34488        5.96868        0.61339
C          8.91345        6.04357        0.54331
C         12.44874        4.63921        0.68244
C         13.20775        5.85996        0.70935
C         12.51232        7.07536        0.71699
C         11.11402        7.14923        0.65199
C         10.89477        2.28405        0.65057
N         12.26939        2.19411        0.71016
C         13.03978        3.34338        0.74307
C         10.47898        8.40155        0.60137
N          9.11234        8.48563        0.45944
C          8.33751        7.34177        0.40897
C          8.47491        9.81974        0.34869
C          8.24754       10.41965        1.73341
O         11.14769        9.42509        0.64137
O          7.14801        7.46399        0.20957
O         10.21996        1.26342        0.65614
C         12.91013        0.85333        0.77796
C         12.69168        0.04107       -0.50377
O         14.24759        3.23442        0.85806
C         21.75177       11.51228        4.34097
C         22.68289       11.81195        3.35325
S         22.35730       10.85000        2.00264
C         21.00489       10.08281        2.65489
C         20.80503       10.55828        3.94673
C         23.76303       12.85137        3.49795
C         24.55088       13.09106        2.21161
C         20.16190        9.09734        1.95408
C         20.51302        8.39821        0.80465
C         19.50775        7.53410        0.34993
C         18.34720        7.57715        1.11996
S         18.59095        8.66145        2.38968
C         17.09799        6.83782        0.84479
S         15.58527        7.20404        1.48386
C         14.70841        6.00385        0.66858
C         15.62309        5.30543       -0.13110
C         16.94451        5.77153       -0.03392
H         -3.79895        3.65889       -1.32320
H         -1.52743        4.20926       -0.25937
H         -3.74651        1.12589       -3.98849
H         -4.26404        0.17936       -2.54340
H         -5.21369        3.02897       -3.26770
H         -6.14167        1.50047       -3.48545
H         -5.73388        2.06301       -1.82190
H          1.41891        0.46290       -1.32430
H          3.79611        1.16630       -0.63867
H          5.82895        6.42574        1.68630
H          3.46748        5.60043        1.34583
H          8.30144        2.67797        0.59884
H         13.07951        7.99835        0.72029
H          9.09009       10.49673       -0.28478
H          7.48759        9.76214       -0.15679
H          9.20674       10.53751        2.27757
H          7.76156       11.41345        1.63579
H          7.57628        9.75544        2.32000
H         14.00903        0.92579        0.91462
H         12.51434        0.29621        1.65338
H         13.11061        0.58443       -1.37649
H         13.21160       -0.93610       -0.41051
H         11.62081       -0.16863       -0.69238
H         21.74298       11.98676        5.31380
H         20.00403       10.22419        4.59260
H         23.28342       13.81325        3.78123
H         24.45640       12.55002        4.31189
H         23.86605       13.43115        1.40431
H         25.30697       13.88678        2.38219
H         25.07169       12.16574        1.88935
H         21.46970        8.50084        0.30899
H         19.62152        6.92388       -0.53581
H         15.35651        4.50925       -0.81246
H         17.75964        5.34423       -0.60341
