170
NIDT.sdf
C          3.24481        1.42903       -0.54084
C          2.88136        0.08981       -0.38538
C          1.52645       -0.25615       -0.30753
C          0.60593        0.79240       -0.33842
C          0.96830        2.13800       -0.46871
C          2.32314        2.47840       -0.59516
C          4.66219        1.47237       -0.61904
C          5.19369        0.21652       -0.48852
C          4.09946       -0.83538       -0.27553
S          5.79468        2.70128       -0.88128
C          7.03677        1.55912       -0.83453
C          6.57832        0.28439       -0.62228
C         -0.80834        0.73768       -0.21839
C         -1.32217        2.00168       -0.23042
C         -0.25591        3.06892       -0.42333
S         -1.96764       -0.48969       -0.07619
C         -3.19241        0.67823       -0.03471
C         -2.69768        1.95010       -0.10137
C          4.04507       -1.86400       -1.41774
C          4.22509       -1.47726        1.13159
C         -0.24172        4.02896        0.78635
C         -0.40826        3.82499       -1.76340
C         10.48968        0.19645       -1.03556
C         11.55035        0.98692       -0.72130
C         -6.62877        2.02955        0.07271
C         -7.33919        3.10857        0.46210
C         11.65040        2.23168       -0.04007
C         12.98762        2.53683        0.01174
C         13.74391        1.58113       -0.57807
C         12.87443        0.61314       -1.03255
C         -8.73621        3.18014        0.40396
C         -9.10040        4.38806        0.90873
C         -8.02447        5.10971        1.29500
C         -6.91180        4.33827        1.02169
C         10.75802        3.11976        0.59717
C         11.26473        4.29350        1.21079
C         12.66117        4.56812        1.22800
C         13.52413        3.65580        0.62328
C         14.91620        3.81100        0.64556
C         15.72645        2.82330        0.00854
C         15.13713        1.69694       -0.61458
C         13.22230        5.69413        1.86166
N         14.61000        5.86995        1.91738
C         15.44883        4.92237        1.32457
C         15.14778        7.01253        2.71767
C         16.37436        7.77774        2.14641
C         16.14328        8.30647        0.72915
C         16.73745        8.93518        3.09022
C         -8.19146        6.37824        1.85802
C         -9.51246        6.87522        1.99275
C        -10.63139        6.09516        1.56611
C        -10.39865        4.82536        1.02021
C        -11.42469        3.98551        0.57790
C        -11.08346        2.70902        0.03500
C         -9.72921        2.29776       -0.05276
C        -12.74399        4.45324        0.69007
N        -13.00609        5.71692        1.22137
C        -11.96188        6.53255        1.65508
C        -14.40339        6.21040        1.29035
C        -14.89788        6.47591        2.73260
C        -16.34694        6.97895        2.68728
C        -14.80510        5.21658        3.60308
C          3.25257       -1.29437        2.14728
C          3.40161       -1.86671        3.41005
C          4.51909       -2.64834        3.71061
C          5.48898       -2.85620        2.71781
C          5.34458       -2.27556        1.44778
C          3.64709       -3.19707       -1.18805
C          3.57939       -4.12536       -2.23611
C          3.91968       -3.74508       -3.54341
C          4.31081       -2.42141       -3.78527
C          4.36076       -1.49124       -2.74134
C          0.67145        3.88080        1.85880
C          0.66244        4.76401        2.94544
C         -0.26128        5.81679        2.99980
C         -1.17246        5.97353        1.94593
C         -1.16269        5.09473        0.85561
C         -1.43731        3.50905       -2.68419
C         -1.57739        4.20180       -3.88413
C         -0.69851        5.23573       -4.21321
C          0.33035        5.56747       -3.31827
C          0.47519        4.87000       -2.10878
O         12.47457        6.49283        2.40523
O         16.65997        5.03292        1.39435
O         13.21248       -0.40582       -1.61114
O         -5.77315        4.67979        1.27398
O        -13.65767        3.73876        0.30734
O        -12.18967        7.64591        2.09970
C          3.87745       -4.75628       -4.66868
C          4.67358       -3.23330        5.09371
C          2.90467       -4.35334       -5.77685
C          4.24932       -4.69691        5.14137
C         -0.29240        6.75335        4.18608
C          0.87448        7.73787        4.17266
C         -0.87091        5.97290       -5.51665
C         -1.79567        7.17452       -5.34878
C          8.40335        1.68897       -0.99981
C          9.04576        0.45657       -0.87567
S          7.87936       -0.77705       -0.64242
C         -4.57173        0.58418        0.02919
C         -5.16155        1.85341        0.04595
S         -3.94712        3.05676       -0.05296
H          1.20916       -1.28360       -0.18357
H          2.65402        3.50126       -0.69608
H         10.70757       -0.77878       -1.46272
H         -7.18571        1.15469       -0.25048
H          9.70510        2.94533        0.67817
H         10.56767        4.96472        1.69716
H         16.80536        2.91540        0.00303
H         15.74917        0.94024       -1.08704
H         14.34957        7.76425        2.90822
H         15.44478        6.61518        3.71109
H         17.26111        7.11560        2.13087
H         15.29356        9.01932        0.70441
H         17.06045        8.82631        0.37350
H         15.93978        7.46813        0.03160
H         16.93263        8.55072        4.11507
H         17.65712        9.44942        2.73824
H         15.91162        9.67703        3.14225
H         -7.33764        6.96173        2.17841
H         -9.65498        7.85844        2.42286
H        -11.85398        2.03750       -0.32140
H         -9.48012        1.33079       -0.46954
H        -14.47658        7.14684        0.69295
H        -15.10864        5.48858        0.82625
H        -14.28674        7.26821        3.21046
H        -17.01445        6.21328        2.23520
H        -16.71104        7.20896        3.71089
H        -16.41105        7.90740        2.08013
H        -13.75040        4.87881        3.68395
H        -15.17051        5.43726        4.62957
H        -15.41615        4.39364        3.17509
H          2.36409       -0.70594        2.00296
H          2.63378       -1.70185        4.15669
H          6.36730       -3.45219        2.93314
H          6.11273       -2.45029        0.71058
H          3.36409       -3.53831       -0.19878
H          3.26652       -5.13937       -2.02413
H          4.58197       -2.10317       -4.78358
H          4.66253       -0.47743       -2.97341
H          1.39000        3.07404        1.88160
H          1.36483        4.61234        3.75696
H         -1.88695        6.78689        1.96293
H         -1.87316        5.25840        0.05672
H         -2.14973        2.72159       -2.50444
H         -2.37948        3.92826       -4.55940
H          1.01888        6.36868       -3.55668
H          1.27209        5.15976       -1.43866
H          4.89593       -4.85873       -5.10036
H          3.56730       -5.75208       -4.28606
H          5.72297       -3.10919        5.43898
H          4.02785       -2.68333        5.81323
H          3.20348       -3.38916       -6.23980
H          2.91099       -5.13027       -6.57340
H          1.87348       -4.26418       -5.37720
H          4.86235       -5.31479        4.45461
H          4.36671       -5.08049        6.17789
H          3.17667       -4.78500        4.86039
H         -1.22497        7.35716        4.17723
H         -0.29087        6.15785        5.12583
H          0.81179        8.37677        3.26476
H          0.80917        8.39943        5.06378
H          1.85176        7.21364        4.18652
H          0.11572        6.30540       -5.90417
H         -1.30804        5.29057       -6.27933
H         -1.36578        7.89433       -4.62078
H         -1.92120        7.68676       -6.32637
H         -2.79596        6.84648       -4.99208
H          8.88094        2.62797       -1.23275
H         -5.11353       -0.35067        0.06432
