158
NITT-BF.sdf
C          1.98510       -1.03460       -0.93665
C          2.78919        0.03558       -0.50937
C          2.50912       -2.06648       -1.69702
C          3.57247       -2.66857       -0.98829
C          4.58271       -1.79984       -0.71994
C          4.23888       -0.35304       -0.76953
C          3.32367       -3.83747        0.07399
C          3.85811       -2.70554        1.08526
C          5.08046       -2.32689        0.52987
C          3.60582       -1.64865        2.03887
C          4.72666       -0.87845        2.28159
S          6.06589       -1.33139        1.47391
C          2.85344        2.02879        3.30964
C          3.50634        3.25149        3.41067
C          4.94013        3.87539        3.30272
C          4.83474        5.12203        4.18187
C          3.50049        5.38195        4.46040
C          2.66455        4.34222        3.94190
O          1.45004        4.31338        4.09063
C          6.09244        3.65352        2.51900
C          7.31317        4.36876        2.76665
N          8.36920        4.88530        2.87641
C          6.31164        2.79129        1.28657
N          6.49349        2.07599        0.26416
C          5.79168        6.05379        4.65887
C          5.37518        7.18587        5.38360
C          4.01583        7.41231        5.63238
C          3.06685        6.50308        5.17018
F          6.29523        8.07364        5.83646
F          3.61884        8.51056        6.32236
S          2.30826       -0.76794        2.68502
C          3.29926        0.64052        3.04311
C          4.60864        0.33650        2.88354
C         -5.21351       -3.36127        1.30973
C         -5.72919       -4.36070        2.06840
C         -6.08331       -5.76727        1.66765
C         -6.69498       -6.39830        2.89483
C         -6.78546       -5.46932        3.91210
C         -6.16422       -4.22191        3.47688
C         -7.07872       -7.73813        3.15994
C         -7.64398       -8.07571        4.39098
C         -7.82111       -7.09512        5.37310
C         -7.37248       -5.78280        5.14660
O         -6.10003       -3.20572        4.15086
C         -5.88325       -6.44867        0.49736
C         -6.81001       -7.63351        0.27902
C         -5.18767       -6.02181       -0.70742
N         -4.60764       -5.52473       -1.56456
N         -7.57884       -8.61643        0.09789
F         -8.39257       -7.43007        6.55581
F         -8.01536       -9.36073        4.62789
C          2.43263       -4.54995       -1.04792
C          4.31718       -5.09136        0.48839
O          5.28215        0.46135       -0.90476
C          6.50222        0.05315       -1.49818
C          6.62835        0.75274       -2.82750
C          2.00347        1.22839        0.06581
C          0.51603        1.11126        0.40739
C          0.09603       -0.12692        0.07536
C          0.68367       -1.12008       -0.65196
O         -0.02631       -2.18635       -1.11405
C         -1.35158       -2.11744       -1.49424
C         -1.46692       -1.70233       -2.95493
C         -0.93611        1.80703        1.00648
C         -1.92472        0.54902        0.91413
C         -1.05515       -0.42430        0.70054
C         -1.21053        2.29823        2.51741
C         -1.47151        2.91903        0.02635
C         -2.95071       -0.09559        1.69913
C         -2.55729       -1.31443        2.21607
S         -1.08339       -1.76251        1.73670
S         -4.51156       -0.51667        1.13478
C         -4.64619       -2.08726        1.86130
C         -3.44159       -2.32716        2.48112
C          3.10447       -4.88049       -2.28909
C          2.44500       -5.32216       -3.40966
C          1.07076       -5.48255       -3.38152
C          0.36815       -5.22221       -2.18159
C          1.04174       -4.76366       -1.01639
C          5.25117       -5.02875        1.58711
C          6.09431       -6.08426        1.95075
C          6.06311       -7.29338        1.26818
C          5.14344       -7.44836        0.24054
C          4.29124       -6.40142       -0.12554
C         -2.15969        3.34024        2.81902
C         -2.46168        3.76130        4.12669
C         -1.86087        3.15726        5.22868
C         -0.97373        2.09355        4.98467
C         -0.67378        1.65981        3.66240
C         -2.39840        2.64403       -1.01501
C         -2.98013        3.67419       -1.77945
C         -2.67334        5.01949       -1.52946
C         -1.74582        5.31339       -0.52050
C         -1.14277        4.28682        0.23020
C          0.39590       -5.91723       -4.65759
C          0.32336       -7.43473       -4.72682
C          6.98677       -8.42226        1.65272
C          6.35245       -9.32189        2.70748
C         -2.15821        3.65949        6.64347
C         -3.37805        3.00510        7.29953
C         -3.30719        6.13490       -2.34812
C         -4.67106        6.58939       -1.81834
H          3.03010       -1.53993       -2.49965
H          1.79857        2.04570        3.49131
H          6.84635        5.96240        4.50823
H          2.01325        6.66612        5.36160
H          5.41914        1.02809        3.01579
H         -5.01745       -3.53851        0.26150
H         -6.94394       -8.55313        2.47471
H         -7.47153       -5.03676        5.92097
H          7.38355        0.26603       -0.85468
H          6.59433       -1.03520       -1.70114
H          6.56227        1.84838       -2.67426
H          7.59278        0.49229       -3.30906
H          5.78937        0.41463       -3.47259
H          2.53198        2.13190        0.34687
H         -1.84315       -3.09172       -1.31203
H         -1.84315       -3.09172       -1.31203
H         -0.98624       -0.71114       -3.10632
H         -2.53752       -1.61853       -3.23476
H         -0.96892       -2.44965       -3.60797
H         -3.10425       -3.32900        2.73489
H          4.17596       -4.73022       -2.38381
H          3.01758       -5.51066       -4.31222
H         -0.70675       -5.34251       -2.16708
H          0.47196       -4.52234       -0.13039
H          5.37248       -4.16990        2.22322
H          6.77920       -5.95266        2.77961
H          5.07937       -8.39476       -0.28604
H          3.62289       -6.70384       -0.90712
H         -2.71686        3.85986        2.05759
H         -3.17169        4.57034        4.27920
H         -0.51711        1.59667        5.83136
H         -0.01269        0.81915        3.54492
H         -2.70176        1.63231       -1.24126
H         -3.68381        3.42211       -2.56443
H         -1.50916        6.34752       -0.29628
H         -0.46921        4.57495        1.02702
H         -0.60755       -5.45343       -4.75355
H          0.98889       -5.56729       -5.53718
H         -0.28616       -7.82058       -3.88492
H         -0.13608       -7.74491       -5.68850
H          1.34674       -7.86787       -4.67030
H          7.23930       -9.02824        0.75482
H          7.94333       -8.01298        2.04548
H          5.41048       -9.76542        2.32083
H          7.05358      -10.14445        2.96409
H          6.13424       -8.74089        3.62868
H         -1.27875        3.48391        7.29922
H         -2.31799        4.76283        6.63195
H         -3.22908        1.90959        7.39152
H         -3.51674        3.41741        8.32634
H         -4.30454        3.21020        6.72378
H         -2.63860        7.02273       -2.35012
H         -3.41291        5.81191       -3.40663
H         -4.57930        6.97664       -0.78085
H         -5.05744        7.41781       -2.45530
H         -5.41023        5.76255       -1.84106
