162
NNBDT.sdf
C         -0.90032       -0.54777        1.34847
C         -1.08195        0.83672        1.56809
C          0.07815        1.62251        1.84926
C          1.32910        0.95230        1.73190
C          1.50915       -0.34257        1.19686
C          0.34356       -1.15941        1.11948
C          0.36969       -2.65952        0.95400
C          0.39301       -3.41282        2.27053
C          0.05825        3.06433        2.38017
C          0.05960        3.08061        3.87387
S          2.79939        1.46351        2.37183
C          3.62001        0.07346        1.90693
C          2.91076       -0.66809        1.00008
C          4.10077       -1.01211        2.77580
C          3.96092       -2.20757        2.10133
C          3.79938       -1.89765        0.64711
C          3.31021       -2.90838       -0.41304
C          5.23718       -1.49933        0.14842
C          2.58222       -2.48456       -1.55046
C          2.14097       -3.36115       -2.52579
C          2.48615       -4.70891       -2.45006
C          3.23143       -5.15501       -1.34980
C          3.63031       -4.27075       -0.35185
C          6.29722       -2.43153        0.25458
C          7.59961       -2.11787       -0.12799
C          7.90929       -0.84556       -0.61666
C          6.87716        0.09870       -0.74130
C          5.55902       -0.22304       -0.37587
C          2.07577       -5.65884       -3.55177
C          3.28271       -6.31820       -4.22825
C          9.33770       -0.49438       -0.97729
C          9.89683       -1.40166       -2.07181
S          3.94044       -1.32234        4.41492
C          3.77439       -3.02207        4.27845
C          3.80927       -3.33565        2.91616
C          3.49510       -4.03456        5.37031
C          3.94302       -5.32113        5.29079
C          4.82860       -5.87066        4.25861
C          4.37537       -7.20164        3.99285
C          3.56200       -7.59809        5.01893
C          3.59572       -6.54607        6.05187
O          5.79993       -5.34491        3.74721
C          3.62573       -6.78574        7.37944
C          3.81004       -5.78159        8.39264
C          3.73432       -8.15887        7.83621
N          3.96182       -5.03112        9.26205
N          3.82532       -9.24229        8.23484
C          4.62709       -7.98476        2.88514
C          3.92355       -9.19052        2.76905
C          3.02098       -9.59731        3.79903
C          2.86847       -8.80834        4.95703
C          4.06952       -9.97394        1.62128
C          3.31641      -11.13886        1.47346
C          2.42091      -11.53345        2.47250
C          2.27674      -10.77154        3.63513
S         -2.37331       -1.35620        1.32549
C         -3.22212        0.00304        1.38331
C         -2.48153        1.13398        1.42594
C         -4.55394        0.21530        1.17713
C         -4.72319        1.50451        0.91499
C         -3.43328        2.32878        1.15834
C         -3.84478        3.08178        2.38726
C         -2.85231        3.15581       -0.08292
C         -3.61775        2.57528        3.68630
C         -4.02805        3.28702        4.79355
C         -4.68647        4.51404        4.63642
C         -4.97072        4.98861        3.34828
C         -4.57665        4.26326        2.23486
C         -2.11619        4.38099       -0.01815
C         -1.47239        4.93656       -1.14383
C         -1.53844        4.31067       -2.38816
C         -2.32143        3.16873       -2.50027
C         -2.96664        2.63618       -1.38267
C         -5.02197        5.32350        5.84928
C         -3.87072        6.23856        6.13566
C         -0.81207        4.85842       -3.59082
C          0.70003        4.92854       -3.37283
S         -5.89659       -0.72378        1.05937
C         -6.84315        0.59473        0.57348
C         -6.03426        1.76570        0.55537
C         -8.25747        0.48785        0.09506
C         -8.72174       -0.64279       -0.54812
C         -8.92346       -0.26995       -1.93736
C         -7.77207       -0.84611       -2.62165
C         -7.16169       -1.80860       -1.83296
C         -7.94553       -1.91816       -0.61666
O         -9.60842        0.64657       -2.36400
C         -8.14636       -3.10649       -0.00424
C         -9.40457       -3.35300        0.64468
C         -7.24585       -4.23932       -0.14583
N        -10.40341       -3.59379        1.17528
N         -6.49198       -5.10827       -0.28891
C         -7.25627       -0.48891       -3.84733
C         -6.14753       -1.18286       -4.32683
C         -5.59590       -2.25874       -3.58291
C         -6.07853       -2.53720       -2.29818
C         -5.56911       -0.80209       -5.53366
C         -4.47825       -1.49522       -6.03149
C         -3.99840       -2.61856       -5.36885
C         -4.56248       -3.01557       -4.13511
H         -0.36689       -3.03975        0.22499
H          1.29412       -2.94957        0.65624
H         -0.59164       -3.47895        2.72597
H          0.62356       -4.48076        2.12119
H          1.15133       -2.95300        2.95011
H          0.98058        3.60162        2.07755
H         -0.86161        3.62656        2.19359
H          0.97421        2.58234        4.20339
H         -0.06331        4.09045        4.34427
H         -0.81253        2.49502        4.14439
H          2.28160       -1.47088       -1.65337
H          1.55213       -2.97183       -3.34647
H          3.51892       -6.19174       -1.26100
H          4.20271       -4.69425        0.43047
H          6.14606       -3.40682        0.67110
H          8.37329       -2.86917       -0.02021
H          7.09577        1.09187       -1.11338
H          4.80418        0.54171       -0.49087
H          1.42076       -6.45508       -3.14186
H          1.50312       -5.11023       -4.33182
H          3.85009       -6.94207       -3.50681
H          2.93627       -6.98849       -5.04391
H          3.96101       -5.55206       -4.66194
H          9.38747        0.56052       -1.32171
H          9.99418       -0.58529       -0.08220
H          9.31862       -1.28390       -3.01074
H         10.95344       -1.12794       -2.27919
H          9.86218       -2.46423       -1.75009
H          3.63268       -4.33133        2.58186
H          2.77672       -3.76225        6.14258
H          5.29546       -7.62768        2.11111
H          2.18671       -9.09818        5.74788
H          4.74822       -9.67110        0.83240
H          3.41977      -11.73057        0.57483
H          1.83248      -12.43105        2.34329
H          1.57169      -11.08725        4.39464
H         -3.12275        1.63551        3.88679
H         -3.79423        2.86973        5.76442
H         -5.47700        5.92829        3.19114
H         -4.82446        4.63775        1.25086
H         -1.97289        4.95042        0.87029
H         -0.89574        5.84711       -1.03356
H         -2.43683        2.66167       -3.45114
H         -3.56138        1.79304       -1.56450
H         -5.91949        5.96350        5.71403
H         -5.10991        4.64568        6.72809
H         -3.83487        7.03847        5.35078
H         -3.90723        6.51948        7.20720
H         -2.95142        5.65846        6.07822
H         -1.00616        4.20410       -4.46778
H         -1.18746        5.87630       -3.82276
H          1.11836        3.92317       -3.15351
H          1.17745        5.31373       -4.29730
H          0.95215        5.61874       -2.53928
H         -6.31357        2.75742        0.28350
H         -8.67701        1.45870       -0.17098
H         -7.69913        0.31220       -4.41420
H         -5.59653       -3.26866       -1.67605
H         -5.94075        0.05132       -6.07835
H         -4.00327       -1.16676       -6.94401
H         -3.17407       -3.11994       -5.85369
H         -4.23085       -3.88860       -3.57855
