140
NoCA-5.sdf
C          3.43310       -4.23247       12.43130
O          2.65940       -3.88881       13.31244
C          4.88069       -4.17768       12.48671
C          5.67902       -3.79896       13.53753
C          7.05361       -3.67023       13.29492
C          7.58738       -3.90360       12.00485
C          6.76130       -4.33424       10.96532
C          5.41292       -4.47963       11.24010
C          4.32475       -4.97868       10.42820
C          4.46193       -6.07576        9.64669
C          3.35665       -6.88549        9.20940
N          2.54209       -7.60133        8.81128
C          5.76667       -6.61277        9.28129
N          6.83917       -6.97727        9.03004
C          3.16769       -4.26513       11.00915
F          8.90509       -3.72153       11.76272
C          2.33087       -3.33162       10.46558
F          7.86419       -3.29295       14.30495
C          4.45188      -16.59308       -1.02530
O          3.38043      -16.87591       -1.53279
C          5.66470      -17.10984       -1.55871
C          5.78318      -17.67788       -2.82044
C          6.94945      -18.34313       -3.13643
C          7.98269      -18.41331       -2.18388
C          7.87050      -17.74002       -0.93543
C          6.67416      -17.05681       -0.62414
C          6.19707      -16.23198        0.56481
C          7.01495      -15.74728        1.56777
C          6.58490      -14.79572        2.56276
N          6.19621      -14.03183        3.34125
C          8.42734      -16.04721        1.60996
N          9.55234      -16.32038        1.59676
C          4.69925      -15.95104        0.29102
F          9.07773      -19.15489       -2.46734
C          3.77643      -15.28258        1.08629
F          7.03223      -18.97097       -4.33702
C          2.28747      -14.90059        0.87109
S          1.22154      -14.73859        2.20182
C         -0.12879      -14.20514        1.33863
C          0.14901      -14.07713       -0.02649
C          1.55769      -14.40893       -0.28509
C         -1.18407      -13.24585        1.67885
C         -1.30526      -12.54750        0.51908
C         -1.10318      -13.31526       -0.72695
S         -1.24114      -12.14483        2.96165
C         -1.21394      -10.72666        2.00144
C         -1.19450      -11.19265        0.67874
C         -1.03495       -9.26097        2.44625
C         -1.54027       -8.13475        1.73420
C         -1.19784       -6.71412        2.20959
C         -0.35161       -6.52165        3.41858
C         -0.03479       -7.72501        4.05273
C         -0.35892       -8.97805        3.59720
N          0.60177       -7.87826        5.22212
N          0.64931       -9.18325        5.42533
N          0.09415       -9.87816        4.45425
C          0.21662       -5.22724        4.13987
S          1.69495       -5.20633        5.03488
C          1.65177       -3.59672        5.49693
C          0.49621       -3.02201        5.07061
C         -0.31789       -3.89813        4.32498
C          2.20717       -2.88377        6.61160
C          1.17848       -2.08090        7.01439
C          0.25167       -1.70563        5.79382
S          3.16087       -3.49567        7.83293
C          2.18753       -2.89542        9.04277
C          1.07044       -2.24953        8.41808
O         -1.60380       -5.61239        1.49132
C         -1.28824       -1.43177        6.06229
C         -2.22600       -1.02449        4.87286
C          0.88106       -0.42691        5.07716
C          2.29492       -0.56346        4.47112
C         -2.26980      -14.36877       -0.86930
C         -3.69995      -13.80799       -0.93186
C         -1.16521      -12.35652       -2.09098
C         -2.33826      -11.49304       -2.56715
C          1.26380       -9.79768        6.56631
C          1.79529      -11.16644        6.17483
O         -2.32464       -8.61561        0.69386
C         -3.34956       -8.65654       -0.26981
C         -4.36751       -7.59857       -0.41193
C         -1.00423       -4.32762        1.43086
C         -0.15161       -4.18264        0.22349
C          2.26412      -13.97853       -1.58100
C          1.81821      -12.64028       -1.93461
C         -0.26338       -2.21983        9.06871
C         -0.70272       -3.68457        9.27126
H          5.22993       -3.59062       14.49745
H          7.15173       -4.51782        9.97253
H          1.80912       -2.71547       11.18635
H          4.96112      -17.63636       -3.52687
H          8.67818      -17.80973       -0.23259
H          4.14460      -14.96406        2.05403
H         -0.98087      -10.65247       -0.20112
H         -1.27433       -3.56480        3.99524
H         -1.74060       -2.35702        6.48093
H         -1.39025       -0.61723        6.81862
H         -2.31710       -1.77856        4.08000
H         -3.23865       -0.81389        5.28645
H         -1.99144       -0.11893        4.28888
H          0.24730       -0.09273        4.22923
H          0.91706        0.42155        5.80278
H          2.24163       -1.14453        3.52847
H          2.71394        0.42425        4.17964
H          3.02322       -1.00697        5.17497
H         -2.12614      -15.00579       -1.76811
H         -2.27606      -15.03220        0.01804
H         -3.92262      -13.32319       -1.87955
H         -4.44868      -14.60059       -0.94820
H         -3.95753      -13.19738       -0.04620
H         -0.42928      -11.49544       -2.06955
H         -0.86777      -12.99806       -2.97795
H         -2.11994      -10.42307       -2.43690
H         -2.52664      -11.62922       -3.64562
H         -3.25189      -11.52994       -2.02316
H          2.11616       -9.16674        6.86256
H          0.51557       -9.86032        7.38603
H          2.55298      -11.04132        5.36944
H          2.26758      -11.63123        7.05475
H          0.96937      -11.81325        5.79858
H         -2.94032       -8.67763       -1.31597
H         -4.05550       -9.47788        0.04742
H         -3.93429       -6.74537       -0.89076
H         -5.15654       -8.06797       -1.07531
H         -4.75151       -7.22700        0.52317
H         -1.76589       -3.48064        1.49861
H         -0.21318       -4.16664        2.09219
H         -1.02971       -4.07851       -0.23130
H          0.16107       -3.19226       -0.18337
H          0.13523       -5.12567       -0.26356
H          3.32647      -13.76702       -1.41224
H          1.96118      -14.53894       -2.47884
H          1.81949      -12.09863       -1.04927
H          2.18948      -11.94883       -2.70498
H          0.88350      -12.92204       -2.04044
H         -0.31417       -1.51930        9.90073
H         -1.03014       -1.90216        8.40130
H         -0.12062       -4.18645       10.05678
H         -1.78169       -3.73959        9.51868
H         -0.53399       -4.27821        8.33510
