104
NOCIC.sdf
C          5.34237        7.05009       -0.53496
O          4.65450        7.82089       -1.17956
C          6.78295        7.10348       -0.44433
C          7.67910        7.84559       -1.19048
C          9.04407        7.54283       -1.04692
C          9.46858        6.52792       -0.15768
C          8.53908        5.84097        0.62540
C          7.20367        6.15683        0.45959
C          6.04797        5.52889        1.05195
C          5.92860        5.08908        2.32578
C          4.71331        4.54059        2.86623
N          3.76256        4.09720        3.35334
C          6.99807        5.36149        3.26634
N          7.87448        5.59706        3.98588
C          5.02265        5.72298        0.02701
C          4.24671        4.75808       -0.47757
C        -14.61626        3.47301       -1.51855
O        -13.97149        3.06478       -0.57893
C        -14.97071        2.58728       -2.49591
C        -14.39880        1.32308       -2.58204
C        -14.70707        0.56717       -3.68033
C        -15.56823        1.10129       -4.65771
C        -16.19193        2.38177       -4.48924
C        -15.89558        3.15122       -3.35184
C        -16.30545        4.52432       -2.78239
C        -17.43371        5.32734       -2.92862
C        -17.56126        6.57498       -2.18761
N        -17.68986        7.57339       -1.61015
C        -18.62427        5.06928       -3.74506
N        -19.60237        4.94349       -4.36200
C        -15.19748        4.80627       -1.79977
C        -14.77503        5.99610       -1.30203
C        -13.53223        6.14771       -0.52481
S        -12.40525        4.96950       -0.10245
C        -11.26860        6.03027        0.33116
C        -11.70119        7.29126        0.24792
C        -12.96631        7.36906       -0.23995
C         -9.87122        6.03510        0.33730
C         -9.46093        7.32817        0.30816
C        -10.62366        8.30986        0.46554
S         -8.68286        4.94218       -0.07949
C         -7.54463        6.19068       -0.31543
C         -8.12131        7.44281       -0.04728
C         -6.19683        5.99830       -0.88629
N         -5.80080        4.76173       -1.29355
N         -4.59933        4.55333       -1.83629
C         -3.70296        5.56361       -1.99451
C         -4.05889        6.85282       -1.59329
C         -5.31562        7.07454       -1.04887
C         -2.37083        5.29017       -2.55021
S         -1.17449        6.47969       -2.78088
C         -0.03288        5.34381       -3.19281
C         -0.53261        4.06638       -3.22036
C         -1.86514        4.01233       -2.82418
C          1.38029        5.27637       -3.02835
C          1.68957        3.96369       -2.99797
C          0.56505        3.03551       -3.41784
S          2.46488        6.22426       -2.15772
C          3.31894        4.85892       -1.62614
C          2.77652        3.72948       -2.20905
C          0.74860        2.70113       -4.94361
C         -0.29716        1.76661       -5.57525
C          0.45355        1.77071       -2.48807
C          0.18235        1.98526       -0.97411
C        -10.74037        8.85138        1.92700
C        -10.98971        7.79832        3.02338
C        -10.62432        9.41261       -0.65745
C        -11.74587       10.47303       -0.61871
F        -15.77815        0.37471       -5.77643
F        -14.13383       -0.65546       -3.81494
F          9.95308        8.19105       -1.80740
F         10.77440        6.18265       -0.07945
H          7.32625        8.57726       -1.90634
H          8.83678        5.03276        1.28109
H          4.40401        3.76531       -0.05864
H        -13.69504        0.95587       -1.82574
H        -16.83391        2.76116       -5.25772
H        -15.24596        6.93201       -1.57187
H        -13.37238        8.27212       -0.47883
H         -7.61078        8.37043       -0.22633
H         -3.36648        7.67857       -1.68301
H         -5.57931        8.07528       -0.74172
H         -2.41612        3.10694       -2.64015
H          3.04140        2.77598       -1.94782
H          0.70891        3.64561       -5.52906
H          1.74349        2.23616       -5.11372
H         -1.33870        2.12280       -5.40658
H         -0.11502        1.64167       -6.65744
H         -0.16859        0.73760       -5.24369
H         -0.35180        1.10805       -2.86884
H          1.40952        1.20411       -2.53904
H         -0.75449        2.40490       -0.65635
H          0.08267        1.00598       -0.47961
H          0.96040        2.58345       -0.47604
H         -9.81040        9.37325        2.21147
H        -11.58223        9.57938        1.98819
H        -10.22029        7.00116        3.05913
H        -11.11879        8.26864        4.00655
H        -11.97816        7.35675        2.95310
H         -9.66599        9.96897       -0.61769
H        -10.71980        8.93515       -1.65395
H        -11.74983       11.13719        0.23020
H        -11.59547       11.23521       -1.38664
H        -12.75638       10.08191       -0.70935
