114
NTz-Teh-FA.sdf
C         -4.43839        1.60164        0.84486
C         -5.00692        0.17595        0.65855
C         -3.01251        1.80957        0.86942
C         -2.40246        3.07266        1.01796
C         -3.21482        4.17647        1.17124
C         -4.57031        4.02153        1.18005
C         -5.24768        2.80075        1.02442
C         -5.17238        5.24087        1.36900
C         -6.55235        5.35245        1.42383
C         -7.30101        4.17566        1.27440
C         -6.66914        2.92230        1.07697
C         -2.94135        5.53238        1.34475
C         -4.17272        6.18897        1.47805
C         -1.72213        6.23764        1.39961
C         -1.82455        7.62856        1.60172
C         -3.05130        8.26266        1.74539
C         -4.26549        7.57101        1.68663
C         -0.85952        8.61835        1.70490
N         -1.44838        9.83837        1.91379
C         -2.79479        9.60292        1.94195
O          0.34409        8.44064        1.62828
C         -0.77747       11.13253        2.09203
C         -1.20114       12.13329        1.01732
O         -3.64141       10.46149        2.12081
S         -6.65832       -0.21898        0.60319
C         -6.59558       -1.88678        0.45055
C         -5.23971       -2.19535        0.42858
C         -4.35120       -1.09356        0.52672
C         -2.86875       -1.40400        0.49701
C         -2.21576       -1.02475       -0.83876
C         -7.75190       -2.85767        0.36478
C         -9.10363       -2.44857        0.32400
C        -10.17031       -3.40817        0.24632
C         -9.90687       -4.79132        0.21378
C         -8.55445       -5.20328        0.25775
C         -7.50919       -4.24956        0.32771
C        -10.94729       -5.76152        0.13714
C        -10.67911       -7.15784        0.10716
C         -9.32089       -7.54628        0.15707
C         -8.27386       -6.57608        0.23044
N         -8.89929       -8.83622        0.13062
S         -7.25755       -8.70126        0.20342
N         -7.00961       -7.07413        0.26666
N         -9.49759       -1.14880        0.34922
S        -11.14351       -1.26092        0.27469
N        -11.42475       -2.88658        0.20938
C        -11.81316       -8.15504       -0.00187
C        -11.76015       -9.55428       -0.03976
C        -13.00281      -10.21243       -0.22469
C        -14.10186       -9.32001       -0.32059
S        -13.43671       -7.76742       -0.16029
C        -13.03302      -11.72628       -0.35005
C        -12.15467      -12.23156       -1.49574
C        -15.58332       -9.60188       -0.50248
C        -16.17334      -10.79514        0.04307
C        -17.55330      -11.09390       -0.08751
C        -18.36393      -10.17855       -0.74851
C        -17.81618       -9.03293       -1.25276
C        -16.46628       -8.68870       -1.17977
C        -18.78084       -8.26411       -1.84747
C        -18.46091       -7.05281       -2.44686
C        -17.11230       -6.66132       -2.43731
C        -16.12444       -7.46494       -1.82025
C        -19.72996      -10.14081       -1.04094
C        -19.97973       -8.93025       -1.70950
C        -20.76844      -11.05687       -0.77960
C        -22.05316      -10.66908       -1.21286
C        -22.28521       -9.45345       -1.84520
C        -21.26001       -8.54885       -2.12569
C        -23.28010      -11.30446       -1.13143
N        -24.26012      -10.51129       -1.66402
C        -23.63853       -9.37615       -2.09614
O        -23.47723      -12.40033       -0.63855
C        -25.69350      -10.80790       -1.74906
C        -26.44908      -10.06344       -0.65418
O        -24.20784       -8.44157       -2.63505
H         -2.31043        1.02326        0.78028
H         -1.32388        3.17227        1.02135
H         -7.03580        6.30861        1.57576
H         -8.38087        4.23005        1.31344
H         -7.34591        2.10775        0.98278
H         -0.76483        5.74362        1.29371
H         -5.21622        8.07549        1.79644
H         -1.03032       11.54214        3.09376
H          0.32484       11.00362        2.03724
H         -2.29153       12.33312        1.06713
H         -0.67062       13.09620        1.17501
H         -0.94935       11.74447        0.00859
H         -4.86992       -3.20488        0.33209
H         -2.36820       -0.97638        1.38818
H         -2.70805       -2.50077        0.58977
H         -2.32487        0.04313       -1.10484
H         -1.13266       -1.26981       -0.79626
H         -2.67518       -1.61316       -1.66032
H         -6.49493       -4.61238        0.35963
H        -11.97427       -5.42135        0.09772
H        -10.85302      -10.12591        0.03531
H        -12.67600      -12.17554        0.60208
H        -14.03427      -12.11618       -0.57642
H        -11.09083      -11.95523       -1.34775
H        -12.21328      -13.34049       -1.54310
H        -12.51068      -11.81693       -2.46248
H        -15.59204      -11.49979        0.61267
H        -17.96914      -12.00035        0.33566
H        -19.21652       -6.44022       -2.91975
H        -16.82466       -5.73344       -2.91287
H        -15.12276       -7.09590       -1.88394
H        -20.59526      -11.99874       -0.27583
H        -21.44770       -7.60947       -2.62846
H        -26.07446      -10.53195       -2.75764
H        -25.87168      -11.89450       -1.60301
H        -26.29382       -8.96813       -0.73593
H        -27.53467      -10.28484       -0.72641
H        -26.08462      -10.40791        0.33840
