118
o-4TBC-4F.sdf
C          1.97254       -2.83637        2.16046
C          1.86816       -1.68910        1.29366
C          1.73450       -0.37658        1.65452
C          2.13155       -0.45800        3.17628
S          2.22537       -2.10697        3.61570
C          1.37966        0.54367        0.17539
C          2.42942        0.40426        4.48464
C          0.97906       -0.04594       -1.18719
C          1.03795        0.66685       -2.43342
C          1.28164        1.99884       -2.47208
C          1.35845        2.64454       -1.27914
C          1.37832        1.98963       -0.01837
O          0.38198       -1.25531       -1.35761
C         -0.36562       -1.80661       -0.34102
C          0.09375       -3.19695       -0.14652
O          1.32457        2.86972        0.97124
C          1.13229        2.51501        2.23367
S          1.45824        1.60892        4.67036
C          1.66640        2.40647        5.91420
C          2.54305        1.60406        6.54236
C          3.14431        0.47324        5.79027
C          4.25840       -0.42611        6.48558
C          4.33526       -0.59860        7.95160
C          5.13783       -1.62157        8.51106
C          5.92799       -2.43321        7.77831
C          6.10012       -2.12793        6.46906
C          5.38806       -1.07572        5.81850
O          5.95149       -0.56202        4.67395
O          3.68883        0.19022        8.86559
C          7.35732       -0.61010        4.40888
C          8.32585       -0.28531        5.60229
C          3.57941       -0.08877       10.24739
C          3.10247        1.13508       10.99420
C          1.06302        3.74105        6.32756
C          0.82023        4.95223        5.61318
C          0.41773        6.03701        6.43195
C          0.33829        5.74300        7.79296
S          0.74446        4.11156        7.91592
C         -0.36078        2.38940        2.82876
C         -0.01061        6.73225        8.87616
C          0.37144        6.68201       10.19028
C          0.06737        7.66185       11.31622
C          0.80914        7.12031       12.52325
C          1.46141        5.96336       12.16356
C          1.20886        5.63839       10.81808
O          1.57688        4.57707       10.36491
C         -0.73459        8.77610       11.27608
C         -1.00419        9.57287       12.44553
C         -1.47135        9.21438       10.11223
N         -2.07857        9.62339        9.21461
N         -1.20425       10.19128       13.40580
C          0.91961        7.53610       13.86274
C          1.68950        6.75924       14.76548
C          2.34271        5.58902       14.33652
C          2.22651        5.18789       13.01993
F          3.07694        4.83257       15.18875
F          1.79860        7.13216       16.06002
C          1.94305       -4.43585        1.88127
C          1.15518       -5.37460        1.03316
C          1.42242       -6.68729        1.07319
C          2.42161       -6.95696        1.94331
S          2.97052       -5.48227        2.62297
C          2.63246       -8.34619        2.34578
C          3.12224       -8.65839        3.55189
C          2.79446       -9.90331        4.27021
C          2.54617       -9.43559        5.66421
C          3.10417       -8.18447        5.81858
C          3.65939       -7.75512        4.57328
O          4.37058       -6.77855        4.42523
C          2.74076      -11.17998        3.83320
C          2.47385      -12.24443        4.74436
C          3.10841      -11.57916        2.48032
N          3.41080      -11.83970        1.39120
N          2.27492      -13.18746        5.37952
C          1.83280      -10.00600        6.73254
C          1.69516       -9.26870        7.92494
C          2.30024       -8.00627        8.05667
C          3.02386       -7.46346        6.99867
F          2.15467       -7.28416        9.19262
F          0.95026       -9.76075        8.94347
H          1.91505       -1.69092        0.27900
H          0.82833        0.24588       -3.42050
H          1.29108        2.55485       -3.41521
H          1.38035        3.71506       -1.37454
H         -0.37828       -1.10684        0.50383
H         -1.45288       -1.87451       -0.36432
H         -0.20203       -3.42223        0.92554
H          1.17201       -3.43212       -0.53459
H          1.14424       -3.37607       -0.00815
H          1.85099        1.73214        2.35209
H          1.66046        3.24247        2.84364
H          2.67558        1.98531        7.48543
H          5.19744       -1.83078        9.55807
H          6.52073       -3.20668        8.26405
H          6.92853       -2.66785        6.03483
H          7.54979       -0.03398        3.47806
H          7.71319        0.14756        3.67052
H          7.98847       -0.83600        6.46874
H          9.16242       -0.82945        5.10657
H          9.25765       -0.01259        6.14839
H          2.98154       -1.01256       10.41214
H          4.50967       -0.36314       10.78563
H          2.20481        1.57479       10.53035
H          2.87130        0.84267       12.03813
H          3.91900        1.89311       10.98643
H          0.98289        5.16200        4.56138
H          0.25183        7.02149        6.01618
H         -0.57072        3.39615        3.22269
H         -1.03040        1.68709        2.34829
H         -0.65015        1.92335        3.82892
H         -0.59825        7.56752        8.52275
H          0.42724        8.41647       14.22581
H          2.70880        4.28294       12.66242
H          0.32709       -5.32587        0.33022
H          0.78082       -7.36862        0.49670
H          2.07481       -9.09276        1.78341
H          1.33368      -10.95759        6.65130
H          3.45712       -6.47998        7.08088
