86
O-IDTBCN.sdf
C          1.16001       -1.14307        2.39753
C          0.30252       -1.36340        1.36387
C         -1.11962       -0.96966        1.31558
C         -2.03725       -1.72638        0.56843
N         -1.72543       -2.87516       -0.08546
S         -3.14524       -3.30376       -0.80778
N         -4.15898       -2.09839       -0.33774
C         -3.37188       -1.31273        0.44779
C         -3.79539       -0.14226        1.07611
C         -2.88708        0.59742        1.86095
C         -1.56778        0.18487        1.97453
C         -5.15539        0.31811        0.91221
C         -6.28829       -0.48790        0.69095
C         -7.43650        0.29627        0.74893
C         -7.11612        1.58852        0.93676
S         -5.53608        1.94404        1.06376
C         -8.20262        2.41339        1.04231
C         -9.33634        1.63222        0.98448
C         -8.96067        0.15619        0.71264
C         -9.49637       -0.17609       -0.72277
C         -9.28377       -1.58151       -1.29854
C         -9.46531       -0.81451        1.83420
C         -8.93723       -0.56953        3.26844
C        -10.58220        2.27076        1.11135
C        -10.55742        3.67918        1.23724
C         -9.38301        4.42512        1.23012
C         -8.16674        3.78743        1.16078
C         -9.61599        5.92076        1.26793
C         -8.91509        6.51050        2.54971
C         -9.01418        8.01754        2.80175
C         -9.09774        6.53875       -0.08043
C         -9.73860        6.05642       -1.39381
C        -11.14334        5.90313        1.37733
C        -11.60859        4.62152        1.36185
S        -13.24233        4.50599        1.51510
C        -13.44324        6.19184        1.59724
C        -12.18379        6.83622        1.49604
C        -14.76590        6.82242        1.78350
C        -15.90495        6.03663        1.90418
N        -15.90319        4.67306        1.90922
S        -17.46515        4.27771        2.15842
N        -18.16118        5.76776        2.25265
C        -17.16265        6.64438        2.03799
C        -17.34696        8.04809        1.98638
C        -16.18464        8.82728        1.96911
C        -14.91757        8.22191        1.87191
C        -18.69907        8.71777        1.94411
C        -18.99501        9.95780        2.44141
C        -20.30727       10.49185        2.27179
C        -18.09159       10.82012        3.16696
C          0.85004       -0.52192        3.66137
C          2.53458       -1.53386        2.28226
N        -21.37663       10.89675        2.11839
N        -17.34898       11.49361        3.74617
N          3.62646       -1.87490        2.11823
N          0.67137       -0.03257        4.69546
H          0.68329       -1.87083        0.47982
H         -3.18632        1.49991        2.37728
H         -0.89533        0.79390        2.55313
H         -6.25398       -1.56074        0.58035
H        -10.58931        0.01204       -0.75565
H         -9.00621        0.51942       -1.43563
H         -9.93806       -2.33261       -0.81747
H         -9.61204       -1.57241       -2.36072
H         -8.21860       -1.89102       -1.26321
H        -10.56809       -0.73179        1.89833
H         -9.21594       -1.86517        1.56086
H         -9.15547        0.45429        3.62585
H         -9.42690       -1.27329        3.97365
H         -7.85624       -0.75943        3.38310
H        -11.51029        1.72009        1.07800
H         -7.22792        4.32454        1.16336
H         -9.33850        6.00851        3.44316
H         -7.82471        6.29786        2.52400
H        -10.01220        8.38251        2.86730
H         -8.61567        8.26919        3.79067
H         -8.45275        8.62495        2.08187
H         -9.24118        7.63492       -0.08359
H         -8.01599        6.32992       -0.17226
H        -10.77148        6.39782       -1.53504
H         -9.16539        6.42498       -2.25253
H         -9.70854        5.00219       -1.53843
H        -12.02822        7.90504        1.52562
H        -16.24999        9.90786        1.99325
H        -14.05146        8.86017        1.83998
H        -19.53180        8.14483        1.51095
