150
O-NTNC.sdf
C          0.90425       -0.10212        0.38155
C          1.95997        0.53048        0.99191
C          2.93171       -0.23497        1.81864
C          2.29703       -0.20016        3.14172
C          1.33126        0.78228        3.08624
C          1.53109        1.56500        1.90714
O          3.73419       -1.06831        1.42645
C          2.29233        2.68513        2.05711
C          2.56753        3.61248        0.99379
C          2.89781        2.97820        3.35659
N          2.80142        4.37299        0.16062
N          3.34349        3.14542        4.41166
C          2.40820       -1.01088        4.24976
C          1.43547       -0.82372        5.25605
C          0.33171        0.06649        5.07286
C          0.30896        0.90959        3.98846
C         -3.57800      -10.00388        6.23912
C         -3.48606      -11.20811        7.14723
C         -2.96164      -12.44744        6.82430
C         -2.39173      -12.91364        5.54985
C         -1.83729      -14.17233        5.60068
C         -1.93311      -14.60230        6.86553
C         -2.85213      -13.68889        7.63726
O         -1.99810      -12.26888        4.64363
C         -3.55451      -14.04155        8.72653
C         -4.43152      -13.15011        9.44096
C         -3.55334      -15.43359        9.09420
N         -5.15545      -12.49488       10.06039
N         -3.61736      -16.52723        9.46197
C         -1.12241      -14.78353        4.56608
C         -0.33063      -15.86175        4.90680
C         -0.29595      -16.28111        6.26742
C         -1.14189      -15.68203        7.23743
C         -4.11633       -8.77039        6.62925
C         -3.76813       -7.75531        5.79050
C         -3.13355       -8.13724        4.65710
S         -2.87723       -9.80004        4.68150
C         -3.73197       -6.27863        6.08315
C         -3.10451       -5.88117        4.78621
C         -2.69525       -6.95057        3.96789
C         -2.77070       -4.59194        4.48954
C         -2.00118       -4.33534        3.41373
C         -1.52434       -5.36527        2.59876
C         -1.88164       -6.71861        2.83793
C         -0.65958       -5.07457        1.56939
C         -0.12826       -6.02859        0.72816
C         -0.47871       -7.37825        0.93920
C         -1.35722       -7.72471        1.99157
C         -0.15006       -3.81726        1.18117
C          0.62347       -3.91220        0.09924
C          0.79721       -5.38491       -0.34096
S         -0.26174       -2.26039        1.71626
C          0.66440       -1.58321        0.51142
C          1.09242       -2.65173       -0.31786
C          0.48787      -16.47004        3.94571
C          1.39361      -17.44932        4.34722
C          1.47483      -17.82069        5.69377
C          0.62094      -17.25457        6.64359
C          1.50906       -1.52771        6.42218
C          0.44242       -1.45458        7.32461
C         -0.68305       -0.70277        7.09399
C         -0.73546        0.09012        5.97170
C          0.22305       -5.67838       -1.78149
C          2.30761       -5.80197       -0.11507
C          2.90616       -5.76671        1.16699
C          4.25757       -6.07851        1.35849
C          5.07505       -6.44960        0.28393
C          4.51818       -6.52093       -0.96193
C          3.19728       -6.21382       -1.15139
C          6.53435       -6.76312        0.42210
C          6.76342       -7.93337        1.36908
C         -0.37424       -4.69242       -2.54681
C         -0.81901       -4.89042       -3.81547
C         -0.83974       -6.06539       -4.47603
C         -0.27661       -7.12574       -3.76417
C          0.26846       -6.93098       -2.45394
C         -1.53143       -6.15703       -5.86153
C         -1.07379       -5.29867       -7.05956
C         -2.60126       -6.04616        7.19988
C         -5.12779       -5.57967        6.38135
C         -6.35535       -6.28937        6.37112
C         -7.55312       -5.72106        6.75405
C         -7.63557       -4.39010        7.13777
C         -6.47148       -3.62083        7.08950
C         -5.24788       -4.20275        6.72656
C         -8.95764       -3.81819        7.58630
C         -8.78302       -2.69135        8.61339
C         -1.23083       -6.34758        7.09494
C         -0.33994       -6.13839        8.17626
C         -0.80495       -5.64836        9.41217
C         -2.12683       -5.34616        9.52711
C         -2.91901       -5.52533        8.42487
C          0.07002       -5.38825       10.59301
C         -0.01857       -3.91324       10.98224
H          0.02007        0.50109        0.16081
H          3.16802       -1.78648        4.30147
H         -0.49106        1.62445        3.83707
H         -3.86643      -11.04999        8.14951
H         -1.10540      -14.36974        3.55503
H         -1.11270      -15.98544        8.26675
H         -4.59150       -8.49829        7.52602
H         -3.01644       -3.76606        5.11272
H         -1.76928       -3.30783        3.31055
H         -0.08053       -8.16296        0.31823
H         -1.60771       -8.76728        2.13733
H          1.71063       -2.57102       -1.17642
H          0.45399      -16.16829        2.90115
H          2.05252      -17.90208        3.61938
H          2.20486      -18.54852        6.00812
H          0.69571      -17.54260        7.68127
H          2.32484       -2.23776        6.54483
H          0.37919       -1.94114        8.18411
H         -1.51947       -0.72621        7.78145
H         -1.61412        0.70155        5.79353
H          2.37390       -5.49719        2.05243
H          4.65243       -6.01709        2.35520
H          5.10646       -6.81172       -1.81736
H          3.01645       -6.34129       -2.15925
H          6.96296       -7.00246       -0.57928
H          7.05608       -5.86577        0.81317
H          6.30480       -8.86893        0.97944
H          7.84605       -8.09429        1.52992
H          6.30462       -7.69538        2.34419
H         -0.53696       -3.71651       -2.28207
H         -1.14308       -4.09631       -4.28140
H         -0.27066       -8.09017       -4.22079
H          0.69909       -7.77740       -1.99673
H         -1.49246       -7.20718       -6.18255
H         -2.60759       -5.90755       -5.75866
H         -0.16871       -5.59541       -7.37743
H         -1.67896       -5.54483       -7.94945
H         -1.14627       -4.21096       -6.92177
H         -6.49942       -7.30776        6.10314
H         -8.40998       -6.37256        6.75424
H         -6.49190       -2.57146        7.35495
H         -4.42299       -3.53353        6.75695
H         -9.50110       -3.42215        6.70404
H         -9.56709       -4.62555        8.04848
H         -8.21048       -1.84672        8.16946
H         -9.76790       -2.30543        8.94117
H         -8.24657       -3.06189        9.51462
H         -0.81935       -6.73711        6.19895
H          0.70230       -6.35536        8.04438
H         -2.55032       -4.95927       10.45457
H         -3.82795       -5.27246        8.51524
H         -0.25825       -6.01681       11.45720
H          1.11279       -5.64958       10.33695
H         -1.03548       -3.64183       11.34566
H          0.70376       -3.70067       11.79259
H          0.21759       -3.28086       10.10097
