152
P_NDI2OD-2FT_.sdf
C          3.54775        4.23558       -2.76843
C          2.28068        3.96324       -2.23685
C          1.86417        2.61955       -2.08656
C          2.70856        1.54974       -2.48775
C          3.97448        1.86068       -3.04018
C          4.38104        3.20179       -3.16166
C          0.60095        2.35388       -1.55178
C          0.19822        1.02541       -1.37524
C          0.99708       -0.08653       -1.73038
C          2.28913        0.18911       -2.35248
C          3.17788       -0.80302       -2.87776
N          4.42480       -0.48466       -3.40683
C          4.82108        0.83458       -3.47246
C          1.41996        5.01265       -1.86017
N          0.16390        4.74270       -1.34585
C         -0.24759        3.42787       -1.18974
C          5.40597       -1.48461       -3.93619
C          5.02818       -2.97171       -3.89288
O          5.91707        1.11810       -3.93778
O          2.82341       -1.95094       -2.90941
C         -0.75051        5.85696       -0.98972
C         -1.05572        5.90051        0.50876
O         -1.36285        3.18981       -0.75149
O          1.79083        6.16950       -1.99972
C          0.39098       -1.44959       -1.36801
C         -0.96117       -1.70479       -1.04661
C         -1.25935       -3.04775       -0.75544
C         -0.16383       -3.89569       -0.81487
S          1.15690       -2.94965       -1.18022
C         -0.14413       -5.36309       -0.66111
C          0.95369       -6.20261       -0.71331
C          0.63872       -7.56789       -0.61613
C         -0.74260       -7.87480       -0.48620
S         -1.47662       -6.34276       -0.48652
F         -2.51605       -3.46548       -0.46373
F          2.22775       -5.76448       -0.86976
C         -1.35601       -9.30025       -0.41303
C         -2.75214       -9.72666       -0.44953
C         -3.06172      -11.13672       -0.41930
C         -2.04306      -12.12564       -0.31727
C         -0.70694      -11.69491       -0.27846
C         -0.40268      -10.33062       -0.33498
C         -4.39910      -11.57325       -0.48868
C         -4.70091      -12.94120       -0.42130
C         -3.72897      -13.94765       -0.28516
C         -2.34461      -13.52478       -0.23150
C         -1.24417      -14.41690       -0.05573
N          0.07138      -13.98113       -0.07199
C          0.33870      -12.63186       -0.18036
C         -3.87103       -8.83673       -0.51008
N         -5.17109       -9.28308       -0.64080
C         -5.44043      -10.63279       -0.63089
C          1.13508      -15.02595        0.06022
C          2.52593      -14.68982       -0.49664
O          1.48944      -12.23000       -0.15894
O         -1.44535      -15.59634        0.13031
C         -6.30306       -8.30259       -0.73093
C         -6.12199       -7.19792       -1.79387
O         -6.59303      -11.02766       -0.71373
O         -3.69614       -7.65464       -0.45983
C         -4.29146      -15.37203       -0.25840
C         -5.58213      -15.72525        0.18062
C         -5.89476      -17.09394        0.07994
C         -4.87199      -17.87481       -0.45290
S         -3.60142      -16.82882       -0.79104
C         -4.82984      -19.34489       -0.67833
C         -5.84086      -20.29163       -0.56667
C         -5.42396      -21.61595       -0.81281
C         -4.04968      -21.78007       -1.11935
S         -3.45266      -20.19149       -1.10882
F         -7.08687      -17.58174        0.49796
F         -7.12473      -19.99778       -0.25031
C         -3.33814      -23.13050       -1.39106
C         -1.90962      -23.44441       -1.39592
C         -1.49216      -24.79882       -1.65795
C         -2.42873      -25.83629       -1.93125
C         -3.79626      -25.51645       -1.93028
C         -4.21302      -24.20349       -1.66405
C         -0.12665      -25.13408       -1.62769
C          0.28609      -26.44506       -1.88658
C         -0.59059      -27.49900       -2.17970
C         -2.00519      -27.19037       -2.18887
C         -3.02697      -28.15934       -2.40517
N         -4.36455      -27.81563       -2.43440
C         -4.75360      -26.51633       -2.19478
C         -0.86475      -22.50053       -1.12364
N          0.47816      -22.85189       -1.11399
C          0.84086      -24.15881       -1.33904
C         -5.38095      -28.86676       -2.70497
C         -5.26658      -29.40432       -4.13702
O         -5.94174      -26.22879       -2.20444
O         -2.74410      -29.32897       -2.52933
C          1.50559      -21.80931       -0.80038
C          2.71918      -21.78432       -1.74354
O          2.01679      -24.48099       -1.28762
O         -1.13987      -21.35956       -0.85025
C          0.11042      -28.82666       -2.48340
C          1.41058      -29.16812       -2.05946
C          1.87528      -30.41469       -2.49623
C          0.96867      -31.11241       -3.28306
S         -0.39491      -30.14432       -3.42578
C          1.11401      -32.45640       -3.88504
C          2.26783      -33.23519       -4.00069
C          2.05178      -34.47632       -4.61007
C          0.73176      -34.69214       -4.97524
S         -0.16104      -33.33000       -4.55815
F          3.09506      -30.87833       -2.13642
F          3.50032      -32.85185       -3.59300
H          3.89941        5.25297       -2.89241
H          5.34768        3.46161       -3.57667
H         -0.76402        0.87506       -0.91875
H          5.62377       -1.24271       -4.99987
H          6.35040       -1.38623       -3.35632
H          4.13866       -3.17388       -4.52713
H          5.86633       -3.57531       -4.29994
H          4.85359       -3.30656       -2.84776
H         -0.31518        6.84552       -1.24959
H         -1.69455        5.76367       -1.56920
H         -0.11375        6.01572        1.08437
H         -1.71429        6.76907        0.72273
H         -1.58109        4.98861        0.85298
H         -1.75161       -0.97072       -1.03882
H          1.45129       -8.27114       -0.67052
H          0.63753      -10.08718       -0.29881
H         -5.73995      -13.22601       -0.49367
H          1.20291      -15.35890        1.11868
H          0.83599      -15.90834       -0.54810
H          3.04993      -13.91222        0.09220
H          3.16536      -15.59626       -0.44531
H          2.44236      -14.38646       -1.56318
H         -7.25434       -8.81735       -0.98137
H         -6.44364       -7.80750        0.25073
H         -5.88986       -7.61908       -2.79192
H         -7.05506       -6.59812       -1.85945
H         -5.33908       -6.46257       -1.51773
H         -6.29578      -15.02519        0.59264
H         -6.14805      -22.41118       -0.73035
H         -5.27272      -24.03003       -1.68733
H          1.34651      -26.62855       -1.88914
H         -5.26878      -29.69662       -1.97333
H         -6.41695      -28.48334       -2.59624
H         -4.28182      -29.87422       -4.33287
H         -6.04775      -30.17441       -4.30967
H         -5.41524      -28.57778       -4.86358
H          1.06752      -20.78978       -0.86446
H          1.87024      -21.94180        0.23872
H          2.40765      -21.74583       -2.80663
H          3.33890      -20.89157       -1.51331
H          3.38952      -22.65122       -1.57958
H          2.03673      -28.55676       -1.42743
H          2.83914      -35.19879       -4.78061
H          0.34751      -35.58398       -5.45154
