148
I-IDTBTRh.sdf
C          2.56418       -1.68412       -0.28748
C          2.59990       -1.06522        0.97026
C          1.69350       -0.07358        1.37338
C          0.67542        0.24716        0.46590
C          0.59056       -0.43579       -0.74473
C          1.52299       -1.37309       -1.17223
C          3.73171       -2.67065       -0.47543
C          4.34827       -2.53515        0.90145
C          3.68275       -1.65057        1.68163
C          5.42212       -3.13832        1.54327
C          5.49651       -2.75025        2.89227
S          4.28495       -1.59666        3.23513
C         -0.45446        1.27615        0.59351
C         -1.24352        0.90995       -0.64937
C         -0.61404       -0.03004       -1.37531
C         -2.47476        1.29240       -1.18857
C         -2.77744        0.53987       -2.33756
S         -1.49094       -0.52379       -2.69240
C          6.44764       -3.30997        3.87808
C         -4.05877        0.58993       -3.08068
C         -1.28359        1.02241        1.86248
C          0.01967        2.72976        0.40867
C          3.21319       -4.09279       -0.78748
C          4.77323       -2.19493       -1.49450
C          7.65967       -3.86509        3.44045
C          8.58582       -4.38876        4.34483
C          8.33569       -4.40627        5.73179
C          7.10168       -3.90735        6.17598
C          6.16776       -3.34193        5.25738
C         -4.87619        1.73109       -3.02798
C         -6.10074        1.77590       -3.70912
C         -6.56753        0.68432       -4.46816
C         -5.77495       -0.48227       -4.48410
C         -4.52195       -0.52183       -3.80587
N          6.71967       -3.90076        7.47984
S          5.22371       -3.20562        7.41458
N          5.01301       -2.88629        5.80899
N         -6.14533       -1.64989       -5.06504
S         -4.88261       -2.65649       -4.74240
N         -3.86299       -1.70885       -3.86532
C          2.56564       -4.34084       -2.01818
C          2.08484       -5.60962       -2.34339
C          2.25759       -6.68455       -1.45570
C          2.91573       -6.46090       -0.24496
C          3.37954       -5.18676        0.09139
C          4.97270       -0.82641       -1.76818
C          5.97703       -0.41084       -2.64828
C          6.83197       -1.33831       -3.25775
C          6.64555       -2.70336       -2.98221
C          5.63169       -3.12315       -2.12139
C         -1.47219        2.01195        2.85145
C         -2.29789        1.78210        3.95121
C         -2.94819        0.54663        4.10960
C         -2.72625       -0.46080        3.16485
C         -1.90930       -0.22843        2.05314
C          1.37690        3.08447        0.23679
C          1.74315        4.41477       -0.00313
C          0.77098        5.41763       -0.08925
C         -0.57688        5.07721        0.10098
C         -0.94343        3.75801        0.34308
O         -3.80379        0.30079        5.13655
O          1.15929        6.69232       -0.35419
O          7.82009       -0.85022       -4.05720
O          1.81519       -7.93887       -1.73091
C          1.07260       -8.30397       -2.83667
C          9.02209       -1.42479       -4.44753
C         -4.37959        1.27155        5.93609
C          0.36831        7.66430       -0.94578
C          9.31473       -4.94051        6.72186
C         -7.89352        0.83988       -5.14112
C         10.66082       -4.91885        6.59040
S         11.58514       -4.16418        5.23810
C         13.06667       -4.53815        6.16545
N         12.88938       -5.19998        7.33554
C         11.58462       -5.42667        7.61255
O         14.16813       -4.19852        5.76171
C         13.98907       -5.59319        8.20890
C         14.90517       -6.60693        7.52143
O         11.21267       -5.99135        8.63190
C         -8.35241        0.24385       -6.26887
S         -7.44880       -0.84797       -7.38485
C         -8.93881       -0.93369       -8.37114
N         -9.98231       -0.18901       -7.93669
C         -9.70420        0.48062       -6.79384
O         -8.99252       -1.61795       -9.38148
C        -11.27040       -0.13207       -8.61804
C        -11.55483        1.27024       -9.15099
O        -10.52489        1.19263       -6.23192
C          0.79690       -9.79826       -2.79732
C          8.91258       -2.55493       -5.47475
C         -5.30668        0.62588        6.95249
C         -0.14151        8.64828        0.09572
H          1.76466        0.40606        2.34057
H          1.40359       -1.83086       -2.13603
H          6.05313       -3.87739        1.06963
H         -3.14075        2.01024       -0.73439
H          7.91495       -3.88014        2.38965
H          9.48499       -4.80260        3.92540
H         -4.56575        2.60589       -2.47148
H         -6.68475        2.68671       -3.64916
H          2.43821       -3.55913       -2.74657
H          1.58552       -5.74096       -3.29304
H          3.06827       -7.28140        0.44501
H          3.87203       -5.08678        1.04420
H          4.36359       -0.06863       -1.29181
H          6.11537        0.64858       -2.83064
H          7.26486       -3.46543       -3.40458
H          5.53542       -4.18378       -1.93207
H         -1.00305        2.98177        2.78619
H         -2.42853        2.58247        4.66647
H         -3.21456       -1.42105        3.27445
H         -1.78400       -1.01971        1.32530
H          2.16427        2.34520        0.26080
H          2.78757        4.66161       -0.14897
H         -1.35778        5.82376        0.06359
H         -1.99211        3.53905        0.47665
H          0.10524       -7.75511       -2.83288
H          1.63070       -8.06840       -3.76886
H          9.60631       -0.62010       -4.94298
H          9.59661       -1.74888       -3.55374
H         -3.60267        1.85141        6.47803
H         -4.97797        1.95887        5.29701
H          0.97380        8.19837       -1.70757
H         -0.49566        7.21635       -1.48381
H          8.90945       -5.32453        7.65500
H         -8.56045        1.55754       -4.66900
H         14.57068       -4.69198        8.49931
H         13.60753       -6.06376        9.14067
H         15.36135       -6.18591        6.60267
H         15.72689       -6.89189        8.21038
H         14.32820       -7.51615        7.25023
H        -11.28796       -0.82436       -9.48763
H        -12.07494       -0.45097       -7.92116
H        -10.75334        1.57414       -9.85767
H        -12.52571        1.27021       -9.68801
H        -11.61248        2.01168       -8.32881
H          0.24137      -10.06066       -1.87218
H          0.18712      -10.08817       -3.67899
H          1.75423      -10.36099       -2.82111
H          8.34063       -2.22263       -6.36397
H          9.93986       -2.83316       -5.79547
H          8.46436       -3.47904       -5.07973
H         -4.72615       -0.03490        7.62956
H         -5.80241        1.41586        7.55617
H         -6.08708        0.02877        6.43461
H          0.70901        9.14142        0.60943
H         -0.76590        9.42052       -0.40175
H         -0.76552        8.11798        0.84606
