130
IDT-R.sdf
C          2.98728       -1.11988       -0.39030
C          2.78965       -0.65648        0.92489
C          1.87022        0.37283        1.26062
C          0.97200        0.77241        0.24235
C          0.95494       -0.00104       -0.91487
C          1.96458       -0.86969       -1.31355
C          4.09310       -2.18308       -0.48386
C          4.00607       -2.60687        0.95516
C          3.40274       -1.69006        1.75983
C          4.38864       -3.78694        1.57993
C          3.99751       -3.84117        2.91047
S          3.22932       -2.34913        3.32102
C         -0.26878        1.69601        0.22223
C         -1.18621        0.62479       -0.35540
C         -0.44750       -0.13585       -1.22281
C         -2.49838        0.14530       -0.17437
C         -2.70606       -1.06755       -0.86177
S         -1.30351       -1.46761       -1.74359
C         -0.57395        2.42278        1.56314
C         -0.16598        2.73584       -0.96740
C          3.72582       -3.30401       -1.51162
C          5.52954       -1.54491       -0.61628
C          4.09674       -3.17916       -2.87145
C          3.80845       -4.18077       -3.80690
C          3.11532       -5.33466       -3.43319
C          2.67852       -5.45686       -2.10764
C          2.97608       -4.46213       -1.16240
C          6.68880       -2.20067       -0.10783
C          7.96214       -1.61877       -0.17653
C          8.14249       -0.36647       -0.76627
C          7.02413        0.31289       -1.25875
C          5.74010       -0.25283       -1.17335
C          0.00616        3.69575        1.80064
C         -0.28233        4.43576        2.94955
C         -1.14660        3.93076        3.92366
C         -1.68623        2.64693        3.74348
C         -1.40507        1.90034        2.58080
C         -1.33722        3.23574       -1.60122
C         -1.26677        4.06746       -2.72585
C         -0.03182        4.45841       -3.25242
C          1.13826        4.00079       -2.63382
C          1.07705        3.14588       -1.52064
C         -1.48450        4.76610        5.14002
C          0.03130        5.33407       -4.48480
C          9.52017        0.24467       -0.85976
C          2.84766       -6.41718       -4.45393
C         10.20671       -0.16179       -2.16111
C          3.48362       -7.74110       -4.03013
C         -2.15495        6.08338        4.73564
C         -0.66769        6.67370       -4.26409
C         -3.94658       -1.87606       -0.70427
C         -4.10390       -3.22064       -0.80730
S         -5.59356       -3.95202       -0.59366
C         -5.06589       -5.54365       -0.82481
N         -3.70911       -5.54752       -1.05128
C         -3.18529       -4.26198       -1.03807
O         -1.99414       -4.07432       -1.18818
C         -2.82367       -6.71775       -1.24156
C         -2.72153       -7.10858       -2.71283
C         -5.92111       -6.60108       -0.76250
C         -5.55376       -7.98192       -0.96494
C         -7.32025       -6.36786       -0.46477
N         -8.43239       -6.15262       -0.22514
N         -5.29427       -9.09951       -1.12179
C          4.10783       -5.13772        3.64458
C          4.32226       -5.40533        4.94585
S          4.38078       -6.97205        5.53120
C          4.74808       -6.57910        7.12815
N          4.80229       -5.19528        7.25090
C          4.56645       -4.56059        6.02568
O          4.59638       -3.34785        5.89972
C          5.03780       -4.40415        8.48140
C          6.52070       -4.12995        8.71409
C          4.97461       -7.57431        8.05429
C          5.42033       -7.38891        9.41791
C          4.83199       -8.99703        7.70580
N          4.73137      -10.13129        7.47062
N          5.77655       -7.33645       10.51954
H          1.73409        0.71612        2.27646
H          1.86832       -1.45855       -2.21469
H          4.88025       -4.60428        1.06922
H         -3.24064        0.57283        0.48767
H          4.62414       -2.31427       -3.23741
H          4.13379       -4.05526       -4.83242
H          2.11385       -6.33071       -1.80177
H          2.60091       -4.62208       -0.16310
H          6.64065       -3.16072        0.37707
H          8.81390       -2.14832        0.23653
H          7.14930        1.29046       -1.70943
H          4.92879        0.34731       -1.55499
H          0.67578        4.15331        1.08824
H          0.16037        5.41792        3.07051
H         -2.33945        2.22868        4.49983
H         -1.85026        0.92301        2.49452
H         -2.32651        2.95974       -1.26749
H         -2.18417        4.39758       -3.19912
H          2.10460        4.28866       -3.03043
H          2.01740        2.80222       -1.11490
H         -2.16800        4.21024        5.81931
H         -0.55800        5.00076        5.70546
H          1.08606        5.53860       -4.76964
H         -0.44810        4.80089       -5.33614
H          9.45154        1.35345       -0.83104
H         10.13830       -0.06904        0.01094
H          1.75356       -6.55149       -4.58975
H          3.27789       -6.13193       -5.44015
H          9.61324        0.19614       -3.02948
H         11.21661        0.29822       -2.21096
H         10.31347       -1.26609       -2.22307
H          3.05033       -8.09393       -3.07070
H          3.29598       -8.51384       -4.80447
H          4.58142       -7.61968       -3.90766
H         -3.09971        5.89114        4.18351
H         -2.38368        6.68591        5.63932
H         -1.47943        6.68353        4.08975
H         -0.16579        7.22738       -3.44420
H         -0.61455        7.27995       -5.19277
H         -1.73838        6.52962       -4.00527
H         -4.82866       -1.30895       -0.41647
H         -1.79735       -6.48142       -0.88385
H         -3.12260       -7.56784       -0.60182
H         -2.31437       -6.26299       -3.30872
H         -2.03057       -7.97228       -2.81981
H         -3.71514       -7.39304       -3.11156
H          3.99727       -6.01369        2.99873
H          4.51841       -3.41624        8.40855
H          4.59795       -4.90888        9.36177
H          6.94262       -3.55062        7.86590
H          6.66807       -3.52960        9.63985
H          7.06420       -5.08593        8.83673
