146
IDT-T.sdf
C          2.76495       -1.21329       -0.15902
C          2.95430       -0.53581        1.00170
C          2.15708        0.73800        0.91212
C          0.84968        0.76875        0.29944
C          0.46124       -0.46838       -0.02705
C          1.35778       -1.50746       -0.26916
C          3.88477       -2.23158       -0.24791
C          3.67205       -2.79778        1.05637
C          3.18462       -1.83076        1.94646
C          3.93756       -4.11626        1.45034
C          3.64546       -4.34583        2.72224
S          3.09179       -2.79590        3.40214
C         -0.36086        1.81447        0.08075
C         -1.51092        0.72588       -0.00550
C         -0.90500       -0.48034       -0.08456
C         -2.93833        0.52671       -0.04395
C         -3.22876       -0.87441       -0.05159
S         -1.84715       -1.78698       -0.09506
C          3.70211       -5.76903        3.18979
C         -4.47322       -1.63260       -0.02113
C         -0.39083        2.68614        1.33042
C         -0.35853        2.66360       -1.27745
C          3.63296       -3.12095       -1.43956
C          5.31822       -1.57582       -0.14592
C          4.13646       -2.79948       -2.70704
C          3.80384       -3.53442       -3.80088
C          2.91376       -4.58160       -3.67596
C          2.40771       -4.94152       -2.43856
C          2.75080       -4.20870       -1.34851
C          5.53678       -0.18166        0.04246
C          6.80495        0.35751       -0.11251
C          7.89634       -0.45127       -0.44322
C          7.72609       -1.81344       -0.51264
C          6.47872       -2.35104       -0.35559
C          0.70805        3.47696        1.71699
C          0.72618        4.28099        2.78039
C         -0.30869        4.22590        3.67767
C         -1.40313        3.38802        3.41737
C         -1.45383        2.64009        2.23733
C         -1.55196        3.11427       -1.90994
C         -1.51662        3.69400       -3.20131
C         -0.30196        3.83872       -3.88342
C          0.85326        3.54634       -3.23621
C          0.81131        3.03611       -1.99592
C         -0.15389        4.94021        4.96850
C         -0.19770        4.32664       -5.28369
C          9.23612        0.11553       -0.72653
C          2.43818       -5.24046       -4.88227
C         10.25538       -0.43763        0.25625
C          2.82090       -6.69714       -4.83786
C          0.06617        6.43402        4.76102
C         -0.78214        5.72361       -5.37527
S         -5.84731       -0.99376       -0.68211
C         -6.86179       -2.24133       -0.32704
C         -6.13314       -3.21442        0.34261
C         -4.77316       -2.88469        0.50921
S          3.35462       -6.07898        4.73006
C          3.42279       -7.72484        4.67153
C          3.73116       -8.14216        3.38601
C          3.89468       -7.03625        2.52217
C          3.15575       -8.49658        5.85941
C          3.39261       -8.10900        7.14090
C          3.96131       -6.81118        7.68526
C          3.90192       -6.84733        9.13491
C          3.49315       -8.11236        9.51273
C          3.09474       -8.95110        8.34586
C          4.29653       -5.88032       10.09565
C          4.28082       -6.24925       11.45839
C          3.96791       -7.55546       11.81356
C          3.57648       -8.46932       10.85776
O          4.50089       -5.89133        7.09174
C          2.56028      -10.22054        8.41624
C          2.14424      -11.00400        7.28120
C          2.34921      -10.90241        9.67199
N          2.20245      -11.39998       10.70870
N          1.79769      -11.66676        6.39671
C         -8.24659       -2.13794       -0.74836
C         -9.25739       -3.00290       -0.58126
C         -9.29866       -4.33858        0.12052
C        -10.62651       -4.80064        0.06997
C        -11.39622       -3.88987       -0.63644
C        -10.64681       -2.74666       -1.09090
C        -11.17544       -5.92972        0.67662
C        -12.54852       -5.98020        0.65660
C        -13.30767       -5.06612       -0.06919
C        -12.73987       -4.07905       -0.77220
O         -8.45582       -4.95224        0.74145
C        -11.18615       -1.68320       -1.77713
C        -10.45941       -0.54631       -2.19460
C        -12.57735       -1.55158       -2.16668
N         -9.91052        0.40021       -2.55548
N        -13.69933       -1.48692       -2.45903
H          2.63643        1.70195        0.71053
H          0.95419       -2.47574       -0.52290
H          4.30545       -4.94330        0.85712
H         -3.72368        1.28157       -0.00550
H          4.74199       -1.96779       -2.96376
H          4.21522       -3.22744       -4.74916
H          1.70127       -5.74337       -2.29781
H          2.22761       -4.49443       -0.47680
H          4.76885        0.54182        0.25199
H          6.92543        1.41949       -0.00318
H          8.53780       -2.50051       -0.71586
H          6.50466       -3.39514       -0.46456
H          1.66211        3.49672        1.34919
H          1.61479        4.87935        2.89628
H         -2.20164        3.29118        4.13036
H         -2.28935        1.97944        2.08249
H         -2.51911        3.00596       -1.44510
H         -2.42709        4.00386       -3.68848
H          1.84240        3.69468       -3.68927
H          1.76678        2.98992       -1.76053
H         -1.04100        4.75064        5.59713
H          0.73658        4.50736        5.48109
H          0.87701        4.34063       -5.59045
H         -0.73295        3.63267       -5.95882
H          9.51764       -0.13140       -1.77125
H          9.17245        1.21949       -0.62742
H          1.33665       -5.08914       -4.91656
H          2.88704       -4.73461       -5.76136
H         10.33045       -1.54624        0.14499
H         11.22918        0.01427        0.06267
H          9.92609       -0.20325        1.29819
H          2.36835       -7.18648       -3.94867
H          2.44451       -7.16442       -5.75973
H          3.92677       -6.79333       -4.78022
H         -0.81287        6.87249        4.24567
H          0.22763        6.91568        5.73074
H          0.97859        6.63205        4.16597
H         -0.23200        6.42190       -4.70726
H         -0.70021        6.08032       -6.41546
H         -1.84690        5.69608       -5.06600
H         -6.52970       -4.12361        0.69926
H         -4.05095       -3.50532        1.02058
H          3.81194       -9.18352        3.08270
H          4.10243       -7.21472        1.46416
H          2.69229       -9.43218        5.61360
H          4.69340       -4.90457        9.82789
H          4.60349       -5.59833       12.26104
H          4.07640       -7.90081       12.83196
H          3.40798       -9.44250       11.22557
H         -8.40724       -1.20684       -1.26783
H        -10.65726       -6.71345        1.23446
H        -13.01385       -6.71709        1.23397
H        -14.35807       -5.03019       -0.10984
H        -13.43863       -3.48973       -1.29803
