120
IDTT_TCV_2.sdf
C          2.79530       -1.23693       -0.24199
C          2.78693       -0.60097        0.98635
C          1.95614        0.54661        1.22731
C          0.90383        0.79504        0.27338
C          0.64073       -0.29052       -0.52991
C          1.55774       -1.25435       -0.89045
C          3.94550       -2.23148       -0.35553
C          3.78508       -2.69939        1.03135
C          3.30572       -1.70585        1.85700
C          4.03443       -3.94092        1.58060
C          3.64343       -4.00091        2.90441
S          3.02091       -2.44267        3.37008
C         -0.31709        1.78098        0.16559
C         -1.39745        0.70304       -0.05752
C         -0.77767       -0.39205       -0.56192
C         -2.81265        0.53735        0.02081
C         -3.17378       -0.81671       -0.26103
S         -1.79592       -1.68333       -0.71958
C         -0.39729        2.61790        1.46425
C         -0.23682        2.59864       -1.22737
C          3.59871       -3.21772       -1.50394
C          5.36574       -1.50218       -0.34129
C          3.99239       -2.94227       -2.82906
C          3.55008       -3.68238       -3.89575
C          2.66896       -4.73963       -3.71883
C          2.24946       -5.05715       -2.41822
C          2.70657       -4.30554       -1.32154
C          6.53031       -2.14793        0.18655
C          7.75653       -1.49539        0.31459
C          7.90290       -0.17667       -0.10243
C          6.80284        0.48725       -0.63584
C          5.55822       -0.14060       -0.72136
C          0.28115        3.84097        1.57793
C          0.21899        4.66070        2.67145
C         -0.46510        4.24565        3.79842
C         -1.08972        2.98444        3.78853
C         -1.07058        2.18410        2.62606
C          0.36464        2.01792       -2.39522
C          0.55674        2.72776       -3.58887
C          0.15003        4.05540       -3.70366
C         -0.47579        4.64518       -2.62362
C         -0.65320        3.94856       -1.44155
C         -0.44637        5.13737        5.00998
C          0.41682        4.86450       -4.94875
C          9.20906        0.53903        0.07059
C          2.14175       -5.45437       -4.92956
C         10.24474       -0.36125        0.72925
C          3.04491       -6.62279       -5.31958
C         -1.60427        6.12926        4.99708
C          1.16084        4.06060       -6.00768
C          3.66183       -5.30453        3.61754
C         -4.46679       -1.54691       -0.14659
C          2.69117       -8.41670        5.90969
C         -8.50016       -1.90004       -0.27460
S          2.65239       -5.77403        4.87269
C          3.21572       -7.36693        4.99728
C          4.21781       -7.54517        4.04284
C          4.45875       -6.40599        3.27354
S         -5.92811       -0.73293       -0.33907
C         -6.97818       -2.02013       -0.16046
C         -6.17230       -3.14705        0.11034
C         -4.77171       -2.89551        0.08275
C          1.66031       -8.21697        6.78368
C          3.30400       -9.72657        5.79926
C          1.17928       -9.28511        7.62233
C          0.97052       -6.94543        6.91988
C         -9.35465       -2.73086        0.42801
C         -9.11733       -0.85067       -1.18183
C        -10.79245       -2.61874        0.32807
C         -8.93798       -3.75525        1.34246
N          3.77218      -10.78271        5.73396
N          0.45641       -5.90777        6.98716
N          0.75743      -10.10773        8.31577
N        -11.93200       -2.46725        0.19435
N         -8.53422       -4.56205        2.06392
N         -9.52279       -0.01760       -1.90152
H          1.99969        1.08903        2.15397
H          1.26570       -2.07386       -1.52957
H          4.40995       -4.77580        0.99945
H         -3.50037        1.31168        0.34016
H          4.61008       -2.13410       -3.12245
H          3.89263       -3.37416       -4.86375
H          1.54314       -5.85992       -2.25512
H          2.30659       -4.54944       -0.34930
H          6.53791       -3.15520        0.56221
H          8.59039       -2.02447        0.76571
H          6.89860        1.51248       -0.96818
H          4.78704        0.50563       -1.07477
H          0.89576        4.22956        0.89927
H          0.73118        5.61912        2.64670
H         -1.58506        2.62032        4.67801
H         -1.55514        1.22047        2.65887
H          0.74658        1.01429       -2.42537
H          1.05076        2.24158       -4.42149
H         -0.80922        5.67842       -2.68627
H         -1.09013        4.61167       -0.80469
H         -0.44644        4.52922        5.93734
H          0.49771        5.72743        5.01368
H         -0.54437        5.21968       -5.37911
H          1.00126        5.77435       -4.68797
H          9.58947        0.87046       -0.91805
H          9.04949        1.45421        0.68207
H          1.10908       -5.80951       -4.74643
H          2.09630       -4.73871       -5.77985
H         10.43241       -1.25057        0.08604
H         11.18913        0.19799        0.85376
H          9.88301       -0.69885        1.72538
H          3.08017       -7.35990       -4.49047
H          2.66599       -7.09806       -6.23457
H          4.07010       -6.27631       -5.55002
H         -2.57473        5.59362        5.04928
H         -1.51430        6.80656        5.87153
H         -1.57380        6.74842        4.07299
H          0.55646        3.17876       -6.31397
H          1.33480        4.69726       -6.89768
H          2.14064        3.71978       -5.61033
H          4.76061       -8.46815        3.87871
H          5.19819       -6.41339        2.48181
H         -6.57237       -4.13420        0.29089
H         -4.03151       -3.66977        0.25386
