154
IDTT-OBH.sdf
C          3.45377       -1.57019        0.15094
O          3.11770       -2.58539       -0.42158
C          4.40818       -1.54013        1.22897
C          5.23210       -2.56363        1.64917
C          6.29075       -2.24067        2.50491
C          6.47934       -0.89837        2.94551
C          5.51231        0.08698        2.62327
C          4.47847       -0.27216        1.74169
C          3.37892        0.50914        1.13198
C          2.58967        1.40070        1.77558
C          1.41237        1.98602        1.16660
N          0.47923        2.44189        0.65514
C          2.74023        1.53095        3.20392
N          2.90422        1.60095        4.34715
C          3.11588       -0.16618       -0.16574
C          2.77164        0.39092       -1.36230
C          2.69086       -0.33942       -2.67444
C          2.34686        0.21050       -3.92595
C          2.20788       -0.76539       -4.92010
C          2.40175       -2.04517       -4.50520
S          2.88810       -1.99278       -2.92360
C          1.96008       -2.99296       -5.42873
C          1.56219       -4.46348       -5.36054
C          2.71838       -5.53394       -5.37094
C          4.08019       -5.18001       -5.46612
C          5.10486       -6.08532       -5.44800
C          4.86781       -7.44015       -5.30998
O          5.91842       -8.30784       -5.22408
C          7.26419       -7.93069       -5.25507
C          3.52599       -7.86513       -5.24644
C          2.46610       -6.93080       -5.28809
C          0.55852       -4.60521       -4.18294
C         -0.67970       -3.93359       -4.12085
C         -1.50544       -4.02493       -3.02004
C         -1.12967       -4.75230       -1.88474
O         -1.89107       -4.83147       -0.75470
C         -3.27826       -4.73538       -0.75226
C          0.09462       -5.39040       -1.94627
C          0.86413       -5.34664       -3.05992
C          0.76958       -4.48327       -6.64657
C          0.76280       -3.29248       -7.38197
C          1.51920       -2.37224       -6.57930
S          1.63236       -0.68317       -6.51508
C          0.01572       -3.15546       -8.59378
C         -0.77997       -4.27522       -8.98050
C         -1.60644       -4.66202      -10.25237
C         -2.82628       -3.73650      -10.49461
C         -2.72440       -2.35845      -10.71134
C         -3.84789       -1.58844      -10.95997
C         -5.14689       -2.11163      -11.01152
O         -6.22037       -1.31464      -11.36261
C         -7.39910       -1.74147      -12.00158
C         -5.25530       -3.46806      -10.67746
C         -4.13779       -4.24815      -10.45335
C         -0.63785       -4.74246      -11.48942
C          0.76186       -4.49645      -11.37876
C          1.61544       -4.56144      -12.49147
C          1.11363       -4.86349      -13.76792
O          1.92290       -5.00558      -14.85552
C          3.23444       -5.44578      -14.75001
C         -0.25419       -5.07486      -13.90260
C         -1.09291       -5.04525      -12.79454
C         -2.15961       -6.02926       -9.74947
C         -1.78650       -6.21803       -8.47149
C         -0.83081       -5.32567       -8.10657
C         -0.03869       -5.50845       -7.01621
S         -2.41331       -7.47059       -7.54701
C         -3.07620       -7.95366       -8.97476
C         -2.84781       -7.18298      -10.06686
S         -3.35686       -8.00282      -11.41307
C         -3.65936       -9.42583      -10.50815
C         -3.62720       -9.14064       -9.16654
C         -3.63392      -10.81779      -10.97146
C         -3.25882      -11.23241      -12.21822
C         -3.36535      -12.67797      -12.65915
C         -4.63022      -13.08275      -12.39020
C         -5.71207      -12.48437      -13.14916
N         -6.52674      -11.97957      -13.79748
C         -4.95802      -13.68328      -11.11720
N         -5.17673      -14.16714      -10.08846
C         -2.90108      -12.57885      -14.08846
C         -2.66971      -13.60417      -15.01030
C         -2.20756      -13.26671      -16.31369
C         -2.02694      -11.90285      -16.68181
C         -2.24334      -10.91544      -15.74391
C         -2.64125      -11.30463      -14.47776
C         -2.80595      -10.44769      -13.41567
O         -2.52135       -9.28043      -13.57877
C         -1.61063      -11.55135      -17.96918
C         -1.34007      -12.55015      -18.89754
C         -1.47750      -13.89514      -18.53948
C         -1.91400      -14.25376      -17.25710
C          7.20644       -3.23126        2.85539
C          8.37530       -2.89615        3.53650
C          8.60855       -1.57175        3.91728
C          7.65054       -0.57987        3.65656
C         -8.63256       -0.90615      -11.64353
C          3.92647       -5.51979      -16.09740
C         -3.89396       -4.84310        0.64038
C          7.78770       -7.64297       -3.85134
H          5.11674       -3.55616        1.23165
H          5.61914        1.11006        2.96514
H          2.63479        1.46924       -1.39801
H          2.11413        1.24359       -4.11557
H          4.47413       -4.20847       -5.55025
H          6.09009       -5.65057       -5.52079
H          7.89508       -8.71659       -5.71148
H          7.39912       -7.02902       -5.87773
H          3.29416       -8.91159       -5.15810
H          1.46590       -7.32310       -5.22537
H         -1.07464       -3.29819       -4.86760
H         -2.39921       -3.46121       -3.11171
H         -3.60900       -3.78217       -1.17827
H         -3.69216       -5.57491       -1.34390
H          0.56510       -5.93356       -1.17463
H          1.71015       -5.90932       -2.93852
H          0.04972       -2.24995       -9.18217
H         -1.79855       -1.81353      -10.69954
H         -3.60416       -0.58687      -11.10653
H         -7.28246       -1.71119      -13.10649
H         -7.65566       -2.76507      -11.68962
H         -6.17300       -3.99568      -10.56431
H         -4.35896       -5.26207      -10.23961
H          1.23310       -4.27309      -10.43565
H          2.67157       -4.37748      -12.35181
H          3.81878       -4.76506      -14.10525
H          3.24539       -6.47107      -14.31463
H         -0.69952       -5.30231      -14.86183
H         -2.08794       -5.27851      -13.04566
H         -0.11927       -6.41171       -6.43169
H         -3.72274       -9.73020       -8.31232
H         -3.90843      -11.56840      -10.22280
H         -2.81678      -14.63148      -14.71292
H         -2.08751       -9.86303      -15.97650
H         -1.48972      -10.50867      -18.25088
H         -1.01364      -12.27857      -19.89218
H         -1.24754      -14.66281      -19.26197
H         -2.01491      -15.29781      -16.99910
H          7.01959       -4.25524        2.56391
H          9.10874       -3.66419        3.74938
H          9.53277       -1.31980        4.42167
H          7.84892        0.43702        3.96898
H         -8.58582        0.10083      -12.04335
H         -9.56244       -1.20441      -12.13977
H         -8.83818       -0.99400      -10.56579
H          3.95992       -4.51469      -16.56242
H          4.96791       -5.87923      -15.93678
H          3.40591       -6.23514      -16.76721
H         -3.76720       -3.95840        1.26440
H         -4.98863       -4.89814        0.62570
H         -3.53215       -5.74476        1.13922
H          7.79049       -8.57409       -3.24636
H          8.83467       -7.27712       -3.88850
H          7.16939       -6.85465       -3.37139
