158
IDTT-CR.sdf
C          1.82342        0.37285       -0.84338
C          0.80627        1.23023       -1.32161
C         -0.46224        0.70750       -1.06696
C         -0.46048       -0.50003       -0.43074
S          1.10573       -1.01966       -0.16780
C         -1.71905       -0.96071       -0.09038
C         -2.26155       -2.15610        0.67341
C         -2.08823       -3.48436       -0.13488
C         -1.34707       -4.61259        0.30783
C         -1.22309       -5.75297       -0.41356
C         -1.81574       -5.90297       -1.63305
C         -1.64234       -7.21774       -2.34842
C         -2.19194       -8.39270       -1.54615
C         -2.51333       -4.81491       -2.15606
C         -2.64623       -3.62015       -1.42600
C         -1.62686       -2.15663        2.07740
C         -2.22765       -1.49008        3.15784
C         -1.53150       -1.31292        4.34528
C         -0.23416       -1.82892        4.50382
C          0.60179       -1.58721        5.70560
C         -0.10525       -0.71384        6.72925
C          0.32618       -2.56445        3.48815
C         -0.34739       -2.69776        2.31851
C         -3.74001       -1.71739        0.68514
C         -3.97222       -0.55212       -0.05603
C         -2.68699       -0.07640       -0.49216
S         -2.05048        1.27961       -1.30804
C         -5.26080       -0.05841       -0.29746
C         -6.34118       -0.83009        0.17107
C         -7.84002       -0.67204       -0.09904
C         -8.29335        0.43624        0.93956
C         -7.76653        1.75430        0.96711
C         -8.11137        2.69605        1.90700
C         -8.98404        2.39314        2.93139
C         -9.25572        3.43793        3.98099
C         -9.14082        4.86828        3.44479
C         -9.51541        1.09488        2.98690
C         -9.19139        0.14036        2.00372
C         -8.15534       -0.41273       -1.63277
C         -7.79663       -1.33683       -2.63774
C         -8.04701       -1.08963       -3.99531
C         -8.67087        0.09574       -4.41827
C         -8.94061        0.42961       -5.86011
C         -8.45562       -0.66570       -6.80602
C         -9.03429        1.00964       -3.45969
C         -8.77866        0.76156       -2.13702
C         -8.25507       -2.09795        0.40317
C         -7.31715       -2.60714        1.26601
C         -6.09111       -1.93061        0.99656
C         -4.80943       -2.38971        1.28478
S         -7.60721       -4.14066        1.94170
C         -8.86534       -4.29245        0.84753
C         -9.05927       -3.19808        0.06588
S        -10.12097       -3.65792       -1.14675
C        -10.09834       -5.34234       -0.79837
C         -9.57110       -5.41523        0.49469
C          3.29481        0.63784       -0.86520
C          6.61438       -0.93270        0.01306
S          8.24837       -0.59468        0.01881
C          8.83419       -2.11343        0.43008
N          7.74001       -2.96305        0.61853
C          6.52214       -2.29234        0.37782
O          5.44545       -2.85985        0.46911
C          7.73171       -4.41433        0.96132
C          7.63617       -4.65341        2.44973
C         10.20971       -2.28364        0.51581
C         11.01329       -3.42787        0.87665
C         11.11535       -1.18070        0.24814
N         11.89383       -0.34755        0.04980
N         11.76729       -4.26637        1.14619
C          3.81354        1.93828       -1.45544
C          4.99213        2.44234       -0.64600
C          6.12334        1.41036       -0.67262
C          5.65972       -0.00078       -0.31106
C          4.17853       -0.27481       -0.36430
C         -9.22356       -6.14618       -1.80288
C         -7.84922       -9.65532       -2.68243
S         -6.58150      -10.39304       -3.50138
C         -7.10001      -11.99098       -3.40116
N         -8.20519      -12.05619       -2.55594
C         -8.63778      -10.74760       -2.21903
O         -9.67606      -10.55767       -1.61012
C         -8.96401      -13.27644       -2.10562
C         -8.52314      -14.00406       -0.81545
C         -6.52859      -12.89178       -4.28400
C         -7.12797      -14.09039       -4.82658
C         -5.31915      -12.56365       -5.03154
N         -4.36818      -12.36273       -5.66386
N         -7.48384      -15.06135       -5.35133
C         -8.44243       -5.35243       -2.87501
C         -7.76510       -6.22175       -3.93947
C         -6.99267       -7.33904       -3.25802
C         -7.99072       -8.26899       -2.55861
C         -9.03881       -7.51839       -1.72605
H          0.96355        2.19673       -1.77649
H         -0.79591       -4.76622        1.18716
H         -0.63076       -6.51907        0.02770
H         -2.18280       -7.17095       -3.31756
H         -0.56885       -7.42755       -2.47262
H         -3.27007       -8.22659       -1.52336
H         -1.97870       -9.38616       -1.98778
H         -1.80931       -8.42582       -0.50818
H         -2.93419       -4.91116       -3.13182
H         -3.17389       -2.82400       -1.89547
H         -3.20036       -1.03725        3.09803
H         -2.01157       -0.73457        5.11111
H          0.85245       -2.57104        6.15660
H          1.53964       -1.09117        5.37422
H         -1.03793       -1.20883        7.07861
H          0.56370       -0.56125        7.59265
H         -0.35704        0.27367        6.28254
H          1.32084       -3.00153        3.54595
H          0.25815       -3.20650        1.64695
H         -5.39011        0.82860       -0.88086
H         -7.05062        2.15942        0.32439
H         -7.64230        3.66660        1.81879
H        -10.27022        3.27894        4.39031
H         -8.52744        3.31246        4.81503
H         -9.86160        5.02529        2.61720
H         -9.36933        5.58670        4.25354
H         -8.11256        5.08853        3.08819
H        -10.16509        0.80823        3.79712
H         -9.63025       -0.83696        2.12945
H         -7.30779       -2.25480       -2.41207
H         -7.73643       -1.83210       -4.70672
H        -10.03306        0.58275       -6.00220
H         -8.41780        1.37749       -6.11118
H         -8.99840       -1.61416       -6.60680
H         -8.64837       -0.38078       -7.85149
H         -7.36321       -0.82348       -6.66166
H         -9.51387        1.95196       -3.70298
H         -9.10573        1.58772       -1.61976
H         -4.66261       -3.29832        1.85213
H        -10.00392       -5.98792        1.30497
H          6.84571       -4.92102        0.49785
H          8.64458       -4.92253        0.63089
H          6.68415       -4.27949        2.77529
H          7.61562       -5.70507        2.77170
H          8.46860       -4.18006        2.95483
H          3.03278        2.72324       -1.49373
H          4.15642        1.75246       -2.49672
H          4.65737        2.60966        0.40137
H          5.36860        3.40771       -1.05078
H          6.59837        1.36568       -1.67780
H          6.87391        1.78156        0.05759
H          3.79523       -1.20873        0.02064
H         -9.98261      -12.96986       -1.78891
H         -8.92135      -14.07808       -2.86117
H         -8.72230      -13.42087        0.11497
H         -9.18152      -14.90964       -0.72406
H         -7.48082      -14.37600       -0.86237
H         -7.66972       -4.73169       -2.36234
H         -9.12307       -4.66573       -3.42577
H         -7.09746       -5.57902       -4.55783
H         -8.52698       -6.67163       -4.61299
H         -6.36531       -7.84630       -4.01871
H         -6.30700       -6.88207       -2.51059
H         -9.59123       -8.07542       -0.98794
