135
IDTT-Br-2F.sdf
C          1.95258        0.66805        0.92988
C          0.91257        1.56396        1.25637
C         -0.33788        1.05407        0.98387
C         -0.35941       -0.25103        0.59479
S          1.22157       -0.81106        0.45511
C         -1.65202       -0.75013        0.50033
C         -2.31817       -2.12055        0.38540
C         -2.03612       -2.82529       -1.00255
C         -1.38816       -4.08187       -1.17644
C         -1.21273       -4.68831       -2.39578
C         -1.64235       -4.07141       -3.55036
C         -1.47503       -4.75320       -4.86721
C         -2.23154       -6.07913       -4.86199
C         -2.23907       -2.81884       -3.46295
C         -2.43917       -2.21200       -2.22206
C         -1.85692       -2.88691        1.70491
C         -2.52761       -2.89754        2.96221
C         -1.87935       -3.42059        4.13242
C         -0.56502       -3.94684        4.06944
C          0.25886       -4.38665        5.26949
C          0.67446       -5.86414        5.23423
C          0.03531       -3.99490        2.84209
C         -0.58732       -3.47408        1.75211
C         -3.78557       -1.59859        0.39876
C         -3.87439       -0.20512        0.47897
C         -2.55419        0.27027        0.65065
S         -1.87616        1.75763        1.07833
C         -5.07878        0.51328        0.38667
C         -6.28495       -0.22237        0.29181
C         -7.81545        0.16326        0.28535
C         -8.03636        1.08101        1.54943
C         -7.01977        1.92704        2.07515
C         -7.10074        2.59479        3.26043
C         -8.24436        2.52132        4.01706
C         -8.25083        3.22535        5.33992
C         -9.33924        4.29273        5.41983
C         -9.33055        1.77884        3.51938
C         -9.22775        1.06115        2.30311
C         -8.20029        0.79859       -1.13797
C         -9.17815        0.25068       -2.01759
C         -9.41286        0.77218       -3.30957
C         -8.70745        1.88924       -3.77375
C         -8.83568        2.43220       -5.17198
C         -9.32185        3.87585       -5.22155
C         -7.79697        2.47426       -2.92530
C         -7.54309        1.93533       -1.67595
C         -8.38588       -1.32970        0.50751
C         -7.39713       -2.09675        0.02729
C         -6.14859       -1.57890        0.18873
C         -4.96823       -2.31382        0.25144
S         -7.93099       -2.98760       -1.27273
C         -9.57099       -2.75286       -0.91456
C         -9.56968       -2.11485        0.30989
S         -9.76586       -3.51743        1.34115
C        -10.07284       -4.71877        0.14500
C        -10.16603       -3.97170       -1.03209
C         -9.96470       -6.26622        0.24159
C         -9.65127       -7.09169       -0.83786
C         -9.38633       -8.60080       -1.00177
C         -9.43422       -9.65449       -0.14407
C         -8.97945      -10.96119       -0.58304
N         -8.60096      -11.97918       -0.98794
C         -9.90934       -9.58413        1.20982
N        -10.27506       -9.59505        2.30717
C         -8.93955       -8.72867       -2.42529
C         -9.13483       -7.58984       -3.08310
C         -9.31583       -6.56390       -2.17552
O         -8.52528       -5.65914       -2.33665
S         -8.45709       -7.48731       -4.59862
C         -7.82083       -9.02393       -4.41067
C         -8.19635       -9.61575       -3.19912
Br        -6.43078       -9.63817       -5.53785
C          3.44506        0.93637        0.82833
C          3.89624        2.18065        0.45866
C          3.49431        2.41234       -0.95855
C          2.45393        3.45138       -0.97540
C          2.30539        3.95547        0.29436
C          3.36586        3.40477        1.12669
C          1.64585        3.90915       -2.01440
C          0.67433        4.89207       -1.71943
C          0.48372        5.33399       -0.39829
C          1.29806        4.86061        0.61543
O          3.72950        1.65584       -1.89150
C          3.96266        4.13338        2.11399
C          5.30105        3.86390        2.53771
C          3.39676        5.35398        2.66605
N          2.87779        6.31365        3.05964
N          6.37388        3.73186        2.94445
F         -0.09794        5.41145       -2.69944
F         -0.47949        6.23416       -0.09013
H          0.98940        2.54949        1.64427
H         -0.97054       -4.71813       -0.47113
H         -0.73734       -5.66372       -2.41691
H         -1.86949       -4.09853       -5.67161
H         -0.39794       -4.93654       -5.06758
H         -3.30663       -5.90886       -4.63406
H         -2.14248       -6.56193       -5.85437
H         -1.80653       -6.76733       -4.09934
H         -2.56553       -2.30607       -4.35615
H         -2.92158       -1.25805       -2.27457
H         -3.50369       -2.44913        3.07544
H         -2.37223       -3.37754        5.09106
H          1.19556       -3.78315        5.31835
H         -0.29979       -4.17774        6.20254
H          1.29161       -6.11103        4.34373
H          1.30462       -6.09257        6.11861
H         -0.22437       -6.51269        5.24766
H          1.04046       -4.37280        2.68781
H          0.06582       -3.51702        0.98397
H         -5.01335        1.58022        0.38695
H         -6.10352        2.13860        1.69263
H         -6.21965        3.15149        3.57059
H         -8.39534        2.47590        6.14126
H         -7.25867        3.71701        5.48069
H        -10.33754        3.82552        5.30209
H         -9.30258        4.79597        6.40853
H         -9.19566        5.06585        4.63257
H        -10.24180        1.73257        4.08706
H        -10.07065        0.47547        1.97528
H         -9.75710       -0.60222       -1.76881
H        -10.12565        0.28367       -3.95311
H         -7.83792        2.39051       -5.66723
H         -9.52196        1.78358       -5.74765
H         -8.62595        4.54730       -4.67690
H         -9.35408        4.19909       -6.28207
H        -10.34035        3.95951       -4.79130
H         -7.21812        3.34041       -3.22556
H         -6.77070        2.46648       -1.21556
H         -5.01614       -3.39132        0.19464
H        -10.27167       -4.28216       -2.03108
H        -10.07319       -6.71772        1.22268
H         -7.78341      -10.54448       -2.87000
H          3.86710        0.09108        0.28694
H          1.77108        3.52243       -3.01516
H          1.12092        5.18546        1.62621
