146
IDTT-T.sdf
C          1.96989        1.98136       -1.37050
C          0.79768        2.74081       -1.53880
C         -0.33376        1.99546       -1.27850
C         -0.12069        0.71292       -0.85822
S          1.53428        0.42538       -0.81153
C         -1.30181        0.02540       -0.57281
C         -1.75101       -1.34655       -0.04548
C         -1.27224       -2.47592       -0.98764
C          0.09958       -2.79014       -1.07397
C          0.56177       -3.79079       -1.94478
C         -0.33802       -4.49893       -2.75840
C          0.13068       -5.55892       -3.72343
C          0.54121       -6.83362       -2.99693
C         -1.69719       -4.20070       -2.68006
C         -2.15749       -3.21497       -1.81480
C         -1.31339       -1.58270        1.43236
C         -1.93555       -2.55786        2.24570
C         -1.57680       -2.73319        3.58848
C         -0.55106       -1.97189        4.15941
C         -0.16507       -2.15513        5.60809
C          1.24935       -2.71183        5.75388
C          0.10249       -1.02542        3.36697
C         -0.28051       -0.82469        2.03895
C         -3.27893       -1.11884       -0.15901
C         -3.59274        0.15122       -0.64699
C         -2.36999        0.83946       -0.84684
S         -1.97042        2.39266       -1.37933
C         -4.89866        0.57370       -0.93221
C         -5.92360       -0.35913       -0.72050
C         -7.42613       -0.22278       -1.00354
C         -8.11281        0.80879       -0.08307
C         -7.39785        1.58312        0.86241
C         -8.05321        2.48948        1.69794
C         -9.44252        2.64067        1.63081
C        -10.14542        3.59630        2.55936
C        -10.07790        5.02674        2.03615
C        -10.16673        1.88176        0.70269
C         -9.51024        0.98466       -0.14571
C         -7.61265        0.01956       -2.51492
C         -7.14876       -0.95101       -3.43071
C         -7.29063       -0.77923       -4.81004
C         -7.89493        0.37987       -5.32750
C         -8.08127        0.63293       -6.81387
C         -7.58227       -0.47651       -7.74311
C         -8.34686        1.35627       -4.42653
C         -8.21017        1.18332       -3.04346
C         -7.86471       -1.63589       -0.62738
C         -6.80656       -2.38003       -0.18915
C         -5.61161       -1.62109       -0.23164
C         -4.32226       -2.03119        0.07480
S         -7.16320       -3.98545        0.19461
C         -8.77606       -3.70298       -0.20925
C         -9.01176       -2.42107       -0.62580
S        -10.63244       -2.26308       -1.02636
C        -11.03300       -3.86986       -0.58765
C         -9.86621       -4.54399       -0.20180
C          3.39453        2.37787       -1.55930
C          3.95091        3.36297       -2.33680
C          5.42458        3.57568       -2.27773
N          6.03789        4.55516       -3.02001
C          5.24226        5.44288       -3.84641
N          3.81415        5.23821       -3.97898
C          3.20353        4.21944       -3.30127
O          2.04394        3.95951       -3.55962
O          6.10265        2.84291       -1.56712
C          7.50665        4.65713       -2.95805
C          7.96338        5.39765       -1.70430
S          5.86906        6.57726       -4.50303
C          2.98803        6.09722       -4.85052
C          3.16984        5.73411       -6.31986
C        -12.41643       -4.39995       -0.68742
C        -13.02370       -5.42419       -0.00354
C        -14.42152       -5.77929       -0.36614
N        -15.09177       -6.80276        0.25662
C        -14.41251       -7.60299        1.26043
N        -13.08093       -7.24592        1.70229
C        -12.42153       -6.19089        1.12666
O        -11.35854       -5.84346        1.59460
O        -14.97092       -5.15221       -1.26392
C        -16.48938       -7.05984       -0.14757
C        -17.40956       -5.90005        0.25379
S        -15.08040       -8.75633        1.84642
C        -12.38806       -8.00737        2.76124
C        -11.55527       -9.13293        2.14895
H          0.71436        3.77723       -1.81216
H          0.81866       -2.25688       -0.47027
H          1.62299       -3.99893       -1.99942
H         -0.69195       -5.83859       -4.41844
H          0.96348       -5.15930       -4.34142
H         -0.33267       -7.24051       -2.44143
H          0.86242       -7.59362       -3.74073
H          1.37166       -6.64292       -2.28782
H         -2.41379       -4.73695       -3.29096
H         -3.21772       -3.05276       -1.84032
H         -2.71846       -3.18645        1.87848
H         -2.10166       -3.47093        4.18283
H         -0.24157       -1.17698        6.13195
H         -0.85878       -2.86339        6.11030
H          1.99862       -2.03307        5.29621
H          1.49177       -2.82838        6.83172
H          1.31387       -3.70915        5.26830
H          0.90260       -0.42382        3.78159
H          0.25978       -0.06787        1.51183
H         -5.10325        1.55684       -1.33629
H         -6.33061        1.49838        0.98597
H         -7.47483        3.05950        2.41526
H        -11.21660        3.31841        2.65783
H         -9.69370        3.52891        3.57396
H        -10.59462        5.08972        1.05361
H        -10.59524        5.70518        2.74733
H         -9.02609        5.36071        1.91911
H        -11.24151        1.99032        0.62951
H        -10.09909        0.42700       -0.85680
H         -6.67555       -1.85825       -3.07665
H         -6.92074       -1.56187       -5.45727
H         -9.16507        0.77854       -7.01189
H         -7.54794        1.57095       -7.08210
H         -8.12329       -1.42547       -7.54079
H         -7.77134       -0.18873       -8.79918
H         -6.48977       -0.63160       -7.61639
H         -8.80890        2.26268       -4.79960
H         -8.56828        1.97498       -2.40267
H         -4.16211       -3.04578        0.39631
H         -9.76568       -5.58397        0.05835
H          4.06684        1.75606       -0.97557
H          7.96305        3.64426       -3.01097
H          7.92557        5.19028       -3.83586
H          7.61478        4.88727       -0.78446
H          9.07337        5.44526       -1.69027
H          7.56768        6.43606       -1.71944
H          1.90248        5.98609       -4.63671
H          3.19949        7.16986       -4.65297
H          2.87783        4.67298       -6.47376
H          2.50851        6.37572       -6.93958
H          4.21701        5.87340       -6.64966
H        -13.00500       -3.85304       -1.41849
H        -16.54043       -7.23576       -1.24323
H        -16.92179       -7.96047        0.32572
H        -17.13249       -4.94961       -0.24214
H        -18.45405       -6.13697       -0.03596
H        -17.36711       -5.75076        1.35299
H        -11.73024       -7.34961        3.36655
H        -13.10077       -8.42225        3.50399
H        -10.80272       -8.71618        1.44633
H        -11.02561       -9.68894        2.95040
H        -12.20969       -9.83955        1.59636
