158
IE-4Cl.sdf
C          2.65707       -1.07174       -0.66539
C          2.35027       -0.73277        0.67108
C          1.46955        0.29764        1.03356
C          0.72674        0.84066       -0.02789
C          0.76196        0.15941       -1.25643
C          1.73967       -0.71756       -1.64100
C          3.72705       -2.13995       -0.77640
C          3.36612       -2.76352        0.55933
C          2.73418       -1.91783        1.41499
C          3.53877       -4.04618        1.03764
C          2.94774       -4.26684        2.30511
S          2.24772       -2.77454        2.80001
C         -0.45032        1.79062       -0.02167
C         -1.30008        0.77021       -0.71686
C         -0.61005        0.06858       -1.65322
C         -2.54735        0.31073       -0.47926
C         -2.86618       -0.81659       -1.21587
S         -1.51489       -1.24106       -2.20038
C          2.90675       -5.54829        3.09643
C         -4.03270       -1.68854       -0.97185
C         -0.77426        2.41313        1.39403
C         -0.32116        2.89410       -1.15002
C          3.54641       -3.03399       -2.08340
C          5.14451       -1.47798       -0.56630
C          4.14454       -2.73283       -3.35478
C          4.00312       -3.56836       -4.47452
C          3.22462       -4.71792       -4.40986
C          2.56218       -5.00100       -3.21187
C          2.71613       -4.18241       -2.07767
C          6.24710       -2.18287       -0.00277
C          7.48373       -1.55094        0.22811
C          7.67352       -0.20880       -0.11822
C          6.61454        0.50104       -0.66385
C          5.37789       -0.10373       -0.85185
C         -0.13490        3.63102        1.73359
C         -0.40380        4.32166        2.91802
C         -1.30065        3.81110        3.85445
C         -1.88760        2.56753        3.60086
C         -1.63313        1.87646        2.40006
C         -1.47517        3.46732       -1.76357
C         -1.37567        4.32713       -2.86139
C         -0.13031        4.68089       -3.37631
C          1.02160        4.16149       -2.77701
C          0.93242        3.27135       -1.70143
C         -1.60868        4.58399        5.11734
C         -0.04163        5.58369       -4.57826
C          8.97959        0.49198        0.11822
C          3.08955       -5.62532       -5.61397
C          9.88983        0.34265       -1.09140
C          3.60103       -7.02733       -5.29030
C         -3.09659        4.93171        5.22047
C          0.72636        6.85762       -4.25038
S         -3.83885       -3.27643       -1.37898
C         -5.24711       -3.88659       -0.79625
C         -5.97578       -2.82018       -0.26023
C         -5.29712       -1.56370       -0.33497
S          2.17163       -5.75339        4.63507
C          2.73821       -7.30026        4.99947
C          3.40267       -7.66890        3.84387
C          3.52251       -6.76909        2.80729
C          4.38073       -7.18674        1.63092
C          3.52193       -7.90138        0.61052
C          2.68344       -8.11477        6.30822
C          2.68152       -7.52691        7.55763
C          4.03634       -6.96481        7.69212
C          3.93156       -5.53367        7.49720
C          2.61511       -5.13763        7.58513
C          1.82720       -6.32868        7.85132
C          4.93073       -4.65034        7.14397
C          4.59623       -3.30197        7.05672
C          2.24093       -3.80612        7.42691
O          5.08103       -7.59568        7.62148
C          0.60797       -6.33608        8.44275
C          0.12066       -7.52762        9.08371
C         -0.22410       -5.16615        8.60993
N         -0.91498       -4.24894        8.76113
N         -0.29559       -8.47140        9.60753
C         -5.89002       -0.27250        0.21542
C         -6.17615       -0.32001        1.71453
C         -5.49641       -5.34079       -0.87733
C         -6.69134       -5.94887       -0.99472
C         -8.00953       -5.30157       -1.17060
C         -9.02298       -6.30052       -1.11846
C         -8.45474       -7.54208       -0.96839
C         -6.96989       -7.42473       -1.05358
C        -10.39248       -6.09140       -1.17597
C        -11.23377       -7.19084       -1.00619
C        -10.68039       -8.46785       -0.76853
C         -9.28762       -8.64745       -0.76337
O         -8.25750       -4.12558       -1.36118
C         -6.10273       -8.46131       -1.24987
C         -4.67807       -8.32782       -1.38157
C         -6.57629       -9.80804       -1.44412
N         -3.52800       -8.28065       -1.49661
N         -6.97378      -10.88418       -1.59795
C          3.26076       -2.87407        7.24747
Cl         2.84507       -1.18295        7.37182
Cl         5.89568       -2.18843        6.76703
Cl       -11.70811       -9.85619       -0.46193
Cl       -12.96864       -6.93845       -1.05512
H          1.22205        0.52355        2.06629
H          1.67818       -1.24753       -2.57865
H          4.04466       -4.71668        0.38597
H         -3.07173        0.76916        0.29501
H          4.74609       -1.87333       -3.56796
H          4.51088       -3.31023       -5.40076
H          1.92363       -5.86997       -3.15860
H          2.16253       -4.46572       -1.20108
H          6.17987       -3.21408        0.30159
H          8.29519       -2.10691        0.68395
H          6.73447        1.54208       -0.93825
H          4.62674        0.56129       -1.22090
H          0.57830        4.09257        1.07805
H          0.09090        5.26894        3.09432
H         -2.55834        2.13113        4.33224
H         -2.13552        0.93435        2.32237
H         -2.48081        3.23656       -1.45615
H         -2.28267        4.70138       -3.32520
H          1.99759        4.42328       -3.16182
H          1.86742        2.87387       -1.34111
H         -1.31807        3.98830        6.00769
H         -1.02302        5.52911        5.13592
H          0.45679        5.04358       -5.41298
H         -1.06003        5.86044       -4.92763
H          8.79538        1.57372        0.31176
H          9.47308        0.07876        1.02191
H          2.02586       -5.68102       -5.92911
H          3.67318       -5.23306       -6.47746
H          9.41531        0.79070       -1.99199
H         10.84974        0.86299       -0.89488
H         10.08983       -0.73279       -1.27992
H          3.01667       -7.46785       -4.45657
H          3.49888       -7.68534       -6.17790
H          4.67244       -6.98296       -5.00067
H         -3.71195        4.00834        5.26568
H         -3.27792        5.51612        6.14687
H         -3.42477        5.54314        4.35207
H          1.76007        6.61534       -3.92435
H          0.77942        7.49969       -5.15275
H          0.20826        7.41434       -3.44118
H         -6.93677       -2.94533        0.21441
H          3.90294       -8.54685        3.69257
H          4.87333       -6.31738        1.21015
H          5.19904       -7.89243        1.93890
H          2.66623       -7.24207        0.39150
H          4.07241       -8.12552       -0.32940
H          3.15129       -8.85213        1.04373
H          3.32218       -8.98558        6.21814
H          5.94193       -4.99130        6.93516
H          1.20982       -3.47448        7.44508
H         -5.18913        0.56568        0.05857
H         -6.85250       -0.05913       -0.29454
H         -5.23236       -0.52101        2.24424
H         -6.56514        0.63296        2.12687
H         -6.93306       -1.09424        1.93592
H         -4.59471       -5.94077       -0.83553
H        -10.79153       -5.09419       -1.32919
H         -8.89673       -9.62800       -0.57149
