160
IEICO.sdf
C          2.88906       -1.14660       -0.30566
C          3.06464       -0.33667        0.80532
C          2.29957        0.83197        1.09473
C          1.15879        1.08083        0.26474
C          0.79096       -0.01195       -0.51418
C          1.59634       -1.11951       -0.82511
C          4.03826       -2.18119       -0.43006
C          4.07467       -2.40042        1.05540
C          3.66407       -1.27983        1.72995
C          4.24123       -3.55322        1.82374
C          3.74946       -3.40209        3.12795
S          3.21761       -1.76421        3.28366
C         -0.04197        2.13231        0.24397
C         -1.14858        1.17654       -0.11774
C         -0.60483        0.09407       -0.69857
C         -2.56984        1.15729       -0.11131
C         -3.07513       -0.07638       -0.55064
S         -1.75640       -0.96244       -1.21332
C          3.61463       -4.49071        4.17776
C         -4.48703       -0.64592       -0.37084
C         -0.25799        2.86106        1.59170
C          0.02679        3.06626       -1.05020
C          3.67968       -3.38944       -1.37339
C          5.41713       -1.49236       -0.77302
C          3.92107       -3.36920       -2.76676
C          3.66053       -4.42678       -3.61461
C          3.06068       -5.57228       -3.13608
C          2.72411       -5.62251       -1.77698
C          3.02892       -4.54411       -0.91852
C          6.66289       -2.02511       -0.35077
C          7.86326       -1.36407       -0.62369
C          7.88662       -0.14842       -1.32272
C          6.68442        0.38449       -1.74888
C          5.50068       -0.26285       -1.47155
C          0.77654        3.62991        2.13754
C          0.67286        4.29660        3.32686
C         -0.48823        4.23301        4.06544
C         -1.56655        3.47733        3.57715
C         -1.45211        2.79271        2.35728
C         -1.00085        3.09009       -2.06309
C         -0.89169        3.87052       -3.22617
C          0.26073        4.63383       -3.45844
C          1.24200        4.63915       -2.48095
C          1.10949        3.92425       -1.31119
C         -0.51214        4.95223        5.37402
C          0.45174        5.45251       -4.71391
C          9.15928        0.60018       -1.61570
C          2.72828       -6.67332       -4.10583
C         10.39501       -0.11198       -1.06647
C          3.42905       -7.98147       -3.76372
C         -1.00237        6.38415        5.20505
C          1.32643        6.70476       -4.51358
S         -4.83312       -2.19467       -0.90947
C         -6.43941       -2.36217       -0.42918
C         -6.76806       -1.17640        0.18727
C         -5.72862       -0.19940        0.23335
S          2.96086       -4.19666        5.72698
C          3.16141       -5.73713        6.41059
C          3.67726       -6.52398        5.38307
C          3.96614       -5.88182        4.16238
O          4.52756       -6.58112        3.11422
C          5.30510       -7.75840        3.22175
C          6.66180       -7.53901        2.60193
C          2.81045       -6.16140        7.83629
C          3.38085       -7.18577        8.57331
C          4.51975       -8.02990        8.13810
C          4.86588       -8.96142        9.15861
C          4.05518       -8.81356       10.26158
C          3.08278       -7.67775       10.00660
C          5.89400       -9.89405        9.07305
C          6.11453      -10.74457       10.14745
C          5.30602      -10.64382       11.28953
C          4.27507       -9.67852       11.36206
O          5.18352       -7.93837        7.12604
C          2.16486       -7.21533       10.91925
C          1.26017       -6.11707       10.69534
C          2.00165       -7.77578       12.24518
N          1.82557       -8.18423       13.31578
N          0.50416       -5.24649       10.58908
O         -5.97873        1.03449        0.78571
C         -7.21284        1.43960        1.35250
C         -7.22091        1.04262        2.79103
C         -7.40502       -3.50482       -0.53953
C         -7.19470       -4.73410       -1.08162
C         -5.96034       -5.21255       -1.73509
C         -6.09271       -6.59307       -2.04771
C         -7.35123       -7.04841       -1.71938
C         -8.15446       -5.91377       -1.14169
C         -5.10115       -7.39797       -2.59293
C         -5.38682       -8.74161       -2.80832
C         -6.65550       -9.24795       -2.48159
C         -7.64843       -8.40781       -1.93853
O         -4.95694       -4.59083       -2.01214
C         -9.47410       -5.97208       -0.77316
C        -10.22600       -4.89320       -0.18982
C        -10.29166       -7.14169       -0.96039
N        -10.88887       -4.06867        0.28442
N        -11.00754       -8.04266       -1.08007
H          2.52371        1.42654        1.97127
H          1.19342       -1.96907       -1.36310
H          4.61210       -4.46138        1.39203
H         -3.19331        1.95733        0.25351
H          4.29767       -2.56007       -3.30296
H          3.91728       -4.31298       -4.66208
H          2.20952       -6.48565       -1.38900
H          2.71986       -4.59297        0.09597
H          6.75711       -2.93774        0.21086
H          8.77574       -1.81634       -0.27712
H          6.62200        1.31832       -2.29741
H          4.69375        0.29049       -1.84218
H          1.72842        3.73690        1.70990
H          1.53879        4.85270        3.65776
H         -2.48674        3.40728        4.13798
H         -2.30291        2.21916        2.06385
H         -1.91808        2.52886       -1.98353
H         -1.70365        3.86859       -3.94336
H          2.14930        5.20507       -2.57626
H          1.91352        4.11043       -0.65426
H         -1.15661        4.39809        6.08205
H          0.52263        4.97823        5.79531
H          0.93261        4.80564       -5.47761
H         -0.53925        5.77837       -5.08850
H          9.26278        0.71930       -2.71497
H          9.09918        1.61501       -1.16068
H          1.62906       -6.82378       -4.11538
H          3.03430       -6.37200       -5.13388
H         10.50238       -1.11646       -1.53480
H         11.30198        0.46974       -1.28916
H         10.30388       -0.23199        0.03837
H          3.10843       -8.34837       -2.76804
H          3.15876       -8.75040       -4.51787
H          4.53113       -7.84163       -3.77210
H         -2.02416        6.38808        4.77245
H         -1.02097        6.87660        6.19790
H         -0.32634        6.97059        4.54455
H          2.36446        6.44857       -4.21391
H          1.42387        7.25606       -5.46612
H          0.87872        7.37014       -3.74303
H         -7.76479       -1.03553        0.59344
H          3.82799       -7.57204        5.46866
H          5.52211       -8.01740        4.27288
H          4.86890       -8.64602        2.71498
H          7.06390       -6.66810        3.15080
H          7.34778       -8.39880        2.76134
H          6.57409       -7.41116        1.49947
H          2.04905       -5.55843        8.30842
H          6.50785       -9.95519        8.18295
H          6.90969      -11.47677       10.08328
H          5.48873      -11.31760       12.11545
H          3.69388       -9.64505       12.26555
H         -7.34806        2.53780        1.41283
H         -8.10720        0.97555        0.85040
H         -6.31121        1.35472        3.32258
H         -8.17933        1.26736        3.33238
H         -7.02891       -0.00276        2.73058
H         -8.36213       -3.29725       -0.08541
H         -4.12663       -6.98674       -2.82958
H         -4.62161       -9.38432       -3.22042
H         -6.86287      -10.29516       -2.64623
H         -8.59909       -8.84518       -1.69511
