160
IEICS-4F.sdf
C          2.75462       -0.97737       -0.80174
C          2.58048       -0.54978        0.51279
C          1.76219        0.47604        0.96297
C          0.90262        1.09497        0.05276
C          0.96266        0.61449       -1.24496
C          1.88587       -0.36756       -1.73326
C          3.70478       -2.25081       -0.84309
C          3.40271       -2.61957        0.60546
C          3.01021       -1.58121        1.34317
C          3.33706       -3.77623        1.36498
C          2.93356       -3.63927        2.68653
S          2.57311       -2.00780        2.90050
C         -0.33721        2.07145        0.17534
C         -1.14270        1.25447       -0.75882
C         -0.32179        0.93120       -1.78184
C         -2.41224        0.60771       -0.78573
C         -2.55262       -0.28320       -1.83030
S         -1.16124       -0.01188       -2.73855
C          2.78184       -4.67153        3.77158
C         -3.67259       -1.35613       -1.94691
C         -1.01000        2.32779        1.55843
C         -0.03925        3.39689       -0.62631
C          3.37185       -3.38409       -1.89655
C          5.20622       -1.76768       -0.82977
C          3.89803       -3.33803       -3.18950
C          3.61859       -4.28508       -4.15601
C          2.81116       -5.37781       -3.91046
C          2.29628       -5.51187       -2.62326
C          2.57551       -4.53542       -1.65264
C          6.14097       -2.13803        0.18046
C          7.41556       -1.54652        0.25982
C          7.80193       -0.56868       -0.67483
C          6.90812       -0.23427       -1.68583
C          5.66091       -0.82561       -1.76808
C         -0.23768        2.26709        2.72368
C         -0.73370        2.52315        3.98339
C         -2.06784        2.84213        4.16933
C         -2.89609        2.91355        3.04715
C         -2.37736        2.68548        1.76098
C         -1.05361        4.15925       -1.26869
C         -0.73701        5.29963       -2.02200
C          0.59692        5.71276       -2.18675
C          1.60539        4.94247       -1.59295
C          1.29570        3.81499       -0.83227
C         -2.58382        3.07945        5.56105
C          0.95875        6.95526       -2.98537
C          9.13130        0.14496       -0.61094
C          2.53785       -6.35292       -5.03331
C          9.98559       -0.06111       -1.86993
C          3.56232       -7.49385       -5.10750
C         -2.47764        4.54577        5.97420
C         -0.27218        7.66550       -3.56259
S         -4.39391       -2.01523       -0.54961
C         -5.50680       -3.07518       -1.25018
C         -5.37072       -2.95522       -2.61396
C         -4.36868       -2.00867       -3.02756
S          3.03110       -4.21274        5.34742
C          2.66046       -5.58968        6.20031
C          2.37825       -6.48705        5.20946
C          2.46048       -6.05094        3.85366
S          2.11161       -7.25145        2.52140
C          0.66789       -6.43996        1.69819
C         -0.55056       -6.56871        2.50398
C          2.66317       -5.94818        7.68067
C          3.50056       -5.38017        8.58064
C          3.94934       -6.07126        9.79069
C          5.40482       -5.93942        9.72432
C          5.74868       -4.97007        8.78163
C          4.50612       -4.35222        8.29325
C          6.36815       -6.71456       10.35745
C          7.70784       -6.54138        9.97885
C          8.05932       -5.58310        9.00412
C          7.07988       -4.76376        8.41874
O          3.34004       -6.91757       10.42721
C          4.28759       -3.10466        7.79432
C          2.92528       -2.61895        7.61277
C          5.34563       -2.18308        7.50892
N          6.14747       -1.38977        7.25893
N          1.80933       -2.32599        7.50295
F          9.34860       -5.47190        8.60251
F          8.66239       -7.33403       10.52286
S         -4.26342       -1.60780       -4.78386
C         -2.56505       -2.13231       -5.11309
C         -2.24435       -3.53729       -4.87784
C         -6.56311       -3.79498       -0.49100
C         -7.19673       -4.99226       -0.66865
C         -6.90612       -6.04534       -1.67042
C         -7.68461       -7.23890       -1.33109
C         -8.49603       -6.97810       -0.23522
C         -8.27055       -5.56990        0.23932
C         -7.65379       -8.50270       -1.94002
C         -8.47404       -9.52248       -1.43242
C         -9.31707       -9.26860       -0.34083
C         -9.33625       -8.00062        0.26085
O         -6.07024       -5.99446       -2.55855
C         -8.90963       -4.96061        1.29658
C         -8.68709       -3.59326        1.70846
C         -9.89354       -5.60891        2.12190
N         -8.47568       -2.49019        1.99235
N        -10.69283       -6.06461        2.82465
F         -8.45093      -10.75876       -1.99283
F        -10.10983      -10.25781        0.14649
H          1.76400        0.59741        2.00891
H          1.80076       -0.73443       -2.73499
H          3.57377       -4.67893        0.98898
H         -3.17664        0.67814       -0.08435
H          4.55079       -2.58607       -3.52630
H          4.06124       -4.13151       -5.10965
H          1.68279       -6.36198       -2.35466
H          2.13963       -4.74483       -0.73390
H          5.88458       -2.86182        0.93274
H          8.08185       -1.83668        1.06237
H          7.13702        0.51061       -2.43105
H          5.06497       -0.47755       -2.57846
H          0.77804        2.05727        2.74209
H         -0.04647        2.46492        4.81312
H         -3.94622        3.14900        3.15819
H         -3.09733        2.79804        0.97789
H         -2.09557        3.87712       -1.21275
H         -1.54296        5.86062       -2.47998
H          2.64827        5.20121       -1.70479
H          2.13099        3.27483       -0.41213
H         -3.63862        2.74237        5.62821
H         -1.98693        2.46668        6.27254
H          1.50489        7.67559       -2.33438
H          1.63404        6.68054       -3.82589
H          8.94193        1.23605       -0.49250
H          9.69438       -0.20986        0.27524
H          1.52231       -6.77380       -4.89777
H          2.57223       -5.80229       -6.00612
H          9.48580        0.33975       -2.77636
H         10.94460        0.48667       -1.76863
H         10.20752       -1.13752       -2.01808
H          3.56257       -8.08024       -4.16572
H          3.32471       -8.18340       -5.94598
H          4.58579       -7.11237       -5.30573
H         -3.09312        5.18341        5.30639
H         -2.84844        4.66686        7.01509
H         -1.42061        4.88704        5.94143
H         -0.94676        8.01062       -2.74743
H          0.02198        8.55436       -4.14374
H         -0.83302        6.96999       -4.22864
H         -6.06274       -3.48343       -3.26031
H          2.12966       -7.44512        5.53094
H          0.85901       -5.38915        1.47503
H          0.29555       -6.98867        0.81230
H         -0.51454       -5.94024        3.35031
H         -1.45156       -6.05054        2.20374
H         -0.66184       -7.65860        2.62549
H          2.15123       -6.87009        7.99852
H          6.08185       -7.47323       11.07371
H          7.35805       -4.04916        7.65647
H         -2.54682       -2.16845       -6.19253
H         -1.81777       -1.55952       -4.56240
H         -2.77124       -4.10232       -5.66785
H         -1.22526       -3.83681       -5.18268
H         -2.45835       -3.67215       -3.79560
H         -6.81377       -3.21414        0.35610
H         -7.00170       -8.70345       -2.77929
H         -9.99449       -7.87237        1.09994
