160
IEICO-4F.sdf
C          2.78176       -1.14466       -0.58039
C          2.53970       -0.68747        0.71633
C          1.63628        0.33827        1.03394
C          0.78185        0.74400       -0.00493
C          0.76029       -0.03874       -1.15175
C          1.77941       -0.90249       -1.53361
C          3.90019       -2.18853       -0.60149
C          3.59424       -2.72774        0.76991
C          2.98848       -1.78407        1.54841
C          3.77625       -3.95471        1.38745
C          3.19063       -3.97997        2.66837
S          2.51216       -2.44806        3.02175
C         -0.41795        1.69126       -0.03837
C         -1.36926        0.64571       -0.58093
C         -0.65507       -0.15958       -1.43724
C         -2.70150        0.24808       -0.39132
C         -2.94775       -0.94817       -1.07274
S         -1.56480       -1.45717       -1.93980
C          3.11393       -5.17730        3.53213
C         -4.09867       -1.82400       -0.85135
C         -0.62719        2.42962        1.31155
C         -0.26467        2.67795       -1.27177
C          3.70441       -3.12627       -1.83706
C          5.30479       -1.45537       -0.44182
C          4.69319       -3.23521       -2.83775
C          4.50376       -3.99256       -3.99092
C          3.30602       -4.66515       -4.21250
C          2.29338       -4.57686       -3.24842
C          2.48626       -3.82759       -2.07614
C          6.42361       -2.08662        0.18407
C          7.63099       -1.40505        0.41906
C          7.78509       -0.07240        0.02946
C          6.71290        0.57248       -0.58497
C          5.49961       -0.09106       -0.80106
C          0.01763        3.67324        1.51444
C         -0.13870        4.40876        2.68577
C         -0.92738        3.92565        3.72618
C         -1.54016        2.66968        3.58089
C         -1.38888        1.92651        2.39134
C         -1.40555        3.20747       -1.94000
C         -1.29356        3.93837       -3.12722
C         -0.04283        4.19454       -3.68929
C          1.09978        3.71262       -3.04417
C          0.99599        2.95820       -1.86957
C         -1.08694        4.75808        4.97678
C          0.05855        4.93525       -4.99778
C          9.06905        0.67446        0.30028
C          3.12112       -5.44008       -5.49158
C         10.05218        0.52251       -0.85362
C          2.86512       -6.91511       -5.20809
C         -2.28538        5.69894        4.86585
C          0.15892        6.43826       -4.78136
S         -3.93586       -3.47454       -1.11026
C         -5.38190       -3.91296       -0.42285
C         -6.04708       -2.76596       -0.01579
C         -5.33153       -1.58167       -0.22768
S          1.91426       -5.52441        4.66939
C          2.50340       -7.02892        5.18976
C          3.64969       -7.25574        4.41640
C          3.99742       -6.24740        3.50859
O          5.08739       -6.29326        2.68302
C          6.02313       -7.31927        2.59079
C          7.07859       -6.98263        1.55045
C          1.99948       -7.95638        6.29516
C          1.36173       -7.43490        7.38751
C          2.35659       -6.81482        8.32065
C          2.16823       -5.35990        8.27792
C          1.04668       -5.06586        7.52247
C          0.38051       -6.35561        7.15878
C          2.99590       -4.34866        8.78192
C          2.67426       -3.00995        8.49896
C          1.53358       -2.70194        7.74077
C          0.70992       -3.72400        7.25708
O          3.37188       -7.35336        8.74274
C         -0.97900       -6.47243        6.96220
C         -1.84607       -7.65815        7.25661
C         -1.75173       -5.30707        6.66739
N         -2.44101       -4.41069        6.43301
N         -2.61292       -8.51485        7.45970
F          1.24279       -1.41149        7.43908
F          3.49669       -2.01149        8.90728
O         -5.76615       -0.35519        0.18392
C         -6.98660       -0.09325        0.80509
C         -7.11648        1.39817        1.11816
C         -5.77548       -5.30937       -0.22306
C         -7.03532       -5.78279       -0.22179
C         -8.31594       -5.05769       -0.39885
C         -9.32338       -5.86252        0.20509
C         -8.82121       -7.11448        0.49397
C         -7.42065       -7.19300        0.03830
C        -10.60425       -5.46021        0.54293
C        -11.40181       -6.36458        1.24072
C        -10.91001       -7.65115        1.54659
C         -9.61754       -8.04054        1.15449
O         -8.52812       -3.94041       -0.83797
C         -6.68718       -8.30650       -0.21944
C         -5.38386       -8.23057       -0.84538
C         -7.23735       -9.64347       -0.09506
N         -4.33982       -8.22018       -1.34683
N         -7.64719      -10.72422       -0.00753
F        -12.63558       -5.98323        1.64657
F        -11.67531       -8.51366        2.24998
H          1.46067        0.66032        2.05019
H          1.69679       -1.49943       -2.42791
H          4.25159       -4.77841        0.87906
H         -3.41282        0.71690        0.27152
H          5.62550       -2.71801       -2.78924
H          5.29698       -4.02966       -4.72932
H          1.34590       -5.07337       -3.41489
H          1.64843       -3.76524       -1.39564
H          6.39105       -3.10010        0.54584
H          8.44236       -1.91712        0.92688
H          6.80888        1.60736       -0.88708
H          4.72722        0.51295       -1.23769
H          0.65082        4.11624        0.76947
H          0.35753        5.36832        2.77410
H         -2.13686        2.26550        4.38878
H         -1.87031        0.96600        2.33895
H         -2.41208        3.02841       -1.60364
H         -2.19638        4.27948       -3.62357
H          2.07732        3.89651       -3.46862
H          1.92173        2.57419       -1.47049
H         -1.17896        4.10586        5.87092
H         -0.18283        5.38976        5.12556
H          0.96118        4.60825       -5.55880
H         -0.82782        4.69246       -5.62675
H          8.86375        1.76146        0.41641
H          9.51784        0.32208        1.25564
H          2.27505       -5.01834       -6.07616
H          4.03192       -5.34565       -6.12405
H          9.60239        0.93970       -1.77959
H         10.97906        1.09233       -0.62827
H         10.31408       -0.54360       -1.01953
H          1.92845       -7.03282       -4.62362
H          2.76004       -7.46417       -6.16650
H          3.71161       -7.35303       -4.63668
H         -3.22828        5.12445        4.75227
H         -2.35461        6.32519        5.78127
H         -2.16289        6.37675        3.99291
H          1.07851        6.66725       -4.20321
H          0.22239        6.94793       -5.76639
H         -0.72673        6.82506       -4.23443
H         -6.98128       -2.77277        0.49582
H          4.24012       -8.13065        4.46485
H          6.48818       -7.52717        3.57059
H          5.53995       -8.26422        2.27176
H          7.60866       -6.05266        1.84083
H          7.81408       -7.81277        1.46929
H          6.59396       -6.84371        0.56115
H          2.76135       -8.69933        6.46353
H          3.89926       -4.58730        9.32692
H         -0.13114       -3.43640        6.65287
H         -7.81426       -0.38838        0.13374
H         -7.10941       -0.67343        1.74983
H         -7.00255        1.99838        0.19017
H         -8.12053        1.60689        1.54963
H         -6.34639        1.71511        1.85391
H         -4.95668       -5.98145        0.03088
H        -10.94751       -4.45610        0.31304
H         -9.24049       -9.01390        1.41206
