144
IFBR-d.sdf
C          2.74716       -1.30036       -0.68480
C          2.92126       -0.65323        0.53863
C          2.09841        0.37765        0.99332
C          0.98584        0.68945        0.20288
C          0.77352        0.01676       -1.00098
C          1.64799       -0.95536       -1.49689
C          3.84227       -2.36511       -0.91137
C          4.55096       -2.26159        0.44002
C          4.00145       -1.29252        1.20445
C          5.57895       -2.95909        1.09526
C          5.71431       -2.53769        2.43752
S          4.63664       -1.25005        2.73760
C         -0.13950        1.68257        0.50691
C         -1.05895        1.34372       -0.65257
C         -0.48900        0.45874       -1.50802
C         -2.35673        1.69521       -1.01066
C         -2.76272        1.03700       -2.18549
S         -1.49170        0.06867       -2.78609
C          6.58732       -3.16175        3.47396
C         -4.13731        1.04775       -2.73577
C         -0.86535        1.39898        1.84367
C          0.41061        3.12288        0.36324
C          3.19127       -3.74513       -1.16279
C          4.81671       -2.00174       -2.03984
C          7.73393       -3.88189        3.10440
C          8.57782       -4.46031        4.06703
C          8.29014       -4.38775        5.44980
C          7.13179       -3.68033        5.83208
C          6.29291       -3.06491        4.85052
C         -5.21765        1.25266       -1.86066
C         -6.54362        1.18240       -2.29910
C         -6.84999        0.92237       -3.65444
C         -5.77488        0.76835       -4.54826
C         -4.42355        0.80845       -4.08977
N          6.75009       -3.48311        7.11820
S          5.36409       -2.60391        6.97114
N          5.20771       -2.41121        5.34316
N         -5.93234        0.54446       -5.88033
S         -4.37457        0.41984       -6.41419
N         -3.47442        0.62265       -5.04351
C          2.53087       -3.99856       -2.38367
C          1.94856       -5.24284       -2.65422
C          2.00269       -6.28074       -1.70607
C          2.64705       -6.03610       -0.48682
C          3.23518       -4.79710       -0.21894
C          4.71320       -0.78767       -2.75669
C          5.60940       -0.47681       -3.77877
C          6.63349       -1.36708       -4.12372
C          6.74780       -2.57773       -3.42078
C          5.85469       -2.88797       -2.38720
C         -0.51285        0.33772        2.71141
C         -1.18159        0.13764        3.91889
C         -2.22737        0.98308        4.30381
C         -2.60727        2.02583        3.44772
C         -1.94019        2.22661        2.23576
C          0.92290        3.54392       -0.88755
C          1.41664        4.83771       -1.07656
C          1.42367        5.75774       -0.02047
C          0.93621        5.35331        1.23106
C          0.43812        4.05767        1.42291
C         -2.93615        0.76041        5.61666
C          1.96763        7.15505       -0.22125
C          7.58342       -1.02339       -5.24686
C          1.41231       -7.66165       -1.93127
C          0.90815       -7.94083       -3.34772
C          9.03055       -0.93126       -4.76929
C         -2.76430        1.94783        6.56203
C          1.17346        7.94595       -1.26117
C          9.27308       -5.01072        6.39708
C         -8.24567        0.84508       -4.18002
C          9.09194       -5.55231        7.62818
S          7.52910       -5.83519        8.49035
C          8.46765       -6.66010        9.77929
N          9.87643       -6.66211        9.58721
C         10.22488       -6.07279        8.41701
S          7.82653       -7.13282       10.97868
C         10.85766       -7.21460       10.52008
C         10.88341       -8.73696       10.44078
O         11.38705       -5.98898        8.04782
C         -9.33424        0.34037       -3.55226
S         -9.36029       -0.49487       -1.94943
C        -11.09066       -0.85351       -2.24797
N        -11.61713       -0.31721       -3.45855
C        -10.66788        0.32498       -4.17364
S        -11.89288       -1.51514       -1.25107
C        -13.00358       -0.44306       -3.89624
C        -13.26550       -1.84259       -4.44251
O        -10.90149        0.83815       -5.26136
F          9.68447       -5.11623        3.63230
F         -7.50719        1.42447       -1.37978
H          2.26730        0.85569        1.94978
H          1.43732       -1.44295       -2.43391
H          6.11800       -3.78540        0.65277
H         -2.98503        2.35422       -0.43379
H          8.00302       -3.97856        2.06086
H         -5.04545        1.43652       -0.80813
H          2.47579       -3.23670       -3.14758
H          1.45720       -5.37579       -3.60787
H          2.70791       -6.81805        0.26027
H          3.71818       -4.68812        0.73762
H          3.94851       -0.05778       -2.53705
H          5.49798        0.46480       -4.30264
H          7.52654       -3.28548       -3.67369
H          5.96614       -3.82950       -1.86491
H          0.27249       -0.36104        2.48649
H         -0.87423       -0.68215        4.55663
H         -3.41893        2.68899        3.71833
H         -2.25333        3.05156        1.61057
H          0.93611        2.87104       -1.73466
H          1.79562        5.11944       -2.05136
H          0.94080        6.04263        2.06610
H          0.08660        3.80408        2.41095
H         -4.01592        0.58622        5.42419
H         -2.52986       -0.13964        6.12842
H          1.93684        7.72426        0.73361
H          3.02896        7.08888       -0.54454
H          7.50373       -1.79560       -6.04121
H          7.31173       -0.04310       -5.69760
H          2.20271       -8.41374       -1.72307
H          0.58344       -7.81998       -1.20617
H          1.74735       -7.83936       -4.06988
H          0.52884       -8.98332       -3.40462
H          0.08370       -7.25364       -3.62816
H          9.37545       -1.90416       -4.36189
H          9.68403       -0.66121       -5.62595
H          9.12923       -0.14947       -3.98644
H         -3.19558        2.87179        6.12379
H         -3.28781        1.73649        7.51827
H         -1.68686        2.11457        6.77711
H          0.11389        8.04742       -0.94382
H          1.60984        8.96282       -1.36468
H          1.21144        7.45236       -2.25486
H         10.28891       -5.04627        6.01510
H         -8.38485        1.18932       -5.20096
H         11.88293       -6.86227       10.27464
H         10.63828       -6.86227       11.55215
H         11.17415       -9.04377        9.41226
H         11.63864       -9.13260       11.15172
H          9.89424       -9.17310       10.68299
H        -13.69120       -0.19446       -3.05857
H        -13.22532        0.27271       -4.71632
H        -13.06982       -2.61988       -3.67719
H        -14.32085       -1.92043       -4.77764
H        -12.60282       -2.02167       -5.31711
