98
IHIC-N.sdf
C          0.96069       -0.82423       -0.67779
C          0.90450       -0.94561       -2.02631
C         -0.10407       -1.69043       -2.81846
C          0.13228       -1.50634       -4.18457
C          1.25472       -0.74532       -4.39005
C          1.84224       -0.35953       -3.05575
C         -0.66532       -2.02578       -5.19139
C         -0.32037       -1.75242       -6.50130
C          0.81698       -0.97445       -6.76869
C          1.61295       -0.46529       -5.71972
O         -0.99816       -2.42355       -2.46218
C          2.99432        0.34760       -2.84465
C          3.46096        0.74140       -1.53444
C          3.85253        0.71298       -3.93932
N          4.51204        0.98467       -4.85026
N          3.81193        1.04455       -0.47206
C         -3.33832       -8.90291       10.31446
C         -2.88750       -8.42752       11.52424
C         -2.75501       -7.00866       11.95173
C         -2.36197       -6.92551       13.31177
C         -2.17380       -8.18489       13.83138
C         -2.46928       -9.23165       12.76985
C         -2.19962       -5.75017       14.05786
C         -1.82235       -5.85865       15.39631
C         -1.60958       -7.12131       15.95690
C         -1.77839       -8.28040       15.18586
O         -2.97576       -5.99324       11.33666
C         -2.39543      -10.60469       12.95739
C         -2.65776      -11.56057       11.82457
C         -2.03084      -11.14708       14.31867
N         -2.86044      -12.31279       10.94798
N         -1.74816      -11.57639       15.37329
C         -0.01941       -1.37534        0.26449
C         -0.26815       -0.75553        1.47063
C         -1.32315       -1.34066        2.11236
C         -1.88338       -2.39785        1.49914
S         -1.07600       -2.71214        0.10685
C         -2.06189       -0.86764        3.29300
C         -2.95955       -2.10565        3.43802
C         -2.88328       -2.95461        2.34036
C         -1.14710       -0.67647        4.54364
C         -2.64419        0.46312        2.66058
C         -3.52061        1.40553        3.45421
C         -0.45118       -1.96693        4.99190
C         -3.52375       -2.60369        4.60003
C         -3.94754       -3.92099        4.65989
C         -3.99386       -4.73175        3.48662
C         -3.48731       -4.21332        2.27529
C         -4.16318       -4.48053        5.92090
C         -4.35412       -5.84304        5.99092
C         -4.49600       -6.66047        4.87400
C         -4.36795       -6.09395        3.58712
C         -4.26969       -6.67124        7.14964
C         -4.36027       -7.95598        6.80445
C         -4.61835       -8.13543        5.32764
C         -6.07084       -8.69545        5.15503
C         -3.46986       -9.03515        4.75054
C         -6.39619      -10.04186        5.81832
C         -2.01021       -8.55015        4.86965
S         -3.85644       -6.49473        8.76255
C         -3.77732       -8.17102        9.06991
C         -4.11823       -8.81783        7.86595
H          1.72518       -0.24315       -0.18634
H         -1.54008       -2.62127       -4.95017
H         -0.94130       -2.14193       -7.29474
H          1.07378       -0.76513       -7.79254
H          2.46147        0.13194       -5.98076
H         -3.40745       -9.96095       10.18544
H         -2.36929       -4.77328       13.61878
H         -1.69510       -4.97096       16.00182
H         -1.31693       -7.20572       16.99610
H         -1.59744       -9.19584       15.69827
H          0.19164        0.13302        1.86668
H         -0.39213        0.11078        4.33289
H         -1.72552       -0.33668        5.43059
H         -1.79341        1.06837        2.27227
H         -3.28752        0.21572        1.78056
H         -3.00912        1.85506        4.31625
H         -3.77880        2.24177        2.76410
H         -4.45047        0.89065        3.75205
H          0.01735       -2.53855        4.22006
H          0.32362       -1.75974        5.74219
H         -1.17729       -2.65142        5.43470
H         -3.49288       -2.10298        5.50630
H         -3.37610       -4.84019        1.39687
H         -4.02920       -3.89881        6.82589
H         -4.40350       -6.70367        2.69992
H         -6.80560       -7.93946        5.52403
H         -6.25489       -8.84453        4.07758
H         -3.51455      -10.01114        5.27684
H         -3.64006       -9.21355        3.67456
H         -6.41923       -9.98916        6.91852
H         -7.41913      -10.34555        5.51349
H         -5.68818      -10.82755        5.49150
H         -1.69633       -8.34526        5.90754
H         -1.34204       -9.35116        4.49385
H         -1.81084       -7.67664        4.22822
H         -4.12894       -9.84132        7.70083
