144
INIC2.sdf
C          0.74691       -0.30385       -0.04099
C          1.71935       -1.27820        0.06780
C          2.26524       -2.25448       -0.97847
C          3.22456       -3.16280       -0.22971
C          3.28888       -2.75129        1.07257
C          2.45485       -1.64781        1.29982
O          2.40153       -1.14971        2.40387
C          1.97025       -2.35255       -2.30534
C          2.50643       -3.42001       -3.11788
N          2.89920       -4.24848       -3.82512
C          1.08428       -1.45113       -3.01198
N          0.38596       -0.76767       -3.63494
C          4.02005       -4.27259       -0.58637
C          4.81614       -4.90300        0.40214
C          4.83101       -4.43305        1.72433
C          4.06121       -3.34139        2.06004
C        -12.92316        1.43937        3.73863
C        -13.38571        0.86111        2.60632
C        -14.59142       -0.03656        2.40430
C        -14.70020       -0.20739        0.91253
C        -13.64399        0.42472        0.30714
C        -12.81186        1.02756        1.25613
C        -15.66147       -0.81347        0.08475
C        -15.49533       -0.75510       -1.31584
C        -14.38528       -0.10692       -1.88367
C        -13.44599        0.49020       -1.06138
O        -11.81574        1.61010        0.89916
C        -15.42673       -0.59275        3.33191
C        -16.43551       -1.55498        2.96751
C        -15.36061       -0.34533        4.74902
N        -15.32679       -0.16149        5.88944
N        -17.26274       -2.33161        2.73770
C          0.24847        0.58115        1.09374
S         -1.08229        0.34889        2.19855
C         -0.92441        1.84227        3.02713
C          0.15476        2.42977        2.45629
C          0.77852        1.82807        1.41654
C         -1.51704        2.74531        3.97107
C         -0.84690        3.96237        3.98975
S          0.51813        3.92781        3.04532
S         -2.92814        2.91213        4.93591
C         -2.66884        4.59678        5.26478
C         -1.52221        5.01541        4.61001
C         -3.61404        5.74146        5.33321
C         -3.08100        6.62058        4.39551
C         -1.51382        6.53651        4.47241
C         -4.91344        6.00263        5.89255
C         -5.68209        7.01888        5.22534
C         -5.42600        6.80658        3.87952
C         -4.09325        6.77004        3.39317
C         -7.13367        7.62583        5.32137
C         -7.68251        6.60165        4.36746
C         -6.74608        6.34546        3.37636
C         -8.76104        5.72490        4.31630
C         -8.67302        4.76490        3.34530
S         -7.23777        4.99381        2.42520
S        -10.14101        5.47665        5.24351
C        -10.61113        4.13908        4.48493
C         -9.75278        3.86038        3.46815
C        -11.69469        3.34962        4.74748
C        -11.75602        2.35651        3.80029
S        -10.34553        2.49544        2.79289
C         -1.04240        7.13160        5.91289
C         -0.79081        7.25729        3.23940
C         -7.73781        7.77003        6.78450
C         -7.18310        9.05406        4.51755
C         -1.45081        7.92862        2.17658
C         -0.79384        8.54278        1.13360
C          0.58817        8.52795        1.04683
C          1.28931        7.89461        2.05682
C          0.60583        7.29834        3.10573
C         -1.83760        7.05576        7.10982
C         -1.43760        7.59666        8.32982
C         -0.21622        8.25592        8.45442
C          0.59774        8.33266        7.34347
C          0.21228        7.76805        6.13875
C         -8.09019        8.97672        7.40940
C         -8.60243        9.08698        8.67019
C         -8.77326        7.96429        9.46131
C         -8.45273        6.73868        8.91799
C         -7.96613        6.69133        7.62725
C         -6.36779        9.37586        3.37237
C         -6.41205       10.59951        2.70377
C         -7.27888       11.60224        3.12352
C         -8.10093       11.34428        4.20048
C         -8.08109       10.12049        4.82153
F          5.58243       -5.02604        2.68276
F        -14.22641       -0.03860       -3.22612
C          1.30078        9.16360       -0.10320
C          0.32081        9.79009       -1.09904
C          0.24975        8.87040        9.74579
C         -0.28851        8.13206       10.96802
C         -9.30288        8.07613       10.85333
C        -10.26590        9.25631       10.98111
C         -7.34560       12.94152        2.43664
C         -7.72559       12.80939        0.96205
H          0.27505       -0.13790       -1.00658
H          4.05092       -4.67214       -1.57853
H          5.42285       -5.75659        0.15269
H          4.05036       -2.95355        3.07471
H        -13.46252        1.31670        4.67031
H        -16.53675       -1.29981        0.46972
H        -16.23026       -1.20130       -1.96573
H        -12.58699        1.01468       -1.46856
H          1.55965        2.42036        1.00317
H         -5.31773        5.40678        6.69837
H         -3.89569        6.73433        2.33354
H        -12.40285        3.55289        5.54856
H         -2.47219        8.03607        2.02642
H         -1.40937        9.01823        0.38822
H          2.36818        7.83764        2.06553
H          1.23720        6.87055        3.79526
H         -2.78937        6.59568        7.20099
H         -2.10421        7.49740        9.17245
H          1.55883        8.83118        7.39114
H          0.98891        7.88541        5.45550
H         -7.95566        9.91646        7.06599
H         -8.84141       10.07080        9.02076
H         -8.57723        5.80257        9.45537
H         -7.80564        5.76680        7.33273
H         -5.65503        8.74813        2.90498
H         -5.75094       10.75720        1.85873
H         -8.79761       12.08942        4.56067
H         -8.87780       10.11875        5.50504
H          1.98468        9.94581        0.28623
H          1.90023        8.38412       -0.61892
H         -0.28207       10.58423       -0.59970
H          0.86351       10.23957       -1.93316
H         -0.37037        9.01381       -1.50451
H          1.36326        8.85156        9.78168
H         -0.08045        9.92962        9.77864
H          0.06976        7.08067       10.98028
H          0.05858        8.63177       11.89093
H         -1.39752        8.14309       10.96442
H         -9.82714        7.13365       11.12208
H         -8.45088        8.21795       11.55225
H        -11.13107        9.12764       10.29844
H        -10.63907        9.32750       12.01043
H         -9.75239       10.21126       10.74239
H         -8.10360       13.58198        2.94043
H         -6.35988       13.44655        2.52371
H         -8.73767       12.36936        0.85099
H         -7.74538       13.81006        0.48613
H         -6.98600       12.17538        0.42916
