144
INIC3.sdf
C         -0.29146       -0.62942        0.61910
C          0.87076       -0.44254       -0.10117
C          2.17468        0.42486       -0.03706
C          2.86323        0.12158       -1.35328
C          2.18748       -0.86614       -2.04919
C          1.01314       -1.26350       -1.32513
O          0.22387       -2.11140       -1.72036
C          2.77377        1.25292        0.91985
C          4.01297        1.93113        0.72761
N          5.02388        2.50731        0.61638
C          2.35400        1.60490        2.24973
N          2.17565        1.99321        3.33664
C          4.03704        0.64908       -1.93501
C          4.49337        0.17434       -3.16598
C          3.79407       -0.82845       -3.84150
C          2.62651       -1.35822       -3.28478
C        -15.71638        0.49851        6.56654
C        -16.20897       -0.56816        5.78425
C        -17.21458       -1.77368        5.90608
C        -16.32367       -2.90234        5.52459
C        -15.35456       -2.38675        4.70030
C        -15.46399       -0.96197        4.62428
C        -16.30155       -4.27433        5.86319
C        -15.27435       -5.07245        5.33310
C        -14.31801       -4.51209        4.46463
C        -14.36584       -3.15654        4.14034
O        -14.90055       -0.23350        3.83184
C        -18.57783       -2.04773        6.05181
C        -19.06087       -3.41994        5.80200
C        -19.68178       -1.13610        6.25263
N        -20.65509       -0.52468        6.40473
N        -19.37083       -4.52591        5.59903
C         -0.76739        0.12291        1.78860
S         -1.85240       -0.31677        3.07034
C         -1.79679        1.20914        3.82405
C         -0.94146        1.96447        3.07209
C         -0.42949        1.42448        1.93244
C         -2.38873        1.98307        4.86193
C         -1.91559        3.27708        4.82384
S         -0.71695        3.47506        3.65436
S         -3.63917        1.89102        6.05513
C         -3.54853        3.57324        6.48493
C         -2.59622        4.16272        5.65088
C         -4.54009        4.67575        6.81141
C         -4.32536        5.48395        5.74797
C         -2.73238        5.65293        5.75075
C         -5.79965        4.78422        7.44372
C         -6.85851        5.33683        6.63676
C         -6.76956        4.87473        5.33676
C         -5.40779        5.11353        4.78666
C         -8.27802        5.96023        6.79015
C         -9.04138        4.78044        6.18084
C         -8.22417        4.28022        5.15611
C        -10.29883        4.07960        6.36331
C        -10.56497        3.02249        5.48112
S         -9.14265        2.95634        4.44098
S        -11.61611        4.21841        7.44680
C        -12.55917        2.93628        6.81325
C        -11.88111        2.37340        5.74546
C        -13.84997        2.39074        7.18221
C        -14.32245        1.31698        6.35485
S        -12.96549        1.12105        5.22850
C         -2.06231        5.94697        7.21474
C         -2.11771        6.63746        4.68119
C         -8.53955        6.53956        8.22063
C         -8.42212        7.16990        5.65661
C         -1.87852        8.01656        4.92959
C         -1.30387        8.85068        3.97329
C         -0.94288        8.37062        2.71403
C         -1.20396        7.03730        2.42960
C         -1.79513        6.23026        3.38914
C         -0.75059        5.47441        7.56690
C         -0.21119        5.62501        8.86051
C         -0.93708        6.24604        9.88024
C         -2.20378        6.73658        9.57662
C         -2.75027        6.59593        8.28976
C         -8.82699        7.91643        8.39558
C         -9.06766        8.49584        9.62267
C         -8.97715        7.74816       10.77984
C         -8.63893        6.39037       10.67479
C         -8.43939        5.79162        9.41367
C         -9.66859        7.52615        5.02626
C         -9.79631        8.50244        4.02860
C         -8.68830        9.18209        3.55148
C         -7.45939        8.91055        4.13440
C         -7.32939        7.97491        5.17580
F          4.24844       -1.27766       -5.03676
F        -13.31494       -5.26929        3.96841
F          5.62423        0.69640       -3.70120
F        -15.18792       -6.38123        5.67462
C         -0.39112        9.28081        1.65629
C          0.37489       10.46362        2.24461
C         -0.37841        6.35914       11.28324
C         -0.24581        7.80872       11.74995
C         -8.81251       10.19823        2.44867
C         -9.05495       11.60362        2.99250
C         -9.21228        8.43731       12.09113
C        -10.38687        7.82200       12.84076
H         -0.97898       -1.40071        0.27266
H          4.63496        1.41672       -1.50791
H          2.07965       -2.13046       -3.81021
H        -16.23762        0.68223        7.50942
H        -17.00585       -4.72722        6.55254
H        -13.62177       -2.68709        3.51818
H          0.15415        1.95614        1.20891
H         -5.83945        4.58116        8.49994
H         -5.16324        4.97189        3.74413
H        -14.39751        2.79122        8.02529
H         -2.12778        8.52213        5.83674
H         -1.16818        9.87804        4.24575
H         -0.98635        6.59782        1.46513
H         -2.04138        5.28682        3.06458
H         -0.10432        4.94838        6.88419
H          0.77932        5.23446        9.06480
H         -2.79204        7.22512       10.34478
H         -3.73532        7.00232        8.20315
H         -8.86850        8.62487        7.60984
H         -9.31054        9.55189        9.64328
H         -8.52300        5.79216       11.56402
H         -8.18435        4.75430        9.40043
H        -10.61647        7.10146        5.23741
H        -10.78360        8.70612        3.62841
H         -6.57811        9.42884        3.78611
H         -6.33026        7.94524        5.54954
H          0.29260        8.70549        0.99970
H         -1.24157        9.64866        1.03932
H          1.25034       10.10105        2.82271
H          0.72806       11.11377        1.43099
H         -0.27264       11.08006        2.89981
H         -1.04865        5.81988       11.99007
H          0.62132        5.87734       11.32769
H         -1.24159        8.29923       11.78803
H          0.18990        7.82802       12.77153
H          0.42204        8.38181       11.07372
H         -7.87434       10.20948        1.85386
H         -9.64211        9.90450        1.77033
H         -8.20655       11.92232        3.63493
H         -9.13441       12.31219        2.14186
H         -9.99802       11.65093        3.57745
H         -8.28735        8.37795       12.69965
H         -9.43685        9.51460       11.90900
H        -10.18125        6.75546       13.06666
H        -10.54176        8.36823       13.79294
H        -11.31808        7.89569       12.23908
