144
INIC1.sdf
C          0.88613       -0.53738       -0.01605
C          1.83052        0.04767       -0.84595
C          2.47693       -0.47555       -2.12734
C          3.54737        0.54167       -2.48958
C          3.48817        1.58027       -1.61345
C          2.48597        1.37255       -0.69595
O          2.20700        2.33706       -0.05872
C          2.17130       -1.58494       -2.85676
C          2.89547       -1.95390       -4.05485
N          3.43300       -2.30505       -5.01999
C          1.10010       -2.49722       -2.53209
N          0.25680       -3.26462       -2.32532
C          4.50965        0.63095       -3.51418
C          5.35043        1.76872       -3.58462
C          5.23772        2.80994       -2.65123
C          4.29463        2.72101       -1.65150
C        -12.64472       -1.76432        6.79586
C        -12.50504       -3.04315        6.44011
C        -13.47630       -4.18207        6.54867
C        -12.75298       -5.36109        5.97049
C        -11.45625       -4.99785        5.66664
C        -11.24347       -3.62429        5.97568
C        -13.17341       -6.67237        5.67981
C        -12.25418       -7.57219        5.11378
C        -10.93337       -7.17578        4.84743
C        -10.52645       -5.87442        5.12813
O        -10.14321       -3.10097        5.98667
C        -14.74870       -4.20257        7.05764
C        -15.49559       -5.41467        7.20705
C        -15.50860       -3.03258        7.45200
N        -16.09621       -2.08221        7.76119
N        -16.20431       -6.31475        7.36961
C          0.33380        0.05018        1.27396
S         -0.85790       -0.58528        2.37797
C         -0.87084        0.75225        3.45158
C          0.06182        1.57841        2.95578
C          0.69651        1.24956        1.84056
C         -1.50654        1.37110        4.57869
C         -1.02628        2.65519        4.78536
S          0.24988        2.99387        3.78330
S         -2.81988        1.13415        5.66201
C         -2.76926        2.75072        6.31115
C         -1.78169        3.45341        5.64346
C         -3.83147        3.72798        6.70972
C         -3.57313        4.79315        5.85017
C         -1.99900        4.94882        5.81409
C         -5.08843        3.70887        7.39868
C         -6.05297        4.68721        6.94118
C         -5.97014        4.55241        5.55973
C         -4.69407        4.76099        4.92914
C         -7.54819        5.09657        7.27736
C         -8.09497        4.03537        6.35009
C         -7.28800        3.92122        5.22794
C         -9.06084        3.03206        6.43487
C         -9.00495        2.05036        5.46168
S         -7.74185        2.48803        4.36244
S        -10.22882        2.69147        7.58325
C        -10.63399        1.24776        6.91763
C         -9.94034        1.00186        5.75642
C        -11.53540        0.34192        7.40541
C        -11.62565       -0.72264        6.55573
S        -10.51144       -0.49008        5.22504
C         -1.47618        5.33038        7.31786
C         -1.49327        6.00722        4.72097
C         -7.89184        5.07741        8.84642
C         -7.89183        6.54496        6.58479
C         -0.76837        7.18559        5.02150
C         -0.41958        8.14667        4.08719
C         -0.69500        7.96560        2.74824
C         -1.34454        6.80533        2.37293
C         -1.73250        5.88690        3.34218
C         -0.19034        4.96296        7.82656
C          0.22736        5.27403        9.13691
C         -0.59817        5.98491       10.01140
C         -1.84034        6.35755        9.56856
C         -2.26300        6.03180        8.29072
C         -8.82623        5.87548        9.53709
C         -9.13884        5.83422       10.85238
C         -8.47230        4.98147       11.67263
C         -7.48647        4.19622       11.11240
C         -7.23914        4.25743        9.75531
C         -7.31165        7.03859        5.37086
C         -7.63496        8.28729        4.81402
C         -8.52548        9.15075        5.44936
C         -9.11624        8.71280        6.58750
C         -8.85679        7.47738        7.05437
F          4.16643        3.72442       -0.73654
F         -9.26027       -5.46660        4.86116
C         -0.26663        8.99444        1.75826
C          0.70078        8.40607        0.73417
C         -0.21313        6.33020       11.41750
C          0.49278        7.67723       11.48565
C         -8.77168        4.96292       13.12308
C         -8.54099        3.57823       13.71346
C         -8.89019       10.50274        4.90497
C        -10.31816       10.92802        5.28208
H          0.50302       -1.51721       -0.27436
H          4.63513       -0.13118       -4.25626
H          6.08982        1.85550       -4.36375
H          5.86820        3.68709       -2.69394
H        -13.54747       -1.41874        7.28586
H        -14.17605       -7.02024        5.84931
H        -12.56530       -8.57826        4.87599
H        -10.22892       -7.86895        4.41291
H          1.32878        2.00066        1.65328
H         -5.32375        2.95370        8.12395
H         -4.57812        4.77199        3.85361
H        -12.08531        0.48034        8.33614
H         -0.40928        7.47141        5.95530
H          0.08587        9.02784        4.45252
H         -1.56185        6.58511        1.33625
H         -2.19885        5.08528        2.93278
H          0.54390        4.41812        7.27478
H          1.20235        4.94535        9.45490
H         -2.52044        6.90777       10.21277
H         -3.23917        6.38357        8.17563
H         -9.39751        6.55073        9.23714
H         -9.91936        6.50828       11.19817
H         -6.88717        3.51928       11.69022
H         -6.50740        3.64013        9.49109
H         -6.61200        6.53109        4.76466
H         -7.17588        8.57738        3.88757
H         -9.83721        9.30418        7.15206
H         -9.53060        7.39321        7.73159
H         -1.16717        9.39243        1.25178
H          0.24040        9.82634        2.29648
H          0.21355        7.58858        0.16264
H          1.00365        9.19208        0.01549
H          1.61113        8.01159        1.23614
H         -1.13132        6.37666       12.05204
H          0.43686        5.53126       11.81654
H         -0.17403        8.48829       11.11843
H          0.76939        7.89296       12.53787
H          1.41749        7.65149       10.87572
H         -8.11644        5.70798       13.62060
H         -9.82869        5.26562       13.27547
H         -7.47932        3.27606       13.60301
H         -8.76817        3.59614       14.78776
H         -9.18929        2.83056       13.20970
H         -8.17927       11.25645        5.30006
H         -8.80449       10.48080        3.80124
H        -10.43071       11.03714        6.38199
H        -10.55040       11.90965        4.84389
H        -11.05325       10.18210        4.91191
