158
INPIC.sdf
C          0.66489       -0.86046        0.61226
C          1.66323       -1.75134        0.91115
C          2.23568       -2.90267        0.08281
C          3.13624       -3.66869        1.02710
C          3.18261       -2.99694        2.23137
C          2.40477       -1.79820        2.18141
O          2.43216       -0.95051        3.05672
C          2.01572       -3.20207       -1.23562
C          2.67303       -4.31604       -1.88684
N          3.22149       -5.22274       -2.35653
C          1.16852       -2.44242       -2.11186
N          0.51243       -1.89966       -2.89442
C          3.88279       -4.86323        0.90381
C          4.63321       -5.32232        2.00925
C          4.63472       -4.61118        3.21977
C          3.90285       -3.43785        3.32957
C        -12.81299        1.98206        2.19032
C        -13.29087        1.25501        1.17186
C        -14.60455        0.49076        1.11031
C        -14.60397       -0.14527       -0.24577
C        -13.43926        0.19479       -0.91248
C        -12.61473        1.02944       -0.10269
C        -15.53970       -0.96535       -0.90072
C        -15.25851       -1.41385       -2.20429
C        -14.06346       -1.05021       -2.84713
C        -13.14105       -0.23863       -2.19438
O        -11.50969        1.40812       -0.43857
C        -15.60701        0.39989        2.04919
C        -16.81116       -0.37302        1.86095
C        -15.60282        1.10537        3.31371
N        -15.55376        1.68729        4.31515
N        -17.79774       -0.97353        1.76766
C          0.17662        0.26729        1.50798
S         -1.13338        0.42741        2.60845
C         -0.88355        2.09897        2.88667
C          0.15451        2.54076        2.16263
C          0.74568        1.50149        1.39343
C         -1.38083        3.20291        3.53745
C         -0.67539        4.32639        3.11302
N          0.37047        3.90190        2.30244
S         -2.66677        3.51028        4.56652
C         -2.37164        5.17943        4.43150
C         -1.30987        5.55234        3.57805
C         -3.34138        6.24615        4.55202
C         -3.00464        7.08379        3.50506
C         -1.44703        7.12990        3.43266
C         -4.59408        6.29160        5.18321
C         -5.50345        7.22530        4.61281
C         -5.39622        7.16227        3.23420
C         -4.13373        7.16793        2.60698
C         -6.89676        7.71866        4.95785
C         -7.59516        6.69083        3.94931
C         -6.72592        6.68294        2.82259
C         -8.64974        5.71846        3.67105
C         -8.55017        5.18809        2.40518
S         -7.22107        5.71029        1.51222
N         -9.74360        5.10159        4.29775
C        -10.25922        4.28306        3.40317
C         -9.59542        4.31075        2.24938
C        -11.34987        3.43951        3.49394
C        -11.57504        2.80242        2.29464
S        -10.33255        3.26443        1.17863
C         -0.93434        7.80151        4.84108
C         -1.01711        8.04568        2.18411
C         -6.96823        8.01263        6.58097
C         -7.11881        9.18094        4.22996
C         -1.74913        9.13888        1.59442
C         -1.21587        9.91280        0.52833
C          0.06026        9.63481        0.01196
C          0.76902        8.59712        0.57508
C          0.24403        7.89699        1.64602
C         -0.61726        7.03685        6.02820
C         -0.25193        7.63120        7.25689
C         -0.15801        9.01739        7.38444
C         -0.43191        9.79258        6.26331
C         -0.81730        9.21252        5.04055
C         -6.24975        8.82379        7.42864
C         -6.57986        8.98004        8.80811
C         -7.65309        8.25605        9.39385
C         -8.29525        7.40211        8.63236
C         -7.84861        7.45493        7.34457
C         -7.65939        9.36819        2.89948
C         -7.81403       10.62349        2.29395
C         -7.47994       11.79503        2.96767
C         -6.95701       11.67296        4.24746
C         -6.76016       10.42052        4.83336
C          1.50041        4.64364        1.69258
C          1.88676        4.08996        0.36989
C        -10.36143        5.10060        5.61533
C         -9.65720        5.88445        6.27502
C          0.72034       10.44536       -1.07357
C          0.91185       11.89886       -0.63718
C          0.19652        9.68904        8.69845
C          1.56212        9.26308        9.22978
C         -8.19970        8.40897       10.74927
C         -8.03833        9.84408       11.17581
C         -7.63220       13.15368        2.30381
C         -8.60495       14.09072        3.02699
H          0.20251       -0.90221       -0.36637
H          3.90976       -5.44944        0.00544
H          5.21804       -6.22749        1.93778
H          5.20167       -4.95075        4.07592
H          3.88842       -2.87178        4.25007
H        -13.40997        2.02200        3.07519
H        -16.46800       -1.26939       -0.45376
H        -15.96666       -2.04443       -2.72079
H        -13.84823       -1.39202       -3.84879
H        -12.21271        0.05438       -2.66892
H          1.52490        1.46260        0.69521
H         -4.83417        5.62962        6.00918
H         -4.07793        7.17201        1.52581
H        -11.99690        3.29157        4.35015
H         -2.70837        9.47613        1.93860
H         -1.79352       10.73555        0.12518
H          1.76126        8.33842        0.22828
H          0.87973        7.26351        2.10585
H         -0.65805        5.96224        6.07595
H         -0.04888        7.00301        8.11818
H         -0.36565       10.87189        6.33566
H         -1.01944        9.93581        4.28303
H         -5.46590        9.37838        7.07411
H         -6.02893        9.65750        9.34336
H         -9.13155        6.78661        9.04487
H         -8.19877        7.08825        6.89104
H         -7.97282        8.58154        2.24113
H         -8.19933       10.66851        1.28256
H         -6.67374       12.55507        4.80672
H         -6.31500       10.53330        5.76536
H          1.24608        5.59839        1.40358
H          2.40104        4.64058        2.33869
H          0.99525        4.13902       -0.26872
H          2.75109        4.45901       -0.19330
H          2.27670        3.16582        0.65599
H        -11.34164        5.58762        5.70972
H        -10.18013        4.20016        6.23522
H         -9.74185        6.91883        5.78576
H         -9.95857        6.04334        7.32958
H         -8.55157        5.46225        6.13236
H          1.73215       10.03088       -1.30351
H          0.10772       10.38989       -1.99266
H          1.59146       11.96974        0.24184
H          1.36191       12.48144       -1.46692
H         -0.06450       12.35246       -0.37293
H          0.20672       10.79544        8.57297
H         -0.58138        9.45024        9.45610
H          2.36131        9.52949        8.50723
H          1.76447        9.78777       10.18842
H          1.58154        8.16965        9.41790
H         -9.30360        8.17464       10.75560
H         -7.68931        7.68340       11.39927
H         -8.60439       10.52569       10.49855
H         -8.40700        9.94407       12.20167
H         -6.96754       10.11696       11.15889
H         -6.63851       13.64959        2.25857
H         -7.98867       13.02716        1.25858
H         -8.26055       14.30110        4.06007
H         -8.66142       15.06347        2.48862
H         -9.62490       13.65422        3.05512
