158
IPIC-4Cl.sdf
C          0.24061        0.10467       -0.52436
C          0.10530       -1.14523       -1.04253
C         -0.65070       -2.28377       -0.47561
C         -1.06153       -3.12620       -1.60821
C         -0.28140       -2.76459       -2.70230
C          0.49827       -1.56388       -2.39097
O          1.21398       -0.95056       -3.16921
C         -0.65665       -2.72381        0.80105
C         -1.56176       -3.69012        1.36883
N         -2.36601       -4.46042        1.68357
C          0.47560       -2.41145        1.65677
N          1.40379       -2.12658        2.29180
C         -1.90859       -4.23751       -1.67557
C         -1.95473       -4.98579       -2.86013
C         -1.13349       -4.63468       -3.95581
C         -0.29500       -3.50991       -3.87881
C        -15.92959       -0.80996        6.82804
C        -16.40655       -1.78601        6.02280
C        -17.32851       -2.94112        6.33091
C        -16.70600       -4.07642        5.59568
C        -15.87380       -3.54460        4.63877
C        -15.83488       -2.12239        4.74182
C        -16.79323       -5.47504        5.73716
C        -16.00564       -6.28675        4.89299
C        -15.17818       -5.69768        3.90720
C        -15.12571       -4.31182        3.77681
O        -15.28623       -1.37984        3.95435
C        -18.49467       -3.01133        7.01543
C        -19.25013       -4.24978        7.05675
C        -19.13586       -1.87918        7.64103
N        -19.73338       -1.03984        8.17127
N        -19.86710       -5.23163        7.09867
C         -0.41544        0.62439        0.74764
S         -1.46815       -0.12566        1.87741
C         -1.72068        1.29108        2.78299
C         -1.06694        2.33772        2.24884
C         -0.29149        1.95423        1.13961
C         -2.39327        1.77872        3.86462
C         -2.24148        3.15869        3.88290
N         -1.33732        3.53825        2.88453
S         -3.41776        1.13119        5.03129
C         -3.77960        2.68835        5.57901
C         -3.15146        3.71928        4.85648
C         -5.04796        3.13905        6.14391
C         -5.29955        4.25196        5.43572
C         -3.88416        4.99381        5.31762
C         -6.00248        2.69490        7.04491
C         -7.25032        3.40303        6.99736
C         -7.65491        3.62572        5.70804
C         -6.65427        4.16285        4.85780
C         -8.43676        3.80654        7.90651
C         -9.55507        3.08403        7.08578
C         -9.11521        3.24270        5.74850
C        -10.81318        2.31418        7.12117
C        -11.26713        1.99921        5.84556
S        -10.21033        2.55556        4.62292
N        -11.71478        1.78662        8.05042
C        -12.71899        1.19694        7.30418
C        -12.47125        1.29422        5.97992
C        -13.94759        0.51191        7.62124
C        -14.66894        0.04325        6.54273
S        -13.73741        0.50806        5.15699
C         -3.34424        5.37889        6.81668
C         -4.08199        6.29962        4.47524
C         -8.03890        3.66762        9.42458
C         -8.71475        5.43887        7.65174
C         -3.33670        7.49389        4.55431
C         -3.59350        8.61174        3.78620
C         -4.64436        8.60825        2.87314
C         -5.38577        7.43673        2.73850
C         -5.02438        6.31921        3.49309
C         -1.95158        5.46054        7.16143
C         -1.48730        5.79165        8.44887
C         -2.37455        6.06124        9.49403
C         -3.73556        5.98480        9.20964
C         -4.18703        5.65177        7.93370
C         -6.78478        3.27416        9.92632
C         -6.46414        3.29349       11.28320
C         -7.39146        3.74834       12.22762
C         -8.65349        4.10552       11.77261
C         -8.92838        4.05424       10.40392
C         -9.99766        6.07830        7.75459
C        -10.25336        7.43831        7.55477
C         -9.24508        8.30403        7.18327
C         -7.96388        7.75984        7.05989
C         -7.71035        6.38989        7.29481
Cl        -1.12610       -5.60001       -5.42361
Cl       -14.15249       -6.65367        2.85486
C         -0.77010        4.87067        2.46444
C         -1.28538        5.99280        3.26559
C        -11.70534        1.81807        9.52317
C        -11.67493        0.43848       10.15813
C         -4.92968        9.81540        2.01641
C         -4.16336        9.77533        0.69070
C         -1.88559        6.41403       10.89933
C         -1.68569        7.92141       11.11250
C         -7.05179        3.89091       13.68976
C         -6.49544        5.28835       13.99472
C         -9.53133        9.77689        6.90257
C        -11.01057       10.17205        7.06984
Cl        -3.01742       -6.38533       -2.92585
Cl       -16.03428       -8.02973        5.10528
H          0.77357        0.84595       -1.14660
H         -2.51339       -4.54942       -0.84248
H          0.34372       -3.23659       -4.70794
H        -16.32975       -0.80671        7.84949
H        -17.39624       -5.94398        6.50219
H        -14.47955       -3.82568        3.05918
H          0.35311        2.54045        0.57356
H         -5.66794        1.97438        7.76567
H         -7.01100        4.60979        3.93791
H        -14.43664        0.25330        8.52658
H         -2.46349        7.57741        5.13528
H         -2.95064        9.46324        3.91795
H         -6.21915        7.38119        2.04764
H         -5.41458        5.40492        3.34110
H         -1.15522        5.27619        6.47119
H         -0.41947        5.83941        8.61493
H         -4.46598        6.17208        9.98822
H         -5.20480        5.58212        7.95288
H         -6.00054        2.98480        9.33975
H         -5.47751        2.97701       11.57139
H         -9.43402        4.44046       12.45182
H         -9.85473        4.33579       10.06130
H        -10.88903        5.60340        7.99048
H        -11.27043        7.79848        7.68740
H         -7.14294        8.39467        6.76956
H         -6.70648        6.14890        7.16250
H          0.32730        4.93155        2.59772
H         -0.99546        5.14562        1.43052
H         -0.90805        5.74320        4.22499
H         -0.95831        7.04077        3.13955
H         -2.34069        5.97085        3.14793
H        -10.84108        2.33081        9.92029
H        -12.58226        2.36620        9.88364
H        -10.75710       -0.07768        9.92467
H        -11.82732        0.44426       11.24159
H        -12.43965       -0.19836        9.81458
H         -6.01757        9.88201        1.79860
H         -4.63845       10.72876        2.57419
H         -4.46306        8.88804        0.09230
H         -4.37915       10.69252        0.10114
H         -3.06828        9.74711        0.86514
H         -2.62031        6.05309       11.65545
H         -0.91709        5.90409       11.10722
H         -2.63852        8.47317       10.98497
H         -1.32330        8.12892       12.14015
H         -0.93019        8.31789       10.40367
H         -7.96799        3.74688       14.30501
H         -6.30957        3.12247       13.98299
H         -7.23588        6.07761       13.73061
H         -6.25249        5.37372       15.07466
H         -5.55614        5.47442       13.43684
H         -8.92961       10.41095        7.58254
H         -9.23465       10.02258        5.85854
H        -11.34619        9.99731        8.11646
H        -11.15324       11.24424        6.84976
H        -11.65477        9.58450        6.37484
