155
IPT2F-TT.sdf
C          2.45611        1.53346       -0.13953
C          3.00649        1.08989       -1.38065
C          3.63133        2.34667       -1.98085
C          3.20140        3.29936       -1.05047
C          3.42412        2.64991        0.33482
C          3.73787        2.73020       -3.37233
C          3.07664        3.98281       -3.73534
C          1.90139        3.95466       -2.99328
C          1.94204        3.79062       -1.59175
C          2.68107        4.56282       -5.13950
C          1.53034        3.57390       -5.20067
C          0.95525        3.35128       -3.99727
C          3.16589        3.44380        1.68512
C          4.98104        2.11156        0.43084
C          2.34044        2.85321        2.62021
C          1.94583        3.51445        3.82099
C          2.40784        4.76714        4.17788
C          3.37427        5.32225        3.34563
C          3.75220        4.68515        2.13081
C          6.03412        2.94946        0.88532
C          7.36735        2.58251        0.92954
C          7.79971        1.32987        0.52293
C          6.82426        0.43318        0.06468
C          5.45442        0.80302        0.02674
C          1.83075        5.42747        5.45205
C          2.73417        6.37513        6.14386
C          9.28429        0.98307        0.55158
C         10.06395        1.70717        1.66504
C          2.00168        6.05208       -5.01271
C          3.89858        4.50628       -6.19359
C          2.49594        7.25962       -5.60095
C          1.93601        8.51435       -5.44286
C          0.79152        8.68322       -4.70068
C          0.21751        7.55649       -4.12802
C          0.79513        6.29648       -4.27357
C          4.16760        3.43115       -7.07247
C          5.22962        3.44352       -7.98711
C          6.09506        4.53230       -8.07410
C          5.89188        5.59055       -7.22541
C          4.85481        5.55255       -6.31932
C          0.22191       10.06058       -4.51570
C         -1.19578       10.18441       -5.06474
C          7.24792        4.56084       -9.02411
C          7.14096        5.72065      -10.01226
C          1.16228        2.70363       -6.16044
C          0.35632        1.62101       -5.83797
S          0.00900        1.91020       -4.16142
C          1.05402        1.08168       -0.00657
C          0.84798        0.09250       -0.96262
S          2.08769       -0.13777       -2.09879
N         -0.19821        1.35321        0.64988
C         -1.01302        0.38149        0.11355
C         -0.42098       -0.36995       -0.82774
C         -2.36041        0.03881        0.31436
C         -2.84432       -0.98994       -0.50976
S         -1.51069       -1.46874       -1.48041
C         -4.27866       -1.52998       -0.48979
C         -4.91837       -2.11451       -1.55496
C         -6.32501       -2.71716       -1.71790
C         -6.33627       -3.31757       -3.11930
C         -5.13752       -3.03917       -3.71757
C         -4.33495       -2.24080       -2.89725
C         -7.27002       -4.05429       -3.89123
C         -6.91536       -4.46774       -5.20745
C         -5.65500       -4.16344       -5.74311
C         -4.76378       -3.44046       -4.98582
O         -3.40455       -1.62699       -3.37454
C         -7.38743       -2.71667       -0.85215
C         -7.34078       -2.15606        0.48562
C         -8.66485       -3.24147       -1.22811
N         -7.24132       -1.69329        1.54448
N         -9.72648       -3.64032       -1.44471
F         -7.78884       -5.15735       -5.97636
C          0.02926        0.39814       -6.75891
C          0.50793        0.14446       -8.06123
C          0.27008       -1.00580       -9.06232
C          1.12508       -0.69994      -10.28657
C          1.67667        0.50972      -10.10057
C          1.40252        1.00177       -8.85762
O          2.00511        1.98603       -8.60625
C          1.45872       -1.34184      -11.50331
C          2.29683       -0.67712      -12.44271
C          2.78120        0.60756      -12.18658
C          2.46936        1.19925      -11.00439
F          2.64094       -1.26396      -13.60664
C         -0.56588       -2.06156       -8.99413
C         -1.36125       -2.34940       -7.83785
C         -0.70975       -2.96603      -10.11293
N         -0.78209       -3.65722      -11.03906
N         -2.03079       -2.63698       -6.94132
C         -0.80722        2.37332        1.59508
S         -2.43115        2.47756        2.23433
C         -2.27510        3.83570        3.22272
C         -1.03695        4.22386        2.99904
C         -0.26603        3.53377        2.09794
C         -2.98835        4.66495        4.15317
C         -2.14526        5.63244        4.72556
S         -0.73390        5.54571        3.87379
C         -2.35662        6.60066        5.87867
C         -3.45917        7.60274        5.58789
H          4.02274        2.03442       -4.15564
H          1.02888        3.70377       -1.01248
H          1.84317        1.95819        2.30920
H          1.16794        3.12664        4.44845
H          3.82291        6.25385        3.64513
H          4.49365        5.22638        1.58883
H          5.93380        3.93182        1.22880
H          8.05290        3.33248        1.28557
H          7.12611       -0.55334       -0.27565
H          4.81441        0.02735       -0.35670
H          1.00662        6.10857        5.28479
H          1.47285        4.66073        6.16376
H          2.88855        7.24022        5.46322
H          2.27447        6.77883        7.07356
H          3.61361        5.77308        6.39383
H          9.41631       -0.11125        0.69114
H          9.74015        1.26084       -0.42447
H          9.63939        1.44983        2.65868
H         11.13551        1.42949        1.64433
H         10.04390        2.80799        1.53039
H          3.31848        7.39021       -6.20837
H          2.43695        9.35443       -5.91646
H         -0.68166        7.63741       -3.54614
H          0.21847        5.56431       -3.76134
H          3.61655        2.53686       -7.08774
H          5.37236        2.58794       -8.62069
H          6.53462        6.46707       -7.22959
H          4.89434        6.41474       -5.74825
H          0.22440       10.29712       -3.43303
H          0.86619       10.80892       -5.03092
H         -1.88427        9.49093       -4.54141
H         -1.56953       11.21550       -4.89633
H         -1.21075        9.97174       -6.15481
H          8.18835        4.66282       -8.44096
H          7.28082        3.60618       -9.58068
H          7.15442        6.69987       -9.48666
H          8.01036        5.69139      -10.69879
H          6.20584        5.63804      -10.60572
H          1.61353        2.96169       -6.96420
H         -2.97478        0.51517        1.00043
H         -4.81780       -1.44928        0.45346
H         -8.24755       -4.31771       -3.53295
H         -5.35442       -4.46091       -6.74022
H         -3.78990       -3.17901       -5.36449
H         -0.62867       -0.34738       -6.31383
H          1.12050       -2.31917      -11.75432
H          3.40723        1.16244      -12.86803
H          2.84057        2.19017      -10.77525
H          0.61837        3.97658        1.90585
H         -4.01342        4.58646        4.45204
H         -2.59502        6.04800        6.82039
H         -1.40704        7.16155        6.07781
H         -4.42945        7.08059        5.47978
H         -3.54760        8.33403        6.42042
H         -3.22703        8.15806        4.65712
