152
IPT2F-Th.sdf
C          2.57747        1.40013       -0.25438
C          3.16083        1.01665       -1.49691
C          3.73519        2.34830       -2.04104
C          3.17955        3.23359       -1.12150
C          3.39716        2.55173        0.24237
C          3.88455        2.82532       -3.39364
C          3.06350        3.98481       -3.74425
C          1.87504        3.77982       -3.09943
C          1.88914        3.59651       -1.71362
C          2.66410        4.50132       -5.13501
C          1.77863        3.29966       -5.34278
C          1.11279        3.04560       -4.17722
C          3.09546        3.33422        1.52073
C          4.95233        2.16300        0.37100
C          2.69164        2.70688        2.71789
C          2.50731        3.46274        3.89449
C          2.73981        4.85270        3.89804
C          3.16662        5.46652        2.71501
C          3.34606        4.72209        1.55037
C          5.95015        3.16545        0.47471
C          7.31912        2.85988        0.40371
C          7.75381        1.54370        0.20857
C          6.79655        0.52625        0.14787
C          5.42773        0.82152        0.24870
C          2.50495        5.70343        5.13106
C          3.72651        5.83085        6.04056
C          9.22239        1.24206       -0.02119
C          9.97631        0.89706        1.25585
C          1.61648        5.71346       -4.98363
C          3.95494        4.89716       -5.90047
C          1.81069        6.80842       -4.09702
C          0.79598        7.74843       -3.84635
C         -0.47785        7.60185       -4.41544
C         -0.69973        6.52994       -5.28060
C          0.32126        5.62637       -5.57853
C          4.69137        4.01520       -6.71502
C          5.90660        4.42564       -7.30375
C          6.40706        5.72930       -7.10537
C          5.67591        6.60935       -6.31946
C          4.49232        6.19994       -5.72539
C         -1.61166        8.55449       -4.08346
C         -1.67713        9.75175       -5.03415
C          7.71811        6.19745       -7.69464
C          7.70403        6.11067       -9.21590
C          1.55412        2.40616       -6.34906
C          0.73633        1.31516       -6.04512
S          0.26704        1.57780       -4.40104
C          1.24406        0.89565       -0.08302
C          0.94600       -0.06390       -1.02022
S          2.18510       -0.20921       -2.20095
N          0.10029        1.23057        0.64096
C         -0.85332        0.34402        0.18195
C         -0.37315       -0.45427       -0.80491
C         -2.25531        0.19478        0.42828
C         -2.89859       -0.78350       -0.37237
S         -1.64793       -1.39391       -1.41039
C         -4.42902       -1.09343       -0.32722
C         -5.06599       -2.29387       -0.61764
C         -6.56209       -2.74874       -0.62323
C         -6.52745       -4.22646       -0.96146
C         -5.22374       -4.60845       -1.17096
C         -4.33047       -3.51541       -0.99154
C         -7.52549       -5.22685       -1.08070
C         -7.16214       -6.54512       -1.41084
C         -5.82181       -6.88113       -1.62165
C         -4.84259       -5.90635       -1.49739
O         -3.13086       -3.65378       -1.10961
C         -7.73288       -2.05754       -0.40701
C         -7.74867       -0.67181       -0.03264
C         -9.04526       -2.69990       -0.49523
N         -7.70922        0.44392        0.26665
N        -10.10224       -3.18058       -0.55730
F         -8.11251       -7.50426       -1.51464
C          0.47934        0.12854       -6.98682
C          0.20153       -1.18848       -6.65711
C          0.05030       -2.42730       -7.56138
C         -0.08154       -3.59832       -6.60529
C          0.01507       -3.16085       -5.31947
C          0.11462       -1.77337       -5.29026
O          0.18149       -1.25819       -4.20439
C         -0.23699       -4.97667       -6.80811
C         -0.24511       -5.85066       -5.70340
C         -0.09392       -5.35785       -4.39898
C          0.03238       -3.99119       -4.19342
F         -0.38802       -7.18178       -5.90205
C          0.18435       -2.51965       -8.94850
C          0.35248       -1.36703       -9.86380
C          0.29369       -3.80295       -9.63915
N          0.37515       -4.84573      -10.14380
N          0.48475       -0.45614      -10.58277
C         -0.26829        2.40849        1.43646
S         -1.65206        2.56216        2.38757
C         -1.65736        4.22844        2.52516
C         -0.54171        4.72007        1.88750
C          0.21114        3.71807        1.27415
C         -2.77795        5.04479        3.07817
C         -3.25346        6.00077        1.99740
H          4.27754        2.21509       -4.19630
H          0.96521        3.33285       -1.24093
H          2.50957        1.63976        2.73798
H          2.16917        2.96821        4.79686
H          3.37527        6.52886        2.69390
H          3.69387        5.23753        0.66534
H          5.69259        4.20501        0.56561
H          8.04470        3.66234        0.45759
H          7.10843       -0.49882       -0.02041
H          4.75268       -0.01688        0.15608
H          2.24062        6.73844        4.82214
H          1.63507        5.30401        5.69459
H          4.56516        6.31234        5.49123
H          3.46768        6.48933        6.90031
H          4.05328        4.84757        6.43293
H          9.32613        0.40342       -0.74589
H          9.71112        2.11963       -0.49993
H          9.55385       -0.01676        1.72162
H         11.04428        0.70594        1.00787
H          9.92896        1.74359        1.97190
H          2.71951        6.93586       -3.53278
H          0.99340        8.56580       -3.16531
H         -1.67791        6.37305       -5.71956
H          0.04968        4.81167       -6.23459
H          4.35474        3.00379       -6.87190
H          6.46302        3.72442       -7.90806
H          6.02978        7.61989       -6.14012
H          4.03729        6.95023       -5.12714
H         -2.58129        8.01185       -4.13310
H         -1.49438        8.94339       -3.04778
H         -1.90445        9.41953       -6.06785
H         -2.49207       10.43766       -4.71495
H         -0.72039       10.31658       -5.03386
H          7.93690        7.23617       -7.35834
H          8.55602        5.55339       -7.34358
H          6.90928        6.75717       -9.64081
H          8.68601        6.42709       -9.61932
H          7.52763        5.05893       -9.53065
H          2.03564        2.61937       -7.20282
H         -2.80985        0.76034        1.13999
H         -5.05552       -0.26055       -0.00935
H         -8.56781       -5.06426       -0.92353
H         -5.53433       -7.89314       -1.87047
H         -3.80107       -6.15714       -1.64269
H          0.59196        0.36017       -8.04224
H         -0.34753       -5.40449       -7.78087
H         -0.08176       -6.03316       -3.55537
H          0.14953       -3.59124       -3.18435
H         -0.32028        5.77639        1.78513
H          1.00522        4.03483        0.65942
H         -3.60098        4.37039        3.41444
H         -2.42820        5.64377        3.95188
H         -3.56637        5.43134        1.09602
H         -4.10772        6.60963        2.35356
H         -2.42563        6.68761        1.71061
