145
IPTBO-4Cl.sdf
C          3.36358        1.86348       -0.24239
C          4.26402        1.48659       -1.25685
C          4.66413        2.85166       -1.82592
C          3.89574        3.73267       -1.03068
C          3.90344        3.10827        0.40966
C          5.16150        3.35616       -3.09624
C          4.51608        4.57491       -3.55955
C          3.17915        4.38843       -3.23679
C          2.81605        4.05102       -1.91894
C          4.50015        5.47189       -4.85161
C          3.41075        4.65804       -5.52455
C          2.55615        4.20889       -4.56302
C          3.13849        3.61628        1.75425
C          5.49442        2.96135        0.83157
C          2.37301        4.76933        1.64120
C          1.71159        5.39856        2.72317
C          1.76586        4.89080        4.02479
C          2.44503        3.67968        4.18989
C          3.08421        3.02773        3.09309
C          6.33721        4.09747        0.88269
C          7.67187        4.07057        1.21492
C          8.31947        2.87816        1.47219
C          7.57978        1.70175        1.40591
C          6.20711        1.73620        1.11794
C          1.11674        5.62906        5.20970
C          0.63586        4.70832        6.34773
C          9.78623        2.87249        1.77240
C         10.11560        3.70210        3.01461
C          3.80582        6.91609       -4.48155
C          5.88829        5.65286       -5.58290
C          3.86915        7.51563       -3.18484
C          3.18952        8.67405       -2.82817
C          2.46617        9.40585       -3.75529
C          2.42631        8.92805       -5.06381
C          3.06065        7.72092       -5.41193
C          6.63993        4.57844       -6.10130
C          7.86575        4.76559       -6.76829
C          8.40105        6.04172       -6.94015
C          7.71077        7.11360       -6.42271
C          6.52606        6.91376       -5.74431
C          1.76181       10.68678       -3.34750
C          1.94168       11.03440       -1.86167
C          9.72015        6.26899       -7.63120
C          9.54841        7.15269       -8.86386
C          3.15789        4.16717       -6.81804
C          2.10374        3.24418       -6.89902
S          1.51210        3.08559       -5.27379
C          2.05908        1.28338       -0.50869
C          2.17503        0.15986       -1.30114
S          3.70236        0.05862       -2.03832
N          0.69287        1.56224       -0.29691
C          0.10115        0.43586       -0.78384
C          0.94283       -0.45751       -1.33932
C         -1.22168        0.07790       -0.85885
C         -1.48900       -1.18123       -1.39015
S          0.04313       -1.79084       -1.90799
C         -0.11357        2.74792        0.24625
C         -1.67326        2.73522        0.32796
C         -2.87401       -1.81773       -1.51159
C         -3.95596       -1.60691       -0.67132
C         -5.34655       -2.19669       -0.65929
C         -5.96663       -1.78056        0.67315
C         -5.09906       -0.95113        1.30551
C         -3.98633       -0.76389        0.50313
C         -7.18710       -2.03785        1.32471
C         -7.44317       -1.44244        2.59068
C         -6.48494       -0.60168        3.19926
C         -5.29850       -0.35094        2.54192
O         -3.24675        0.10313        0.79024
C         -5.97089       -2.88771       -1.65368
C         -7.34528       -3.27671       -1.51879
C         -5.38423       -3.15999       -2.93815
N         -8.44768       -3.62245       -1.46869
N         -4.99415       -3.41812       -3.99648
Cl        -8.96651       -1.74338        3.39882
Cl        -6.73092        0.16654        4.76068
C          1.70449        2.44704       -8.16782
C          0.80225        2.90621       -9.07912
C          0.16373        4.17083       -8.93674
C         -1.26822        3.82623       -8.99619
C         -1.34426        2.69882       -9.82040
C          0.00477        2.18978      -10.07644
O          0.28070        1.14309      -10.64031
C         -2.41535        4.33456       -8.38097
C         -3.62909        3.63415       -8.60516
C         -3.70260        2.57363       -9.53524
C         -2.54717        2.10779      -10.15961
Cl        -5.21022        1.72054       -9.84588
Cl        -5.04245        3.93148       -7.62088
C          0.86109        5.33034       -8.94251
C          0.32871        6.62322       -8.78903
C          2.25986        5.32632       -9.33278
N          3.37095        5.23211       -9.65233
N          0.02151        7.72795       -8.68707
H          5.80009        2.79292       -3.76165
H          1.81495        3.80924       -1.68996
H          2.32071        5.20645        0.67317
H          1.20446        6.32943        2.55202
H          2.49204        3.23100        5.17873
H          3.49941        2.08091        3.38472
H          6.03745        5.07348        0.65412
H          8.17130        5.02550        1.23912
H          8.04887        0.73820        1.56131
H          5.80750        0.74781        1.12199
H          1.88431        6.31074        5.63475
H          0.24780        6.25645        4.88936
H          1.46346        4.06470        6.70804
H          0.28723        5.30350        7.22024
H         -0.21025        4.06841        6.01797
H         10.11189        1.82337        1.92363
H         10.33004        3.29770        0.90131
H          9.58031        3.29783        3.90081
H         11.20275        3.66719        3.20895
H          9.82731        4.76694        2.86583
H          4.44257        7.16962       -2.36518
H          3.25637        8.99358       -1.79592
H          1.88395        9.47499       -5.82660
H          2.91444        7.49840       -6.43804
H          6.33530        3.58575       -6.00301
H          8.41171        3.92189       -7.16115
H          8.09510        8.12494       -6.51538
H          6.22180        7.82316       -5.34153
H          2.14395       11.53504       -3.95490
H          0.67342       10.59382       -3.54292
H          3.02033       11.17709       -1.62501
H          1.39839       11.96505       -1.61743
H          1.52743       10.23142       -1.21300
H         10.42877        6.76210       -6.92756
H         10.17117        5.30221       -7.94148
H          9.13426        8.14426       -8.58447
H         10.53320        7.31625       -9.34655
H          8.86221        6.66820       -9.58954
H          3.73876        4.43055       -7.64567
H         -1.92407        0.74891       -0.57290
H          0.07942        2.88297        1.30111
H          0.09574        3.69131       -0.27491
H         -2.05347        1.98026        1.04602
H         -2.11416        3.65634        0.69565
H         -2.20437        2.75948       -0.62688
H         -2.98155       -2.55374       -2.29641
H         -7.93499       -2.67027        0.89106
H         -4.54124        0.29793        2.97498
H          1.97339        1.40097       -8.25533
H         -2.35281        5.14800       -7.66743
H         -2.57307        1.24678      -10.81142
