148
IPTT-2F.sdf
C          3.38847        0.98610       -0.66148
C          2.59705        1.73552        0.14297
C          3.87661        2.30197       -1.74029
C          3.01740        2.86705       -1.50687
C          3.35343        2.91122        0.14850
C          3.05724        3.75749        1.40611
C          5.13360        2.40849        0.46074
C          4.54410        3.51613       -2.56318
C          3.57987        3.94912       -3.78433
C          3.02901        2.85690       -3.96653
C          2.26440        2.43368       -2.74056
C          2.80095        4.77359       -5.06850
C          2.50467        3.39426       -6.00116
C          3.33211        2.60372       -5.37475
C          1.51283        5.71929       -4.76265
C          3.92342        5.56398       -5.78556
C          1.83315        2.33059       -6.81715
C          2.67212        1.27858       -7.22681
S          3.88353        1.22133       -6.13832
C         -4.64029       -0.50938        0.86330
C         -5.62076       -1.28670        1.47920
C         -7.15251       -1.39084        1.20589
C         -7.72415       -2.07492        2.41776
C         -6.69793       -2.47266        3.26025
C         -5.40269       -2.07671        2.69155
C         -9.06415       -2.32330        2.80056
C         -9.34605       -2.94086        4.01614
C         -8.30483       -3.33560        4.85827
C         -6.96707       -3.11014        4.48351
O         -4.31314       -2.28588        3.19575
C         -7.92430       -0.91182        0.16336
C         -7.40308       -0.31853       -1.03248
C         -9.37941       -0.94497        0.13503
N        -10.53494       -1.02177        0.21446
N         -7.06843        0.17274       -2.02716
F        -10.64012       -3.14398        4.37649
C          3.82436        5.81565       -7.16241
C          4.97824        5.98220       -7.90304
C          6.22695        6.01045       -7.27990
C          6.30823        6.03969       -5.89852
C          5.17424        5.80811       -5.16559
C          1.06850        6.91671       -5.47712
C          0.11497        7.80221       -4.95874
C         -0.48931        7.54196       -3.74018
C         -0.24581        6.30174       -3.13788
C          0.72339        5.41705       -3.64035
C          2.00764        3.40682        2.22970
C          1.70380        3.99388        3.39648
C          2.38534        5.10149        3.77863
C          3.50369        5.51827        3.05631
C          3.87099        4.81576        1.90188
C          6.26561        3.29685        0.50821
C          7.62664        2.90834        0.37673
C          8.01371        1.59966        0.11416
C          7.02801        0.64723        0.13710
C          5.68669        1.00136        0.38042
C          1.17809        1.30156        0.33122
C          1.02991       -0.03981        0.40782
S          2.59261       -0.59703       -0.30871
N         -0.07033        1.95471        0.41512
C         -0.98215        0.98805        0.76759
C         -0.36856       -0.24045        0.91863
C         -0.47165        3.34445        0.00687
C         -0.35216        4.36017        1.08048
C         -2.44821        1.02079        0.85460
C         -3.08991       -0.20793        1.19643
S         -1.71438       -1.29600        1.37402
C          1.04534       -1.08333       -5.88203
C          0.03398       -1.86572       -5.51386
C         -0.22663       -2.74107       -4.32147
C         -1.63789       -3.07644       -4.49837
C         -2.16253       -2.56021       -5.67348
C         -1.09569       -2.04444       -6.40647
O         -0.96309       -2.30364       -7.59496
C          0.59616       -3.19189       -3.32153
C          1.95412       -2.73040       -3.17609
N          3.03493       -2.32222       -3.09845
C          0.22820       -4.27062       -2.40637
N         -0.00598       -5.12114       -1.65290
C         -2.40634       -3.90655       -3.75996
C         -3.61052       -4.23649       -4.30341
C         -4.27056       -3.53453       -5.29298
C         -3.50700       -2.69893       -6.05419
F         -3.78546       -5.54986       -4.32981
S          0.32778        1.52163       -6.73250
C          0.92232       -0.12823       -7.08450
C          2.15379        0.06173       -7.66660
C         -1.32366        8.60231       -3.04905
C         -2.50952        9.09253       -3.86550
C          7.46575        5.93650       -8.09098
C          8.30288        7.16804       -7.86538
C          1.74728        5.87436        4.84176
C          2.19008        5.38970        6.18584
C          9.45630        1.24214       -0.22918
C         10.40350        1.62514        0.90071
H          5.04065        4.39941       -2.09069
H          1.98164        1.38575       -2.91903
H         -5.05868        0.02595        0.00700
H         -9.92285       -2.05423        2.23408
H         -8.55135       -3.80739        5.80075
H         -6.17015       -3.40895        5.14820
H          2.91103        5.73378       -7.72504
H          4.88288        5.98991       -8.97440
H          7.25558        6.11302       -5.37398
H          5.39339        5.70150       -4.14163
H          1.40678        7.32396       -6.40265
H         -0.09585        8.72940       -5.49689
H         -0.75356        6.03564       -2.22881
H          0.88602        4.51143       -3.09510
H          1.34103        2.63800        2.05590
H          0.89640        3.54480        3.97579
H          4.06716        6.38720        3.35762
H          4.74460        5.18620        1.42976
H          6.21709        4.34071        0.54427
H          8.39107        3.67150        0.39215
H          7.29470       -0.38763       -0.09463
H          5.13608        0.07037        0.33341
H          0.07058        3.68515       -0.91063
H         -1.56004        3.41814       -0.13671
H          0.58383        4.51841        1.02455
H         -0.58700        5.42979        1.01246
H         -0.56811        3.94192        2.04545
H         -3.05281        1.85485        0.53737
H          1.92177       -1.08369       -5.24169
H         -2.06505       -4.46515       -2.92311
H         -5.28311       -3.78402       -5.57858
H         -3.97710       -2.31789       -6.94463
H          1.88831        0.24768       -8.70982
H         -1.69021        8.20417       -2.07725
H         -0.67197        9.47458       -2.81027
H         -3.18184        8.24447       -4.09840
H         -3.08091        9.84218       -3.27909
H         -2.16075        9.57689       -4.79982
H          8.04067        5.01320       -7.82759
H          7.17434        5.84723       -9.15773
H          8.59796        7.21978       -6.79739
H          9.19355        7.11185       -8.51386
H          7.71731        8.07192       -8.12874
H          1.93100        6.94436        4.63022
H          0.63766        5.73679        4.73615
H          3.27921        5.56471        6.27575
H          1.63068        5.95757        6.94920
H          1.96000        4.30499        6.28495
H          9.57277        0.15509       -0.45087
H          9.76324        1.77624       -1.15902
H         10.15110        1.04485        1.81231
H         11.45687        1.41072        0.62377
H         10.31009        2.71099        1.10897
