
  xtb     02072208523D
 energy: -425.407617744789 gnorm: 0.000291229069 xtb: 6.4.1 (unknown)
255281  0     0  0            999 V2000
    2.0083   11.4534   -2.5259 C   0  0  0  0  0  0  0  0  0  0  0  0
    3.1515   12.1449   -2.2057 C   0  0  0  0  0  0  0  0  0  0  0  0
    4.1194   12.4966   -3.2615 C   0  0  0  0  0  0  0  0  0  0  0  0
    3.9606   12.4288   -4.4610 O   0  0  0  0  0  0  0  0  0  0  0  0
    5.3478   12.9078   -2.5353 C   0  0  0  0  0  0  0  0  0  0  0  0
    6.5914   13.2209   -3.0444 C   0  0  0  0  0  0  0  0  0  0  0  0
    7.5968   13.5331   -2.1419 C   0  0  0  0  0  0  0  0  0  0  0  0
    8.8219   13.8369   -2.5945 F   0  0  0  0  0  0  0  0  0  0  0  0
    7.3500   13.5289   -0.7704 C   0  0  0  0  0  0  0  0  0  0  0  0
    8.3458   13.8177    0.0782 F   0  0  0  0  0  0  0  0  0  0  0  0
    6.0962   13.2277   -0.2576 C   0  0  0  0  0  0  0  0  0  0  0  0
    5.0886   12.9158   -1.1536 C   0  0  0  0  0  0  0  0  0  0  0  0
    3.6791   12.5804   -0.9414 C   0  0  0  0  0  0  0  0  0  0  0  0
    2.9541   12.9086    0.1801 C   0  0  0  0  0  0  0  0  0  0  0  0
    1.5473   12.8711    0.2314 C   0  0  0  0  0  0  0  0  0  0  0  0
    0.4009   12.9263    0.2899 N   0  0  0  0  0  0  0  0  0  0  0  0
    3.5195   13.4463    1.3486 C   0  0  0  0  0  0  0  0  0  0  0  0
    3.9308   13.8922    2.3244 N   0  0  0  0  0  0  0  0  0  0  0  0
    1.2373   10.6342   -1.6987 C   0  0  0  0  0  0  0  0  0  0  0  0
   -0.0130   10.0651   -2.0161 C   0  0  0  0  0  0  0  0  0  0  0  0
   -0.7658   10.3960   -3.1019 N   0  0  0  0  0  0  0  0  0  0  0  0
   -1.6844    9.4639   -3.6224 C   0  0  0  0  0  0  0  0  0  0  0  0
   -2.9671    9.8649   -3.9823 C   0  0  0  0  0  0  0  0  0  0  0  0
   -3.8567    8.9454   -4.5005 C   0  0  0  0  0  0  0  0  0  0  0  0
   -3.4961    7.6135   -4.6719 C   0  0  0  0  0  0  0  0  0  0  0  0
   -4.4767    6.6152   -5.2040 C   0  0  0  0  0  0  0  0  0  0  0  0
   -2.2088    7.2260   -4.3199 C   0  0  0  0  0  0  0  0  0  0  0  0
   -1.3071    8.1362   -3.8057 C   0  0  0  0  0  0  0  0  0  0  0  0
   -0.7262   11.6843   -3.6807 C   0  0  0  0  0  0  0  0  0  0  0  0
   -0.7421   11.8163   -5.0650 C   0  0  0  0  0  0  0  0  0  0  0  0
   -0.7093   13.0727   -5.6374 C   0  0  0  0  0  0  0  0  0  0  0  0
   -0.6606   14.2173   -4.8505 C   0  0  0  0  0  0  0  0  0  0  0  0
   -0.5833   15.5728   -5.4804 C   0  0  0  0  0  0  0  0  0  0  0  0
   -0.6638   14.0705   -3.4677 C   0  0  0  0  0  0  0  0  0  0  0  0
   -0.7042   12.8220   -2.8803 C   0  0  0  0  0  0  0  0  0  0  0  0
   -0.4039    9.1348   -1.0292 C   0  0  0  0  0  0  0  0  0  0  0  0
   -1.7818    8.1089   -0.8151 S   0  0  0  0  0  0  0  0  0  0  0  0
   -1.1408    7.5387    0.7133 C   0  0  0  0  0  0  0  0  0  0  0  0
    0.1057    8.0747    1.0136 C   0  0  0  0  0  0  0  0  0  0  0  0
    0.8962    7.7201    2.0912 N   0  0  0  0  0  0  0  0  0  0  0  0
    0.9292    6.3922    2.5401 C   0  0  0  0  0  0  0  0  0  0  0  0
    1.0222    6.1027    3.9001 C   0  0  0  0  0  0  0  0  0  0  0  0
    0.9662    4.7962    4.3392 C   0  0  0  0  0  0  0  0  0  0  0  0
    0.8259    3.7387    3.4467 C   0  0  0  0  0  0  0  0  0  0  0  0
    0.7294    2.3294    3.9463 C   0  0  0  0  0  0  0  0  0  0  0  0
    0.7960    4.0307    2.0902 C   0  0  0  0  0  0  0  0  0  0  0  0
    0.8537    5.3349    1.6367 C   0  0  0  0  0  0  0  0  0  0  0  0
    1.6637    8.7092    2.7305 C   0  0  0  0  0  0  0  0  0  0  0  0
    1.1803   10.0089    2.8628 C   0  0  0  0  0  0  0  0  0  0  0  0
    1.9367   10.9687    3.5038 C   0  0  0  0  0  0  0  0  0  0  0  0
    3.1852   10.6659    4.0365 C   0  0  0  0  0  0  0  0  0  0  0  0
    3.9740   11.7100    4.7614 C   0  0  0  0  0  0  0  0  0  0  0  0
    3.6653    9.3712    3.8843 C   0  0  0  0  0  0  0  0  0  0  0  0
    2.9237    8.4035    3.2354 C   0  0  0  0  0  0  0  0  0  0  0  0
    0.4947    9.0024    0.0205 C   0  0  0  0  0  0  0  0  0  0  0  0
    1.8766   10.0135   -0.1702 S   0  0  0  0  0  0  0  0  0  0  0  0
   -1.8225    6.5280    1.4648 C   0  0  0  0  0  0  0  0  0  0  0  0
   -2.0241    6.4819    2.8305 C   0  0  0  0  0  0  0  0  0  0  0  0
   -1.8972    7.6474    3.7015 C   0  0  0  0  0  0  0  0  0  0  0  0
   -2.1957    8.9236    3.2252 C   0  0  0  0  0  0  0  0  0  0  0  0
   -2.0561   10.0226    4.0498 C   0  0  0  0  0  0  0  0  0  0  0  0
   -1.6191    9.8677    5.3540 C   0  0  0  0  0  0  0  0  0  0  0  0
   -1.3422    8.6030    5.8552 C   0  0  0  0  0  0  0  0  0  0  0  0
   -0.9288    8.4082    7.2853 C   0  0  0  0  0  0  0  0  0  0  0  0
   -2.1424    8.0483    8.1443 C   0  0  0  0  0  0  0  0  0  0  0  0
   -1.4966    7.5030    5.0258 C   0  0  0  0  0  0  0  0  0  0  0  0
   -2.3925    5.1794    3.2387 C   0  0  0  0  0  0  0  0  0  0  0  0
   -2.6257    4.4364    4.8022 S   0  0  0  0  0  0  0  0  0  0  0  0
   -2.8185    2.8984    4.0315 C   0  0  0  0  0  0  0  0  0  0  0  0
   -2.8677    1.5350    4.3729 C   0  0  0  0  0  0  0  0  0  0  0  0
   -2.7119    0.8649    5.6069 C   0  0  0  0  0  0  0  0  0  0  0  0
   -2.4975   -0.5588    5.6100 C   0  0  0  0  0  0  0  0  0  0  0  0
   -2.2612   -1.0296    6.8244 N   0  0  0  0  0  0  0  0  0  0  0  0
   -2.3165    0.2011    7.8754 S   0  0  0  0  0  0  0  0  0  0  0  0
   -2.6318    1.3884    6.8200 N   0  0  0  0  0  0  0  0  0  0  0  0
   -2.5771   -1.2690    4.3922 C   0  0  0  0  0  0  0  0  0  0  0  0
   -2.4143   -2.6287    4.0621 C   0  0  0  0  0  0  0  0  0  0  0  0
   -1.9111   -4.1144    4.7954 S   0  0  0  0  0  0  0  0  0  0  0  0
   -1.9817   -4.8993    3.2359 C   0  0  0  0  0  0  0  0  0  0  0  0
   -1.5931   -6.1766    2.7705 C   0  0  0  0  0  0  0  0  0  0  0  0
   -1.1712   -7.2969    3.6068 C   0  0  0  0  0  0  0  0  0  0  0  0
   -1.4615   -8.6081    3.2307 C   0  0  0  0  0  0  0  0  0  0  0  0
   -1.0581   -9.6628    4.0255 C   0  0  0  0  0  0  0  0  0  0  0  0
   -0.3608   -9.4296    5.1984 C   0  0  0  0  0  0  0  0  0  0  0  0
   -0.0817   -8.1308    5.6012 C   0  0  0  0  0  0  0  0  0  0  0  0
    0.6171   -7.8546    6.9010 C   0  0  0  0  0  0  0  0  0  0  0  0
   -0.4041   -7.5500    7.9987 C   0  0  0  0  0  0  0  0  0  0  0  0
   -0.5025   -7.0760    4.8062 C   0  0  0  0  0  0  0  0  0  0  0  0
   -1.7027   -6.2517    1.3948 C   0  0  0  0  0  0  0  0  0  0  0  0
   -2.4064   -4.8087    0.6805 S   0  0  0  0  0  0  0  0  0  0  0  0
   -2.4253   -4.0466    2.2265 C   0  0  0  0  0  0  0  0  0  0  0  0
   -2.6709   -2.7526    2.6968 C   0  0  0  0  0  0  0  0  0  0  0  0
   -2.9900   -1.5310    2.1598 N   0  0  0  0  0  0  0  0  0  0  0  0
   -2.8909   -0.6001    3.1802 C   0  0  0  0  0  0  0  0  0  0  0  0
   -2.8943    0.8139    3.1494 C   0  0  0  0  0  0  0  0  0  0  0  0
   -2.8251    1.7111    2.1008 N   0  0  0  0  0  0  0  0  0  0  0  0
   -2.7651    2.9694    2.6382 C   0  0  0  0  0  0  0  0  0  0  0  0
   -2.5123    4.2708    2.1879 C   0  0  0  0  0  0  0  0  0  0  0  0
   -2.2058    5.0145    0.6622 S   0  0  0  0  0  0  0  0  0  0  0  0
   -2.4441    1.4911    0.7237 C   0  0  0  0  0  0  0  0  0  0  0  0
   -3.5450    1.8977   -0.2545 C   0  0  0  0  0  0  0  0  0  0  0  0
   -3.8346   -1.4526    0.9872 C   0  0  0  0  0  0  0  0  0  0  0  0
   -5.1182   -2.2621    1.1696 C   0  0  0  0  0  0  0  0  0  0  0  0
   -1.0848   -7.2089    0.5271 C   0  0  0  0  0  0  0  0  0  0  0  0
    0.2468   -7.5995    0.5781 C   0  0  0  0  0  0  0  0  0  0  0  0
    1.1907   -7.1230    1.4732 N   0  0  0  0  0  0  0  0  0  0  0  0
    1.1875   -5.7725    1.8483 C   0  0  0  0  0  0  0  0  0  0  0  0
    0.8098   -4.7839    0.9424 C   0  0  0  0  0  0  0  0  0  0  0  0
    0.7174   -3.4656    1.3445 C   0  0  0  0  0  0  0  0  0  0  0  0
    1.0139   -3.0882    2.6471 C   0  0  0  0  0  0  0  0  0  0  0  0
    0.8886   -1.6625    3.0910 C   0  0  0  0  0  0  0  0  0  0  0  0
    1.4522   -4.0706    3.5282 C   0  0  0  0  0  0  0  0  0  0  0  0
    1.5423   -5.3920    3.1410 C   0  0  0  0  0  0  0  0  0  0  0  0
    2.1720   -8.0024    1.9540 C   0  0  0  0  0  0  0  0  0  0  0  0
    3.4733   -7.5605    2.1805 C   0  0  0  0  0  0  0  0  0  0  0  0
    4.4290   -8.4346    2.6556 C   0  0  0  0  0  0  0  0  0  0  0  0
    4.1251   -9.7679    2.9073 C   0  0  0  0  0  0  0  0  0  0  0  0
    5.1794  -10.7115    3.3990 C   0  0  0  0  0  0  0  0  0  0  0  0
    2.8286  -10.2024    2.6670 C   0  0  0  0  0  0  0  0  0  0  0  0
    1.8604   -9.3364    2.1991 C   0  0  0  0  0  0  0  0  0  0  0  0
    0.5446   -8.4925   -0.4772 C   0  0  0  0  0  0  0  0  0  0  0  0
    2.0010   -9.2419   -1.0113 S   0  0  0  0  0  0  0  0  0  0  0  0
    1.1661   -9.9140   -2.4236 C   0  0  0  0  0  0  0  0  0  0  0  0
   -0.1811   -9.4892   -2.4893 C   0  0  0  0  0  0  0  0  0  0  0  0
   -1.0375   -9.6392   -3.5407 N   0  0  0  0  0  0  0  0  0  0  0  0
   -0.5998   -9.7582   -4.8665 C   0  0  0  0  0  0  0  0  0  0  0  0
    0.4910   -9.0265   -5.3354 C   0  0  0  0  0  0  0  0  0  0  0  0
    0.9265   -9.1858   -6.6336 C   0  0  0  0  0  0  0  0  0  0  0  0
    0.2950  -10.0721   -7.5038 C   0  0  0  0  0  0  0  0  0  0  0  0
    0.8169  -10.2706   -8.8915 C   0  0  0  0  0  0  0  0  0  0  0  0
   -0.8164  -10.7644   -7.0424 C   0  0  0  0  0  0  0  0  0  0  0  0
   -1.2654  -10.6120   -5.7436 C   0  0  0  0  0  0  0  0  0  0  0  0
   -2.4276   -9.6160   -3.2975 C   0  0  0  0  0  0  0  0  0  0  0  0
   -2.9701  -10.3720   -2.2627 C   0  0  0  0  0  0  0  0  0  0  0  0
   -4.3296  -10.3396   -2.0289 C   0  0  0  0  0  0  0  0  0  0  0  0
   -5.1754   -9.5632   -2.8143 C   0  0  0  0  0  0  0  0  0  0  0  0
   -6.6453   -9.5186   -2.5317 C   0  0  0  0  0  0  0  0  0  0  0  0
   -4.6227   -8.8243   -3.8531 C   0  0  0  0  0  0  0  0  0  0  0  0
   -3.2633   -8.8457   -4.0982 C   0  0  0  0  0  0  0  0  0  0  0  0
   -0.5126   -8.7286   -1.3452 C   0  0  0  0  0  0  0  0  0  0  0  0
   -1.9344   -7.8629   -0.8610 S   0  0  0  0  0  0  0  0  0  0  0  0
    1.9279  -10.6952   -3.2892 C   0  0  0  0  0  0  0  0  0  0  0  0
    1.4394  -11.6041   -4.2102 C   0  0  0  0  0  0  0  0  0  0  0  0
    0.1734  -12.3310   -4.0459 C   0  0  0  0  0  0  0  0  0  0  0  0
   -0.6259  -12.2294   -3.1323 O   0  0  0  0  0  0  0  0  0  0  0  0
    0.1271  -13.3038   -5.1584 C   0  0  0  0  0  0  0  0  0  0  0  0
   -0.8387  -14.2161   -5.4602 C   0  0  0  0  0  0  0  0  0  0  0  0
   -0.6821  -15.0331   -6.6043 C   0  0  0  0  0  0  0  0  0  0  0  0
   -1.6563  -15.9819   -6.9722 C   0  0  0  0  0  0  0  0  0  0  0  0
   -1.4941  -16.7672   -8.0804 C   0  0  0  0  0  0  0  0  0  0  0  0
   -0.3367  -16.6147   -8.8537 C   0  0  0  0  0  0  0  0  0  0  0  0
   -0.1937  -17.3952   -9.9430 F   0  0  0  0  0  0  0  0  0  0  0  0
    0.6390  -15.7090   -8.5418 C   0  0  0  0  0  0  0  0  0  0  0  0
    0.4873  -14.8927   -7.4047 C   0  0  0  0  0  0  0  0  0  0  0  0
    1.4777  -13.9421   -7.0590 C   0  0  0  0  0  0  0  0  0  0  0  0
    1.2958  -13.1554   -5.9561 C   0  0  0  0  0  0  0  0  0  0  0  0
    2.1080  -12.0859   -5.3819 C   0  0  0  0  0  0  0  0  0  0  0  0
    3.2180  -11.5192   -5.9647 C   0  0  0  0  0  0  0  0  0  0  0  0
    3.7666  -11.9425   -7.1874 C   0  0  0  0  0  0  0  0  0  0  0  0
    4.2430  -12.2338   -8.1923 N   0  0  0  0  0  0  0  0  0  0  0  0
    3.8823  -10.3880   -5.4542 C   0  0  0  0  0  0  0  0  0  0  0  0
    4.4477   -9.4476   -5.1126 N   0  0  0  0  0  0  0  0  0  0  0  0
    1.7491   11.4636   -3.5792 H   0  0  0  0  0  0  0  0  0  0  0  0
    6.7830   13.2221   -4.1055 H   0  0  0  0  0  0  0  0  0  0  0  0
    5.9504   13.2324    0.8103 H   0  0  0  0  0  0  0  0  0  0  0  0
   -3.2598   10.8954   -3.8478 H   0  0  0  0  0  0  0  0  0  0  0  0
   -4.8517    9.2667   -4.7714 H   0  0  0  0  0  0  0  0  0  0  0  0
   -5.0086    6.1432   -4.3772 H   0  0  0  0  0  0  0  0  0  0  0  0
   -5.2107    7.0950   -5.8465 H   0  0  0  0  0  0  0  0  0  0  0  0
   -3.9698    5.8343   -5.7661 H   0  0  0  0  0  0  0  0  0  0  0  0
   -1.9047    6.1986   -4.4567 H   0  0  0  0  0  0  0  0  0  0  0  0
   -0.3030    7.8268   -3.5542 H   0  0  0  0  0  0  0  0  0  0  0  0
   -0.7705   10.9325   -5.6854 H   0  0  0  0  0  0  0  0  0  0  0  0
   -0.7124   13.1648   -6.7135 H   0  0  0  0  0  0  0  0  0  0  0  0
   -0.9601   16.3378   -4.8061 H   0  0  0  0  0  0  0  0  0  0  0  0
   -1.1518   15.6039   -6.4071 H   0  0  0  0  0  0  0  0  0  0  0  0
    0.4547   15.8102   -5.7159 H   0  0  0  0  0  0  0  0  0  0  0  0
   -0.6425   14.9467   -2.8367 H   0  0  0  0  0  0  0  0  0  0  0  0
   -0.7091   12.7283   -1.8047 H   0  0  0  0  0  0  0  0  0  0  0  0
    1.1167    6.9136    4.6059 H   0  0  0  0  0  0  0  0  0  0  0  0
    1.0125    4.5898    5.3987 H   0  0  0  0  0  0  0  0  0  0  0  0
    0.0599    2.2719    4.8026 H   0  0  0  0  0  0  0  0  0  0  0  0
    1.7093    1.9734    4.2653 H   0  0  0  0  0  0  0  0  0  0  0  0
    0.3610    1.6617    3.1705 H   0  0  0  0  0  0  0  0  0  0  0  0
    0.7255    3.2258    1.3715 H   0  0  0  0  0  0  0  0  0  0  0  0
    0.8314    5.5385    0.5756 H   0  0  0  0  0  0  0  0  0  0  0  0
    0.2050   10.2617    2.4754 H   0  0  0  0  0  0  0  0  0  0  0  0
    1.5470   11.9715    3.6005 H   0  0  0  0  0  0  0  0  0  0  0  0
    3.4519   12.0130    5.6685 H   0  0  0  0  0  0  0  0  0  0  0  0
    4.0924   12.5951    4.1377 H   0  0  0  0  0  0  0  0  0  0  0  0
    4.9573   11.3366    5.0356 H   0  0  0  0  0  0  0  0  0  0  0  0
    4.6390    9.1136    4.2760 H   0  0  0  0  0  0  0  0  0  0  0  0
    3.3167    7.4040    3.1194 H   0  0  0  0  0  0  0  0  0  0  0  0
   -2.5537    9.0505    2.2143 H   0  0  0  0  0  0  0  0  0  0  0  0
   -2.2884   11.0078    3.6729 H   0  0  0  0  0  0  0  0  0  0  0  0
   -1.4997   10.7337    5.9886 H   0  0  0  0  0  0  0  0  0  0  0  0
   -0.4708    9.3226    7.6669 H   0  0  0  0  0  0  0  0  0  0  0  0
   -0.1933    7.6036    7.3508 H   0  0  0  0  0  0  0  0  0  0  0  0
   -1.8464    7.9063    9.1809 H   0  0  0  0  0  0  0  0  0  0  0  0
   -2.8848    8.8422    8.1004 H   0  0  0  0  0  0  0  0  0  0  0  0
   -2.6006    7.1301    7.7839 H   0  0  0  0  0  0  0  0  0  0  0  0
   -1.2813    6.5186    5.4119 H   0  0  0  0  0  0  0  0  0  0  0  0
   -2.0184   -8.7960    2.3245 H   0  0  0  0  0  0  0  0  0  0  0  0
   -1.2897  -10.6759    3.7295 H   0  0  0  0  0  0  0  0  0  0  0  0
   -0.0390  -10.2609    5.8087 H   0  0  0  0  0  0  0  0  0  0  0  0
    1.2168   -8.7194    7.1912 H   0  0  0  0  0  0  0  0  0  0  0  0
    1.2847   -6.9981    6.7864 H   0  0  0  0  0  0  0  0  0  0  0  0
   -1.0736   -8.3961    8.1370 H   0  0  0  0  0  0  0  0  0  0  0  0
   -1.0004   -6.6815    7.7287 H   0  0  0  0  0  0  0  0  0  0  0  0
    0.0992   -7.3476    8.9411 H   0  0  0  0  0  0  0  0  0  0  0  0
   -0.2905   -6.0650    5.1179 H   0  0  0  0  0  0  0  0  0  0  0  0
   -2.1581    0.4471    0.5958 H   0  0  0  0  0  0  0  0  0  0  0  0
   -1.5612    2.1094    0.5217 H   0  0  0  0  0  0  0  0  0  0  0  0
   -3.7131    2.9698   -0.2019 H   0  0  0  0  0  0  0  0  0  0  0  0
   -4.4859    1.3986   -0.0342 H   0  0  0  0  0  0  0  0  0  0  0  0
   -3.2449    1.6457   -1.2677 H   0  0  0  0  0  0  0  0  0  0  0  0
   -4.1056   -0.4140    0.8240 H   0  0  0  0  0  0  0  0  0  0  0  0
   -3.2804   -1.8325    0.1222 H   0  0  0  0  0  0  0  0  0  0  0  0
   -5.6488   -1.9295    2.0595 H   0  0  0  0  0  0  0  0  0  0  0  0
   -4.9015   -3.3219    1.2678 H   0  0  0  0  0  0  0  0  0  0  0  0
   -5.7616   -2.1215    0.3052 H   0  0  0  0  0  0  0  0  0  0  0  0
    0.5790   -5.0532   -0.0782 H   0  0  0  0  0  0  0  0  0  0  0  0
    0.4033   -2.7180    0.6295 H   0  0  0  0  0  0  0  0  0  0  0  0
    0.4912   -1.6065    4.1025 H   0  0  0  0  0  0  0  0  0  0  0  0
    0.2306   -1.1060    2.4267 H   0  0  0  0  0  0  0  0  0  0  0  0
    1.8657   -1.1783    3.0875 H   0  0  0  0  0  0  0  0  0  0  0  0
    1.7074   -3.7962    4.5416 H   0  0  0  0  0  0  0  0  0  0  0  0
    1.8689   -6.1457    3.8411 H   0  0  0  0  0  0  0  0  0  0  0  0
    3.7305   -6.5316    1.9772 H   0  0  0  0  0  0  0  0  0  0  0  0
    5.4344   -8.0773    2.8259 H   0  0  0  0  0  0  0  0  0  0  0  0
    4.7325  -11.5722    3.8906 H   0  0  0  0  0  0  0  0  0  0  0  0
    5.7767  -11.0720    2.5608 H   0  0  0  0  0  0  0  0  0  0  0  0
    5.8496  -10.2140    4.0967 H   0  0  0  0  0  0  0  0  0  0  0  0
    2.5672  -11.2338    2.8542 H   0  0  0  0  0  0  0  0  0  0  0  0
    0.8535   -9.6884    2.0335 H   0  0  0  0  0  0  0  0  0  0  0  0
    0.9988   -8.3356   -4.6792 H   0  0  0  0  0  0  0  0  0  0  0  0
    1.7780   -8.6175   -6.9786 H   0  0  0  0  0  0  0  0  0  0  0  0
    0.9940   -9.3119   -9.3757 H   0  0  0  0  0  0  0  0  0  0  0  0
    0.1185  -10.8472   -9.4923 H   0  0  0  0  0  0  0  0  0  0  0  0
    1.7672  -10.8047   -8.8635 H   0  0  0  0  0  0  0  0  0  0  0  0
   -1.3326  -11.4469   -7.7019 H   0  0  0  0  0  0  0  0  0  0  0  0
   -2.1261  -11.1634   -5.3961 H   0  0  0  0  0  0  0  0  0  0  0  0
   -2.3190  -11.0004   -1.6755 H   0  0  0  0  0  0  0  0  0  0  0  0
   -4.7451  -10.9332   -1.2278 H   0  0  0  0  0  0  0  0  0  0  0  0
   -7.1980   -9.1528   -3.3933 H   0  0  0  0  0  0  0  0  0  0  0  0
   -7.0175  -10.5056   -2.2655 H   0  0  0  0  0  0  0  0  0  0  0  0
   -6.8412   -8.8507   -1.6924 H   0  0  0  0  0  0  0  0  0  0  0  0
   -5.2633   -8.2189   -4.4778 H   0  0  0  0  0  0  0  0  0  0  0  0
   -2.8431   -8.2642   -4.9059 H   0  0  0  0  0  0  0  0  0  0  0  0
    3.0017  -10.5856   -3.1954 H   0  0  0  0  0  0  0  0  0  0  0  0
   -1.7187  -14.3116   -4.8414 H   0  0  0  0  0  0  0  0  0  0  0  0
   -2.5401  -16.0820   -6.3598 H   0  0  0  0  0  0  0  0  0  0  0  0
   -2.2299  -17.4991   -8.3739 H   0  0  0  0  0  0  0  0  0  0  0  0
    1.5177  -15.6177   -9.1610 H   0  0  0  0  0  0  0  0  0  0  0  0
    2.3577  -13.8659   -7.6775 H   0  0  0  0  0  0  0  0  0  0  0  0
  1  2  2  0  0  0  0
  2  3  1  0  0  0  0
  3  4  2  0  0  0  0
  3  5  1  0  0  0  0
  5  6  2  0  0  0  0
  6  7  1  0  0  0  0
  7  8  1  0  0  0  0
  7  9  2  0  0  0  0
  9 10  1  0  0  0  0
  9 11  1  0  0  0  0
 11 12  2  0  0  0  0
 12 13  1  0  0  0  0
 13 14  2  0  0  0  0
 14 15  1  0  0  0  0
 15 16  3  0  0  0  0
 14 17  1  0  0  0  0
 17 18  3  0  0  0  0
  1 19  1  0  0  0  0
 19 20  2  0  0  0  0
 20 21  1  0  0  0  0
 21 22  1  0  0  0  0
 22 23  2  0  0  0  0
 23 24  1  0  0  0  0
 24 25  2  0  0  0  0
 25 26  1  0  0  0  0
 25 27  1  0  0  0  0
 27 28  2  0  0  0  0
 21 29  1  0  0  0  0
 29 30  2  0  0  0  0
 30 31  1  0  0  0  0
 31 32  2  0  0  0  0
 32 33  1  0  0  0  0
 32 34  1  0  0  0  0
 34 35  2  0  0  0  0
 20 36  1  0  0  0  0
 36 37  1  0  0  0  0
 37 38  1  0  0  0  0
 38 39  2  0  0  0  0
 39 40  1  0  0  0  0
 40 41  1  0  0  0  0
 41 42  2  0  0  0  0
 42 43  1  0  0  0  0
 43 44  2  0  0  0  0
 44 45  1  0  0  0  0
 44 46  1  0  0  0  0
 46 47  2  0  0  0  0
 40 48  1  0  0  0  0
 48 49  2  0  0  0  0
 49 50  1  0  0  0  0
 50 51  2  0  0  0  0
 51 52  1  0  0  0  0
 51 53  1  0  0  0  0
 53 54  2  0  0  0  0
 39 55  1  0  0  0  0
 55 56  1  0  0  0  0
 38 57  1  0  0  0  0
 57 58  2  0  0  0  0
 58 59  1  0  0  0  0
 59 60  2  0  0  0  0
 60 61  1  0  0  0  0
 61 62  2  0  0  0  0
 62 63  1  0  0  0  0
 63 64  1  0  0  0  0
 64 65  1  0  0  0  0
 63 66  2  0  0  0  0
 58 67  1  0  0  0  0
 67 68  1  0  0  0  0
 68 69  1  0  0  0  0
 69 70  1  0  0  0  0
 70 71  1  0  0  0  0
 71 72  1  0  0  0  0
 72 73  2  0  0  0  0
 73 74  1  0  0  0  0
 74 75  1  0  0  0  0
 72 76  1  0  0  0  0
 76 77  1  0  0  0  0
 77 78  1  0  0  0  0
 78 79  1  0  0  0  0
 79 80  1  0  0  0  0
 80 81  1  0  0  0  0
 81 82  2  0  0  0  0
 82 83  1  0  0  0  0
 83 84  2  0  0  0  0
 84 85  1  0  0  0  0
 85 86  1  0  0  0  0
 86 87  1  0  0  0  0
 85 88  2  0  0  0  0
 80 89  2  0  0  0  0
 89 90  1  0  0  0  0
 90 91  1  0  0  0  0
 91 92  1  0  0  0  0
 92 93  1  0  0  0  0
 93 94  1  0  0  0  0
 94 95  1  0  0  0  0
 95 96  1  0  0  0  0
 96 97  1  0  0  0  0
 97 98  1  0  0  0  0
 98 99  1  0  0  0  0
 96100  1  0  0  0  0
100101  1  0  0  0  0
 93102  1  0  0  0  0
102103  1  0  0  0  0
 89104  1  0  0  0  0
104105  2  0  0  0  0
105106  1  0  0  0  0
106107  1  0  0  0  0
107108  2  0  0  0  0
108109  1  0  0  0  0
109110  2  0  0  0  0
110111  1  0  0  0  0
110112  1  0  0  0  0
112113  2  0  0  0  0
106114  1  0  0  0  0
114115  2  0  0  0  0
115116  1  0  0  0  0
116117  2  0  0  0  0
117118  1  0  0  0  0
117119  1  0  0  0  0
119120  2  0  0  0  0
105121  1  0  0  0  0
121122  1  0  0  0  0
122123  1  0  0  0  0
123124  2  0  0  0  0
124125  1  0  0  0  0
125126  1  0  0  0  0
126127  2  0  0  0  0
127128  1  0  0  0  0
128129  2  0  0  0  0
129130  1  0  0  0  0
129131  1  0  0  0  0
131132  2  0  0  0  0
125133  1  0  0  0  0
133134  2  0  0  0  0
134135  1  0  0  0  0
135136  2  0  0  0  0
136137  1  0  0  0  0
136138  1  0  0  0  0
138139  2  0  0  0  0
124140  1  0  0  0  0
140141  1  0  0  0  0
123142  1  0  0  0  0
142143  2  0  0  0  0
143144  1  0  0  0  0
144145  2  0  0  0  0
144146  1  0  0  0  0
146147  2  0  0  0  0
147148  1  0  0  0  0
148149  2  0  0  0  0
149150  1  0  0  0  0
150151  2  0  0  0  0
151152  1  0  0  0  0
151153  1  0  0  0  0
153154  2  0  0  0  0
154155  1  0  0  0  0
155156  2  0  0  0  0
156157  1  0  0  0  0
157158  2  0  0  0  0
158159  1  0  0  0  0
159160  3  0  0  0  0
158161  1  0  0  0  0
161162  3  0  0  0  0
 13  2  1  0  0  0  0
 56 19  1  0  0  0  0
 99 57  1  0  0  0  0
141104  1  0  0  0  0
157143  1  0  0  0  0
 12  5  1  0  0  0  0
 28 22  1  0  0  0  0
 35 29  1  0  0  0  0
 55 36  2  0  0  0  0
 66 59  1  0  0  0  0
 98 67  2  0  0  0  0
113107  1  0  0  0  0
120114  1  0  0  0  0
140121  2  0  0  0  0
156146  1  0  0  0  0
 47 41  1  0  0  0  0
 54 48  1  0  0  0  0
 97 69  2  0  0  0  0
132126  1  0  0  0  0
139133  1  0  0  0  0
154148  1  0  0  0  0
 95 70  2  0  0  0  0
 75 71  2  0  0  0  0
 94 76  2  0  0  0  0
 92 77  2  0  0  0  0
 91 79  2  0  0  0  0
 88 81  1  0  0  0  0
  1163  1  0  0  0  0
  6164  1  0  0  0  0
 11165  1  0  0  0  0
 23166  1  0  0  0  0
 24167  1  0  0  0  0
 26168  1  0  0  0  0
 26169  1  0  0  0  0
 26170  1  0  0  0  0
 27171  1  0  0  0  0
 28172  1  0  0  0  0
 30173  1  0  0  0  0
 31174  1  0  0  0  0
 33175  1  0  0  0  0
 33176  1  0  0  0  0
 33177  1  0  0  0  0
 34178  1  0  0  0  0
 35179  1  0  0  0  0
 42180  1  0  0  0  0
 43181  1  0  0  0  0
 45182  1  0  0  0  0
 45183  1  0  0  0  0
 45184  1  0  0  0  0
 46185  1  0  0  0  0
 47186  1  0  0  0  0
 49187  1  0  0  0  0
 50188  1  0  0  0  0
 52189  1  0  0  0  0
 52190  1  0  0  0  0
 52191  1  0  0  0  0
 53192  1  0  0  0  0
 54193  1  0  0  0  0
 60194  1  0  0  0  0
 61195  1  0  0  0  0
 62196  1  0  0  0  0
 64197  1  0  0  0  0
 64198  1  0  0  0  0
 65199  1  0  0  0  0
 65200  1  0  0  0  0
 65201  1  0  0  0  0
 66202  1  0  0  0  0
 82203  1  0  0  0  0
 83204  1  0  0  0  0
 84205  1  0  0  0  0
 86206  1  0  0  0  0
 86207  1  0  0  0  0
 87208  1  0  0  0  0
 87209  1  0  0  0  0
 87210  1  0  0  0  0
 88211  1  0  0  0  0
100212  1  0  0  0  0
100213  1  0  0  0  0
101214  1  0  0  0  0
101215  1  0  0  0  0
101216  1  0  0  0  0
102217  1  0  0  0  0
102218  1  0  0  0  0
103219  1  0  0  0  0
103220  1  0  0  0  0
103221  1  0  0  0  0
108222  1  0  0  0  0
109223  1  0  0  0  0
111224  1  0  0  0  0
111225  1  0  0  0  0
111226  1  0  0  0  0
112227  1  0  0  0  0
113228  1  0  0  0  0
115229  1  0  0  0  0
116230  1  0  0  0  0
118231  1  0  0  0  0
118232  1  0  0  0  0
118233  1  0  0  0  0
119234  1  0  0  0  0
120235  1  0  0  0  0
127236  1  0  0  0  0
128237  1  0  0  0  0
130238  1  0  0  0  0
130239  1  0  0  0  0
130240  1  0  0  0  0
131241  1  0  0  0  0
132242  1  0  0  0  0
134243  1  0  0  0  0
135244  1  0  0  0  0
137245  1  0  0  0  0
137246  1  0  0  0  0
137247  1  0  0  0  0
138248  1  0  0  0  0
139249  1  0  0  0  0
142250  1  0  0  0  0
147251  1  0  0  0  0
149252  1  0  0  0  0
150253  1  0  0  0  0
153254  1  0  0  0  0
155255  1  0  0  0  0
M  END
