
  xtb     02162205083D
 energy: -354.736512107521 gnorm: 0.000778476720 xtb: 6.4.1 (unknown)
201222  0     0  0            999 V2000
    0.2970   -9.8792   -2.7553 C   0  0  0  0  0  0  0  0  0  0  0  0
   -0.4147  -10.1061   -3.9209 C   0  0  0  0  0  0  0  0  0  0  0  0
   -0.9652   -9.0336   -4.7554 C   0  0  0  0  0  0  0  0  0  0  0  0
   -0.9300   -7.8346   -4.5506 O   0  0  0  0  0  0  0  0  0  0  0  0
   -1.4648   -9.7054   -5.9803 C   0  0  0  0  0  0  0  0  0  0  0  0
   -2.0625   -9.1419   -7.0874 C   0  0  0  0  0  0  0  0  0  0  0  0
   -2.4548   -9.9930   -8.1100 C   0  0  0  0  0  0  0  0  0  0  0  0
   -3.0522   -9.4869   -9.1991 F   0  0  0  0  0  0  0  0  0  0  0  0
   -2.2383  -11.3652   -8.0152 C   0  0  0  0  0  0  0  0  0  0  0  0
   -2.6241  -12.1640   -9.0200 F   0  0  0  0  0  0  0  0  0  0  0  0
   -1.6298  -11.9312   -6.9030 C   0  0  0  0  0  0  0  0  0  0  0  0
   -1.2432  -11.0880   -5.8763 C   0  0  0  0  0  0  0  0  0  0  0  0
   -0.6110  -11.3603   -4.5847 C   0  0  0  0  0  0  0  0  0  0  0  0
   -0.4064  -12.6034   -4.0360 C   0  0  0  0  0  0  0  0  0  0  0  0
    0.0676  -12.8110   -2.7258 C   0  0  0  0  0  0  0  0  0  0  0  0
    0.4191  -13.0486   -1.6583 N   0  0  0  0  0  0  0  0  0  0  0  0
   -0.7321  -13.8102   -4.6807 C   0  0  0  0  0  0  0  0  0  0  0  0
   -0.9964  -14.8214   -5.1579 N   0  0  0  0  0  0  0  0  0  0  0  0
    0.1607   -8.7761   -1.9176 C   0  0  0  0  0  0  0  0  0  0  0  0
   -0.9171   -7.8801   -1.7204 C   0  0  0  0  0  0  0  0  0  0  0  0
   -2.1815   -8.0045   -2.2110 N   0  0  0  0  0  0  0  0  0  0  0  0
   -2.7430   -9.2356   -2.5776 C   0  0  0  0  0  0  0  0  0  0  0  0
   -3.5623   -9.3154   -3.7019 C   0  0  0  0  0  0  0  0  0  0  0  0
   -4.0948  -10.5307   -4.0899 C   0  0  0  0  0  0  0  0  0  0  0  0
   -3.8351  -11.6908   -3.3722 C   0  0  0  0  0  0  0  0  0  0  0  0
   -4.3662  -13.0159   -3.8181 C   0  0  0  0  0  0  0  0  0  0  0  0
   -3.0512  -11.5930   -2.2244 C   0  0  0  0  0  0  0  0  0  0  0  0
   -2.5111  -10.3882   -1.8280 C   0  0  0  0  0  0  0  0  0  0  0  0
   -2.9891   -6.8509   -2.3335 C   0  0  0  0  0  0  0  0  0  0  0  0
   -4.2960   -6.8650   -1.8601 C   0  0  0  0  0  0  0  0  0  0  0  0
   -5.0832   -5.7361   -1.9815 C   0  0  0  0  0  0  0  0  0  0  0  0
   -4.5899   -4.5788   -2.5720 C   0  0  0  0  0  0  0  0  0  0  0  0
   -5.4338   -3.3466   -2.6770 C   0  0  0  0  0  0  0  0  0  0  0  0
   -3.2853   -4.5834   -3.0542 C   0  0  0  0  0  0  0  0  0  0  0  0
   -2.4879   -5.7042   -2.9417 C   0  0  0  0  0  0  0  0  0  0  0  0
   -0.5454   -6.8609   -0.8136 C   0  0  0  0  0  0  0  0  0  0  0  0
   -1.3600   -5.4705   -0.1770 S   0  0  0  0  0  0  0  0  0  0  0  0
    0.0290   -5.0940    0.8222 C   0  0  0  0  0  0  0  0  0  0  0  0
    1.0916   -5.9661    0.6255 C   0  0  0  0  0  0  0  0  0  0  0  0
    2.3568   -5.8097    1.1673 N   0  0  0  0  0  0  0  0  0  0  0  0
    3.0643   -6.9374    1.6070 C   0  0  0  0  0  0  0  0  0  0  0  0
    2.3892   -8.0307    2.1409 C   0  0  0  0  0  0  0  0  0  0  0  0
    3.0907   -9.1343    2.5851 C   0  0  0  0  0  0  0  0  0  0  0  0
    4.4759   -9.1797    2.5166 C   0  0  0  0  0  0  0  0  0  0  0  0
    5.2416  -10.3726    3.0003 C   0  0  0  0  0  0  0  0  0  0  0  0
    5.1428   -8.0877    1.9706 C   0  0  0  0  0  0  0  0  0  0  0  0
    4.4538   -6.9837    1.5136 C   0  0  0  0  0  0  0  0  0  0  0  0
    2.8936   -4.5202    1.2996 C   0  0  0  0  0  0  0  0  0  0  0  0
    3.6682   -4.1747    2.4050 C   0  0  0  0  0  0  0  0  0  0  0  0
    4.0921   -2.8739    2.5806 C   0  0  0  0  0  0  0  0  0  0  0  0
    3.7752   -1.8814    1.6591 C   0  0  0  0  0  0  0  0  0  0  0  0
    4.1835   -0.4607    1.9017 C   0  0  0  0  0  0  0  0  0  0  0  0
    3.0692   -2.2481    0.5222 C   0  0  0  0  0  0  0  0  0  0  0  0
    2.6358   -3.5469    0.3373 C   0  0  0  0  0  0  0  0  0  0  0  0
    0.7316   -6.9899   -0.2823 C   0  0  0  0  0  0  0  0  0  0  0  0
    1.5393   -8.3926   -0.8702 S   0  0  0  0  0  0  0  0  0  0  0  0
    0.0449   -3.9470    1.6802 C   0  0  0  0  0  0  0  0  0  0  0  0
    0.5104   -3.8981    2.9794 C   0  0  0  0  0  0  0  0  0  0  0  0
    0.7143   -5.0870    3.8047 C   0  0  0  0  0  0  0  0  0  0  0  0
   -0.1560   -6.1697    3.6925 C   0  0  0  0  0  0  0  0  0  0  0  0
    0.0308   -7.2929    4.4751 C   0  0  0  0  0  0  0  0  0  0  0  0
    1.0941   -7.3592    5.3574 C   0  0  0  0  0  0  0  0  0  0  0  0
    1.9618   -6.2832    5.4960 C   0  0  0  0  0  0  0  0  0  0  0  0
    3.1438   -6.3758    6.4167 C   0  0  0  0  0  0  0  0  0  0  0  0
    4.2888   -7.1263    5.7324 C   0  0  0  0  0  0  0  0  0  0  0  0
    1.7488   -5.1458    4.7331 C   0  0  0  0  0  0  0  0  0  0  0  0
    0.6712   -2.5629    3.4075 C   0  0  0  0  0  0  0  0  0  0  0  0
    1.2793   -1.8553    4.8818 S   0  0  0  0  0  0  0  0  0  0  0  0
    1.0082   -0.2811    4.2151 C   0  0  0  0  0  0  0  0  0  0  0  0
    1.1011    1.0668    4.5945 C   0  0  0  0  0  0  0  0  0  0  0  0
    1.4076    1.6634    5.8376 C   0  0  0  0  0  0  0  0  0  0  0  0
    1.2014    3.0743    5.9990 C   0  0  0  0  0  0  0  0  0  0  0  0
    1.4493    3.4836    7.2332 N   0  0  0  0  0  0  0  0  0  0  0  0
    1.9123    2.2066    8.1142 S   0  0  0  0  0  0  0  0  0  0  0  0
    1.8091    1.0803    6.9561 N   0  0  0  0  0  0  0  0  0  0  0  0
    0.8224    3.8423    4.8763 C   0  0  0  0  0  0  0  0  0  0  0  0
    0.6187    5.2218    4.7203 C   0  0  0  0  0  0  0  0  0  0  0  0
    0.6058    6.6655    5.6736 S   0  0  0  0  0  0  0  0  0  0  0  0
    0.2526    7.5898    4.2289 C   0  0  0  0  0  0  0  0  0  0  0  0
    0.0815    8.9608    3.9893 C   0  0  0  0  0  0  0  0  0  0  0  0
    0.3445    9.9982    4.9815 C   0  0  0  0  0  0  0  0  0  0  0  0
   -0.0723    9.8486    6.3022 C   0  0  0  0  0  0  0  0  0  0  0  0
    0.2114   10.8350    7.2274 C   0  0  0  0  0  0  0  0  0  0  0  0
    0.9094   11.9699    6.8508 C   0  0  0  0  0  0  0  0  0  0  0  0
    1.3492   12.1287    5.5415 C   0  0  0  0  0  0  0  0  0  0  0  0
    2.0576   13.3788    5.1085 C   0  0  0  0  0  0  0  0  0  0  0  0
    1.0515   14.3981    4.5674 C   0  0  0  0  0  0  0  0  0  0  0  0
    1.0670   11.1336    4.6184 C   0  0  0  0  0  0  0  0  0  0  0  0
   -0.1920    9.1987    2.6406 C   0  0  0  0  0  0  0  0  0  0  0  0
   -0.1337    7.7376    1.6649 S   0  0  0  0  0  0  0  0  0  0  0  0
    0.1622    6.7961    3.0750 C   0  0  0  0  0  0  0  0  0  0  0  0
    0.3695    5.4453    3.3628 C   0  0  0  0  0  0  0  0  0  0  0  0
    0.3985    4.2601    2.6717 N   0  0  0  0  0  0  0  0  0  0  0  0
    0.6487    3.2534    3.5898 C   0  0  0  0  0  0  0  0  0  0  0  0
    0.6617    1.8395    3.4813 C   0  0  0  0  0  0  0  0  0  0  0  0
    0.2752    0.9707    2.4774 N   0  0  0  0  0  0  0  0  0  0  0  0
    0.4832   -0.3057    2.9207 C   0  0  0  0  0  0  0  0  0  0  0  0
    0.2848   -1.6143    2.4602 C   0  0  0  0  0  0  0  0  0  0  0  0
   -0.3032   -2.3605    1.0184 S   0  0  0  0  0  0  0  0  0  0  0  0
   -0.4911    1.1972    1.2740 C   0  0  0  0  0  0  0  0  0  0  0  0
    0.3516    0.9770    0.0169 C   0  0  0  0  0  0  0  0  0  0  0  0
    0.7147    4.3157    1.2589 C   0  0  0  0  0  0  0  0  0  0  0  0
    2.1461    4.8021    1.0336 C   0  0  0  0  0  0  0  0  0  0  0  0
   -0.5023   10.3916    1.9447 C   0  0  0  0  0  0  0  0  0  0  0  0
   -0.1971   10.6444    0.6035 C   0  0  0  0  0  0  0  0  0  0  0  0
   -0.6312   11.9457    0.2817 C   0  0  0  0  0  0  0  0  0  0  0  0
   -1.3028   12.4953    1.4376 C   0  0  0  0  0  0  0  0  0  0  0  0
   -1.8889   13.5368    1.6277 O   0  0  0  0  0  0  0  0  0  0  0  0
   -1.1659   11.4915    2.4294 N   0  0  0  0  0  0  0  0  0  0  0  0
   -1.8981   11.6006    3.6629 C   0  0  0  0  0  0  0  0  0  0  0  0
   -0.3225   12.1999   -1.0571 C   0  0  0  0  0  0  0  0  0  0  0  0
    0.3313   11.0908   -1.5380 N   0  0  0  0  0  0  0  0  0  0  0  0
    0.9956   10.9496   -2.8042 C   0  0  0  0  0  0  0  0  0  0  0  0
    0.4608   10.0901   -0.5568 C   0  0  0  0  0  0  0  0  0  0  0  0
    1.0364    9.0361   -0.7410 O   0  0  0  0  0  0  0  0  0  0  0  0
   -0.6038   13.4186   -1.7140 C   0  0  0  0  0  0  0  0  0  0  0  0
   -0.9561   13.6381   -3.0193 C   0  0  0  0  0  0  0  0  0  0  0  0
   -1.5409   12.6221   -3.9226 C   0  0  0  0  0  0  0  0  0  0  0  0
   -1.6735   11.4341   -3.7255 O   0  0  0  0  0  0  0  0  0  0  0  0
   -2.0574   13.3825   -5.0835 C   0  0  0  0  0  0  0  0  0  0  0  0
   -2.7190   12.8978   -6.1943 C   0  0  0  0  0  0  0  0  0  0  0  0
   -3.1294   13.8146   -7.1490 C   0  0  0  0  0  0  0  0  0  0  0  0
   -3.7702   13.3883   -8.2444 F   0  0  0  0  0  0  0  0  0  0  0  0
   -2.8829   15.1775   -6.9796 C   0  0  0  0  0  0  0  0  0  0  0  0
   -3.2969   16.0394   -7.9148 F   0  0  0  0  0  0  0  0  0  0  0  0
   -2.2205   15.6649   -5.8625 C   0  0  0  0  0  0  0  0  0  0  0  0
   -1.8035   14.7531   -4.9054 C   0  0  0  0  0  0  0  0  0  0  0  0
   -1.0871   14.9365   -3.6456 C   0  0  0  0  0  0  0  0  0  0  0  0
   -0.5421   16.1091   -3.1904 C   0  0  0  0  0  0  0  0  0  0  0  0
    0.2792   16.2130   -2.0468 C   0  0  0  0  0  0  0  0  0  0  0  0
    0.9936   16.3610   -1.1605 N   0  0  0  0  0  0  0  0  0  0  0  0
   -0.6853   17.3507   -3.8436 C   0  0  0  0  0  0  0  0  0  0  0  0
   -0.7743   18.3844   -4.3342 N   0  0  0  0  0  0  0  0  0  0  0  0
    1.0678  -10.5884   -2.4778 H   0  0  0  0  0  0  0  0  0  0  0  0
   -2.2275   -8.0789   -7.1616 H   0  0  0  0  0  0  0  0  0  0  0  0
   -1.4750  -12.9975   -6.8795 H   0  0  0  0  0  0  0  0  0  0  0  0
   -3.7694   -8.4222   -4.2718 H   0  0  0  0  0  0  0  0  0  0  0  0
   -4.7144  -10.5770   -4.9735 H   0  0  0  0  0  0  0  0  0  0  0  0
   -3.5764  -13.5946   -4.2993 H   0  0  0  0  0  0  0  0  0  0  0  0
   -5.1768  -12.8912   -4.5309 H   0  0  0  0  0  0  0  0  0  0  0  0
   -4.7257  -13.5930   -2.9687 H   0  0  0  0  0  0  0  0  0  0  0  0
   -2.8580  -12.4775   -1.6353 H   0  0  0  0  0  0  0  0  0  0  0  0
   -1.9059  -10.3378   -0.9353 H   0  0  0  0  0  0  0  0  0  0  0  0
   -4.6876   -7.7591   -1.3972 H   0  0  0  0  0  0  0  0  0  0  0  0
   -6.0963   -5.7548   -1.6073 H   0  0  0  0  0  0  0  0  0  0  0  0
   -6.4902   -3.5881   -2.5914 H   0  0  0  0  0  0  0  0  0  0  0  0
   -5.2619   -2.8399   -3.6241 H   0  0  0  0  0  0  0  0  0  0  0  0
   -5.1769   -2.6532   -1.8755 H   0  0  0  0  0  0  0  0  0  0  0  0
   -2.8918   -3.6979   -3.5313 H   0  0  0  0  0  0  0  0  0  0  0  0
   -1.4883   -5.7192   -3.3467 H   0  0  0  0  0  0  0  0  0  0  0  0
    1.3138   -8.0059    2.2252 H   0  0  0  0  0  0  0  0  0  0  0  0
    2.5472   -9.9706    3.0000 H   0  0  0  0  0  0  0  0  0  0  0  0
    6.0843  -10.0643    3.6168 H   0  0  0  0  0  0  0  0  0  0  0  0
    4.6042  -11.0352    3.5803 H   0  0  0  0  0  0  0  0  0  0  0  0
    5.6359  -10.9338    2.1530 H   0  0  0  0  0  0  0  0  0  0  0  0
    6.2207   -8.1071    1.8968 H   0  0  0  0  0  0  0  0  0  0  0  0
    4.9879   -6.1507    1.0807 H   0  0  0  0  0  0  0  0  0  0  0  0
    3.9130   -4.9312    3.1338 H   0  0  0  0  0  0  0  0  0  0  0  0
    4.6646   -2.6164    3.4600 H   0  0  0  0  0  0  0  0  0  0  0  0
    3.6987   -0.0783    2.8004 H   0  0  0  0  0  0  0  0  0  0  0  0
    5.2598   -0.3907    2.0512 H   0  0  0  0  0  0  0  0  0  0  0  0
    3.9068    0.1721    1.0618 H   0  0  0  0  0  0  0  0  0  0  0  0
    2.8460   -1.5069   -0.2324 H   0  0  0  0  0  0  0  0  0  0  0  0
    2.0810   -3.8076   -0.5525 H   0  0  0  0  0  0  0  0  0  0  0  0
   -0.9899   -6.1190    3.0078 H   0  0  0  0  0  0  0  0  0  0  0  0
   -0.6549   -8.1238    4.3925 H   0  0  0  0  0  0  0  0  0  0  0  0
    1.2458   -8.2473    5.9533 H   0  0  0  0  0  0  0  0  0  0  0  0
    3.4786   -5.3745    6.6939 H   0  0  0  0  0  0  0  0  0  0  0  0
    2.8625   -6.9072    7.3282 H   0  0  0  0  0  0  0  0  0  0  0  0
    4.6016   -6.6080    4.8284 H   0  0  0  0  0  0  0  0  0  0  0  0
    3.9724   -8.1274    5.4486 H   0  0  0  0  0  0  0  0  0  0  0  0
    5.1438   -7.2054    6.3997 H   0  0  0  0  0  0  0  0  0  0  0  0
    2.4028   -4.2953    4.8512 H   0  0  0  0  0  0  0  0  0  0  0  0
   -0.6305    8.9723    6.5937 H   0  0  0  0  0  0  0  0  0  0  0  0
   -0.1169   10.7196    8.2493 H   0  0  0  0  0  0  0  0  0  0  0  0
    1.1219   12.7379    7.5800 H   0  0  0  0  0  0  0  0  0  0  0  0
    2.5918   13.8146    5.9546 H   0  0  0  0  0  0  0  0  0  0  0  0
    2.7842   13.1426    4.3288 H   0  0  0  0  0  0  0  0  0  0  0  0
    0.3176   14.6491    5.3303 H   0  0  0  0  0  0  0  0  0  0  0  0
    1.5619   15.3091    4.2661 H   0  0  0  0  0  0  0  0  0  0  0  0
    0.5243   14.0002    3.7030 H   0  0  0  0  0  0  0  0  0  0  0  0
    1.4244   11.2336    3.6032 H   0  0  0  0  0  0  0  0  0  0  0  0
   -1.3160    0.4760    1.2680 H   0  0  0  0  0  0  0  0  0  0  0  0
   -0.9291    2.1952    1.3103 H   0  0  0  0  0  0  0  0  0  0  0  0
    0.6099   -0.0746   -0.0724 H   0  0  0  0  0  0  0  0  0  0  0  0
    1.2768    1.5483    0.0497 H   0  0  0  0  0  0  0  0  0  0  0  0
   -0.2134    1.2689   -0.8639 H   0  0  0  0  0  0  0  0  0  0  0  0
    0.0121    5.0101    0.7884 H   0  0  0  0  0  0  0  0  0  0  0  0
    0.6024    3.3373    0.8099 H   0  0  0  0  0  0  0  0  0  0  0  0
    2.2806    5.8079    1.4216 H   0  0  0  0  0  0  0  0  0  0  0  0
    2.8540    4.1386    1.5272 H   0  0  0  0  0  0  0  0  0  0  0  0
    2.3602    4.8183   -0.0312 H   0  0  0  0  0  0  0  0  0  0  0  0
   -2.7433   12.2655    3.4782 H   0  0  0  0  0  0  0  0  0  0  0  0
   -2.2556   10.6211    3.9768 H   0  0  0  0  0  0  0  0  0  0  0  0
   -1.2872   12.0327    4.4568 H   0  0  0  0  0  0  0  0  0  0  0  0
    1.3786   11.9134   -3.1391 H   0  0  0  0  0  0  0  0  0  0  0  0
    1.8173   10.2462   -2.6636 H   0  0  0  0  0  0  0  0  0  0  0  0
    0.3147   10.5467   -3.5561 H   0  0  0  0  0  0  0  0  0  0  0  0
   -0.6123   14.2683   -1.0400 H   0  0  0  0  0  0  0  0  0  0  0  0
   -2.9117   11.8444   -6.3208 H   0  0  0  0  0  0  0  0  0  0  0  0
   -2.0593   16.7268   -5.7730 H   0  0  0  0  0  0  0  0  0  0  0  0
  1  2  2  0  0  0  0
  2  3  1  0  0  0  0
  3  4  2  0  0  0  0
  3  5  1  0  0  0  0
  5  6  2  0  0  0  0
  6  7  1  0  0  0  0
  7  8  1  0  0  0  0
  7  9  2  0  0  0  0
  9 10  1  0  0  0  0
  9 11  1  0  0  0  0
 11 12  2  0  0  0  0
 12 13  1  0  0  0  0
 13 14  2  0  0  0  0
 14 15  1  0  0  0  0
 15 16  3  0  0  0  0
 14 17  1  0  0  0  0
 17 18  3  0  0  0  0
  1 19  1  0  0  0  0
 19 20  2  0  0  0  0
 20 21  1  0  0  0  0
 21 22  1  0  0  0  0
 22 23  2  0  0  0  0
 23 24  1  0  0  0  0
 24 25  2  0  0  0  0
 25 26  1  0  0  0  0
 25 27  1  0  0  0  0
 27 28  2  0  0  0  0
 21 29  1  0  0  0  0
 29 30  2  0  0  0  0
 30 31  1  0  0  0  0
 31 32  2  0  0  0  0
 32 33  1  0  0  0  0
 32 34  1  0  0  0  0
 34 35  2  0  0  0  0
 20 36  1  0  0  0  0
 36 37  1  0  0  0  0
 37 38  1  0  0  0  0
 38 39  2  0  0  0  0
 39 40  1  0  0  0  0
 40 41  1  0  0  0  0
 41 42  2  0  0  0  0
 42 43  1  0  0  0  0
 43 44  2  0  0  0  0
 44 45  1  0  0  0  0
 44 46  1  0  0  0  0
 46 47  2  0  0  0  0
 40 48  1  0  0  0  0
 48 49  2  0  0  0  0
 49 50  1  0  0  0  0
 50 51  2  0  0  0  0
 51 52  1  0  0  0  0
 51 53  1  0  0  0  0
 53 54  2  0  0  0  0
 39 55  1  0  0  0  0
 55 56  1  0  0  0  0
 38 57  1  0  0  0  0
 57 58  2  0  0  0  0
 58 59  1  0  0  0  0
 59 60  2  0  0  0  0
 60 61  1  0  0  0  0
 61 62  2  0  0  0  0
 62 63  1  0  0  0  0
 63 64  1  0  0  0  0
 64 65  1  0  0  0  0
 63 66  2  0  0  0  0
 58 67  1  0  0  0  0
 67 68  1  0  0  0  0
 68 69  1  0  0  0  0
 69 70  1  0  0  0  0
 70 71  1  0  0  0  0
 71 72  1  0  0  0  0
 72 73  2  0  0  0  0
 73 74  1  0  0  0  0
 74 75  1  0  0  0  0
 72 76  1  0  0  0  0
 76 77  1  0  0  0  0
 77 78  1  0  0  0  0
 78 79  1  0  0  0  0
 79 80  1  0  0  0  0
 80 81  1  0  0  0  0
 81 82  2  0  0  0  0
 82 83  1  0  0  0  0
 83 84  2  0  0  0  0
 84 85  1  0  0  0  0
 85 86  1  0  0  0  0
 86 87  1  0  0  0  0
 85 88  2  0  0  0  0
 80 89  2  0  0  0  0
 89 90  1  0  0  0  0
 90 91  1  0  0  0  0
 91 92  1  0  0  0  0
 92 93  1  0  0  0  0
 93 94  1  0  0  0  0
 94 95  1  0  0  0  0
 95 96  1  0  0  0  0
 96 97  1  0  0  0  0
 97 98  1  0  0  0  0
 98 99  1  0  0  0  0
 96100  1  0  0  0  0
100101  1  0  0  0  0
 93102  1  0  0  0  0
102103  1  0  0  0  0
 89104  1  0  0  0  0
104105  2  0  0  0  0
105106  1  0  0  0  0
106107  1  0  0  0  0
107108  2  0  0  0  0
107109  1  0  0  0  0
109110  1  0  0  0  0
106111  2  0  0  0  0
111112  1  0  0  0  0
112113  1  0  0  0  0
112114  1  0  0  0  0
114115  2  0  0  0  0
111116  1  0  0  0  0
116117  2  0  0  0  0
117118  1  0  0  0  0
118119  2  0  0  0  0
118120  1  0  0  0  0
120121  2  0  0  0  0
121122  1  0  0  0  0
122123  1  0  0  0  0
122124  2  0  0  0  0
124125  1  0  0  0  0
124126  1  0  0  0  0
126127  2  0  0  0  0
127128  1  0  0  0  0
128129  2  0  0  0  0
129130  1  0  0  0  0
130131  3  0  0  0  0
129132  1  0  0  0  0
132133  3  0  0  0  0
 13  2  1  0  0  0  0
 56 19  1  0  0  0  0
 99 57  1  0  0  0  0
109104  1  0  0  0  0
128117  1  0  0  0  0
 12  5  1  0  0  0  0
 28 22  1  0  0  0  0
 35 29  1  0  0  0  0
 55 36  2  0  0  0  0
 66 59  1  0  0  0  0
 98 67  2  0  0  0  0
114105  1  0  0  0  0
127120  1  0  0  0  0
 47 41  1  0  0  0  0
 54 48  1  0  0  0  0
 97 69  2  0  0  0  0
 95 70  2  0  0  0  0
 75 71  2  0  0  0  0
 94 76  2  0  0  0  0
 92 77  2  0  0  0  0
 91 79  2  0  0  0  0
 88 81  1  0  0  0  0
  1134  1  0  0  0  0
  6135  1  0  0  0  0
 11136  1  0  0  0  0
 23137  1  0  0  0  0
 24138  1  0  0  0  0
 26139  1  0  0  0  0
 26140  1  0  0  0  0
 26141  1  0  0  0  0
 27142  1  0  0  0  0
 28143  1  0  0  0  0
 30144  1  0  0  0  0
 31145  1  0  0  0  0
 33146  1  0  0  0  0
 33147  1  0  0  0  0
 33148  1  0  0  0  0
 34149  1  0  0  0  0
 35150  1  0  0  0  0
 42151  1  0  0  0  0
 43152  1  0  0  0  0
 45153  1  0  0  0  0
 45154  1  0  0  0  0
 45155  1  0  0  0  0
 46156  1  0  0  0  0
 47157  1  0  0  0  0
 49158  1  0  0  0  0
 50159  1  0  0  0  0
 52160  1  0  0  0  0
 52161  1  0  0  0  0
 52162  1  0  0  0  0
 53163  1  0  0  0  0
 54164  1  0  0  0  0
 60165  1  0  0  0  0
 61166  1  0  0  0  0
 62167  1  0  0  0  0
 64168  1  0  0  0  0
 64169  1  0  0  0  0
 65170  1  0  0  0  0
 65171  1  0  0  0  0
 65172  1  0  0  0  0
 66173  1  0  0  0  0
 82174  1  0  0  0  0
 83175  1  0  0  0  0
 84176  1  0  0  0  0
 86177  1  0  0  0  0
 86178  1  0  0  0  0
 87179  1  0  0  0  0
 87180  1  0  0  0  0
 87181  1  0  0  0  0
 88182  1  0  0  0  0
100183  1  0  0  0  0
100184  1  0  0  0  0
101185  1  0  0  0  0
101186  1  0  0  0  0
101187  1  0  0  0  0
102188  1  0  0  0  0
102189  1  0  0  0  0
103190  1  0  0  0  0
103191  1  0  0  0  0
103192  1  0  0  0  0
110193  1  0  0  0  0
110194  1  0  0  0  0
110195  1  0  0  0  0
113196  1  0  0  0  0
113197  1  0  0  0  0
113198  1  0  0  0  0
116199  1  0  0  0  0
121200  1  0  0  0  0
126201  1  0  0  0  0
M  END
