
  xtb     02052208393D
 energy: -289.217359045705 gnorm: 0.000450450466 xtb: 6.4.1 (unknown)
159175  0     0  0            999 V2000
  -10.0596   -1.3245   -6.6007 C   0  0  0  0  0  0  0  0  0  0  0  0
   -9.6538   -2.5389   -7.1070 C   0  0  0  0  0  0  0  0  0  0  0  0
   -8.5084   -3.3131   -6.6324 C   0  0  0  0  0  0  0  0  0  0  0  0
   -7.7479   -3.0440   -5.7190 O   0  0  0  0  0  0  0  0  0  0  0  0
   -8.4434   -4.5136   -7.4926 C   0  0  0  0  0  0  0  0  0  0  0  0
   -7.5327   -5.5497   -7.4532 C   0  0  0  0  0  0  0  0  0  0  0  0
   -7.6811   -6.5702   -8.3792 C   0  0  0  0  0  0  0  0  0  0  0  0
   -6.8194   -7.5955   -8.3794 F   0  0  0  0  0  0  0  0  0  0  0  0
   -8.7182   -6.5382   -9.3105 C   0  0  0  0  0  0  0  0  0  0  0  0
   -8.8374   -7.5360  -10.1943 F   0  0  0  0  0  0  0  0  0  0  0  0
   -9.6342   -5.4962   -9.3480 C   0  0  0  0  0  0  0  0  0  0  0  0
   -9.4926   -4.4717   -8.4261 C   0  0  0  0  0  0  0  0  0  0  0  0
  -10.2721   -3.2513   -8.2035 C   0  0  0  0  0  0  0  0  0  0  0  0
  -11.3844   -2.8870   -8.9197 C   0  0  0  0  0  0  0  0  0  0  0  0
  -11.9255   -3.6452   -9.9793 C   0  0  0  0  0  0  0  0  0  0  0  0
  -12.4145   -4.2125  -10.8491 N   0  0  0  0  0  0  0  0  0  0  0  0
  -12.1529   -1.7231   -8.7126 C   0  0  0  0  0  0  0  0  0  0  0  0
  -12.8347   -0.8040   -8.6083 N   0  0  0  0  0  0  0  0  0  0  0  0
   -9.5279   -0.5598   -5.5588 C   0  0  0  0  0  0  0  0  0  0  0  0
  -10.0453    0.6928   -5.2204 C   0  0  0  0  0  0  0  0  0  0  0  0
   -9.3984    1.3152   -4.1648 C   0  0  0  0  0  0  0  0  0  0  0  0
   -9.6532    2.9630   -3.6165 S   0  0  0  0  0  0  0  0  0  0  0  0
  -11.2931    3.3851   -4.3015 C   0  0  0  0  0  0  0  0  0  0  0  0
  -12.4105    2.6134   -3.6289 C   0  0  0  0  0  0  0  0  0  0  0  0
   -8.3643    0.5217   -3.6477 C   0  0  0  0  0  0  0  0  0  0  0  0
   -8.1791   -0.9609   -4.5251 S   0  0  0  0  0  0  0  0  0  0  0  0
   -7.4724    0.8092   -2.5800 C   0  0  0  0  0  0  0  0  0  0  0  0
   -7.6953    1.4674   -1.3799 C   0  0  0  0  0  0  0  0  0  0  0  0
   -9.0056    1.8436   -0.8551 C   0  0  0  0  0  0  0  0  0  0  0  0
  -10.0908    0.9792   -0.9863 C   0  0  0  0  0  0  0  0  0  0  0  0
  -11.3135    1.3233   -0.4451 C   0  0  0  0  0  0  0  0  0  0  0  0
  -11.4664    2.5229    0.2302 C   0  0  0  0  0  0  0  0  0  0  0  0
  -10.3934    3.3927    0.3762 C   0  0  0  0  0  0  0  0  0  0  0  0
  -10.5306    4.6688    1.1543 C   0  0  0  0  0  0  0  0  0  0  0  0
  -10.0463    4.4649    2.5913 C   0  0  0  0  0  0  0  0  0  0  0  0
   -9.1668    3.0397   -0.1653 C   0  0  0  0  0  0  0  0  0  0  0  0
   -6.5039    1.5913   -0.6404 C   0  0  0  0  0  0  0  0  0  0  0  0
   -6.1448    2.3129    0.9107 S   0  0  0  0  0  0  0  0  0  0  0  0
   -4.5003    1.8011    0.7428 C   0  0  0  0  0  0  0  0  0  0  0  0
   -3.2822    1.8865    1.4332 C   0  0  0  0  0  0  0  0  0  0  0  0
   -2.9339    2.5798    2.6129 C   0  0  0  0  0  0  0  0  0  0  0  0
   -1.5619    2.5905    3.0298 C   0  0  0  0  0  0  0  0  0  0  0  0
   -1.3684    3.3233    4.1152 N   0  0  0  0  0  0  0  0  0  0  0  0
   -2.7922    3.9415    4.5766 S   0  0  0  0  0  0  0  0  0  0  0  0
   -3.7104    3.3001    3.4069 N   0  0  0  0  0  0  0  0  0  0  0  0
   -0.6253    1.8153    2.3119 C   0  0  0  0  0  0  0  0  0  0  0  0
    0.7256    1.5377    2.5678 C   0  0  0  0  0  0  0  0  0  0  0  0
    1.9651    1.9750    3.6942 S   0  0  0  0  0  0  0  0  0  0  0  0
    3.0515    0.8700    2.8821 C   0  0  0  0  0  0  0  0  0  0  0  0
    4.3821    0.4925    3.1328 C   0  0  0  0  0  0  0  0  0  0  0  0
    5.1458    0.9666    4.2876 C   0  0  0  0  0  0  0  0  0  0  0  0
    5.8159    0.0644    5.1102 C   0  0  0  0  0  0  0  0  0  0  0  0
    6.5185    0.5256    6.2059 C   0  0  0  0  0  0  0  0  0  0  0  0
    6.5529    1.8798    6.4956 C   0  0  0  0  0  0  0  0  0  0  0  0
    5.8744    2.7899    5.6963 C   0  0  0  0  0  0  0  0  0  0  0  0
    5.8489    4.2516    6.0369 C   0  0  0  0  0  0  0  0  0  0  0  0
    4.5901    4.5841    6.8406 C   0  0  0  0  0  0  0  0  0  0  0  0
    5.1690    2.3207    4.5984 C   0  0  0  0  0  0  0  0  0  0  0  0
    4.8196   -0.4470    2.2100 C   0  0  0  0  0  0  0  0  0  0  0  0
    3.5615   -0.9354    1.0948 S   0  0  0  0  0  0  0  0  0  0  0  0
    2.4699    0.2094    1.7965 C   0  0  0  0  0  0  0  0  0  0  0  0
    1.1348    0.5969    1.6195 C   0  0  0  0  0  0  0  0  0  0  0  0
    0.1026    0.3077    0.7689 N   0  0  0  0  0  0  0  0  0  0  0  0
   -0.9964    1.0516    1.1677 C   0  0  0  0  0  0  0  0  0  0  0  0
   -2.3159    1.1815    0.6591 C   0  0  0  0  0  0  0  0  0  0  0  0
   -2.9349    0.7217   -0.4924 N   0  0  0  0  0  0  0  0  0  0  0  0
   -4.2485    1.1028   -0.4409 C   0  0  0  0  0  0  0  0  0  0  0  0
   -5.3927    0.9905   -1.2391 C   0  0  0  0  0  0  0  0  0  0  0  0
   -5.8056    0.2749   -2.7553 S   0  0  0  0  0  0  0  0  0  0  0  0
   -2.3653    0.2989   -1.7523 C   0  0  0  0  0  0  0  0  0  0  0  0
   -1.4206    1.3535   -2.3226 C   0  0  0  0  0  0  0  0  0  0  0  0
    0.1776   -0.8744   -0.0601 C   0  0  0  0  0  0  0  0  0  0  0  0
   -0.7503   -1.9752    0.4471 C   0  0  0  0  0  0  0  0  0  0  0  0
    6.1255   -1.0333    2.0954 C   0  0  0  0  0  0  0  0  0  0  0  0
    7.2944   -0.3594    2.4409 C   0  0  0  0  0  0  0  0  0  0  0  0
    7.3176    0.9921    2.6796 O   0  0  0  0  0  0  0  0  0  0  0  0
    6.9046    1.8276    1.6016 C   0  0  0  0  0  0  0  0  0  0  0  0
    7.6094    1.4949    0.2928 C   0  0  0  0  0  0  0  0  0  0  0  0
    8.5386   -1.0474    2.5268 C   0  0  0  0  0  0  0  0  0  0  0  0
    9.6228   -0.5603    3.1222 O   0  0  0  0  0  0  0  0  0  0  0  0
    9.6103    0.5983    3.9459 C   0  0  0  0  0  0  0  0  0  0  0  0
   10.8427    0.5169    4.8340 C   0  0  0  0  0  0  0  0  0  0  0  0
    8.6600   -2.3477    1.9985 C   0  0  0  0  0  0  0  0  0  0  0  0
    7.4891   -3.0160    1.5422 C   0  0  0  0  0  0  0  0  0  0  0  0
    6.2300   -2.3684    1.5968 C   0  0  0  0  0  0  0  0  0  0  0  0
    5.1285   -2.9854    1.1539 N   0  0  0  0  0  0  0  0  0  0  0  0
    5.2461   -4.1997    0.6747 C   0  0  0  0  0  0  0  0  0  0  0  0
    6.4911   -4.8428    0.6271 C   0  0  0  0  0  0  0  0  0  0  0  0
    7.5884   -4.2591    1.0414 N   0  0  0  0  0  0  0  0  0  0  0  0
    9.8972   -3.0518    1.9329 C   0  0  0  0  0  0  0  0  0  0  0  0
   11.1274   -2.5194    1.6751 C   0  0  0  0  0  0  0  0  0  0  0  0
   11.3678   -1.2080    1.0342 C   0  0  0  0  0  0  0  0  0  0  0  0
   10.5623   -0.3582    0.7207 O   0  0  0  0  0  0  0  0  0  0  0  0
   12.8168   -1.1851    0.7229 C   0  0  0  0  0  0  0  0  0  0  0  0
   13.5402   -0.1863    0.1018 C   0  0  0  0  0  0  0  0  0  0  0  0
   14.8946   -0.4001   -0.0975 C   0  0  0  0  0  0  0  0  0  0  0  0
   15.6349    0.5462   -0.6900 F   0  0  0  0  0  0  0  0  0  0  0  0
   15.4941   -1.5911    0.3120 C   0  0  0  0  0  0  0  0  0  0  0  0
   16.8028   -1.7733    0.0999 F   0  0  0  0  0  0  0  0  0  0  0  0
   14.7673   -2.5962    0.9326 C   0  0  0  0  0  0  0  0  0  0  0  0
   13.4128   -2.3866    1.1403 C   0  0  0  0  0  0  0  0  0  0  0  0
   12.3897   -3.2246    1.7627 C   0  0  0  0  0  0  0  0  0  0  0  0
   12.6105   -4.4166    2.3995 C   0  0  0  0  0  0  0  0  0  0  0  0
   13.8678   -5.0521    2.4721 C   0  0  0  0  0  0  0  0  0  0  0  0
   14.8640   -5.6160    2.5541 N   0  0  0  0  0  0  0  0  0  0  0  0
   11.6289   -5.1486    3.1027 C   0  0  0  0  0  0  0  0  0  0  0  0
   10.9059   -5.7889    3.7232 N   0  0  0  0  0  0  0  0  0  0  0  0
  -10.9205   -0.8648   -7.0701 H   0  0  0  0  0  0  0  0  0  0  0  0
   -6.7325   -5.5692   -6.7308 H   0  0  0  0  0  0  0  0  0  0  0  0
  -10.4165   -5.5206  -10.0885 H   0  0  0  0  0  0  0  0  0  0  0  0
  -10.8617    1.1187   -5.7750 H   0  0  0  0  0  0  0  0  0  0  0  0
  -11.2689    3.2334   -5.3796 H   0  0  0  0  0  0  0  0  0  0  0  0
  -11.3821    4.4527   -4.1011 H   0  0  0  0  0  0  0  0  0  0  0  0
  -12.4044    2.8033   -2.5580 H   0  0  0  0  0  0  0  0  0  0  0  0
  -12.2959    1.5431   -3.7866 H   0  0  0  0  0  0  0  0  0  0  0  0
  -13.3698    2.9238   -4.0378 H   0  0  0  0  0  0  0  0  0  0  0  0
   -9.9670    0.0363   -1.4986 H   0  0  0  0  0  0  0  0  0  0  0  0
  -12.1533    0.6510   -0.5465 H   0  0  0  0  0  0  0  0  0  0  0  0
  -12.4275    2.7844    0.6499 H   0  0  0  0  0  0  0  0  0  0  0  0
   -9.9357    5.4536    0.6830 H   0  0  0  0  0  0  0  0  0  0  0  0
  -11.5743    4.9889    1.1653 H   0  0  0  0  0  0  0  0  0  0  0  0
  -10.1413    5.3875    3.1587 H   0  0  0  0  0  0  0  0  0  0  0  0
  -10.6348    3.6929    3.0823 H   0  0  0  0  0  0  0  0  0  0  0  0
   -9.0034    4.1565    2.5989 H   0  0  0  0  0  0  0  0  0  0  0  0
   -8.3295    3.7149   -0.0716 H   0  0  0  0  0  0  0  0  0  0  0  0
    5.7779   -0.9931    4.8907 H   0  0  0  0  0  0  0  0  0  0  0  0
    7.0390   -0.1751    6.8429 H   0  0  0  0  0  0  0  0  0  0  0  0
    7.1085    2.2314    7.3532 H   0  0  0  0  0  0  0  0  0  0  0  0
    6.7326    4.5134    6.6220 H   0  0  0  0  0  0  0  0  0  0  0  0
    5.8563    4.8452    5.1204 H   0  0  0  0  0  0  0  0  0  0  0  0
    3.6993    4.3332    6.2693 H   0  0  0  0  0  0  0  0  0  0  0  0
    4.5729    4.0150    7.7674 H   0  0  0  0  0  0  0  0  0  0  0  0
    4.5624    5.6438    7.0829 H   0  0  0  0  0  0  0  0  0  0  0  0
    4.6455    3.0202    3.9628 H   0  0  0  0  0  0  0  0  0  0  0  0
   -3.2036    0.1581   -2.4391 H   0  0  0  0  0  0  0  0  0  0  0  0
   -1.8729   -0.6684   -1.6479 H   0  0  0  0  0  0  0  0  0  0  0  0
   -1.0038    1.0066   -3.2643 H   0  0  0  0  0  0  0  0  0  0  0  0
   -1.9638    2.2781   -2.5043 H   0  0  0  0  0  0  0  0  0  0  0  0
   -0.6067    1.5685   -1.6342 H   0  0  0  0  0  0  0  0  0  0  0  0
    1.2119   -1.2232   -0.0062 H   0  0  0  0  0  0  0  0  0  0  0  0
   -0.0234   -0.6274   -1.1030 H   0  0  0  0  0  0  0  0  0  0  0  0
   -0.4617   -2.2674    1.4540 H   0  0  0  0  0  0  0  0  0  0  0  0
   -1.7843   -1.6396    0.4752 H   0  0  0  0  0  0  0  0  0  0  0  0
   -0.6803   -2.8459   -0.1992 H   0  0  0  0  0  0  0  0  0  0  0  0
    7.1720    2.8296    1.9453 H   0  0  0  0  0  0  0  0  0  0  0  0
    5.8165    1.7821    1.4700 H   0  0  0  0  0  0  0  0  0  0  0  0
    8.6787    1.3782    0.4547 H   0  0  0  0  0  0  0  0  0  0  0  0
    7.4415    2.2938   -0.4238 H   0  0  0  0  0  0  0  0  0  0  0  0
    7.2279    0.5656   -0.1259 H   0  0  0  0  0  0  0  0  0  0  0  0
    9.6500    1.4954    3.3200 H   0  0  0  0  0  0  0  0  0  0  0  0
    8.6973    0.6313    4.5488 H   0  0  0  0  0  0  0  0  0  0  0  0
   10.8052   -0.3790    5.4482 H   0  0  0  0  0  0  0  0  0  0  0  0
   11.7414    0.4814    4.2239 H   0  0  0  0  0  0  0  0  0  0  0  0
   10.8847    1.3890    5.4795 H   0  0  0  0  0  0  0  0  0  0  0  0
    4.3408   -4.6716    0.3204 H   0  0  0  0  0  0  0  0  0  0  0  0
    6.5960   -5.8476    0.2421 H   0  0  0  0  0  0  0  0  0  0  0  0
    9.8027   -4.1266    2.0263 H   0  0  0  0  0  0  0  0  0  0  0  0
   13.0736    0.7318   -0.2181 H   0  0  0  0  0  0  0  0  0  0  0  0
   15.2744   -3.5011    1.2249 H   0  0  0  0  0  0  0  0  0  0  0  0
  1  2  2  0  0  0  0
  2  3  1  0  0  0  0
  3  4  2  0  0  0  0
  3  5  1  0  0  0  0
  5  6  2  0  0  0  0
  6  7  1  0  0  0  0
  7  8  1  0  0  0  0
  7  9  2  0  0  0  0
  9 10  1  0  0  0  0
  9 11  1  0  0  0  0
 11 12  2  0  0  0  0
 12 13  1  0  0  0  0
 13 14  2  0  0  0  0
 14 15  1  0  0  0  0
 15 16  3  0  0  0  0
 14 17  1  0  0  0  0
 17 18  3  0  0  0  0
  1 19  1  0  0  0  0
 19 20  2  0  0  0  0
 20 21  1  0  0  0  0
 21 22  1  0  0  0  0
 22 23  1  0  0  0  0
 23 24  1  0  0  0  0
 21 25  2  0  0  0  0
 25 26  1  0  0  0  0
 25 27  1  0  0  0  0
 27 28  2  0  0  0  0
 28 29  1  0  0  0  0
 29 30  2  0  0  0  0
 30 31  1  0  0  0  0
 31 32  2  0  0  0  0
 32 33  1  0  0  0  0
 33 34  1  0  0  0  0
 34 35  1  0  0  0  0
 33 36  2  0  0  0  0
 28 37  1  0  0  0  0
 37 38  1  0  0  0  0
 38 39  1  0  0  0  0
 39 40  1  0  0  0  0
 40 41  1  0  0  0  0
 41 42  1  0  0  0  0
 42 43  2  0  0  0  0
 43 44  1  0  0  0  0
 44 45  1  0  0  0  0
 42 46  1  0  0  0  0
 46 47  1  0  0  0  0
 47 48  1  0  0  0  0
 48 49  1  0  0  0  0
 49 50  1  0  0  0  0
 50 51  1  0  0  0  0
 51 52  2  0  0  0  0
 52 53  1  0  0  0  0
 53 54  2  0  0  0  0
 54 55  1  0  0  0  0
 55 56  1  0  0  0  0
 56 57  1  0  0  0  0
 55 58  2  0  0  0  0
 50 59  2  0  0  0  0
 59 60  1  0  0  0  0
 60 61  1  0  0  0  0
 61 62  1  0  0  0  0
 62 63  1  0  0  0  0
 63 64  1  0  0  0  0
 64 65  1  0  0  0  0
 65 66  1  0  0  0  0
 66 67  1  0  0  0  0
 67 68  1  0  0  0  0
 68 69  1  0  0  0  0
 66 70  1  0  0  0  0
 70 71  1  0  0  0  0
 63 72  1  0  0  0  0
 72 73  1  0  0  0  0
 59 74  1  0  0  0  0
 74 75  2  0  0  0  0
 75 76  1  0  0  0  0
 76 77  1  0  0  0  0
 77 78  1  0  0  0  0
 75 79  1  0  0  0  0
 79 80  1  0  0  0  0
 80 81  1  0  0  0  0
 81 82  1  0  0  0  0
 79 83  2  0  0  0  0
 83 84  1  0  0  0  0
 84 85  2  0  0  0  0
 85 86  1  0  0  0  0
 86 87  2  0  0  0  0
 87 88  1  0  0  0  0
 88 89  2  0  0  0  0
 83 90  1  0  0  0  0
 90 91  2  0  0  0  0
 91 92  1  0  0  0  0
 92 93  2  0  0  0  0
 92 94  1  0  0  0  0
 94 95  2  0  0  0  0
 95 96  1  0  0  0  0
 96 97  1  0  0  0  0
 96 98  2  0  0  0  0
 98 99  1  0  0  0  0
 98100  1  0  0  0  0
100101  2  0  0  0  0
101102  1  0  0  0  0
102103  2  0  0  0  0
103104  1  0  0  0  0
104105  3  0  0  0  0
103106  1  0  0  0  0
106107  3  0  0  0  0
 13  2  1  0  0  0  0
 26 19  1  0  0  0  0
 69 27  1  0  0  0  0
 85 74  1  0  0  0  0
102 91  1  0  0  0  0
 12  5  1  0  0  0  0
 36 29  1  0  0  0  0
 68 37  2  0  0  0  0
 89 84  1  0  0  0  0
101 94  1  0  0  0  0
 67 39  2  0  0  0  0
 65 40  2  0  0  0  0
 45 41  2  0  0  0  0
 64 46  2  0  0  0  0
 62 47  2  0  0  0  0
 61 49  2  0  0  0  0
 58 51  1  0  0  0  0
  1108  1  0  0  0  0
  6109  1  0  0  0  0
 11110  1  0  0  0  0
 20111  1  0  0  0  0
 23112  1  0  0  0  0
 23113  1  0  0  0  0
 24114  1  0  0  0  0
 24115  1  0  0  0  0
 24116  1  0  0  0  0
 30117  1  0  0  0  0
 31118  1  0  0  0  0
 32119  1  0  0  0  0
 34120  1  0  0  0  0
 34121  1  0  0  0  0
 35122  1  0  0  0  0
 35123  1  0  0  0  0
 35124  1  0  0  0  0
 36125  1  0  0  0  0
 52126  1  0  0  0  0
 53127  1  0  0  0  0
 54128  1  0  0  0  0
 56129  1  0  0  0  0
 56130  1  0  0  0  0
 57131  1  0  0  0  0
 57132  1  0  0  0  0
 57133  1  0  0  0  0
 58134  1  0  0  0  0
 70135  1  0  0  0  0
 70136  1  0  0  0  0
 71137  1  0  0  0  0
 71138  1  0  0  0  0
 71139  1  0  0  0  0
 72140  1  0  0  0  0
 72141  1  0  0  0  0
 73142  1  0  0  0  0
 73143  1  0  0  0  0
 73144  1  0  0  0  0
 77145  1  0  0  0  0
 77146  1  0  0  0  0
 78147  1  0  0  0  0
 78148  1  0  0  0  0
 78149  1  0  0  0  0
 81150  1  0  0  0  0
 81151  1  0  0  0  0
 82152  1  0  0  0  0
 82153  1  0  0  0  0
 82154  1  0  0  0  0
 87155  1  0  0  0  0
 88156  1  0  0  0  0
 90157  1  0  0  0  0
 95158  1  0  0  0  0
100159  1  0  0  0  0
M  END
