197

C          3.90860       12.49700       -3.59270
C          3.47670       13.06220       -2.41370
C          3.23980       12.33860       -1.16600
O          3.33700       11.14080       -0.96380
C          2.84550       13.35950       -0.17180
C          2.53210       13.18490        1.16080
C          2.19390       14.31160        1.89360
F          1.88320       14.18990        3.19090
C          2.17480       15.56960        1.29310
F          1.84630       16.64110        2.02470
C          2.48870       15.74360       -0.04750
C          2.82790       14.62240       -0.78720
C          3.20560       14.46570       -2.19410
C          3.27050       15.48660       -3.10880
C          3.61490       15.35260       -4.46960
N          3.88000       15.33100       -5.58750
C          2.98890       16.83600       -2.80910
N          2.77330       17.94990       -2.63460
C          4.22350       11.16920       -3.89360
C          4.67830       10.78400       -5.15650
C          4.95460        9.43190       -5.28060
S          5.42180        8.61800       -6.76530
C          4.67190        9.69270       -8.04550
C          3.15930        9.73400       -7.95930
C          4.73510        8.74120       -4.08100
S          4.14710        9.78650       -2.82840
C          4.89180        7.35690       -3.81310
C          5.83930        6.45670       -4.27960
C          7.03530        6.80030       -5.04360
C          7.77350        7.94240       -4.73820
C          8.92580        8.22540       -5.44440
C          9.35620        7.37720       -6.45020
C          8.63780        6.23020       -6.76200
C          9.12180        5.27060       -7.81010
C          9.87780        4.11180       -7.15680
C          7.48240        5.95040       -6.04990
C          5.58230        5.15860       -3.80000
S          6.42670        3.64110       -4.00070
C          5.26950        2.88750       -2.95950
C          5.01250        1.63420       -2.38770
C          5.76250        0.43970       -2.43510
C          5.32940       -0.67730       -1.65020
N          6.14590       -1.71460       -1.75020
S          7.35630       -1.31740       -2.75050
N          6.88400        0.19350       -3.09400
C          4.11460       -0.57690       -0.93880
C          3.40740       -1.54690       -0.21480
S          3.56990       -3.19900        0.27930
C          1.96480       -3.12300        0.96850
C          1.18050       -4.06630        1.65510
C          1.66410       -5.40570        1.99580
C          1.58120       -5.88280        3.30210
C          2.07010       -7.13720        3.60840
C          2.66110       -7.91480        2.62740
C          2.77530       -7.44430        1.32620
C          3.50260       -8.23610        0.27910
C          4.96700       -7.79610        0.21470
C          2.26900       -6.19000        1.02130
C         -0.05750       -3.54320        1.99760
S         -0.23410       -1.86740        1.48890
C          1.35590       -1.87590        0.81720
C          2.19310       -0.96790        0.15720
N          2.13750        0.32500       -0.28170
C          3.31760        0.60710       -0.94850
C          3.82650        1.76320       -1.60470
N          3.41720        3.08330       -1.67360
C          4.28100        3.75720       -2.49350
C          4.46830        5.06360       -2.96000
S          3.71850        6.60390       -2.73940
C          2.41920        3.83320       -0.94810
C          1.22030        4.18730       -1.82860
C          0.90740        1.05960       -0.10650
C          0.75830        1.58670        1.32120
C         -1.18650       -4.24280        2.50150
C         -2.36970       -3.71550        3.01760
N         -2.59930       -2.38690        3.33220
C         -1.66030       -1.63360        4.04190
C         -0.72830       -2.24630        4.87840
C          0.22070       -1.49110        5.53510
C          0.26570       -0.10810        5.39430
C          1.30440        0.69390        6.11670
C         -0.67770        0.49790        4.57520
C         -1.62480       -0.24720        3.90100
C         -3.88970       -1.87940        3.08320
C         -4.51120       -2.14640        1.86650
C         -5.77730       -1.65760        1.61300
C         -6.45660       -0.90010        2.56030
C         -7.81670       -0.34840        2.26700
C         -5.83020       -0.64790        3.77570
C         -4.56370       -1.12900        4.04140
C         -3.33330       -4.72970        3.20550
S         -4.95880       -4.74260        3.78370
C         -5.03560       -6.50550        3.61300
C         -3.80380       -7.03930        3.18130
N         -3.51470       -8.35250        2.96260
C         -4.03880       -9.38930        3.74810
C         -4.37840      -10.60410        3.16040
C         -4.89340      -11.62550        3.93450
C         -5.08210      -11.46630        5.30220
C         -5.68020      -12.55590        6.13470
C         -4.72180      -10.25470        5.88330
C         -4.20180       -9.22740        5.12310
C         -2.59040       -8.67060        1.94150
C         -2.73930       -8.10810        0.67640
C         -1.81980       -8.39690       -0.31060
C         -0.74400       -9.24470       -0.06570
C          0.23470       -9.55180       -1.15580
C         -0.61620       -9.80840        1.19700
C         -1.52900       -9.53020        2.19620
C         -2.88760       -6.00420        2.89600
S         -1.25150       -5.99090        2.33550
C         -6.23090       -7.17920        3.87000
C         -7.50360       -6.65580        3.82950
C         -8.59070       -7.29080        4.59580
O         -8.56130       -8.35470        5.17660
C         -9.71550       -6.32180        4.54300
C        -10.93200       -6.36800        5.19190
C        -11.80180       -5.30360        5.00680
F        -12.99280       -5.30700        5.62330
C        -11.44970       -4.22860        4.19360
F        -12.30180       -3.20400        4.04990
C        -10.23190       -4.18720        3.52910
C         -9.36220       -5.24850        3.70690
C         -8.03660       -5.51280        3.14360
C         -7.55230       -4.95350        1.98320
C         -6.41360       -5.43000        1.30670
N         -5.52890       -5.82890        0.69050
C         -8.22040       -3.94490        1.26910
N         -8.73000       -3.12630        0.64360
H          4.05040       13.16820       -4.43070
H          2.54910       12.20970        1.62050
H          2.45910       16.73780       -0.46180
H          4.79230       11.50260       -5.94810
H          5.11810       10.68330       -7.97460
H          4.99740        9.23070       -8.97730
H          2.75000        8.72940       -8.03540
H          2.83420       10.16870       -7.01620
H          2.76060       10.33670       -8.77260
H          7.45010        8.59300       -3.93900
H          9.49550        9.11170       -5.20630
H         10.25900        7.60740       -6.99740
H          8.27090        4.87460       -8.36790
H          9.78150        5.78560       -8.51080
H         10.73750        4.48550       -6.60500
H          9.23060        3.58120       -6.46230
H         10.22740        3.41200       -7.91210
H          6.90610        5.07130       -6.29670
H          1.14470       -5.26170        4.07070
H          2.00100       -7.50760        4.62070
H          3.04840       -8.89200        2.87790
H          3.03910       -8.07740       -0.69600
H          3.45540       -9.30090        0.51560
H          5.45280       -7.95780        1.17440
H          5.50140       -8.36120       -0.54520
H          5.03260       -6.73770       -0.02680
H          2.34010       -5.81670        0.01000
H          2.12200        3.27950       -0.06220
H          2.89000        4.76470       -0.61460
H          0.44670        4.65520       -1.22660
H          0.80620        3.30600       -2.31440
H          1.52100        4.88590       -2.60450
H          0.08390        0.36450       -0.30460
H          0.84940        1.85680       -0.84140
H          0.64580        0.75950        2.01760
H          1.62760        2.16580        1.62650
H         -0.12600        2.21380        1.39020
H         -0.75390       -3.31770        5.01400
H          0.93850       -1.98270        6.17610
H          1.16670        0.60920        7.19420
H          2.30250        0.32670        5.88090
H          1.24500        1.74430        5.84320
H         -0.66650        1.57150        4.45200
H         -2.33670        0.23750        3.25010
H         -3.99540       -2.73550        1.12180
H         -6.24570       -1.86430        0.66230
H         -8.35130       -0.99370        1.57380
H         -8.39810       -0.24070        3.18010
H         -7.72670        0.63660        1.80760
H         -6.34500       -0.07010        4.52980
H         -4.09230       -0.93140        4.99300
H         -4.24640      -10.73480        2.09680
H         -5.16360      -12.55950        3.46430
H         -5.64170      -13.51060        5.61650
H         -6.72380      -12.32310        6.34700
H         -5.15940      -12.64660        7.08580
H         -4.85160      -10.11520        6.94620
H         -3.91870       -8.29360        5.58680
H         -3.57340       -7.45050        0.47950
H         -1.93930       -7.95930       -1.29070
H         -0.23260      -10.18240       -1.91230
H          1.10430      -10.07180       -0.76400
H          0.56030       -8.63520       -1.64360
H          0.21280      -10.46810        1.40650
H         -1.41920       -9.96680        3.17790
H         -6.17150       -8.21000        4.20220
H        -11.20420       -7.19840        5.82350
H         -9.99840       -3.33460        2.91280
