
  xtb     02252206393D
 energy: -342.915211846433 gnorm: 0.000478830020 xtb: 6.4.1 (unknown)
197217  0     0  0            999 V2000
    3.9086   12.4970   -3.5927 C   0  0  0  0  0  0  0  0  0  0  0  0
    3.4767   13.0622   -2.4137 C   0  0  0  0  0  0  0  0  0  0  0  0
    3.2398   12.3386   -1.1660 C   0  0  0  0  0  0  0  0  0  0  0  0
    3.3370   11.1408   -0.9638 O   0  0  0  0  0  0  0  0  0  0  0  0
    2.8455   13.3595   -0.1718 C   0  0  0  0  0  0  0  0  0  0  0  0
    2.5321   13.1849    1.1608 C   0  0  0  0  0  0  0  0  0  0  0  0
    2.1939   14.3116    1.8936 C   0  0  0  0  0  0  0  0  0  0  0  0
    1.8832   14.1899    3.1909 F   0  0  0  0  0  0  0  0  0  0  0  0
    2.1748   15.5696    1.2931 C   0  0  0  0  0  0  0  0  0  0  0  0
    1.8463   16.6411    2.0247 F   0  0  0  0  0  0  0  0  0  0  0  0
    2.4887   15.7436   -0.0475 C   0  0  0  0  0  0  0  0  0  0  0  0
    2.8279   14.6224   -0.7872 C   0  0  0  0  0  0  0  0  0  0  0  0
    3.2056   14.4657   -2.1941 C   0  0  0  0  0  0  0  0  0  0  0  0
    3.2705   15.4866   -3.1088 C   0  0  0  0  0  0  0  0  0  0  0  0
    3.6149   15.3526   -4.4696 C   0  0  0  0  0  0  0  0  0  0  0  0
    3.8800   15.3310   -5.5875 N   0  0  0  0  0  0  0  0  0  0  0  0
    2.9889   16.8360   -2.8091 C   0  0  0  0  0  0  0  0  0  0  0  0
    2.7733   17.9499   -2.6346 N   0  0  0  0  0  0  0  0  0  0  0  0
    4.2235   11.1692   -3.8936 C   0  0  0  0  0  0  0  0  0  0  0  0
    4.6783   10.7840   -5.1565 C   0  0  0  0  0  0  0  0  0  0  0  0
    4.9546    9.4319   -5.2806 C   0  0  0  0  0  0  0  0  0  0  0  0
    5.4218    8.6180   -6.7653 S   0  0  0  0  0  0  0  0  0  0  0  0
    4.6719    9.6927   -8.0455 C   0  0  0  0  0  0  0  0  0  0  0  0
    3.1593    9.7340   -7.9593 C   0  0  0  0  0  0  0  0  0  0  0  0
    4.7351    8.7412   -4.0810 C   0  0  0  0  0  0  0  0  0  0  0  0
    4.1471    9.7865   -2.8284 S   0  0  0  0  0  0  0  0  0  0  0  0
    4.8918    7.3569   -3.8131 C   0  0  0  0  0  0  0  0  0  0  0  0
    5.8393    6.4567   -4.2796 C   0  0  0  0  0  0  0  0  0  0  0  0
    7.0353    6.8003   -5.0436 C   0  0  0  0  0  0  0  0  0  0  0  0
    7.7735    7.9424   -4.7382 C   0  0  0  0  0  0  0  0  0  0  0  0
    8.9258    8.2254   -5.4444 C   0  0  0  0  0  0  0  0  0  0  0  0
    9.3562    7.3772   -6.4502 C   0  0  0  0  0  0  0  0  0  0  0  0
    8.6378    6.2302   -6.7620 C   0  0  0  0  0  0  0  0  0  0  0  0
    9.1218    5.2706   -7.8101 C   0  0  0  0  0  0  0  0  0  0  0  0
    9.8778    4.1118   -7.1568 C   0  0  0  0  0  0  0  0  0  0  0  0
    7.4824    5.9504   -6.0499 C   0  0  0  0  0  0  0  0  0  0  0  0
    5.5823    5.1586   -3.8000 C   0  0  0  0  0  0  0  0  0  0  0  0
    6.4267    3.6411   -4.0007 S   0  0  0  0  0  0  0  0  0  0  0  0
    5.2695    2.8875   -2.9595 C   0  0  0  0  0  0  0  0  0  0  0  0
    5.0125    1.6342   -2.3877 C   0  0  0  0  0  0  0  0  0  0  0  0
    5.7625    0.4397   -2.4351 C   0  0  0  0  0  0  0  0  0  0  0  0
    5.3294   -0.6773   -1.6502 C   0  0  0  0  0  0  0  0  0  0  0  0
    6.1459   -1.7146   -1.7502 N   0  0  0  0  0  0  0  0  0  0  0  0
    7.3563   -1.3174   -2.7505 S   0  0  0  0  0  0  0  0  0  0  0  0
    6.8840    0.1935   -3.0940 N   0  0  0  0  0  0  0  0  0  0  0  0
    4.1146   -0.5769   -0.9388 C   0  0  0  0  0  0  0  0  0  0  0  0
    3.4074   -1.5469   -0.2148 C   0  0  0  0  0  0  0  0  0  0  0  0
    3.5699   -3.1990    0.2793 S   0  0  0  0  0  0  0  0  0  0  0  0
    1.9648   -3.1230    0.9685 C   0  0  0  0  0  0  0  0  0  0  0  0
    1.1805   -4.0663    1.6551 C   0  0  0  0  0  0  0  0  0  0  0  0
    1.6641   -5.4057    1.9958 C   0  0  0  0  0  0  0  0  0  0  0  0
    1.5812   -5.8828    3.3021 C   0  0  0  0  0  0  0  0  0  0  0  0
    2.0701   -7.1372    3.6084 C   0  0  0  0  0  0  0  0  0  0  0  0
    2.6611   -7.9148    2.6274 C   0  0  0  0  0  0  0  0  0  0  0  0
    2.7753   -7.4443    1.3262 C   0  0  0  0  0  0  0  0  0  0  0  0
    3.5026   -8.2361    0.2791 C   0  0  0  0  0  0  0  0  0  0  0  0
    4.9670   -7.7961    0.2147 C   0  0  0  0  0  0  0  0  0  0  0  0
    2.2690   -6.1900    1.0213 C   0  0  0  0  0  0  0  0  0  0  0  0
   -0.0575   -3.5432    1.9976 C   0  0  0  0  0  0  0  0  0  0  0  0
   -0.2341   -1.8674    1.4889 S   0  0  0  0  0  0  0  0  0  0  0  0
    1.3559   -1.8759    0.8172 C   0  0  0  0  0  0  0  0  0  0  0  0
    2.1931   -0.9679    0.1572 C   0  0  0  0  0  0  0  0  0  0  0  0
    2.1375    0.3250   -0.2817 N   0  0  0  0  0  0  0  0  0  0  0  0
    3.3176    0.6071   -0.9485 C   0  0  0  0  0  0  0  0  0  0  0  0
    3.8265    1.7632   -1.6047 C   0  0  0  0  0  0  0  0  0  0  0  0
    3.4172    3.0833   -1.6736 N   0  0  0  0  0  0  0  0  0  0  0  0
    4.2810    3.7572   -2.4935 C   0  0  0  0  0  0  0  0  0  0  0  0
    4.4683    5.0636   -2.9600 C   0  0  0  0  0  0  0  0  0  0  0  0
    3.7185    6.6039   -2.7394 S   0  0  0  0  0  0  0  0  0  0  0  0
    2.4192    3.8332   -0.9481 C   0  0  0  0  0  0  0  0  0  0  0  0
    1.2203    4.1873   -1.8286 C   0  0  0  0  0  0  0  0  0  0  0  0
    0.9074    1.0596   -0.1065 C   0  0  0  0  0  0  0  0  0  0  0  0
    0.7583    1.5867    1.3212 C   0  0  0  0  0  0  0  0  0  0  0  0
   -1.1865   -4.2428    2.5015 C   0  0  0  0  0  0  0  0  0  0  0  0
   -2.3697   -3.7155    3.0176 C   0  0  0  0  0  0  0  0  0  0  0  0
   -2.5993   -2.3869    3.3322 N   0  0  0  0  0  0  0  0  0  0  0  0
   -1.6603   -1.6336    4.0419 C   0  0  0  0  0  0  0  0  0  0  0  0
   -0.7283   -2.2463    4.8784 C   0  0  0  0  0  0  0  0  0  0  0  0
    0.2207   -1.4911    5.5351 C   0  0  0  0  0  0  0  0  0  0  0  0
    0.2657   -0.1081    5.3943 C   0  0  0  0  0  0  0  0  0  0  0  0
    1.3044    0.6939    6.1167 C   0  0  0  0  0  0  0  0  0  0  0  0
   -0.6777    0.4979    4.5752 C   0  0  0  0  0  0  0  0  0  0  0  0
   -1.6248   -0.2472    3.9010 C   0  0  0  0  0  0  0  0  0  0  0  0
   -3.8897   -1.8794    3.0832 C   0  0  0  0  0  0  0  0  0  0  0  0
   -4.5112   -2.1464    1.8665 C   0  0  0  0  0  0  0  0  0  0  0  0
   -5.7773   -1.6576    1.6130 C   0  0  0  0  0  0  0  0  0  0  0  0
   -6.4566   -0.9001    2.5603 C   0  0  0  0  0  0  0  0  0  0  0  0
   -7.8167   -0.3484    2.2670 C   0  0  0  0  0  0  0  0  0  0  0  0
   -5.8302   -0.6479    3.7757 C   0  0  0  0  0  0  0  0  0  0  0  0
   -4.5637   -1.1290    4.0414 C   0  0  0  0  0  0  0  0  0  0  0  0
   -3.3333   -4.7297    3.2055 C   0  0  0  0  0  0  0  0  0  0  0  0
   -4.9588   -4.7426    3.7837 S   0  0  0  0  0  0  0  0  0  0  0  0
   -5.0356   -6.5055    3.6130 C   0  0  0  0  0  0  0  0  0  0  0  0
   -3.8038   -7.0393    3.1813 C   0  0  0  0  0  0  0  0  0  0  0  0
   -3.5147   -8.3525    2.9626 N   0  0  0  0  0  0  0  0  0  0  0  0
   -4.0388   -9.3893    3.7481 C   0  0  0  0  0  0  0  0  0  0  0  0
   -4.3784  -10.6041    3.1604 C   0  0  0  0  0  0  0  0  0  0  0  0
   -4.8934  -11.6255    3.9345 C   0  0  0  0  0  0  0  0  0  0  0  0
   -5.0821  -11.4663    5.3022 C   0  0  0  0  0  0  0  0  0  0  0  0
   -5.6802  -12.5559    6.1347 C   0  0  0  0  0  0  0  0  0  0  0  0
   -4.7218  -10.2547    5.8833 C   0  0  0  0  0  0  0  0  0  0  0  0
   -4.2018   -9.2274    5.1231 C   0  0  0  0  0  0  0  0  0  0  0  0
   -2.5904   -8.6706    1.9415 C   0  0  0  0  0  0  0  0  0  0  0  0
   -2.7393   -8.1081    0.6764 C   0  0  0  0  0  0  0  0  0  0  0  0
   -1.8198   -8.3969   -0.3106 C   0  0  0  0  0  0  0  0  0  0  0  0
   -0.7440   -9.2447   -0.0657 C   0  0  0  0  0  0  0  0  0  0  0  0
    0.2347   -9.5518   -1.1558 C   0  0  0  0  0  0  0  0  0  0  0  0
   -0.6162   -9.8084    1.1970 C   0  0  0  0  0  0  0  0  0  0  0  0
   -1.5290   -9.5302    2.1962 C   0  0  0  0  0  0  0  0  0  0  0  0
   -2.8876   -6.0042    2.8960 C   0  0  0  0  0  0  0  0  0  0  0  0
   -1.2515   -5.9909    2.3355 S   0  0  0  0  0  0  0  0  0  0  0  0
   -6.2309   -7.1792    3.8700 C   0  0  0  0  0  0  0  0  0  0  0  0
   -7.5036   -6.6558    3.8295 C   0  0  0  0  0  0  0  0  0  0  0  0
   -8.5907   -7.2908    4.5958 C   0  0  0  0  0  0  0  0  0  0  0  0
   -8.5613   -8.3547    5.1766 O   0  0  0  0  0  0  0  0  0  0  0  0
   -9.7155   -6.3218    4.5430 C   0  0  0  0  0  0  0  0  0  0  0  0
  -10.9320   -6.3680    5.1919 C   0  0  0  0  0  0  0  0  0  0  0  0
  -11.8018   -5.3036    5.0068 C   0  0  0  0  0  0  0  0  0  0  0  0
  -12.9928   -5.3070    5.6233 F   0  0  0  0  0  0  0  0  0  0  0  0
  -11.4497   -4.2286    4.1936 C   0  0  0  0  0  0  0  0  0  0  0  0
  -12.3018   -3.2040    4.0499 F   0  0  0  0  0  0  0  0  0  0  0  0
  -10.2319   -4.1872    3.5291 C   0  0  0  0  0  0  0  0  0  0  0  0
   -9.3622   -5.2485    3.7069 C   0  0  0  0  0  0  0  0  0  0  0  0
   -8.0366   -5.5128    3.1436 C   0  0  0  0  0  0  0  0  0  0  0  0
   -7.5523   -4.9535    1.9832 C   0  0  0  0  0  0  0  0  0  0  0  0
   -6.4136   -5.4300    1.3067 C   0  0  0  0  0  0  0  0  0  0  0  0
   -5.5289   -5.8289    0.6905 N   0  0  0  0  0  0  0  0  0  0  0  0
   -8.2204   -3.9449    1.2691 C   0  0  0  0  0  0  0  0  0  0  0  0
   -8.7300   -3.1263    0.6436 N   0  0  0  0  0  0  0  0  0  0  0  0
    4.0504   13.1682   -4.4307 H   0  0  0  0  0  0  0  0  0  0  0  0
    2.5491   12.2097    1.6205 H   0  0  0  0  0  0  0  0  0  0  0  0
    2.4591   16.7378   -0.4618 H   0  0  0  0  0  0  0  0  0  0  0  0
    4.7923   11.5026   -5.9481 H   0  0  0  0  0  0  0  0  0  0  0  0
    5.1181   10.6833   -7.9746 H   0  0  0  0  0  0  0  0  0  0  0  0
    4.9974    9.2307   -8.9773 H   0  0  0  0  0  0  0  0  0  0  0  0
    2.7500    8.7294   -8.0354 H   0  0  0  0  0  0  0  0  0  0  0  0
    2.8342   10.1687   -7.0162 H   0  0  0  0  0  0  0  0  0  0  0  0
    2.7606   10.3367   -8.7726 H   0  0  0  0  0  0  0  0  0  0  0  0
    7.4501    8.5930   -3.9390 H   0  0  0  0  0  0  0  0  0  0  0  0
    9.4955    9.1117   -5.2063 H   0  0  0  0  0  0  0  0  0  0  0  0
   10.2590    7.6074   -6.9974 H   0  0  0  0  0  0  0  0  0  0  0  0
    8.2709    4.8746   -8.3679 H   0  0  0  0  0  0  0  0  0  0  0  0
    9.7815    5.7856   -8.5108 H   0  0  0  0  0  0  0  0  0  0  0  0
   10.7375    4.4855   -6.6050 H   0  0  0  0  0  0  0  0  0  0  0  0
    9.2306    3.5812   -6.4623 H   0  0  0  0  0  0  0  0  0  0  0  0
   10.2274    3.4120   -7.9121 H   0  0  0  0  0  0  0  0  0  0  0  0
    6.9061    5.0713   -6.2967 H   0  0  0  0  0  0  0  0  0  0  0  0
    1.1447   -5.2617    4.0707 H   0  0  0  0  0  0  0  0  0  0  0  0
    2.0010   -7.5076    4.6207 H   0  0  0  0  0  0  0  0  0  0  0  0
    3.0484   -8.8920    2.8779 H   0  0  0  0  0  0  0  0  0  0  0  0
    3.0391   -8.0774   -0.6960 H   0  0  0  0  0  0  0  0  0  0  0  0
    3.4554   -9.3009    0.5156 H   0  0  0  0  0  0  0  0  0  0  0  0
    5.4528   -7.9578    1.1744 H   0  0  0  0  0  0  0  0  0  0  0  0
    5.5014   -8.3612   -0.5452 H   0  0  0  0  0  0  0  0  0  0  0  0
    5.0326   -6.7377   -0.0268 H   0  0  0  0  0  0  0  0  0  0  0  0
    2.3401   -5.8167    0.0100 H   0  0  0  0  0  0  0  0  0  0  0  0
    2.1220    3.2795   -0.0622 H   0  0  0  0  0  0  0  0  0  0  0  0
    2.8900    4.7647   -0.6146 H   0  0  0  0  0  0  0  0  0  0  0  0
    0.4467    4.6552   -1.2266 H   0  0  0  0  0  0  0  0  0  0  0  0
    0.8062    3.3060   -2.3144 H   0  0  0  0  0  0  0  0  0  0  0  0
    1.5210    4.8859   -2.6045 H   0  0  0  0  0  0  0  0  0  0  0  0
    0.0839    0.3645   -0.3046 H   0  0  0  0  0  0  0  0  0  0  0  0
    0.8494    1.8568   -0.8414 H   0  0  0  0  0  0  0  0  0  0  0  0
    0.6458    0.7595    2.0176 H   0  0  0  0  0  0  0  0  0  0  0  0
    1.6276    2.1658    1.6265 H   0  0  0  0  0  0  0  0  0  0  0  0
   -0.1260    2.2138    1.3902 H   0  0  0  0  0  0  0  0  0  0  0  0
   -0.7539   -3.3177    5.0140 H   0  0  0  0  0  0  0  0  0  0  0  0
    0.9385   -1.9827    6.1761 H   0  0  0  0  0  0  0  0  0  0  0  0
    1.1667    0.6092    7.1942 H   0  0  0  0  0  0  0  0  0  0  0  0
    2.3025    0.3267    5.8809 H   0  0  0  0  0  0  0  0  0  0  0  0
    1.2450    1.7443    5.8432 H   0  0  0  0  0  0  0  0  0  0  0  0
   -0.6665    1.5715    4.4520 H   0  0  0  0  0  0  0  0  0  0  0  0
   -2.3367    0.2375    3.2501 H   0  0  0  0  0  0  0  0  0  0  0  0
   -3.9954   -2.7355    1.1218 H   0  0  0  0  0  0  0  0  0  0  0  0
   -6.2457   -1.8643    0.6623 H   0  0  0  0  0  0  0  0  0  0  0  0
   -8.3513   -0.9937    1.5738 H   0  0  0  0  0  0  0  0  0  0  0  0
   -8.3981   -0.2407    3.1801 H   0  0  0  0  0  0  0  0  0  0  0  0
   -7.7267    0.6366    1.8076 H   0  0  0  0  0  0  0  0  0  0  0  0
   -6.3450   -0.0701    4.5298 H   0  0  0  0  0  0  0  0  0  0  0  0
   -4.0923   -0.9314    4.9930 H   0  0  0  0  0  0  0  0  0  0  0  0
   -4.2464  -10.7348    2.0968 H   0  0  0  0  0  0  0  0  0  0  0  0
   -5.1636  -12.5595    3.4643 H   0  0  0  0  0  0  0  0  0  0  0  0
   -5.6417  -13.5106    5.6165 H   0  0  0  0  0  0  0  0  0  0  0  0
   -6.7238  -12.3231    6.3470 H   0  0  0  0  0  0  0  0  0  0  0  0
   -5.1594  -12.6466    7.0858 H   0  0  0  0  0  0  0  0  0  0  0  0
   -4.8516  -10.1152    6.9462 H   0  0  0  0  0  0  0  0  0  0  0  0
   -3.9187   -8.2936    5.5868 H   0  0  0  0  0  0  0  0  0  0  0  0
   -3.5734   -7.4505    0.4795 H   0  0  0  0  0  0  0  0  0  0  0  0
   -1.9393   -7.9593   -1.2907 H   0  0  0  0  0  0  0  0  0  0  0  0
   -0.2326  -10.1824   -1.9123 H   0  0  0  0  0  0  0  0  0  0  0  0
    1.1043  -10.0718   -0.7640 H   0  0  0  0  0  0  0  0  0  0  0  0
    0.5603   -8.6352   -1.6436 H   0  0  0  0  0  0  0  0  0  0  0  0
    0.2128  -10.4681    1.4065 H   0  0  0  0  0  0  0  0  0  0  0  0
   -1.4192   -9.9668    3.1779 H   0  0  0  0  0  0  0  0  0  0  0  0
   -6.1715   -8.2100    4.2022 H   0  0  0  0  0  0  0  0  0  0  0  0
  -11.2042   -7.1984    5.8235 H   0  0  0  0  0  0  0  0  0  0  0  0
   -9.9984   -3.3346    2.9128 H   0  0  0  0  0  0  0  0  0  0  0  0
  1  2  2  0  0  0  0
  2  3  1  0  0  0  0
  3  4  2  0  0  0  0
  3  5  1  0  0  0  0
  5  6  2  0  0  0  0
  6  7  1  0  0  0  0
  7  8  1  0  0  0  0
  7  9  2  0  0  0  0
  9 10  1  0  0  0  0
  9 11  1  0  0  0  0
 11 12  2  0  0  0  0
 12 13  1  0  0  0  0
 13 14  2  0  0  0  0
 14 15  1  0  0  0  0
 15 16  3  0  0  0  0
 14 17  1  0  0  0  0
 17 18  3  0  0  0  0
  1 19  1  0  0  0  0
 19 20  2  0  0  0  0
 20 21  1  0  0  0  0
 21 22  1  0  0  0  0
 22 23  1  0  0  0  0
 23 24  1  0  0  0  0
 21 25  2  0  0  0  0
 25 26  1  0  0  0  0
 25 27  1  0  0  0  0
 27 28  2  0  0  0  0
 28 29  1  0  0  0  0
 29 30  2  0  0  0  0
 30 31  1  0  0  0  0
 31 32  2  0  0  0  0
 32 33  1  0  0  0  0
 33 34  1  0  0  0  0
 34 35  1  0  0  0  0
 33 36  2  0  0  0  0
 28 37  1  0  0  0  0
 37 38  1  0  0  0  0
 38 39  1  0  0  0  0
 39 40  1  0  0  0  0
 40 41  1  0  0  0  0
 41 42  1  0  0  0  0
 42 43  2  0  0  0  0
 43 44  1  0  0  0  0
 44 45  1  0  0  0  0
 42 46  1  0  0  0  0
 46 47  1  0  0  0  0
 47 48  1  0  0  0  0
 48 49  1  0  0  0  0
 49 50  1  0  0  0  0
 50 51  1  0  0  0  0
 51 52  2  0  0  0  0
 52 53  1  0  0  0  0
 53 54  2  0  0  0  0
 54 55  1  0  0  0  0
 55 56  1  0  0  0  0
 56 57  1  0  0  0  0
 55 58  2  0  0  0  0
 50 59  2  0  0  0  0
 59 60  1  0  0  0  0
 60 61  1  0  0  0  0
 61 62  1  0  0  0  0
 62 63  1  0  0  0  0
 63 64  1  0  0  0  0
 64 65  1  0  0  0  0
 65 66  1  0  0  0  0
 66 67  1  0  0  0  0
 67 68  1  0  0  0  0
 68 69  1  0  0  0  0
 66 70  1  0  0  0  0
 70 71  1  0  0  0  0
 63 72  1  0  0  0  0
 72 73  1  0  0  0  0
 59 74  1  0  0  0  0
 74 75  2  0  0  0  0
 75 76  1  0  0  0  0
 76 77  1  0  0  0  0
 77 78  2  0  0  0  0
 78 79  1  0  0  0  0
 79 80  2  0  0  0  0
 80 81  1  0  0  0  0
 80 82  1  0  0  0  0
 82 83  2  0  0  0  0
 76 84  1  0  0  0  0
 84 85  2  0  0  0  0
 85 86  1  0  0  0  0
 86 87  2  0  0  0  0
 87 88  1  0  0  0  0
 87 89  1  0  0  0  0
 89 90  2  0  0  0  0
 75 91  1  0  0  0  0
 91 92  1  0  0  0  0
 92 93  1  0  0  0  0
 93 94  2  0  0  0  0
 94 95  1  0  0  0  0
 95 96  1  0  0  0  0
 96 97  2  0  0  0  0
 97 98  1  0  0  0  0
 98 99  2  0  0  0  0
 99100  1  0  0  0  0
 99101  1  0  0  0  0
101102  2  0  0  0  0
 95103  1  0  0  0  0
103104  2  0  0  0  0
104105  1  0  0  0  0
105106  2  0  0  0  0
106107  1  0  0  0  0
106108  1  0  0  0  0
108109  2  0  0  0  0
 94110  1  0  0  0  0
110111  1  0  0  0  0
 93112  1  0  0  0  0
112113  2  0  0  0  0
113114  1  0  0  0  0
114115  2  0  0  0  0
114116  1  0  0  0  0
116117  2  0  0  0  0
117118  1  0  0  0  0
118119  1  0  0  0  0
118120  2  0  0  0  0
120121  1  0  0  0  0
120122  1  0  0  0  0
122123  2  0  0  0  0
123124  1  0  0  0  0
124125  2  0  0  0  0
125126  1  0  0  0  0
126127  3  0  0  0  0
125128  1  0  0  0  0
128129  3  0  0  0  0
 13  2  1  0  0  0  0
 26 19  1  0  0  0  0
 69 27  1  0  0  0  0
111 74  1  0  0  0  0
124113  1  0  0  0  0
 12  5  1  0  0  0  0
 36 29  1  0  0  0  0
 68 37  2  0  0  0  0
 83 77  1  0  0  0  0
 90 84  1  0  0  0  0
110 91  2  0  0  0  0
123116  1  0  0  0  0
 67 39  2  0  0  0  0
102 96  1  0  0  0  0
109103  1  0  0  0  0
 65 40  2  0  0  0  0
 45 41  2  0  0  0  0
 64 46  2  0  0  0  0
 62 47  2  0  0  0  0
 61 49  2  0  0  0  0
 58 51  1  0  0  0  0
  1130  1  0  0  0  0
  6131  1  0  0  0  0
 11132  1  0  0  0  0
 20133  1  0  0  0  0
 23134  1  0  0  0  0
 23135  1  0  0  0  0
 24136  1  0  0  0  0
 24137  1  0  0  0  0
 24138  1  0  0  0  0
 30139  1  0  0  0  0
 31140  1  0  0  0  0
 32141  1  0  0  0  0
 34142  1  0  0  0  0
 34143  1  0  0  0  0
 35144  1  0  0  0  0
 35145  1  0  0  0  0
 35146  1  0  0  0  0
 36147  1  0  0  0  0
 52148  1  0  0  0  0
 53149  1  0  0  0  0
 54150  1  0  0  0  0
 56151  1  0  0  0  0
 56152  1  0  0  0  0
 57153  1  0  0  0  0
 57154  1  0  0  0  0
 57155  1  0  0  0  0
 58156  1  0  0  0  0
 70157  1  0  0  0  0
 70158  1  0  0  0  0
 71159  1  0  0  0  0
 71160  1  0  0  0  0
 71161  1  0  0  0  0
 72162  1  0  0  0  0
 72163  1  0  0  0  0
 73164  1  0  0  0  0
 73165  1  0  0  0  0
 73166  1  0  0  0  0
 78167  1  0  0  0  0
 79168  1  0  0  0  0
 81169  1  0  0  0  0
 81170  1  0  0  0  0
 81171  1  0  0  0  0
 82172  1  0  0  0  0
 83173  1  0  0  0  0
 85174  1  0  0  0  0
 86175  1  0  0  0  0
 88176  1  0  0  0  0
 88177  1  0  0  0  0
 88178  1  0  0  0  0
 89179  1  0  0  0  0
 90180  1  0  0  0  0
 97181  1  0  0  0  0
 98182  1  0  0  0  0
100183  1  0  0  0  0
100184  1  0  0  0  0
100185  1  0  0  0  0
101186  1  0  0  0  0
102187  1  0  0  0  0
104188  1  0  0  0  0
105189  1  0  0  0  0
107190  1  0  0  0  0
107191  1  0  0  0  0
107192  1  0  0  0  0
108193  1  0  0  0  0
109194  1  0  0  0  0
112195  1  0  0  0  0
117196  1  0  0  0  0
122197  1  0  0  0  0
M  END
