195

C        -13.84690        0.53500        0.62880
C        -14.55700       -0.63780        0.67810
C        -14.05220       -2.02520        0.72590
O        -12.91340       -2.43780        0.64740
C        -15.24730       -2.87920        0.90790
C        -15.29460       -4.25200        1.04960
C        -16.53800       -4.83800        1.21830
F        -16.63100       -6.16600        1.36180
C        -17.69300       -4.05600        1.24310
F        -18.88110       -4.64700        1.41250
C        -17.64390       -2.67740        1.10020
C        -16.40230       -2.08340        0.93030
C        -16.00920       -0.68490        0.75790
C        -16.88950        0.36000        0.65400
C        -18.29280        0.21960        0.72870
N        -19.43860        0.18230        0.78190
C        -16.57110        1.71910        0.43910
N        -16.42770        2.84410        0.25750
C        -12.46860        0.79910        0.51880
C        -11.37210       -0.01990        0.36220
C        -10.15650        0.67540        0.25380
C         -8.86570        0.12920        0.08500
C         -8.67040       -1.31970       -0.04680
C         -7.75840       -1.99370        0.76170
C         -7.60340       -3.36210        0.63640
C         -8.34700       -4.07570       -0.28590
C         -9.26190       -3.40930       -1.09040
S        -10.24930       -4.23910       -2.30460
C        -10.74070       -5.76860       -1.42940
C        -11.44260       -5.46940       -0.12000
C         -9.41450       -2.03590       -0.97700
C         -7.81700        1.02570        0.04590
C         -7.98600        2.43560        0.12780
C         -9.26920        2.97970        0.29820
C         -9.49850        4.42880        0.41560
C        -10.16460        4.93070        1.53170
C        -10.40540        6.28660        1.64130
C        -10.01270        7.15460        0.63870
C         -9.37470        6.65650       -0.48910
S         -8.86400        7.68500       -1.83470
C        -10.09890        9.03560       -1.83830
C        -11.50470        8.52610       -2.08520
C         -9.09880        5.29840       -0.58970
C        -10.32330        2.08440        0.36580
S        -11.99860        2.50410        0.55480
C         -6.75430        3.12400        0.05060
C         -5.67560        2.29630       -0.09840
S         -6.13540        0.60510       -0.14340
C         -4.29610        2.64490       -0.16820
C         -3.72490        3.85600       -0.51310
C         -4.42870        5.00220       -1.09280
C         -5.26740        4.82450       -2.19000
C         -5.85510        5.92140       -2.78920
C         -5.62270        7.19280       -2.29580
C         -4.80640        7.38480       -1.18850
C         -4.62710        8.75800       -0.61030
C         -5.81660        9.10400        0.28790
C         -4.20450        6.28270       -0.60060
C         -2.32600        3.81980       -0.35540
S         -1.07950        5.00410       -0.66180
C          0.11050        3.82610       -0.22290
C          1.50730        3.68520       -0.20960
C          2.53920        4.52990       -0.67710
C          3.87360        4.00700       -0.78180
N          4.71520        4.87650       -1.31820
S          3.90550        6.23710       -1.65270
N          2.44570        5.76900       -1.13260
C          4.14210        2.71110       -0.28860
C          5.32670        1.95810       -0.20880
S          6.97820        2.04940       -0.71500
C          7.26350        0.47690       -0.00650
C          8.40670       -0.34060        0.07870
C          9.72200        0.05240       -0.42000
C          9.82200        0.71390       -1.64130
C         11.06170        1.08990       -2.12370
C         12.20540        0.81510       -1.39680
C         12.12420        0.16300       -0.17070
C         13.37340       -0.16040        0.59740
C         14.04720       -1.40720        0.02300
C         10.87960       -0.21070        0.30980
C          8.11840       -1.52500        0.74030
S          6.45640       -1.59670        1.31300
C          6.12710       -0.05920        0.60760
C          5.01830        0.78230        0.48160
N          3.68910        0.76770        0.82430
C          3.12470        1.93000        0.32450
C          1.77870        2.36140        0.23360
N          0.57770        1.70990        0.44300
C         -0.42970        2.59400        0.16060
C         -1.82770        2.58770        0.07630
S         -3.10450        1.44940        0.31590
C          0.30040        0.29360        0.53800
C         -0.32930       -0.08320        1.87900
C          3.26850        0.00510        1.98060
C          3.99810        0.46500        3.24290
C          8.95530       -2.63970        1.01870
S          8.77630       -3.46970        2.53100
C         10.13680       -4.50400        2.19980
C         10.66440       -4.24020        0.93950
C         11.74150       -5.00970        0.29320
O         12.23110       -6.02380        0.77330
C         12.19590       -4.43700       -0.96630
C         13.36920       -4.77850       -1.59680
C         14.38840       -5.78050       -1.19420
C         14.00000       -7.17930       -1.68220
S         13.57770       -3.86270       -3.04570
C         12.06690       -3.03600       -2.83350
C         11.58620       -2.04710       -3.82960
C         12.72020       -1.29790       -4.51810
C         11.45850       -3.43300       -1.67100
C         10.20960       -2.87820       -1.15590
O          9.43190       -2.22650       -1.83220
C          9.97280       -3.20480        0.25810
C         10.47020       -5.45290        3.20320
C         11.67900       -5.97510        3.52890
C         11.75570       -7.24600        4.29640
O         10.88190       -7.76030        4.95120
C         13.11690       -7.76420        4.02290
C         13.65560       -8.98940        4.36400
C         14.94780       -9.26350        3.94500
F         15.50740      -10.44050        4.24880
C         15.67230       -8.32750        3.20530
F         16.91230       -8.62790        2.80260
C         15.13810       -7.09210        2.87290
C         13.84620       -6.81240        3.28720
C         13.01850       -5.62420        3.10340
C         13.47120       -4.36610        2.81160
C         14.79360       -4.08000        2.42000
N         15.84640       -3.80410        2.05520
C         12.65890       -3.21710        2.87540
N         12.05150       -2.24590        2.95530
H        -14.43810        1.44130        0.68680
H        -14.39870       -4.85200        1.03480
H        -18.56620       -2.12170        1.12990
H        -11.44950       -1.09090        0.33760
H         -7.19070       -1.44990        1.50130
H         -6.89500       -3.88100        1.26500
H         -8.20790       -5.14170       -0.37950
H         -9.86090       -6.39660       -1.29100
H        -11.41260       -6.25890       -2.13370
H        -10.74910       -5.04770        0.60510
H        -12.23970       -4.74640       -0.27800
H        -11.86280       -6.38560        0.29150
H        -10.10750       -1.52790       -1.63010
H        -10.47490        4.25910        2.31780
H        -10.90600        6.67580        2.51530
H        -10.20500        8.21050        0.74520
H         -9.76750        9.68080       -2.65200
H        -10.01900        9.58880       -0.90300
H        -11.81880        7.85140       -1.29110
H        -12.19930        9.36280       -2.12470
H        -11.55060        7.98970       -3.03020
H         -8.59610        4.92410       -1.46890
H         -6.66860        4.19240        0.12620
H         -5.43460        3.83070       -2.57920
H         -6.49480        5.78800       -3.64870
H         -6.08170        8.04430       -2.77390
H         -4.56140        9.49150       -1.41630
H         -3.70430        8.80260       -0.02920
H         -5.70870       10.10640        0.69550
H         -5.88620        8.39800        1.11290
H         -6.74140        9.05360       -0.28190
H         -3.55840        6.41560        0.25550
H          8.93380        0.90370       -2.22280
H         11.13430        1.60010       -3.07290
H         13.17180        1.11780       -1.77430
H         13.12740       -0.33970        1.64490
H         14.06900        0.67960        0.54270
H         14.96560       -1.63000        0.56050
H         13.38210       -2.26440        0.11070
H         14.28590       -1.26570       -1.02910
H         10.81310       -0.69460        1.27360
H         -0.40730        0.03850       -0.25940
H          1.22050       -0.26080        0.35170
H          0.26100        0.27800        2.71830
H         -1.32290        0.34850        1.96020
H         -0.41780       -1.16350        1.95080
H          3.48140       -1.05230        1.79340
H          2.20360        0.14040        2.13110
H          3.63000       -0.09360        4.09910
H          5.06830        0.29910        3.15890
H          3.82190        1.52510        3.41360
H         14.45700       -5.79830       -0.10450
H         15.35860       -5.50010       -1.60830
H         13.88120       -7.18760       -2.76350
H         13.06500       -7.48380       -1.21930
H         14.77220       -7.89290       -1.40890
H         10.98740       -2.57470       -4.58000
H         10.91340       -1.35210       -3.32110
H         12.31560       -0.57400       -5.22010
H         13.36290       -1.98650       -5.06350
H         13.32290       -0.76780       -3.78460
H          9.63070       -5.84090        3.77300
H         13.09430       -9.71410        4.93200
H         15.73230       -6.40130        2.29700
