212

C        -11.42650       -6.23360        3.37460
C        -11.86290       -6.68380        4.59420
C        -11.00650       -6.81250        5.79940
O         -9.86340       -6.41500        5.92850
C        -11.87450       -7.37940        6.84470
C        -13.18010       -7.46440        6.36620
C        -14.19980       -7.96880        7.18470
C        -13.88450       -8.38780        8.45140
C        -12.56710       -8.33050        8.95610
C        -12.24560       -8.78440       10.25160
C        -10.95930       -8.72380       10.71240
C         -9.93500       -8.20690        9.90230
C        -10.20780       -7.75470        8.64090
C        -11.52480       -7.80450        8.13950
C        -13.21940       -6.99480        4.98180
C        -14.34140       -6.91600        4.19570
C        -15.64640       -7.22750        4.62870
N        -16.73600       -7.45970        4.90780
C        -14.36070       -6.49750        2.84960
N        -14.45830       -6.17070        1.75250
C        -10.07690       -6.18600        2.98670
S         -9.52400       -4.99090        1.83170
C         -7.84500       -5.42420        2.02300
C         -7.74750       -6.49900        2.89580
S         -6.40280       -7.41320        3.49830
C         -7.49130       -8.45140        4.37680
C         -6.90930       -9.50990        5.21150
O         -5.72070       -9.68630        5.32280
O         -7.85400      -10.22630        5.82230
C         -7.42070      -11.22700        6.74200
C         -7.27990      -10.64610        8.14180
C         -8.80560       -8.10470        4.21230
C         -8.98670       -6.95120        3.40860
F         -9.81590       -8.83130        4.68960
C         -6.81780       -4.70980        1.37510
S         -5.13260       -5.13330        1.67010
C         -4.63120       -3.83980        0.64920
C         -3.48670       -3.20740        0.17750
S         -1.76620       -3.33110        0.32120
C         -1.62670       -1.91890       -0.67050
C         -0.51380       -1.14170       -1.11030
C         -1.03040       -0.06160       -1.85650
C         -2.55640       -0.11630       -1.90610
C         -3.05720       -0.30520       -3.32670
C         -4.19660        0.31450       -3.81590
C         -4.64890        0.07930       -5.10520
C         -3.96530       -0.79850       -5.93780
O         -4.31400       -1.13020       -7.20820
C         -5.39470       -0.47460       -7.84100
C         -5.03520        0.93130       -8.31310
C         -2.82260       -1.43290       -5.44340
C         -2.38140       -1.19140       -4.16260
C         -3.05700        1.13990       -1.21830
C         -3.07490        2.35420       -1.89100
C         -3.47190        3.52280       -1.26490
C         -3.85110        3.50330        0.07330
O         -4.26480        4.57900        0.78830
C         -4.31840        5.84490        0.15940
C         -4.80880        6.85060        1.18880
C         -3.80820        2.29060        0.76240
C         -3.41310        1.13260        0.12670
C         -2.82470       -1.37510       -1.10570
C         -3.91300       -2.12300       -0.63680
N         -5.28280       -2.11210       -0.68730
C         -5.73210       -3.13630        0.10360
C         -6.96490       -3.63340        0.51520
C         -6.13880       -1.22510       -1.43310
C         -6.65450       -0.06910       -0.57950
C         -0.18970        0.90090       -2.36290
C          1.17150        0.75700       -2.10760
C          2.26490        1.63910       -2.36880
C          3.44340        1.13400       -1.84660
C          3.20900       -0.23700       -1.25410
C          1.69200       -0.34580       -1.39330
C          0.84940       -1.30070       -0.87760
C          3.85760       -1.33370       -2.08290
C          3.69400       -2.66750       -1.73210
C          4.25270       -3.68970       -2.47790
C          4.99670       -3.39800       -3.61660
O          5.57910       -4.30300       -4.44580
C          5.52660       -5.68190       -4.13840
C          6.52590       -6.08100       -3.05630
C          5.16120       -2.06000       -3.97580
C          4.59950       -1.04970       -3.22460
C          3.60850       -0.25470        0.21080
C          2.94280        0.60390        1.08410
C          3.27190        0.65080        2.41900
C          4.28520       -0.16470        2.93040
O          4.53140       -0.04170        4.25850
C          5.53580       -0.84210        4.85010
C          5.57640       -0.50910        6.33300
C          4.95590       -1.01860        2.06360
C          4.61760       -1.05480        0.71950
C          4.49390        2.04460       -1.99730
C          4.07310        3.23220       -2.65360
S          2.39140        3.21670       -3.07690
C          5.18220        4.07010       -2.72280
S          5.67440        5.62650       -3.26910
C          7.29600        5.35310       -2.61910
C          7.43390        4.10070       -2.04430
C          6.24920        3.37470       -2.10260
N          5.82400        2.13860       -1.69200
C          6.61980        1.20020       -0.94360
C          6.76370        1.62920        0.51450
C          8.25200        6.38290       -2.74660
S          8.00900        7.63610       -3.92720
C          9.49650        8.46170       -3.49640
C         10.12090        7.75050       -2.46920
S         11.57720        8.06260       -1.59400
C         11.29120        6.65270       -0.60540
C         12.26570        6.35720        0.44810
O         13.25980        7.01500        0.63580
O         11.92140        5.28760        1.16980
C         12.80860        4.93650        2.23200
C         12.15560        3.84150        3.05330
C         10.14440        5.99120       -0.95400
C          9.44680        6.58600       -2.03580
F          9.72610        4.89420       -0.31530
C         10.02340        9.64060       -4.02950
C          9.54990       10.42980       -5.04860
C          8.35880       10.14110       -5.85020
O          7.58290        9.20950       -5.69090
C          8.29170       11.18810       -6.88150
C          9.35380       12.07340       -6.70220
C          9.51710       13.16460       -7.56510
C          8.61780       13.34150       -8.58500
C          7.53450       12.46110       -8.79240
C          6.61690       12.64860       -9.84640
C          5.57690       11.77950      -10.02780
C          5.40440       10.68480       -9.16510
C          6.27250       10.46950       -8.13090
C          7.35500       11.34820       -7.92030
C         10.15090       11.64450       -5.55260
C         11.24420       12.30340       -5.05130
C         11.99190       11.90880       -3.92170
N         12.64680       11.66810       -3.00940
C         11.77690       13.49430       -5.58710
N         12.27040       14.45870       -5.96820
H        -12.14250       -5.85660        2.65630
H        -15.21550       -8.03220        6.83090
H        -14.66060       -8.78120        9.09230
H        -13.03440       -9.18400       10.87270
H        -10.72100       -9.07480       11.70580
H         -8.92640       -8.16830       10.28740
H         -9.43090       -7.35360        8.00950
H         -6.46590      -11.63770        6.39740
H         -8.19430      -11.99700        6.71180
H         -7.01300      -11.43490        8.83930
H         -6.50080       -9.88720        8.15220
H         -8.21920      -10.19420        8.45310
H         -4.74560        1.01110       -3.19870
H         -5.53990        0.58930       -5.43680
H         -5.62500       -1.10650       -8.70330
H         -6.27430       -0.45470       -7.18550
H         -4.77380        1.56980       -7.47270
H         -4.18330        0.88580       -8.98670
H         -5.87930        1.36760       -8.83990
H         -2.29800       -2.11670       -6.09140
H         -1.49590       -1.69390       -3.80240
H         -2.78140        2.39860       -2.92910
H         -3.47450        4.44100       -1.83070
H         -3.32060        6.12820       -0.20320
H         -5.00750        5.81140       -0.69630
H         -5.79190        6.56190        1.55010
H         -4.12520        6.88010        2.03260
H         -4.86780        7.83870        0.74170
H         -4.08890        2.28230        1.80370
H         -3.37730        0.21290        0.69130
H         -7.92880       -3.25010        0.23330
H         -5.57220       -0.84790       -2.28600
H         -6.98180       -1.81350       -1.80860
H         -7.19180       -0.44810        0.28660
H         -5.82820        0.54820       -0.23550
H         -7.33030        0.54730       -1.16580
H         -0.55140        1.75420       -2.91400
H          1.19940       -2.12760       -0.28080
H          3.12910       -2.92590       -0.85040
H          4.09100       -4.70710       -2.15810
H          5.78300       -6.17780       -5.07870
H          4.50800       -5.97860       -3.85990
H          6.48690       -7.15550       -2.90040
H          6.30480       -5.57940       -2.11720
H          7.53110       -5.80490       -3.36460
H          5.73440       -1.83520       -4.86130
H          4.74380       -0.02850       -3.54220
H          2.15500        1.23990        0.70710
H          2.75650        1.31280        3.09640
H          5.30310       -1.90650        4.70650
H          6.50930       -0.62890        4.38620
H          6.34000       -1.10390        6.82560
H          5.80020        0.54530        6.46970
H          4.61150       -0.71930        6.78590
H          5.74580       -1.66270        2.41660
H          5.15950       -1.72830        0.07190
H          8.35230        3.73650       -1.62880
H          7.60630        1.13620       -1.41330
H          6.13680        0.22400       -1.00650
H          5.78500        1.70940        0.98140
H          7.34850        0.89340        1.05870
H          7.26470        2.59200        0.57920
H         13.75840        4.60050        1.80030
H         13.00780        5.82920        2.83540
H         11.21430        4.19470        3.46560
H         12.81570        3.55240        3.86570
H         11.95590        2.97560        2.42810
H         10.94920        9.93910       -3.55130
H         10.33400       13.85520       -7.43810
H          8.73330       14.17800       -9.25910
H          6.75220       13.49200      -10.50820
H          4.87910       11.92960      -10.83860
H          4.57620       10.01080       -9.32640
H          6.14930        9.63210       -7.46250
