188

C          8.94260       -3.36170       -3.45760
C          9.10670       -4.16870       -4.52870
C          8.32260       -4.03170       -5.79500
O          7.95150       -2.99480       -6.30780
C          8.38790       -5.37320       -6.41370
C          9.35280       -6.13460       -5.75580
C          9.63660       -7.44180       -6.18160
C          8.94170       -7.95570       -7.24340
C          7.95480       -7.20940       -7.92630
C          7.23620       -7.74480       -9.01410
C          6.28590       -6.99930       -9.65670
C          6.00980       -5.68520       -9.24520
C          6.68590       -5.13060       -8.19420
C          7.67010       -5.87630       -7.51270
C          9.91170       -5.36930       -4.64720
C         10.98300       -5.71780       -3.86930
C         11.48890       -4.90730       -2.83320
N         11.93880       -4.28160       -1.98160
C         11.74000       -6.89680       -4.02810
N         12.39530       -7.83620       -4.10560
C          7.79860       -2.49500       -3.31030
C          7.83920       -1.31650       -2.56870
O          8.99520       -0.78650       -2.09590
C         10.13160       -0.67060       -2.95200
C         11.39750       -0.93460       -2.15430
C          6.65550       -0.60350       -2.23890
O          6.75800        0.53100       -1.48470
C          7.21800        0.38040       -0.14470
C          6.18590       -0.31220        0.73880
C          5.40990       -1.00370       -2.73050
C          5.36560       -2.18230       -3.53630
C          6.53850       -2.93980       -3.79620
N          6.44110       -4.10780       -4.45330
C          5.27540       -4.48330       -4.91120
C          4.13400       -3.68960       -4.72610
N          4.19080       -2.58240       -4.03270
C          4.18840       -0.32310       -2.41680
C          4.02990        0.90060       -1.78670
C          2.70330        1.16380       -1.47390
C          1.97180        2.21760       -0.68280
C          2.64910        2.30480        0.66950
C          3.80740        3.06330        0.79940
C          4.48940        3.10390        1.99940
C          4.03870        2.38560        3.10030
C          4.80560        2.40300        4.39140
C          5.91940        1.35450        4.36830
C          2.89140        1.61770        2.96070
C          2.20460        1.57230        1.76020
C          1.89080        3.56590       -1.37250
C          1.56800        4.70240       -0.64150
C          1.43910        5.92680       -1.26880
C          1.62140        6.04860       -2.64040
C          1.52880        7.38840       -3.31220
C          2.89410        8.07910       -3.31510
C          1.93880        4.90900       -3.36670
C          2.06740        3.68110       -2.74400
C          0.56860        1.63210       -0.66190
C          0.50780        0.44190       -1.42610
C          1.83620        0.15980       -1.87470
S          2.64700       -1.11490       -2.69530
C         -0.68560       -0.25490       -1.60070
C         -1.80270        0.23920       -0.96960
C         -3.21270       -0.33170       -0.96810
C         -3.93960       -0.13020       -2.28750
C         -5.16160       -0.76190       -2.48720
C         -5.87350       -0.56160       -3.65340
C         -5.39070        0.28070       -4.64740
C         -6.14350        0.46250       -5.93390
C         -5.70960       -0.58620       -6.96010
C         -4.17390        0.91460       -4.43930
C         -3.45660        0.71850       -3.27250
C         -3.16380       -1.79260       -0.57320
C         -3.26430       -2.18270        0.75460
C         -3.18030       -3.51850        1.10200
C         -2.98110       -4.49620        0.13710
C         -2.94280       -5.95010        0.51050
C         -4.34980       -6.54940        0.46350
C         -2.86720       -4.09980       -1.18920
C         -2.95440       -2.76680       -1.54180
C         -3.88200        0.56310        0.04430
C         -3.00870        1.55990        0.44940
C         -1.72570        1.39390       -0.15540
C         -0.54450        2.11780       -0.01750
S         -3.70900        2.60830        1.61180
C         -5.20390        1.68670        1.56740
C         -5.12410        0.63980        0.66040
C         -6.30720        1.95690        2.41670
C         -6.45640        2.91030        3.41690
C         -5.41060        3.93800        3.71990
C         -5.80730        4.95640        4.77880
C         -7.68660        2.75860        4.07760
C         -8.48060        1.71280        3.57510
S         -7.70520        0.89490        2.26510
C         -9.67980        1.54140        4.23600
C         -9.83700        2.44540        5.28830
S         -8.45980        3.52850        5.41910
C        -10.97020        2.42210        6.11490
C        -11.28100        3.16210        7.22630
C        -10.43730        4.19810        7.83590
O         -9.36950        4.61270        7.41470
C        -11.13830        4.63310        9.05560
C        -12.33950        3.93500        9.16790
C        -13.19060        4.16400       10.25740
C        -12.81880        5.08170       11.20540
C        -11.60920        5.80360       11.11850
C        -11.23400        6.74370       12.09990
C        -10.05550        7.42930       11.99390
C         -9.19860        7.20840       10.90340
C         -9.52740        6.30480        9.93130
C        -10.73550        5.58240       10.01440
C        -12.47580        3.02300        8.03330
C        -13.55320        2.20820        7.79530
C        -13.70460        1.33960        6.69430
N        -13.91550        0.60800        5.83350
C        -14.69310        2.12390        8.62220
N        -15.65150        1.99580        9.24170
H          9.59010       -3.44660       -2.59400
H         10.38240       -8.03620       -5.67920
H          9.14420       -8.96250       -7.57940
H          7.45000       -8.75530       -9.33140
H          5.74010       -7.41790      -10.48940
H          5.25720       -5.11470       -9.76900
H          6.49110       -4.11990       -7.87080
H         10.05210       -1.35640       -3.80070
H         10.13680        0.35910       -3.33600
H         11.42520       -0.28600       -1.28280
H         11.44590       -1.96880       -1.82260
H         12.26480       -0.72960       -2.77520
H          7.38770        1.40410        0.19640
H          8.16500       -0.16650       -0.12320
H          5.96360       -1.30510        0.35180
H          6.57960       -0.41090        1.74630
H          5.26260        0.26160        0.77520
H          5.23880       -5.43050       -5.43200
H          3.16950       -3.96780       -5.12560
H          4.85040        1.55610       -1.57110
H          4.17000        3.63100       -0.04530
H          5.38440        3.70390        2.08490
H          5.24580        3.39030        4.54670
H          4.13210        2.19450        5.22480
H          5.49930        0.36220        4.21830
H          6.46890        1.36140        5.30680
H          6.61440        1.55960        3.55690
H          2.52690        1.04590        3.80240
H          1.31690        0.96260        1.67420
H          1.42860        4.63060        0.42760
H          1.18980        6.80140       -0.68460
H          1.18670        7.26380       -4.34160
H          0.80820        8.01790       -2.78630
H          2.83030        9.04840       -3.80410
H          3.24550        8.22600       -2.29620
H          3.62420        7.47030       -3.84380
H          2.08400        4.98130       -4.43530
H          2.31010        2.80690       -3.33020
H         -0.71690       -1.15210       -2.19920
H         -5.55160       -1.42180       -1.72580
H         -6.82120       -1.06230       -3.79260
H         -7.21580        0.36580       -5.75220
H         -5.95330        1.45960       -6.33630
H         -4.64470       -0.49760       -7.16360
H         -5.90340       -1.58760       -6.58220
H         -6.25400       -0.45510       -7.89240
H         -3.78090        1.57670       -5.19790
H         -2.51560        1.23030       -3.13310
H         -3.41330       -1.43990        1.52480
H         -3.26840       -3.80460        2.14060
H         -2.53670       -6.06380        1.51760
H         -2.29670       -6.49360       -0.18210
H         -5.00610       -6.02770        1.15640
H         -4.32520       -7.60250        0.73400
H         -4.76680       -6.45700       -0.53700
H         -2.70720       -4.84450       -1.95610
H         -2.87210       -2.48010       -2.58040
H         -0.51140        3.00940        0.58970
H         -5.94120       -0.03860        0.49340
H         -5.16650        4.46460        2.79130
H         -4.49800        3.42260        4.03920
H         -5.99130        4.47630        5.73600
H         -6.70420        5.49460        4.48380
H         -5.00220        5.67620        4.90670
H        -10.41510        0.79610        3.99210
H        -11.69030        1.67030        5.81490
H        -14.12050        3.62970       10.35750
H        -13.46460        5.26580       12.05200
H        -11.89560        6.91140       12.93760
H         -9.77500        8.14730       12.75050
H         -8.27300        7.76090       10.83900
H         -8.87650        6.12750        9.08980
