221

C          3.70550       -5.92780       -6.89150
C          4.79040       -6.20650       -7.66320
C          5.82360       -7.15050       -7.15300
O          5.74040       -7.82100       -6.14610
C          6.94510       -7.05060       -8.10440
C          6.56570       -6.25190       -9.18130
C          7.45480       -6.00620      -10.23490
C          8.70820       -6.55690      -10.18040
C          9.12460       -7.37040       -9.10350
C         10.41320       -7.94030       -9.05900
C         10.79100       -8.72990       -8.00790
C          9.90060       -8.98560       -6.95280
C          8.64250       -8.44970       -6.95900
C          8.22520       -7.63340       -8.02980
C          5.18840       -5.80550       -8.98940
C          4.34650       -5.37170       -9.98000
C          4.72430       -5.22650      -11.32930
N          4.96610       -5.12760      -12.44780
C          2.97220       -5.13680       -9.78000
N          1.84110       -4.96780       -9.67860
C          2.85000       -4.79630       -6.87100
C          3.19380       -3.44580       -6.88660
N          4.48800       -2.93680       -7.00810
C          4.96920       -2.19730       -5.91760
C          4.64480       -2.59580       -4.62170
C          5.09180       -1.86990       -3.53650
C          5.87940       -0.73760       -3.70420
C          6.38270        0.03190       -2.52140
C          6.20440       -0.35120       -4.99870
C          5.75440       -1.06060       -6.09390
C          5.09290       -2.81560       -8.26690
C          4.33330       -2.50050       -9.39010
C          4.94470       -2.36690      -10.62210
C          6.31760       -2.53710      -10.76610
C          6.95100       -2.41100      -12.11570
C          7.06580       -2.85080       -9.63740
C          6.46680       -2.99450       -8.40110
C          2.09430       -2.64340       -6.51350
S          1.89780       -0.94550       -6.25340
C          0.20740       -1.19590       -5.84770
C         -0.16220       -2.53280       -5.86280
N         -1.39530       -3.03550       -5.48440
C         -1.91640       -4.13180       -6.19100
C         -2.61970       -5.13430       -5.53080
C         -3.11710       -6.21130       -6.23880
C         -2.91850       -6.32560       -7.60840
C         -3.44850       -7.49610       -8.37880
C         -2.21010       -5.32090       -8.25800
C         -1.71850       -4.23490       -7.56510
C         -2.10360       -2.48040       -4.41090
C         -3.49420       -2.39540       -4.45090
C         -4.18620       -1.79020       -3.42270
C         -3.52340       -1.26360       -2.31930
C         -4.28970       -0.59760       -1.21740
C         -2.14320       -1.39900       -2.26130
C         -1.43740       -2.00070       -3.28590
C          0.92670       -3.34560       -6.25990
S          1.16770       -5.04450       -6.42560
C         -0.65190       -0.11770       -5.45300
C         -1.94100        0.09340       -5.90080
C         -2.42400       -0.48030       -7.15470
C         -3.74370       -0.88880       -7.32120
C         -4.13650       -1.46730       -8.51320
C         -3.23650       -1.62040       -9.55420
C         -1.92950       -1.16620       -9.42840
C         -0.94850       -1.25820      -10.56490
C          0.26540       -2.12530      -10.22990
C         -1.54030       -0.59980       -8.22460
C         -2.64560        0.94990       -5.02610
S         -4.32010        1.43190       -4.91120
C         -3.97620        2.22770       -3.41050
C         -4.66170        2.80090       -2.32280
C         -6.03640        2.88420       -2.00430
C         -6.42810        3.22420       -0.65950
N         -7.73810        3.15740       -0.48520
S         -8.42450        2.71770       -1.88460
N         -7.07400        2.58430       -2.76900
C         -5.43680        3.60200        0.27330
C         -5.48190        3.98770        1.62870
S         -6.61110        4.08650        2.94090
C         -5.31040        4.56780        4.00850
C         -5.23700        4.84240        5.39490
C         -6.38570        4.83930        6.30240
C         -7.36270        3.85250        6.20550
C         -8.42430        3.84460        7.09120
C         -8.51880        4.80810        8.08020
C         -7.56170        5.81080        8.18040
C         -7.61800        6.83370        9.27870
C         -6.69710        6.42390       10.43040
C         -6.50870        5.82270        7.28000
C         -3.94750        5.14580        5.77700
S         -2.82340        5.13990        4.43090
C         -4.08710        4.67830        3.35140
C         -4.18260        4.33810        1.99710
N         -3.32650        4.17890        0.93700
C         -4.07510        3.68290       -0.11660
C         -3.67500        3.13830       -1.35890
N         -2.43690        2.74640       -1.82860
C         -2.62560        2.17810       -3.05950
C         -1.87080        1.43040       -3.97110
S         -0.24900        0.84500       -4.04290
C         -1.20760        2.52000       -1.10290
C         -0.06190        3.38850       -1.62050
C         -2.12700        4.98350        0.84620
C         -2.44650        6.47390        0.95950
C         -3.39060        5.32470        7.10450
C         -3.86770        4.56290        8.16850
C         -3.25000        4.69810        9.39930
N         -3.51170        4.04650       10.57910
C         -4.53160        3.05070       10.77510
C         -4.02440        1.64770       10.44470
C         -2.56830        4.42650       11.50400
C         -1.70860        5.39860       10.92570
C         -2.14780        5.57320        9.57830
C         -1.68920        6.33580        8.50920
C         -2.30880        6.20330        7.28880
C         -0.67410        5.94720       11.67700
C         -0.46010        5.48350       12.95290
C         -1.27710        4.48370       13.51330
C         -2.37370        3.98850       12.79920
C         -1.03550        3.96060       14.83310
C          0.16810        3.71510       15.41150
C          1.47560        3.62930       14.70100
O          1.71330        3.92430       13.54910
C          2.40850        3.01910       15.66800
C          1.75540        2.79420       16.87860
C          2.43730        2.21000       17.95590
C          3.75410        1.86830       17.79630
C          4.44450        2.08510       16.58350
C          5.80040        1.73170       16.43050
C          6.44780        1.94770       15.24510
C          5.77080        2.52630       14.15990
C          4.45510        2.88290       14.26970
C          3.76160        2.67310       15.47950
C          0.37490        3.24900       16.77310
C         -0.53660        3.29820       17.79380
C         -0.29010        2.85690       19.11110
N         -0.16420        2.51220       20.19890
C         -1.84410        3.81960       17.68750
N         -2.91410        4.23680       17.69220
H          3.52660       -6.64390       -6.09200
H          7.16380       -5.38580      -11.06610
H          9.41000       -6.37220      -10.98120
H         11.09640       -7.74330       -9.87260
H         11.78000       -9.16340       -7.98270
H         10.21940       -9.61190       -6.13280
H          7.94930       -8.63880       -6.15460
H          4.04220       -3.47930       -4.46880
H          4.82700       -2.19290       -2.53990
H          7.33630       -0.37840       -2.18670
H          5.68150       -0.02930       -1.69230
H          6.53800        1.07750       -2.77720
H          6.80960        0.53030       -5.15520
H          5.99970       -0.72730       -7.09100
H          3.26770       -2.35510       -9.29140
H          4.34740       -2.12410      -11.48880
H          8.03080       -2.52090      -12.05390
H          6.72090       -1.44300      -12.55780
H          6.55450       -3.18050      -12.77920
H          8.13350       -2.99270       -9.72550
H          7.05630       -3.24120       -7.53000
H         -2.77120       -5.06770       -4.46350
H         -3.66120       -6.98190       -5.71150
H         -3.96370       -8.19390       -7.72360
H         -2.63400       -8.02120       -8.87600
H         -4.14500       -7.16150       -9.14690
H         -2.04400       -5.38880       -9.32300
H         -1.18630       -3.45390       -8.08400
H         -4.02130       -2.79590       -5.30310
H         -5.26180       -1.70870       -3.48240
H         -4.69370       -1.34590       -0.53450
H         -5.12470       -0.02810       -1.62020
H         -3.65300        0.07340       -0.64450
H         -1.60610       -1.02840       -1.39890
H         -0.36310       -2.09760       -3.21850
H         -4.45120       -0.75900       -6.51740
H         -5.15700       -1.80000       -8.63410
H         -3.55750       -2.07750      -10.47900
H         -0.60280       -0.24910      -10.80890
H         -1.44740       -1.66280      -11.44740
H          0.76650       -1.75870       -9.33610
H         -0.02440       -3.15900      -10.06070
H          0.97760       -2.10780      -11.05210
H         -0.53520       -0.21730       -8.12120
H         -7.28110        3.08720        5.44880
H         -9.17950        3.07630        7.01350
H         -9.34520        4.78690        8.77610
H         -7.29970        7.80510        8.89490
H         -8.64040        6.92950        9.64850
H         -7.00950        5.46590       10.84130
H         -6.72650        7.16580       11.22480
H         -5.67070        6.33090       10.08080
H         -5.76750        6.60690        7.33840
H         -0.92980        1.46850       -1.24180
H         -1.38680        2.68140       -0.03970
H         -0.32300        4.44430       -1.61970
H          0.18970        3.10570       -2.63890
H          0.81620        3.24510       -0.99730
H         -1.66000        4.80550       -0.11750
H         -1.44210        4.69040        1.64900
H         -1.53480        7.05140        0.83230
H         -2.87070        6.70970        1.93120
H         -3.15700        6.76530        0.18870
H         -4.67630        3.86630        8.01480
H         -4.86240        3.09630       11.81620
H         -5.38310        3.30170       10.13650
H         -3.17620        1.39370       11.07630
H         -4.81260        0.91720       10.60520
H         -3.70670        1.59760        9.40590
H         -0.85350        7.00690        8.63460
H         -1.96140        6.77810        6.44250
H         -0.04130        6.71310       11.25620
H          0.33030        5.90620       13.55030
H         -3.00870        3.23770       13.24580
H         -1.92690        3.69050       15.38810
H          1.93780        2.02480       18.89240
H          4.29220        1.41540       18.61660
H          6.31850        1.28690       17.26790
H          7.48680        1.67350       15.13600
H          6.29990        2.68770       13.23240
H          3.92560        3.32560       13.44110
