227

C          5.37070        0.72940       14.87540
C          6.59530        0.18350       15.16960
C          7.46320       -0.55380       14.24180
O          7.25560       -0.84700       13.08080
C          8.68030       -0.88680       15.01340
C          9.80440       -1.56400       14.59190
C         10.83620       -1.75370       15.50230
Br        12.39170       -2.68060       14.95770
C         10.72430       -1.26500       16.80420
Br        12.13570       -1.52310       18.03690
C          9.58740       -0.58410       17.22630
C          8.55430       -0.39380       16.32370
C          7.25370        0.26190       16.45730
C          6.76990        0.82040       17.61440
C          7.48580        0.85780       18.82940
N          8.01610        0.92020       19.84560
C          5.50420        1.41970       17.78210
N          4.49510        1.91790       18.01480
C          4.63180        0.72960       13.68400
C          3.38920        1.34030       13.59850
C          2.77650        1.23180       12.34800
C          1.52100        1.75630       11.94020
C          0.62520        2.44420       12.83670
C         -0.19520        3.50070       12.53740
C         -1.03780        3.94160       13.57120
C         -0.95080        3.22990       14.73680
S         -1.96270        3.52110       16.12820
C         -1.05420        2.62960       17.44080
C          0.21380        3.34830       17.85300
Se         0.30940        1.84370       14.59750
C          1.17420        1.52480       10.61670
C          1.97910        0.79910        9.70030
C          3.25910        0.33550       10.08910
C          4.15570       -0.29440        9.15120
C          4.28150       -0.02320        7.81210
C          5.23300       -0.78200        7.11130
C          5.91290       -1.69780        7.86810
S          7.17750       -2.71710        7.22200
C          7.67450       -3.69020        8.68560
C          6.71820       -4.83080        8.97010
Se         5.36960       -1.63900        9.67000
C          3.60420        0.53930       11.42270
S          5.09250        0.01420       12.15320
C          1.30290        0.58100        8.48140
C          0.04800        1.12980        8.42860
S         -0.35640        1.97160        9.90750
C         -0.82450        1.13260        7.30730
C         -2.12670        1.58970        7.20360
C         -2.96270        2.01490        8.32980
C         -3.58780        3.25660        8.30910
C         -4.37030        3.64740        9.37970
C         -4.53810        2.80780       10.46640
C         -3.94010        1.55350       10.49190
C         -4.08650        0.65670       11.68690
C         -3.01120        0.98210       12.72480
C         -3.15900        1.16570        9.41490
C         -2.57240        1.57080        5.86930
S         -4.07520        2.05580        5.12150
C         -3.42530        1.59960        3.58290
C         -3.80160        1.58010        2.23040
C         -5.02540        1.90130        1.60490
C         -5.15210        1.70780        0.18960
N         -6.36320        2.00530       -0.25550
S         -7.26430        2.49250        0.99840
N         -6.14510        2.34120        2.15800
C         -4.02070        1.29530       -0.54670
C         -3.82730        1.14340       -1.92960
S         -4.72820        1.23080       -3.40710
C         -3.27390        0.83570       -4.29240
C         -3.03630        0.53670       -5.65220
C         -4.07440        0.62660       -6.68140
C         -4.91870        1.73450       -6.69410
C         -5.91750        1.83330       -7.64330
C         -6.09510        0.82950       -8.57900
C         -5.26680       -0.28540       -8.57980
C         -5.48620       -1.41430       -9.54610
C         -6.34340       -2.50570       -8.90200
C         -4.26050       -0.37190       -7.63050
C         -1.73770        0.11130       -5.84450
S         -0.77090        0.20640       -4.37880
C         -2.16290        0.66030       -3.46960
C         -2.47950        0.83450       -2.11700
N         -1.83930        0.75550       -0.91150
C         -2.76870        1.03210        0.07960
C         -2.68930        1.07880        1.49660
N         -1.67990        0.76770        2.39550
C         -2.12740        1.08780        3.64970
C         -1.63630        1.07250        4.95970
S         -0.16650        0.62900        5.75200
C         -0.55700       -0.13250        2.25290
C         -1.00080       -1.50510        1.75230
C         -0.39480        0.76550       -0.87800
C          0.14660        2.11110       -0.40150
C         -1.12540       -0.38640       -7.03790
C         -0.35450       -1.53530       -7.17600
N         -0.05510       -2.45300       -6.18470
C         -0.91120       -2.67680       -5.09780
C         -0.39160       -2.84710       -3.81560
C         -1.23850       -2.93380       -2.72830
C         -2.61710       -2.85140       -2.88020
C         -3.53210       -2.84950       -1.69430
C         -3.12980       -2.74950       -4.16860
C         -2.29400       -2.67780       -5.26410
C          1.18810       -3.11210       -6.23050
C          1.27080       -4.46610       -5.92340
C          2.48850       -5.11510       -5.97980
C          3.64580       -4.44000       -6.34750
C          4.96300       -5.14590       -6.43970
C          3.55470       -3.08450       -6.64270
C          2.34570       -2.42180       -6.58060
C          0.07280       -1.68210       -8.51940
S          1.06650       -2.83430       -9.33030
C          0.85120       -1.97970      -10.86870
C          0.09820       -0.79060      -10.70810
N         -0.08070        0.20010      -11.62460
C          0.81030        0.46110      -12.67200
C          0.31790        0.88490      -13.90520
C          1.18160        1.10700      -14.96130
C          2.55010        0.91840      -14.82210
C          3.48650        1.10500      -15.97340
C          3.03830        0.54600      -13.57100
C          2.18860        0.32070      -12.50920
C         -1.19170        1.06420      -11.47220
C         -1.00800        2.44120      -11.46270
C         -2.09340        3.27670      -11.27720
C         -3.37170        2.76110      -11.10600
C         -4.54720        3.65450      -10.86290
C         -3.54490        1.38150      -11.15330
C         -2.47080        0.53510      -11.33120
C         -0.36650       -0.68210       -9.37700
S         -1.33640        0.48700       -8.54570
C          1.45970       -2.54420      -11.98280
C          1.13830       -2.28650      -13.30660
C         -0.19980       -1.89420      -13.75430
O         -1.19700       -1.72740      -13.07610
C         -0.12340       -1.86400      -15.23560
C         -1.10610       -1.54410      -16.14490
C         -0.77750       -1.55080      -17.49580
Br        -2.09800       -1.08100      -18.76810
C          0.50920       -1.88870      -17.90710
Br         0.95020       -1.88900      -19.74840
C          1.49620       -2.22630      -16.98590
C          1.17690       -2.20800      -15.64140
C          1.98310       -2.46540      -14.44800
C          3.34390       -2.66320      -14.42750
C          4.10410       -2.75930      -13.24610
N          4.78550       -2.81130      -12.32260
C          4.14910       -2.70450      -15.57940
N          4.85010       -2.72310      -16.48970
H          4.86930        1.25390       15.67980
H          9.87890       -1.93480       13.58140
H          9.53980       -0.22180       18.24020
H          2.96890        1.86760       14.43930
H         -0.15590        4.00650       11.58770
H         -1.70310        4.78050       13.46310
H         -0.84880        1.62250       17.06410
H         -1.76070        2.56370       18.26750
H         -0.01650        4.34470       18.22250
H          0.71700        2.78880       18.63820
H          0.89870        3.44060       17.00990
H          3.72880        0.76700        7.33270
H          5.42790       -0.64860        6.06110
H          8.67100       -4.06080        8.44660
H          7.73910       -2.99480        9.52790
H          5.72000       -4.44950        9.18860
H          6.65550       -5.49750        8.11310
H          7.06620       -5.39640        9.83160
H          1.70040       -0.00600        7.67330
H         -3.44660        3.91400        7.46430
H         -4.85050        4.61460        9.36630
H         -5.14580        3.12360       11.30200
H         -3.99010       -0.38710       11.38160
H         -5.07190        0.79320       12.13650
H         -2.01940        0.85940       12.29260
H         -3.10980        2.01190       13.06050
H         -3.10060        0.32500       13.58710
H         -2.69890        0.18710        9.41140
H         -4.78170        2.52050       -5.96700
H         -6.56780        2.69610       -7.64730
H         -6.88560        0.90970       -9.31170
H         -5.99060       -1.04870      -10.44270
H         -4.52530       -1.83920       -9.84410
H         -6.50150       -3.32560       -9.59860
H         -5.85630       -2.89590       -8.01100
H         -7.31180       -2.10370       -8.61220
H         -3.62240       -1.24270       -7.62350
H          0.20870        0.30260        1.60980
H         -0.11610       -0.23730        3.24740
H         -1.51640       -1.42780        0.79780
H         -0.13690       -2.15450        1.63700
H         -1.68200       -1.95860        2.46890
H         -0.01700       -0.05800       -0.27240
H         -0.06200        0.58470       -1.90320
H         -0.16720        2.89830       -1.08310
H          1.23280        2.08670       -0.37800
H         -0.22320        2.35570        0.59150
H          0.67880       -2.87410       -3.67590
H         -0.81620       -3.04410       -1.73950
H         -4.41960       -3.44740       -1.88960
H         -3.03060       -3.24200       -0.81250
H         -3.86080       -1.83150       -1.47770
H         -4.19970       -2.71650       -4.31550
H         -2.70900       -2.61100       -6.25770
H          0.37610       -5.00310       -5.64430
H          2.53700       -6.16830       -5.74350
H          5.26580       -5.23420       -7.48280
H          4.90240       -6.14400       -6.01370
H          5.73650       -4.58620       -5.91670
H          4.44510       -2.54060       -6.92200
H          2.29180       -1.36430       -6.79640
H         -0.74550        1.02260      -14.03090
H          0.77970        1.41900      -15.91450
H          4.23270        1.86250      -15.73830
H          2.95000        1.40980      -16.86810
H          4.01770        0.17720      -16.18580
H          4.10260        0.42340      -13.43150
H          2.59160        0.03160      -11.55020
H         -0.01560        2.84930      -11.58830
H         -1.94010        4.34580      -11.25730
H         -4.91210        3.50940       -9.84600
H         -5.36030        3.41270      -11.54510
H         -4.27950        4.69990      -10.99130
H         -4.53590        0.96990      -11.04560
H         -2.60350       -0.53380      -11.38790
H          2.23200       -3.27530      -11.77580
H         -2.10070       -1.28370      -15.81790
H          2.47900       -2.49210      -17.34020
