165

C         -3.06420       -1.07590       11.41560
C         -4.08330       -0.46860       12.07600
C         -4.95470        0.56220       11.45940
O         -5.07250        0.83510       10.28610
C         -5.74130        1.12060       12.57940
C         -6.62940        2.17520       12.56450
C         -7.25550        2.52410       13.75380
Br        -8.46420        3.97680       13.76900
C         -6.99260        1.81080       14.92520
Br        -7.85080        2.29340       16.53980
C         -6.10570        0.74050       14.93500
C         -5.47260        0.39250       13.75240
C         -4.50580       -0.66020       13.45030
C         -4.11320       -1.65540       14.30470
C         -4.56520       -1.78180       15.63550
N         -4.89900       -1.93040       16.72320
C         -3.25100       -2.71240       13.94860
N         -2.57730       -3.60990       13.70440
C         -2.58350       -0.56600       10.14670
C         -2.38680       -1.29700        8.98050
O         -2.72390       -2.59350        8.78390
C         -2.96430       -3.49010        9.84770
C         -1.67470       -3.96510       10.50780
C         -1.95840       -0.64720        7.78290
O         -1.83070       -1.31650        6.60310
C         -1.11160       -2.54180        6.53620
C          0.26020       -2.45730        7.19170
C         -1.76740        0.73030        7.72930
C         -1.80420        1.45770        8.95480
C         -2.27800        0.83300       10.13260
N         -2.40720        1.54710       11.26340
C         -2.03890        2.80230       11.25180
C         -1.44500        3.37800       10.11980
N         -1.33740        2.71260        8.99950
C         -1.52010        1.40500        6.48600
C         -1.75510        2.73200        6.15970
C         -2.51790        3.70060        6.94980
C         -2.07760        5.01750        7.05090
C         -2.80960        5.93580        7.77830
C         -3.98490        5.55580        8.40190
C         -4.45120        4.25130        8.29360
C         -5.74570        3.84030        8.93400
C         -6.90240        3.96560        7.94080
C         -3.71860        3.33640        7.55410
C         -1.26790        3.03440        4.87300
S         -1.27550        4.50310        3.92250
C         -0.53340        3.63550        2.62170
C         -0.06690        3.86150        1.31750
C          0.04940        5.05260        0.56860
C          0.65480        4.99840       -0.73030
N          0.74570        6.19090       -1.29770
S          0.11890        7.28820       -0.28510
N         -0.29200        6.28370        0.91590
C          1.00920        3.74020       -1.26390
C          1.45330        3.38070       -2.54550
S          1.88010        4.13550       -4.04400
C          2.09820        2.55050       -4.74520
C          2.41290        2.13370       -6.05060
C          2.64610        3.08330       -7.14500
C          3.66360        4.02460       -7.03880
C          3.87010        4.92810       -8.06430
C          3.06760        4.90070       -9.19090
C          2.03310        3.98020       -9.30210
C          1.19110        3.91000      -10.54260
C          1.77830        2.88610      -11.51670
C          1.82640        3.08020       -8.26780
C          2.43070        0.75410       -6.15370
S          2.04400       -0.02800       -4.61880
C          1.85810        1.50710       -3.84770
C          1.49550        1.98420       -2.58350
N          1.13720        1.46950       -1.36630
C          0.82990        2.53270       -0.53100
C          0.39410        2.60940        0.81820
N          0.25390        1.66440        1.82330
C         -0.30220        2.28810        2.90780
C         -0.70840        1.94480        4.20340
S         -0.78880        0.51290        5.16500
C          0.90110        0.38380        1.99760
C          2.41850        0.50020        1.87600
C          0.78620        0.07170       -1.26100
C         -0.72220       -0.11990       -1.12410
C          2.73420       -0.08070       -7.26100
S          3.36090        0.57560       -8.76610
C          3.40360       -1.01270       -9.44650
C          3.68890       -1.67780      -10.63140
C          3.42360       -3.05880      -10.39420
N          3.00940       -3.22980       -9.09650
C          2.55570       -4.46740       -8.51480
C          1.07780       -4.71560       -8.80760
C          2.96740       -1.99180       -8.52070
C          2.59600       -1.45680       -7.28790
C          3.62830       -3.86890      -11.49400
C          4.05270       -3.13970      -12.60360
S          4.21060       -1.40330      -12.24020
C          4.36070       -3.51100      -13.91430
C          4.30360       -4.72360      -14.57010
C          3.83980       -6.02310      -14.06030
O          3.45480       -6.33160      -12.94800
C          3.91820       -6.95440      -15.20830
C          3.57630       -8.28920      -15.24700
C          3.72840       -8.97050      -16.44750
Br         3.26890      -10.80310      -16.53650
C          4.21470       -8.30810      -17.57420
Br         4.41600       -9.24070      -19.20840
C          4.55990       -6.96150      -17.52960
C          4.41090       -6.27770      -16.33450
C          4.67750       -4.88760      -15.96200
C          5.20780       -3.95030      -16.81320
C          5.51780       -2.60770      -16.50920
N          5.81110       -1.50550      -16.36970
C          5.54240       -4.20960      -18.15920
N          5.83590       -4.35080      -19.26030
H         -2.49110       -1.84450       11.91480
H         -6.82740        2.71650       11.65240
H         -5.92870        0.21240       15.85810
H         -3.47950       -4.33250        9.37740
H         -3.64330       -3.03450       10.57920
H         -1.05010       -3.11950       10.78960
H         -1.10910       -4.59040        9.82120
H         -1.90680       -4.53640       11.40160
H         -1.00790       -2.71050        5.46110
H         -1.69810       -3.35650        6.96960
H          0.16820       -2.31540        8.26620
H          0.80870       -3.37680        7.00800
H          0.82060       -1.62180        6.77790
H         -2.18150        3.35560       12.17000
H         -1.04610        4.38190       10.12790
H         -1.14910        5.30990        6.58540
H         -2.45970        6.95440        7.86310
H         -4.54790        6.27720        8.97730
H         -5.94330        4.47940        9.79860
H         -5.66810        2.80490        9.27080
H         -7.83990        3.66900        8.40590
H         -6.99600        4.99310        7.59510
H         -6.72750        3.32840        7.07720
H         -4.07760        2.32070        7.46120
H          4.29270        4.03680       -6.16130
H          4.66330        5.65650       -7.98440
H          3.24040        5.60550       -9.99130
H          1.15500        4.88840      -11.02470
H          0.17130        3.61780      -10.28340
H          2.79080        3.16710      -11.79630
H          1.17250        2.82620      -12.41760
H          1.81580        1.90170      -11.05540
H          1.01410        2.36940       -8.33010
H          0.49750       -0.35270        1.30130
H          0.64450        0.04630        3.00490
H          2.87750       -0.47650        2.00420
H          2.70770        0.90120        0.90750
H          2.80110        1.16680        2.64540
H          1.12760       -0.40350       -2.18420
H          1.32700       -0.39930       -0.43980
H         -1.22680        0.27710       -2.00190
H         -1.10660        0.39830       -0.24910
H         -0.95620       -1.17770       -1.03890
H          2.72600       -4.41840       -7.43620
H          3.15960       -5.27880       -8.92900
H          0.47060       -3.90820       -8.40460
H          0.91270       -4.77400       -9.88060
H          0.76170       -5.65120       -8.35540
H          2.22800       -2.01830       -6.44820
H          3.47910       -4.93170      -11.53370
H          4.69090       -2.67440      -14.51800
H          3.20050       -8.78810      -14.36720
H          4.93050       -6.48730      -18.42330
