
  xtb     02212205303D
 energy: -392.546431291744 gnorm: 0.000720410335 xtb: 6.4.1 (unknown)
227251  0     0  0            999 V2000
    5.3707    0.7294   14.8754 C   0  0  0  0  0  0  0  0  0  0  0  0
    6.5953    0.1835   15.1696 C   0  0  0  0  0  0  0  0  0  0  0  0
    7.4632   -0.5538   14.2418 C   0  0  0  0  0  0  0  0  0  0  0  0
    7.2556   -0.8470   13.0808 O   0  0  0  0  0  0  0  0  0  0  0  0
    8.6803   -0.8868   15.0134 C   0  0  0  0  0  0  0  0  0  0  0  0
    9.8044   -1.5640   14.5919 C   0  0  0  0  0  0  0  0  0  0  0  0
   10.8362   -1.7537   15.5023 C   0  0  0  0  0  0  0  0  0  0  0  0
   12.3917   -2.6806   14.9577 Br  0  0  0  0  0  0  0  0  0  0  0  0
   10.7243   -1.2650   16.8042 C   0  0  0  0  0  0  0  0  0  0  0  0
   12.1357   -1.5231   18.0369 Br  0  0  0  0  0  0  0  0  0  0  0  0
    9.5874   -0.5841   17.2263 C   0  0  0  0  0  0  0  0  0  0  0  0
    8.5543   -0.3938   16.3237 C   0  0  0  0  0  0  0  0  0  0  0  0
    7.2537    0.2619   16.4573 C   0  0  0  0  0  0  0  0  0  0  0  0
    6.7699    0.8204   17.6144 C   0  0  0  0  0  0  0  0  0  0  0  0
    7.4858    0.8578   18.8294 C   0  0  0  0  0  0  0  0  0  0  0  0
    8.0161    0.9202   19.8456 N   0  0  0  0  0  0  0  0  0  0  0  0
    5.5042    1.4197   17.7821 C   0  0  0  0  0  0  0  0  0  0  0  0
    4.4951    1.9179   18.0148 N   0  0  0  0  0  0  0  0  0  0  0  0
    4.6318    0.7296   13.6840 C   0  0  0  0  0  0  0  0  0  0  0  0
    3.3892    1.3403   13.5985 C   0  0  0  0  0  0  0  0  0  0  0  0
    2.7765    1.2318   12.3480 C   0  0  0  0  0  0  0  0  0  0  0  0
    1.5210    1.7563   11.9402 C   0  0  0  0  0  0  0  0  0  0  0  0
    0.6252    2.4442   12.8367 C   0  0  0  0  0  0  0  0  0  0  0  0
   -0.1952    3.5007   12.5374 C   0  0  0  0  0  0  0  0  0  0  0  0
   -1.0378    3.9416   13.5712 C   0  0  0  0  0  0  0  0  0  0  0  0
   -0.9508    3.2299   14.7368 C   0  0  0  0  0  0  0  0  0  0  0  0
   -1.9627    3.5211   16.1282 S   0  0  0  0  0  0  0  0  0  0  0  0
   -1.0542    2.6296   17.4408 C   0  0  0  0  0  0  0  0  0  0  0  0
    0.2138    3.3483   17.8530 C   0  0  0  0  0  0  0  0  0  0  0  0
    0.3094    1.8437   14.5975 Se  0  0  0  0  0  2  0  0  0  0  0  0
    1.1742    1.5248   10.6167 C   0  0  0  0  0  0  0  0  0  0  0  0
    1.9791    0.7991    9.7003 C   0  0  0  0  0  0  0  0  0  0  0  0
    3.2591    0.3355   10.0891 C   0  0  0  0  0  0  0  0  0  0  0  0
    4.1557   -0.2944    9.1512 C   0  0  0  0  0  0  0  0  0  0  0  0
    4.2815   -0.0232    7.8121 C   0  0  0  0  0  0  0  0  0  0  0  0
    5.2330   -0.7820    7.1113 C   0  0  0  0  0  0  0  0  0  0  0  0
    5.9129   -1.6978    7.8681 C   0  0  0  0  0  0  0  0  0  0  0  0
    7.1775   -2.7171    7.2220 S   0  0  0  0  0  0  0  0  0  0  0  0
    7.6745   -3.6902    8.6856 C   0  0  0  0  0  0  0  0  0  0  0  0
    6.7182   -4.8308    8.9701 C   0  0  0  0  0  0  0  0  0  0  0  0
    5.3696   -1.6390    9.6700 Se  0  0  0  0  0  2  0  0  0  0  0  0
    3.6042    0.5393   11.4227 C   0  0  0  0  0  0  0  0  0  0  0  0
    5.0925    0.0142   12.1532 S   0  0  0  0  0  0  0  0  0  0  0  0
    1.3029    0.5810    8.4814 C   0  0  0  0  0  0  0  0  0  0  0  0
    0.0480    1.1298    8.4286 C   0  0  0  0  0  0  0  0  0  0  0  0
   -0.3564    1.9716    9.9075 S   0  0  0  0  0  0  0  0  0  0  0  0
   -0.8245    1.1326    7.3073 C   0  0  0  0  0  0  0  0  0  0  0  0
   -2.1267    1.5897    7.2036 C   0  0  0  0  0  0  0  0  0  0  0  0
   -2.9627    2.0149    8.3298 C   0  0  0  0  0  0  0  0  0  0  0  0
   -3.5878    3.2566    8.3091 C   0  0  0  0  0  0  0  0  0  0  0  0
   -4.3703    3.6474    9.3797 C   0  0  0  0  0  0  0  0  0  0  0  0
   -4.5381    2.8078   10.4664 C   0  0  0  0  0  0  0  0  0  0  0  0
   -3.9401    1.5535   10.4919 C   0  0  0  0  0  0  0  0  0  0  0  0
   -4.0865    0.6567   11.6869 C   0  0  0  0  0  0  0  0  0  0  0  0
   -3.0112    0.9821   12.7248 C   0  0  0  0  0  0  0  0  0  0  0  0
   -3.1590    1.1657    9.4149 C   0  0  0  0  0  0  0  0  0  0  0  0
   -2.5724    1.5708    5.8693 C   0  0  0  0  0  0  0  0  0  0  0  0
   -4.0752    2.0558    5.1215 S   0  0  0  0  0  0  0  0  0  0  0  0
   -3.4253    1.5996    3.5829 C   0  0  0  0  0  0  0  0  0  0  0  0
   -3.8016    1.5801    2.2304 C   0  0  0  0  0  0  0  0  0  0  0  0
   -5.0254    1.9013    1.6049 C   0  0  0  0  0  0  0  0  0  0  0  0
   -5.1521    1.7078    0.1896 C   0  0  0  0  0  0  0  0  0  0  0  0
   -6.3632    2.0053   -0.2555 N   0  0  0  0  0  0  0  0  0  0  0  0
   -7.2643    2.4925    0.9984 S   0  0  0  0  0  0  0  0  0  0  0  0
   -6.1451    2.3412    2.1580 N   0  0  0  0  0  0  0  0  0  0  0  0
   -4.0207    1.2953   -0.5467 C   0  0  0  0  0  0  0  0  0  0  0  0
   -3.8273    1.1434   -1.9296 C   0  0  0  0  0  0  0  0  0  0  0  0
   -4.7282    1.2308   -3.4071 S   0  0  0  0  0  0  0  0  0  0  0  0
   -3.2739    0.8357   -4.2924 C   0  0  0  0  0  0  0  0  0  0  0  0
   -3.0363    0.5367   -5.6522 C   0  0  0  0  0  0  0  0  0  0  0  0
   -4.0744    0.6266   -6.6814 C   0  0  0  0  0  0  0  0  0  0  0  0
   -4.9187    1.7345   -6.6941 C   0  0  0  0  0  0  0  0  0  0  0  0
   -5.9175    1.8333   -7.6433 C   0  0  0  0  0  0  0  0  0  0  0  0
   -6.0951    0.8295   -8.5790 C   0  0  0  0  0  0  0  0  0  0  0  0
   -5.2668   -0.2854   -8.5798 C   0  0  0  0  0  0  0  0  0  0  0  0
   -5.4862   -1.4143   -9.5461 C   0  0  0  0  0  0  0  0  0  0  0  0
   -6.3434   -2.5057   -8.9020 C   0  0  0  0  0  0  0  0  0  0  0  0
   -4.2605   -0.3719   -7.6305 C   0  0  0  0  0  0  0  0  0  0  0  0
   -1.7377    0.1113   -5.8445 C   0  0  0  0  0  0  0  0  0  0  0  0
   -0.7709    0.2064   -4.3788 S   0  0  0  0  0  0  0  0  0  0  0  0
   -2.1629    0.6603   -3.4696 C   0  0  0  0  0  0  0  0  0  0  0  0
   -2.4795    0.8345   -2.1170 C   0  0  0  0  0  0  0  0  0  0  0  0
   -1.8393    0.7555   -0.9115 N   0  0  0  0  0  0  0  0  0  0  0  0
   -2.7687    1.0321    0.0796 C   0  0  0  0  0  0  0  0  0  0  0  0
   -2.6893    1.0788    1.4966 C   0  0  0  0  0  0  0  0  0  0  0  0
   -1.6799    0.7677    2.3955 N   0  0  0  0  0  0  0  0  0  0  0  0
   -2.1274    1.0878    3.6497 C   0  0  0  0  0  0  0  0  0  0  0  0
   -1.6363    1.0725    4.9597 C   0  0  0  0  0  0  0  0  0  0  0  0
   -0.1665    0.6290    5.7520 S   0  0  0  0  0  0  0  0  0  0  0  0
   -0.5570   -0.1325    2.2529 C   0  0  0  0  0  0  0  0  0  0  0  0
   -1.0008   -1.5051    1.7523 C   0  0  0  0  0  0  0  0  0  0  0  0
   -0.3948    0.7655   -0.8780 C   0  0  0  0  0  0  0  0  0  0  0  0
    0.1466    2.1111   -0.4015 C   0  0  0  0  0  0  0  0  0  0  0  0
   -1.1254   -0.3864   -7.0379 C   0  0  0  0  0  0  0  0  0  0  0  0
   -0.3545   -1.5353   -7.1760 C   0  0  0  0  0  0  0  0  0  0  0  0
   -0.0551   -2.4530   -6.1847 N   0  0  0  0  0  0  0  0  0  0  0  0
   -0.9112   -2.6768   -5.0978 C   0  0  0  0  0  0  0  0  0  0  0  0
   -0.3916   -2.8471   -3.8156 C   0  0  0  0  0  0  0  0  0  0  0  0
   -1.2385   -2.9338   -2.7283 C   0  0  0  0  0  0  0  0  0  0  0  0
   -2.6171   -2.8514   -2.8802 C   0  0  0  0  0  0  0  0  0  0  0  0
   -3.5321   -2.8495   -1.6943 C   0  0  0  0  0  0  0  0  0  0  0  0
   -3.1298   -2.7495   -4.1686 C   0  0  0  0  0  0  0  0  0  0  0  0
   -2.2940   -2.6778   -5.2641 C   0  0  0  0  0  0  0  0  0  0  0  0
    1.1881   -3.1121   -6.2305 C   0  0  0  0  0  0  0  0  0  0  0  0
    1.2708   -4.4661   -5.9234 C   0  0  0  0  0  0  0  0  0  0  0  0
    2.4885   -5.1151   -5.9798 C   0  0  0  0  0  0  0  0  0  0  0  0
    3.6458   -4.4400   -6.3475 C   0  0  0  0  0  0  0  0  0  0  0  0
    4.9630   -5.1459   -6.4397 C   0  0  0  0  0  0  0  0  0  0  0  0
    3.5547   -3.0845   -6.6427 C   0  0  0  0  0  0  0  0  0  0  0  0
    2.3457   -2.4218   -6.5806 C   0  0  0  0  0  0  0  0  0  0  0  0
    0.0728   -1.6821   -8.5194 C   0  0  0  0  0  0  0  0  0  0  0  0
    1.0665   -2.8343   -9.3303 S   0  0  0  0  0  0  0  0  0  0  0  0
    0.8512   -1.9797  -10.8687 C   0  0  0  0  0  0  0  0  0  0  0  0
    0.0982   -0.7906  -10.7081 C   0  0  0  0  0  0  0  0  0  0  0  0
   -0.0807    0.2001  -11.6246 N   0  0  0  0  0  0  0  0  0  0  0  0
    0.8103    0.4611  -12.6720 C   0  0  0  0  0  0  0  0  0  0  0  0
    0.3179    0.8849  -13.9052 C   0  0  0  0  0  0  0  0  0  0  0  0
    1.1816    1.1070  -14.9613 C   0  0  0  0  0  0  0  0  0  0  0  0
    2.5501    0.9184  -14.8221 C   0  0  0  0  0  0  0  0  0  0  0  0
    3.4865    1.1050  -15.9734 C   0  0  0  0  0  0  0  0  0  0  0  0
    3.0383    0.5460  -13.5710 C   0  0  0  0  0  0  0  0  0  0  0  0
    2.1886    0.3207  -12.5092 C   0  0  0  0  0  0  0  0  0  0  0  0
   -1.1917    1.0642  -11.4722 C   0  0  0  0  0  0  0  0  0  0  0  0
   -1.0080    2.4412  -11.4627 C   0  0  0  0  0  0  0  0  0  0  0  0
   -2.0934    3.2767  -11.2772 C   0  0  0  0  0  0  0  0  0  0  0  0
   -3.3717    2.7611  -11.1060 C   0  0  0  0  0  0  0  0  0  0  0  0
   -4.5472    3.6545  -10.8629 C   0  0  0  0  0  0  0  0  0  0  0  0
   -3.5449    1.3815  -11.1533 C   0  0  0  0  0  0  0  0  0  0  0  0
   -2.4708    0.5351  -11.3312 C   0  0  0  0  0  0  0  0  0  0  0  0
   -0.3665   -0.6821   -9.3770 C   0  0  0  0  0  0  0  0  0  0  0  0
   -1.3364    0.4870   -8.5457 S   0  0  0  0  0  0  0  0  0  0  0  0
    1.4597   -2.5442  -11.9828 C   0  0  0  0  0  0  0  0  0  0  0  0
    1.1383   -2.2865  -13.3066 C   0  0  0  0  0  0  0  0  0  0  0  0
   -0.1998   -1.8942  -13.7543 C   0  0  0  0  0  0  0  0  0  0  0  0
   -1.1970   -1.7274  -13.0761 O   0  0  0  0  0  0  0  0  0  0  0  0
   -0.1234   -1.8640  -15.2356 C   0  0  0  0  0  0  0  0  0  0  0  0
   -1.1061   -1.5441  -16.1449 C   0  0  0  0  0  0  0  0  0  0  0  0
   -0.7775   -1.5508  -17.4958 C   0  0  0  0  0  0  0  0  0  0  0  0
   -2.0980   -1.0810  -18.7681 Br  0  0  0  0  0  0  0  0  0  0  0  0
    0.5092   -1.8887  -17.9071 C   0  0  0  0  0  0  0  0  0  0  0  0
    0.9502   -1.8890  -19.7484 Br  0  0  0  0  0  0  0  0  0  0  0  0
    1.4962   -2.2263  -16.9859 C   0  0  0  0  0  0  0  0  0  0  0  0
    1.1769   -2.2080  -15.6414 C   0  0  0  0  0  0  0  0  0  0  0  0
    1.9831   -2.4654  -14.4480 C   0  0  0  0  0  0  0  0  0  0  0  0
    3.3439   -2.6632  -14.4275 C   0  0  0  0  0  0  0  0  0  0  0  0
    4.1041   -2.7593  -13.2461 C   0  0  0  0  0  0  0  0  0  0  0  0
    4.7855   -2.8113  -12.3226 N   0  0  0  0  0  0  0  0  0  0  0  0
    4.1491   -2.7045  -15.5794 C   0  0  0  0  0  0  0  0  0  0  0  0
    4.8501   -2.7231  -16.4897 N   0  0  0  0  0  0  0  0  0  0  0  0
    4.8693    1.2539   15.6798 H   0  0  0  0  0  0  0  0  0  0  0  0
    9.8789   -1.9348   13.5814 H   0  0  0  0  0  0  0  0  0  0  0  0
    9.5398   -0.2218   18.2402 H   0  0  0  0  0  0  0  0  0  0  0  0
    2.9689    1.8676   14.4393 H   0  0  0  0  0  0  0  0  0  0  0  0
   -0.1559    4.0065   11.5877 H   0  0  0  0  0  0  0  0  0  0  0  0
   -1.7031    4.7805   13.4631 H   0  0  0  0  0  0  0  0  0  0  0  0
   -0.8488    1.6225   17.0641 H   0  0  0  0  0  0  0  0  0  0  0  0
   -1.7607    2.5637   18.2675 H   0  0  0  0  0  0  0  0  0  0  0  0
   -0.0165    4.3447   18.2225 H   0  0  0  0  0  0  0  0  0  0  0  0
    0.7170    2.7888   18.6382 H   0  0  0  0  0  0  0  0  0  0  0  0
    0.8987    3.4406   17.0099 H   0  0  0  0  0  0  0  0  0  0  0  0
    3.7288    0.7670    7.3327 H   0  0  0  0  0  0  0  0  0  0  0  0
    5.4279   -0.6486    6.0611 H   0  0  0  0  0  0  0  0  0  0  0  0
    8.6710   -4.0608    8.4466 H   0  0  0  0  0  0  0  0  0  0  0  0
    7.7391   -2.9948    9.5279 H   0  0  0  0  0  0  0  0  0  0  0  0
    5.7200   -4.4495    9.1886 H   0  0  0  0  0  0  0  0  0  0  0  0
    6.6555   -5.4975    8.1131 H   0  0  0  0  0  0  0  0  0  0  0  0
    7.0662   -5.3964    9.8316 H   0  0  0  0  0  0  0  0  0  0  0  0
    1.7004   -0.0060    7.6733 H   0  0  0  0  0  0  0  0  0  0  0  0
   -3.4466    3.9140    7.4643 H   0  0  0  0  0  0  0  0  0  0  0  0
   -4.8505    4.6146    9.3663 H   0  0  0  0  0  0  0  0  0  0  0  0
   -5.1458    3.1236   11.3020 H   0  0  0  0  0  0  0  0  0  0  0  0
   -3.9901   -0.3871   11.3816 H   0  0  0  0  0  0  0  0  0  0  0  0
   -5.0719    0.7932   12.1365 H   0  0  0  0  0  0  0  0  0  0  0  0
   -2.0194    0.8594   12.2926 H   0  0  0  0  0  0  0  0  0  0  0  0
   -3.1098    2.0119   13.0605 H   0  0  0  0  0  0  0  0  0  0  0  0
   -3.1006    0.3250   13.5871 H   0  0  0  0  0  0  0  0  0  0  0  0
   -2.6989    0.1871    9.4114 H   0  0  0  0  0  0  0  0  0  0  0  0
   -4.7817    2.5205   -5.9670 H   0  0  0  0  0  0  0  0  0  0  0  0
   -6.5678    2.6961   -7.6473 H   0  0  0  0  0  0  0  0  0  0  0  0
   -6.8856    0.9097   -9.3117 H   0  0  0  0  0  0  0  0  0  0  0  0
   -5.9906   -1.0487  -10.4427 H   0  0  0  0  0  0  0  0  0  0  0  0
   -4.5253   -1.8392   -9.8441 H   0  0  0  0  0  0  0  0  0  0  0  0
   -6.5015   -3.3256   -9.5986 H   0  0  0  0  0  0  0  0  0  0  0  0
   -5.8563   -2.8959   -8.0110 H   0  0  0  0  0  0  0  0  0  0  0  0
   -7.3118   -2.1037   -8.6122 H   0  0  0  0  0  0  0  0  0  0  0  0
   -3.6224   -1.2427   -7.6235 H   0  0  0  0  0  0  0  0  0  0  0  0
    0.2087    0.3026    1.6098 H   0  0  0  0  0  0  0  0  0  0  0  0
   -0.1161   -0.2373    3.2474 H   0  0  0  0  0  0  0  0  0  0  0  0
   -1.5164   -1.4278    0.7978 H   0  0  0  0  0  0  0  0  0  0  0  0
   -0.1369   -2.1545    1.6370 H   0  0  0  0  0  0  0  0  0  0  0  0
   -1.6820   -1.9586    2.4689 H   0  0  0  0  0  0  0  0  0  0  0  0
   -0.0170   -0.0580   -0.2724 H   0  0  0  0  0  0  0  0  0  0  0  0
   -0.0620    0.5847   -1.9032 H   0  0  0  0  0  0  0  0  0  0  0  0
   -0.1672    2.8983   -1.0831 H   0  0  0  0  0  0  0  0  0  0  0  0
    1.2328    2.0867   -0.3780 H   0  0  0  0  0  0  0  0  0  0  0  0
   -0.2232    2.3557    0.5915 H   0  0  0  0  0  0  0  0  0  0  0  0
    0.6788   -2.8741   -3.6759 H   0  0  0  0  0  0  0  0  0  0  0  0
   -0.8162   -3.0441   -1.7395 H   0  0  0  0  0  0  0  0  0  0  0  0
   -4.4196   -3.4474   -1.8896 H   0  0  0  0  0  0  0  0  0  0  0  0
   -3.0306   -3.2420   -0.8125 H   0  0  0  0  0  0  0  0  0  0  0  0
   -3.8608   -1.8315   -1.4777 H   0  0  0  0  0  0  0  0  0  0  0  0
   -4.1997   -2.7165   -4.3155 H   0  0  0  0  0  0  0  0  0  0  0  0
   -2.7090   -2.6110   -6.2577 H   0  0  0  0  0  0  0  0  0  0  0  0
    0.3761   -5.0031   -5.6443 H   0  0  0  0  0  0  0  0  0  0  0  0
    2.5370   -6.1683   -5.7435 H   0  0  0  0  0  0  0  0  0  0  0  0
    5.2658   -5.2342   -7.4828 H   0  0  0  0  0  0  0  0  0  0  0  0
    4.9024   -6.1440   -6.0137 H   0  0  0  0  0  0  0  0  0  0  0  0
    5.7365   -4.5862   -5.9167 H   0  0  0  0  0  0  0  0  0  0  0  0
    4.4451   -2.5406   -6.9220 H   0  0  0  0  0  0  0  0  0  0  0  0
    2.2918   -1.3643   -6.7964 H   0  0  0  0  0  0  0  0  0  0  0  0
   -0.7455    1.0226  -14.0309 H   0  0  0  0  0  0  0  0  0  0  0  0
    0.7797    1.4190  -15.9145 H   0  0  0  0  0  0  0  0  0  0  0  0
    4.2327    1.8625  -15.7383 H   0  0  0  0  0  0  0  0  0  0  0  0
    2.9500    1.4098  -16.8681 H   0  0  0  0  0  0  0  0  0  0  0  0
    4.0177    0.1772  -16.1858 H   0  0  0  0  0  0  0  0  0  0  0  0
    4.1026    0.4234  -13.4315 H   0  0  0  0  0  0  0  0  0  0  0  0
    2.5916    0.0316  -11.5502 H   0  0  0  0  0  0  0  0  0  0  0  0
   -0.0156    2.8493  -11.5883 H   0  0  0  0  0  0  0  0  0  0  0  0
   -1.9401    4.3458  -11.2573 H   0  0  0  0  0  0  0  0  0  0  0  0
   -4.9121    3.5094   -9.8460 H   0  0  0  0  0  0  0  0  0  0  0  0
   -5.3603    3.4127  -11.5451 H   0  0  0  0  0  0  0  0  0  0  0  0
   -4.2795    4.6999  -10.9913 H   0  0  0  0  0  0  0  0  0  0  0  0
   -4.5359    0.9699  -11.0456 H   0  0  0  0  0  0  0  0  0  0  0  0
   -2.6035   -0.5338  -11.3879 H   0  0  0  0  0  0  0  0  0  0  0  0
    2.2320   -3.2753  -11.7758 H   0  0  0  0  0  0  0  0  0  0  0  0
   -2.1007   -1.2837  -15.8179 H   0  0  0  0  0  0  0  0  0  0  0  0
    2.4790   -2.4921  -17.3402 H   0  0  0  0  0  0  0  0  0  0  0  0
  1  2  2  0  0  0  0
  2  3  1  0  0  0  0
  3  4  2  0  0  0  0
  3  5  1  0  0  0  0
  5  6  2  0  0  0  0
  6  7  1  0  0  0  0
  7  8  1  0  0  0  0
  7  9  2  0  0  0  0
  9 10  1  0  0  0  0
  9 11  1  0  0  0  0
 11 12  2  0  0  0  0
 12 13  1  0  0  0  0
 13 14  2  0  0  0  0
 14 15  1  0  0  0  0
 15 16  3  0  0  0  0
 14 17  1  0  0  0  0
 17 18  3  0  0  0  0
  1 19  1  0  0  0  0
 19 20  2  0  0  0  0
 20 21  1  0  0  0  0
 21 22  2  0  0  0  0
 22 23  1  0  0  0  0
 23 24  2  0  0  0  0
 24 25  1  0  0  0  0
 25 26  2  0  0  0  0
 26 27  1  0  0  0  0
 27 28  1  0  0  0  0
 28 29  1  0  0  0  0
 26 30  1  0  0  0  0
 22 31  1  0  0  0  0
 31 32  2  0  0  0  0
 32 33  1  0  0  0  0
 33 34  1  0  0  0  0
 34 35  2  0  0  0  0
 35 36  1  0  0  0  0
 36 37  2  0  0  0  0
 37 38  1  0  0  0  0
 38 39  1  0  0  0  0
 39 40  1  0  0  0  0
 37 41  1  0  0  0  0
 33 42  2  0  0  0  0
 42 43  1  0  0  0  0
 32 44  1  0  0  0  0
 44 45  2  0  0  0  0
 45 46  1  0  0  0  0
 45 47  1  0  0  0  0
 47 48  2  0  0  0  0
 48 49  1  0  0  0  0
 49 50  2  0  0  0  0
 50 51  1  0  0  0  0
 51 52  2  0  0  0  0
 52 53  1  0  0  0  0
 53 54  1  0  0  0  0
 54 55  1  0  0  0  0
 53 56  2  0  0  0  0
 48 57  1  0  0  0  0
 57 58  1  0  0  0  0
 58 59  1  0  0  0  0
 59 60  1  0  0  0  0
 60 61  1  0  0  0  0
 61 62  1  0  0  0  0
 62 63  2  0  0  0  0
 63 64  1  0  0  0  0
 64 65  1  0  0  0  0
 62 66  1  0  0  0  0
 66 67  1  0  0  0  0
 67 68  1  0  0  0  0
 68 69  1  0  0  0  0
 69 70  1  0  0  0  0
 70 71  1  0  0  0  0
 71 72  2  0  0  0  0
 72 73  1  0  0  0  0
 73 74  2  0  0  0  0
 74 75  1  0  0  0  0
 75 76  1  0  0  0  0
 76 77  1  0  0  0  0
 75 78  2  0  0  0  0
 70 79  2  0  0  0  0
 79 80  1  0  0  0  0
 80 81  1  0  0  0  0
 81 82  1  0  0  0  0
 82 83  1  0  0  0  0
 83 84  1  0  0  0  0
 84 85  1  0  0  0  0
 85 86  1  0  0  0  0
 86 87  1  0  0  0  0
 87 88  1  0  0  0  0
 88 89  1  0  0  0  0
 86 90  1  0  0  0  0
 90 91  1  0  0  0  0
 83 92  1  0  0  0  0
 92 93  1  0  0  0  0
 79 94  1  0  0  0  0
 94 95  2  0  0  0  0
 95 96  1  0  0  0  0
 96 97  1  0  0  0  0
 97 98  2  0  0  0  0
 98 99  1  0  0  0  0
 99100  2  0  0  0  0
100101  1  0  0  0  0
100102  1  0  0  0  0
102103  2  0  0  0  0
 96104  1  0  0  0  0
104105  2  0  0  0  0
105106  1  0  0  0  0
106107  2  0  0  0  0
107108  1  0  0  0  0
107109  1  0  0  0  0
109110  2  0  0  0  0
 95111  1  0  0  0  0
111112  1  0  0  0  0
112113  1  0  0  0  0
113114  2  0  0  0  0
114115  1  0  0  0  0
115116  1  0  0  0  0
116117  2  0  0  0  0
117118  1  0  0  0  0
118119  2  0  0  0  0
119120  1  0  0  0  0
119121  1  0  0  0  0
121122  2  0  0  0  0
115123  1  0  0  0  0
123124  2  0  0  0  0
124125  1  0  0  0  0
125126  2  0  0  0  0
126127  1  0  0  0  0
126128  1  0  0  0  0
128129  2  0  0  0  0
114130  1  0  0  0  0
130131  1  0  0  0  0
113132  1  0  0  0  0
132133  2  0  0  0  0
133134  1  0  0  0  0
134135  2  0  0  0  0
134136  1  0  0  0  0
136137  2  0  0  0  0
137138  1  0  0  0  0
138139  1  0  0  0  0
138140  2  0  0  0  0
140141  1  0  0  0  0
140142  1  0  0  0  0
142143  2  0  0  0  0
143144  1  0  0  0  0
144145  2  0  0  0  0
145146  1  0  0  0  0
146147  3  0  0  0  0
145148  1  0  0  0  0
148149  3  0  0  0  0
 13  2  1  0  0  0  0
 43 19  1  0  0  0  0
 89 47  1  0  0  0  0
131 94  1  0  0  0  0
144133  1  0  0  0  0
 12  5  1  0  0  0  0
 42 21  1  0  0  0  0
 56 49  1  0  0  0  0
 88 57  2  0  0  0  0
103 97  1  0  0  0  0
110104  1  0  0  0  0
130111  2  0  0  0  0
143136  1  0  0  0  0
 30 23  1  0  0  0  0
 46 31  1  0  0  0  0
 87 59  2  0  0  0  0
122116  1  0  0  0  0
129123  1  0  0  0  0
 41 34  1  0  0  0  0
 85 60  2  0  0  0  0
 65 61  2  0  0  0  0
 84 66  2  0  0  0  0
 82 67  2  0  0  0  0
 81 69  2  0  0  0  0
 78 71  1  0  0  0  0
  1150  1  0  0  0  0
  6151  1  0  0  0  0
 11152  1  0  0  0  0
 20153  1  0  0  0  0
 24154  1  0  0  0  0
 25155  1  0  0  0  0
 28156  1  0  0  0  0
 28157  1  0  0  0  0
 29158  1  0  0  0  0
 29159  1  0  0  0  0
 29160  1  0  0  0  0
 35161  1  0  0  0  0
 36162  1  0  0  0  0
 39163  1  0  0  0  0
 39164  1  0  0  0  0
 40165  1  0  0  0  0
 40166  1  0  0  0  0
 40167  1  0  0  0  0
 44168  1  0  0  0  0
 50169  1  0  0  0  0
 51170  1  0  0  0  0
 52171  1  0  0  0  0
 54172  1  0  0  0  0
 54173  1  0  0  0  0
 55174  1  0  0  0  0
 55175  1  0  0  0  0
 55176  1  0  0  0  0
 56177  1  0  0  0  0
 72178  1  0  0  0  0
 73179  1  0  0  0  0
 74180  1  0  0  0  0
 76181  1  0  0  0  0
 76182  1  0  0  0  0
 77183  1  0  0  0  0
 77184  1  0  0  0  0
 77185  1  0  0  0  0
 78186  1  0  0  0  0
 90187  1  0  0  0  0
 90188  1  0  0  0  0
 91189  1  0  0  0  0
 91190  1  0  0  0  0
 91191  1  0  0  0  0
 92192  1  0  0  0  0
 92193  1  0  0  0  0
 93194  1  0  0  0  0
 93195  1  0  0  0  0
 93196  1  0  0  0  0
 98197  1  0  0  0  0
 99198  1  0  0  0  0
101199  1  0  0  0  0
101200  1  0  0  0  0
101201  1  0  0  0  0
102202  1  0  0  0  0
103203  1  0  0  0  0
105204  1  0  0  0  0
106205  1  0  0  0  0
108206  1  0  0  0  0
108207  1  0  0  0  0
108208  1  0  0  0  0
109209  1  0  0  0  0
110210  1  0  0  0  0
117211  1  0  0  0  0
118212  1  0  0  0  0
120213  1  0  0  0  0
120214  1  0  0  0  0
120215  1  0  0  0  0
121216  1  0  0  0  0
122217  1  0  0  0  0
124218  1  0  0  0  0
125219  1  0  0  0  0
127220  1  0  0  0  0
127221  1  0  0  0  0
127222  1  0  0  0  0
128223  1  0  0  0  0
129224  1  0  0  0  0
132225  1  0  0  0  0
137226  1  0  0  0  0
142227  1  0  0  0  0
M  END
