
  xtb     02252210423D
 energy: -341.270299723451 gnorm: 0.000898013300 xtb: 6.4.1 (unknown)
197217  0     0  0            999 V2000
   12.1307    6.3969    2.8452 C   0  0  0  0  0  0  0  0  0  0  0  0
   11.5397    7.2579    1.9653 C   0  0  0  0  0  0  0  0  0  0  0  0
   12.0081    8.6618    1.8708 C   0  0  0  0  0  0  0  0  0  0  0  0
   13.0308    9.1265    2.3172 O   0  0  0  0  0  0  0  0  0  0  0  0
   10.9187    9.3790    1.1646 C   0  0  0  0  0  0  0  0  0  0  0  0
   10.7907   10.7295    0.9163 C   0  0  0  0  0  0  0  0  0  0  0  0
    9.6507   11.1773    0.2564 C   0  0  0  0  0  0  0  0  0  0  0  0
    9.4570   12.8540   -0.0670 Cl  0  0  0  0  0  0  0  0  0  0  0  0
    8.6697   10.2638   -0.1372 C   0  0  0  0  0  0  0  0  0  0  0  0
    7.1105   10.8772   -1.0134 Br  0  0  0  0  0  0  0  0  0  0  0  0
    8.8033    8.9013    0.1007 C   0  0  0  0  0  0  0  0  0  0  0  0
    9.9378    8.4565    0.7564 C   0  0  0  0  0  0  0  0  0  0  0  0
   10.3821    7.1108    1.1113 C   0  0  0  0  0  0  0  0  0  0  0  0
    9.9460    5.9547    0.5157 C   0  0  0  0  0  0  0  0  0  0  0  0
    8.8219    5.8748   -0.3289 C   0  0  0  0  0  0  0  0  0  0  0  0
    7.8895    5.7437   -0.9859 N   0  0  0  0  0  0  0  0  0  0  0  0
   10.6178    4.7192    0.6249 C   0  0  0  0  0  0  0  0  0  0  0  0
   11.1575    3.7056    0.6316 N   0  0  0  0  0  0  0  0  0  0  0  0
   11.6065    5.2020    3.3799 C   0  0  0  0  0  0  0  0  0  0  0  0
   12.3124    4.1556    3.9389 C   0  0  0  0  0  0  0  0  0  0  0  0
   11.5231    3.0674    4.3204 C   0  0  0  0  0  0  0  0  0  0  0  0
   12.2788    1.5714    4.8681 S   0  0  0  0  0  0  0  0  0  0  0  0
   11.5684    0.3619    3.6918 C   0  0  0  0  0  0  0  0  0  0  0  0
   11.9233    0.6851    2.2552 C   0  0  0  0  0  0  0  0  0  0  0  0
   10.1625    3.2931    4.1402 C   0  0  0  0  0  0  0  0  0  0  0  0
    9.8940    4.8612    3.4320 S   0  0  0  0  0  0  0  0  0  0  0  0
    9.0222    2.4699    4.3349 C   0  0  0  0  0  0  0  0  0  0  0  0
    8.7579    1.4846    5.2759 C   0  0  0  0  0  0  0  0  0  0  0  0
    9.5784    1.1932    6.4487 C   0  0  0  0  0  0  0  0  0  0  0  0
   10.1393    2.2261    7.1966 C   0  0  0  0  0  0  0  0  0  0  0  0
   10.8846    1.9329    8.3210 C   0  0  0  0  0  0  0  0  0  0  0  0
   11.0762    0.6180    8.7093 C   0  0  0  0  0  0  0  0  0  0  0  0
   10.5207   -0.4238    7.9777 C   0  0  0  0  0  0  0  0  0  0  0  0
   10.6744   -1.8503    8.4182 C   0  0  0  0  0  0  0  0  0  0  0  0
    9.4560   -2.2843    9.2358 C   0  0  0  0  0  0  0  0  0  0  0  0
    9.7692   -0.1239    6.8524 C   0  0  0  0  0  0  0  0  0  0  0  0
    7.5264    0.8545    5.0135 C   0  0  0  0  0  0  0  0  0  0  0  0
    6.6605   -0.4291    5.8255 S   0  0  0  0  0  0  0  0  0  0  0  0
    5.3806   -0.2635    4.6737 C   0  0  0  0  0  0  0  0  0  0  0  0
    4.1136   -0.8036    4.4078 C   0  0  0  0  0  0  0  0  0  0  0  0
    3.3257   -1.7226    5.1338 C   0  0  0  0  0  0  0  0  0  0  0  0
    1.9860   -1.9840    4.6927 C   0  0  0  0  0  0  0  0  0  0  0  0
    1.3406   -2.8117    5.4996 N   0  0  0  0  0  0  0  0  0  0  0  0
    2.3351   -3.2323    6.7056 S   0  0  0  0  0  0  0  0  0  0  0  0
    3.6283   -2.3718    6.2472 N   0  0  0  0  0  0  0  0  0  0  0  0
    1.5447   -1.4160    3.4778 C   0  0  0  0  0  0  0  0  0  0  0  0
    0.3670   -1.6209    2.7404 C   0  0  0  0  0  0  0  0  0  0  0  0
   -1.1329   -2.4781    2.8679 S   0  0  0  0  0  0  0  0  0  0  0  0
   -1.5642   -1.9050    1.2761 C   0  0  0  0  0  0  0  0  0  0  0  0
   -2.7250   -2.0674    0.4927 C   0  0  0  0  0  0  0  0  0  0  0  0
   -3.8559   -2.8955    0.9230 C   0  0  0  0  0  0  0  0  0  0  0  0
   -4.2967   -3.9624    0.1469 C   0  0  0  0  0  0  0  0  0  0  0  0
   -5.3469   -4.7456    0.5883 C   0  0  0  0  0  0  0  0  0  0  0  0
   -5.9481   -4.4851    1.8066 C   0  0  0  0  0  0  0  0  0  0  0  0
   -5.5014   -3.4403    2.6066 C   0  0  0  0  0  0  0  0  0  0  0  0
   -6.0914   -3.1982    3.9657 C   0  0  0  0  0  0  0  0  0  0  0  0
   -5.2543   -3.9035    5.0349 C   0  0  0  0  0  0  0  0  0  0  0  0
   -4.4536   -2.6535    2.1539 C   0  0  0  0  0  0  0  0  0  0  0  0
   -2.6520   -1.3226   -0.6657 C   0  0  0  0  0  0  0  0  0  0  0  0
   -1.0840   -0.5436   -0.8616 S   0  0  0  0  0  0  0  0  0  0  0  0
   -0.5886   -1.0978    0.6943 C   0  0  0  0  0  0  0  0  0  0  0  0
    0.5182   -0.9315    1.5360 C   0  0  0  0  0  0  0  0  0  0  0  0
    1.7196   -0.2743    1.5111 N   0  0  0  0  0  0  0  0  0  0  0  0
    2.3743   -0.5576    2.7021 C   0  0  0  0  0  0  0  0  0  0  0  0
    3.6226   -0.1494    3.2408 C   0  0  0  0  0  0  0  0  0  0  0  0
    4.5501    0.7986    2.8516 N   0  0  0  0  0  0  0  0  0  0  0  0
    5.6140    0.7226    3.7109 C   0  0  0  0  0  0  0  0  0  0  0  0
    6.8368    1.3712    3.9112 C   0  0  0  0  0  0  0  0  0  0  0  0
    7.7144    2.6569    3.1671 S   0  0  0  0  0  0  0  0  0  0  0  0
    4.4074    1.9537    1.9935 C   0  0  0  0  0  0  0  0  0  0  0  0
    5.2615    1.8491    0.7311 C   0  0  0  0  0  0  0  0  0  0  0  0
    2.2655    0.0869    0.2206 C   0  0  0  0  0  0  0  0  0  0  0  0
    3.0907   -1.0587   -0.3617 C   0  0  0  0  0  0  0  0  0  0  0  0
   -3.6825   -1.0031   -1.6062 C   0  0  0  0  0  0  0  0  0  0  0  0
   -4.0033    0.2679   -2.0754 C   0  0  0  0  0  0  0  0  0  0  0  0
   -3.4645    1.4579   -1.6212 N   0  0  0  0  0  0  0  0  0  0  0  0
   -3.3313    2.5316   -2.5196 C   0  0  0  0  0  0  0  0  0  0  0  0
   -2.9027    2.3126   -3.8252 C   0  0  0  0  0  0  0  0  0  0  0  0
   -2.7892    3.3723   -4.7041 C   0  0  0  0  0  0  0  0  0  0  0  0
   -3.0854    4.6692   -4.3057 C   0  0  0  0  0  0  0  0  0  0  0  0
   -2.9825    5.8146   -5.2648 C   0  0  0  0  0  0  0  0  0  0  0  0
   -3.5017    4.8789   -2.9953 C   0  0  0  0  0  0  0  0  0  0  0  0
   -3.6292    3.8284   -2.1103 C   0  0  0  0  0  0  0  0  0  0  0  0
   -3.0542    1.6120   -0.2895 C   0  0  0  0  0  0  0  0  0  0  0  0
   -3.7421    0.9947    0.7529 C   0  0  0  0  0  0  0  0  0  0  0  0
   -3.2549    1.0663    2.0428 C   0  0  0  0  0  0  0  0  0  0  0  0
   -2.0806    1.7485    2.3357 C   0  0  0  0  0  0  0  0  0  0  0  0
   -1.5173    1.7418    3.7234 C   0  0  0  0  0  0  0  0  0  0  0  0
   -1.4326    2.4100    1.2997 C   0  0  0  0  0  0  0  0  0  0  0  0
   -1.9088    2.3505    0.0059 C   0  0  0  0  0  0  0  0  0  0  0  0
   -5.0245    0.1970   -3.0533 C   0  0  0  0  0  0  0  0  0  0  0  0
   -5.8620    1.3783   -3.9906 S   0  0  0  0  0  0  0  0  0  0  0  0
   -6.8130    0.1082   -4.7853 C   0  0  0  0  0  0  0  0  0  0  0  0
   -6.5643   -1.1664   -4.2181 C   0  0  0  0  0  0  0  0  0  0  0  0
   -7.2844   -2.3019   -4.4109 N   0  0  0  0  0  0  0  0  0  0  0  0
   -6.7170   -3.5495   -4.0513 C   0  0  0  0  0  0  0  0  0  0  0  0
   -7.3988   -4.3868   -3.1769 C   0  0  0  0  0  0  0  0  0  0  0  0
   -6.8401   -5.5954   -2.8091 C   0  0  0  0  0  0  0  0  0  0  0  0
   -5.6034   -5.9925   -3.3038 C   0  0  0  0  0  0  0  0  0  0  0  0
   -4.9799   -7.2827   -2.8695 C   0  0  0  0  0  0  0  0  0  0  0  0
   -4.9462   -5.1567   -4.2005 C   0  0  0  0  0  0  0  0  0  0  0  0
   -5.4920   -3.9455   -4.5773 C   0  0  0  0  0  0  0  0  0  0  0  0
   -8.5979   -2.3244   -4.9033 C   0  0  0  0  0  0  0  0  0  0  0  0
   -9.5450   -1.3808   -4.5079 C   0  0  0  0  0  0  0  0  0  0  0  0
  -10.8143   -1.4081   -5.0456 C   0  0  0  0  0  0  0  0  0  0  0  0
  -11.1802   -2.3675   -5.9881 C   0  0  0  0  0  0  0  0  0  0  0  0
  -12.5459   -2.3477   -6.5978 C   0  0  0  0  0  0  0  0  0  0  0  0
  -10.2472   -3.3352   -6.3351 C   0  0  0  0  0  0  0  0  0  0  0  0
   -8.9726   -3.3226   -5.8000 C   0  0  0  0  0  0  0  0  0  0  0  0
   -5.5028   -1.0851   -3.2886 C   0  0  0  0  0  0  0  0  0  0  0  0
   -4.7049   -2.2496   -2.2895 S   0  0  0  0  0  0  0  0  0  0  0  0
   -7.6407    0.5004   -5.8297 C   0  0  0  0  0  0  0  0  0  0  0  0
   -8.1075   -0.3240   -6.8422 C   0  0  0  0  0  0  0  0  0  0  0  0
   -7.3961   -1.5179   -7.3055 C   0  0  0  0  0  0  0  0  0  0  0  0
   -6.3512   -1.9799   -6.8839 O   0  0  0  0  0  0  0  0  0  0  0  0
   -8.1530   -1.9915   -8.4901 C   0  0  0  0  0  0  0  0  0  0  0  0
   -7.9046   -3.0825   -9.2926 C   0  0  0  0  0  0  0  0  0  0  0  0
   -8.7843   -3.3484  -10.3377 C   0  0  0  0  0  0  0  0  0  0  0  0
   -8.5168   -4.7163  -11.3470 Cl  0  0  0  0  0  0  0  0  0  0  0  0
   -9.8769   -2.5108  -10.5561 C   0  0  0  0  0  0  0  0  0  0  0  0
  -11.0776   -2.8765  -11.9739 Br  0  0  0  0  0  0  0  0  0  0  0  0
  -10.1200   -1.4018   -9.7523 C   0  0  0  0  0  0  0  0  0  0  0  0
   -9.2512   -1.1434   -8.7088 C   0  0  0  0  0  0  0  0  0  0  0  0
   -9.2468   -0.1027   -7.6809 C   0  0  0  0  0  0  0  0  0  0  0  0
  -10.2494    0.8122   -7.4620 C   0  0  0  0  0  0  0  0  0  0  0  0
  -10.2758    1.6993   -6.3686 C   0  0  0  0  0  0  0  0  0  0  0  0
  -10.3772    2.4235   -5.4825 N   0  0  0  0  0  0  0  0  0  0  0  0
  -11.4083    0.9133   -8.2520 C   0  0  0  0  0  0  0  0  0  0  0  0
  -12.3805    1.0255   -8.8541 N   0  0  0  0  0  0  0  0  0  0  0  0
   13.0965    6.7079    3.2308 H   0  0  0  0  0  0  0  0  0  0  0  0
   11.5573   11.4214    1.2271 H   0  0  0  0  0  0  0  0  0  0  0  0
    8.0242    8.2259   -0.2155 H   0  0  0  0  0  0  0  0  0  0  0  0
   13.3856    4.1391    4.0006 H   0  0  0  0  0  0  0  0  0  0  0  0
   12.0069   -0.5841    4.0082 H   0  0  0  0  0  0  0  0  0  0  0  0
   10.4917    0.3229    3.8486 H   0  0  0  0  0  0  0  0  0  0  0  0
   11.5329   -0.0907    1.5998 H   0  0  0  0  0  0  0  0  0  0  0  0
   11.5012    1.6394    1.9467 H   0  0  0  0  0  0  0  0  0  0  0  0
   13.0025    0.7332    2.1329 H   0  0  0  0  0  0  0  0  0  0  0  0
    9.9778    3.2522    6.9006 H   0  0  0  0  0  0  0  0  0  0  0  0
   11.3191    2.7347    8.8991 H   0  0  0  0  0  0  0  0  0  0  0  0
   11.6637    0.3980    9.5888 H   0  0  0  0  0  0  0  0  0  0  0  0
   10.7698   -2.4988    7.5449 H   0  0  0  0  0  0  0  0  0  0  0  0
   11.5757   -1.9573    9.0244 H   0  0  0  0  0  0  0  0  0  0  0  0
    8.5490   -2.1913    8.6425 H   0  0  0  0  0  0  0  0  0  0  0  0
    9.3521   -1.6586   10.1194 H   0  0  0  0  0  0  0  0  0  0  0  0
    9.5602   -3.3191    9.5531 H   0  0  0  0  0  0  0  0  0  0  0  0
    9.3442   -0.9272    6.2679 H   0  0  0  0  0  0  0  0  0  0  0  0
   -3.7999   -4.1932   -0.7837 H   0  0  0  0  0  0  0  0  0  0  0  0
   -5.6919   -5.5666   -0.0220 H   0  0  0  0  0  0  0  0  0  0  0  0
   -6.7661   -5.1038    2.1468 H   0  0  0  0  0  0  0  0  0  0  0  0
   -7.1157   -3.5742    4.0005 H   0  0  0  0  0  0  0  0  0  0  0  0
   -6.1130   -2.1267    4.1755 H   0  0  0  0  0  0  0  0  0  0  0  0
   -5.2379   -4.9760    4.8545 H   0  0  0  0  0  0  0  0  0  0  0  0
   -5.6698   -3.7237    6.0236 H   0  0  0  0  0  0  0  0  0  0  0  0
   -4.2295   -3.5392    5.0149 H   0  0  0  0  0  0  0  0  0  0  0  0
   -4.0960   -1.8356    2.7618 H   0  0  0  0  0  0  0  0  0  0  0  0
    3.3496    2.0951    1.7683 H   0  0  0  0  0  0  0  0  0  0  0  0
    4.7385    2.8294    2.5639 H   0  0  0  0  0  0  0  0  0  0  0  0
    5.0717    2.7023    0.0859 H   0  0  0  0  0  0  0  0  0  0  0  0
    6.3159    1.8532    0.9938 H   0  0  0  0  0  0  0  0  0  0  0  0
    5.0544    0.9352    0.1819 H   0  0  0  0  0  0  0  0  0  0  0  0
    2.8645    0.9896    0.2822 H   0  0  0  0  0  0  0  0  0  0  0  0
    1.4124    0.2959   -0.4302 H   0  0  0  0  0  0  0  0  0  0  0  0
    3.9230   -1.3032    0.2956 H   0  0  0  0  0  0  0  0  0  0  0  0
    2.4729   -1.9463   -0.4765 H   0  0  0  0  0  0  0  0  0  0  0  0
    3.4795   -0.7786   -1.3368 H   0  0  0  0  0  0  0  0  0  0  0  0
   -2.6532    1.3111   -4.1449 H   0  0  0  0  0  0  0  0  0  0  0  0
   -2.4581    3.1870   -5.7155 H   0  0  0  0  0  0  0  0  0  0  0  0
   -3.9619    6.0277   -5.6945 H   0  0  0  0  0  0  0  0  0  0  0  0
   -2.6370    6.7137   -4.7593 H   0  0  0  0  0  0  0  0  0  0  0  0
   -2.3000    5.5816   -6.0785 H   0  0  0  0  0  0  0  0  0  0  0  0
   -3.7384    5.8803   -2.6665 H   0  0  0  0  0  0  0  0  0  0  0  0
   -3.9619    4.0028   -1.0977 H   0  0  0  0  0  0  0  0  0  0  0  0
   -4.6521    0.4499    0.5477 H   0  0  0  0  0  0  0  0  0  0  0  0
   -3.7965    0.5783    2.8401 H   0  0  0  0  0  0  0  0  0  0  0  0
   -0.9241    0.8388    3.8795 H   0  0  0  0  0  0  0  0  0  0  0  0
   -0.8721    2.6016    3.8873 H   0  0  0  0  0  0  0  0  0  0  0  0
   -2.3123    1.7500    4.4656 H   0  0  0  0  0  0  0  0  0  0  0  0
   -0.5288    2.9658    1.5046 H   0  0  0  0  0  0  0  0  0  0  0  0
   -1.3784    2.8463   -0.7933 H   0  0  0  0  0  0  0  0  0  0  0  0
   -8.3579   -4.0825   -2.7840 H   0  0  0  0  0  0  0  0  0  0  0  0
   -7.3745   -6.2382   -2.1247 H   0  0  0  0  0  0  0  0  0  0  0  0
   -4.4455   -7.7515   -3.6927 H   0  0  0  0  0  0  0  0  0  0  0  0
   -5.7313   -7.9744   -2.4965 H   0  0  0  0  0  0  0  0  0  0  0  0
   -4.2626   -7.0961   -2.0692 H   0  0  0  0  0  0  0  0  0  0  0  0
   -3.9948   -5.4612   -4.6114 H   0  0  0  0  0  0  0  0  0  0  0  0
   -4.9971   -3.3045   -5.2901 H   0  0  0  0  0  0  0  0  0  0  0  0
   -9.2831   -0.6234   -3.7844 H   0  0  0  0  0  0  0  0  0  0  0  0
  -11.5348   -0.6645   -4.7375 H   0  0  0  0  0  0  0  0  0  0  0  0
  -12.7614   -1.3686   -7.0233 H   0  0  0  0  0  0  0  0  0  0  0  0
  -12.6331   -3.0945   -7.3824 H   0  0  0  0  0  0  0  0  0  0  0  0
  -13.3019   -2.5501   -5.8401 H   0  0  0  0  0  0  0  0  0  0  0  0
  -10.5126   -4.1029   -7.0474 H   0  0  0  0  0  0  0  0  0  0  0  0
   -8.2526   -4.0740   -6.0873 H   0  0  0  0  0  0  0  0  0  0  0  0
   -7.8909    1.5538   -5.8663 H   0  0  0  0  0  0  0  0  0  0  0  0
   -7.0548   -3.7209   -9.1103 H   0  0  0  0  0  0  0  0  0  0  0  0
  -10.9716   -0.7740   -9.9599 H   0  0  0  0  0  0  0  0  0  0  0  0
  1  2  2  0  0  0  0
  2  3  1  0  0  0  0
  3  4  2  0  0  0  0
  3  5  1  0  0  0  0
  5  6  2  0  0  0  0
  6  7  1  0  0  0  0
  7  8  1  0  0  0  0
  7  9  2  0  0  0  0
  9 10  1  0  0  0  0
  9 11  1  0  0  0  0
 11 12  2  0  0  0  0
 12 13  1  0  0  0  0
 13 14  2  0  0  0  0
 14 15  1  0  0  0  0
 15 16  3  0  0  0  0
 14 17  1  0  0  0  0
 17 18  3  0  0  0  0
  1 19  1  0  0  0  0
 19 20  2  0  0  0  0
 20 21  1  0  0  0  0
 21 22  1  0  0  0  0
 22 23  1  0  0  0  0
 23 24  1  0  0  0  0
 21 25  2  0  0  0  0
 25 26  1  0  0  0  0
 25 27  1  0  0  0  0
 27 28  2  0  0  0  0
 28 29  1  0  0  0  0
 29 30  2  0  0  0  0
 30 31  1  0  0  0  0
 31 32  2  0  0  0  0
 32 33  1  0  0  0  0
 33 34  1  0  0  0  0
 34 35  1  0  0  0  0
 33 36  2  0  0  0  0
 28 37  1  0  0  0  0
 37 38  1  0  0  0  0
 38 39  1  0  0  0  0
 39 40  1  0  0  0  0
 40 41  1  0  0  0  0
 41 42  1  0  0  0  0
 42 43  2  0  0  0  0
 43 44  1  0  0  0  0
 44 45  1  0  0  0  0
 42 46  1  0  0  0  0
 46 47  1  0  0  0  0
 47 48  1  0  0  0  0
 48 49  1  0  0  0  0
 49 50  1  0  0  0  0
 50 51  1  0  0  0  0
 51 52  2  0  0  0  0
 52 53  1  0  0  0  0
 53 54  2  0  0  0  0
 54 55  1  0  0  0  0
 55 56  1  0  0  0  0
 56 57  1  0  0  0  0
 55 58  2  0  0  0  0
 50 59  2  0  0  0  0
 59 60  1  0  0  0  0
 60 61  1  0  0  0  0
 61 62  1  0  0  0  0
 62 63  1  0  0  0  0
 63 64  1  0  0  0  0
 64 65  1  0  0  0  0
 65 66  1  0  0  0  0
 66 67  1  0  0  0  0
 67 68  1  0  0  0  0
 68 69  1  0  0  0  0
 66 70  1  0  0  0  0
 70 71  1  0  0  0  0
 63 72  1  0  0  0  0
 72 73  1  0  0  0  0
 59 74  1  0  0  0  0
 74 75  2  0  0  0  0
 75 76  1  0  0  0  0
 76 77  1  0  0  0  0
 77 78  2  0  0  0  0
 78 79  1  0  0  0  0
 79 80  2  0  0  0  0
 80 81  1  0  0  0  0
 80 82  1  0  0  0  0
 82 83  2  0  0  0  0
 76 84  1  0  0  0  0
 84 85  2  0  0  0  0
 85 86  1  0  0  0  0
 86 87  2  0  0  0  0
 87 88  1  0  0  0  0
 87 89  1  0  0  0  0
 89 90  2  0  0  0  0
 75 91  1  0  0  0  0
 91 92  1  0  0  0  0
 92 93  1  0  0  0  0
 93 94  2  0  0  0  0
 94 95  1  0  0  0  0
 95 96  1  0  0  0  0
 96 97  2  0  0  0  0
 97 98  1  0  0  0  0
 98 99  2  0  0  0  0
 99100  1  0  0  0  0
 99101  1  0  0  0  0
101102  2  0  0  0  0
 95103  1  0  0  0  0
103104  2  0  0  0  0
104105  1  0  0  0  0
105106  2  0  0  0  0
106107  1  0  0  0  0
106108  1  0  0  0  0
108109  2  0  0  0  0
 94110  1  0  0  0  0
110111  1  0  0  0  0
 93112  1  0  0  0  0
112113  2  0  0  0  0
113114  1  0  0  0  0
114115  2  0  0  0  0
114116  1  0  0  0  0
116117  2  0  0  0  0
117118  1  0  0  0  0
118119  1  0  0  0  0
118120  2  0  0  0  0
120121  1  0  0  0  0
120122  1  0  0  0  0
122123  2  0  0  0  0
123124  1  0  0  0  0
124125  2  0  0  0  0
125126  1  0  0  0  0
126127  3  0  0  0  0
125128  1  0  0  0  0
128129  3  0  0  0  0
 13  2  1  0  0  0  0
 26 19  1  0  0  0  0
 69 27  1  0  0  0  0
111 74  1  0  0  0  0
124113  1  0  0  0  0
 12  5  1  0  0  0  0
 36 29  1  0  0  0  0
 68 37  2  0  0  0  0
 83 77  1  0  0  0  0
 90 84  1  0  0  0  0
110 91  2  0  0  0  0
123116  1  0  0  0  0
 67 39  2  0  0  0  0
102 96  1  0  0  0  0
109103  1  0  0  0  0
 65 40  2  0  0  0  0
 45 41  2  0  0  0  0
 64 46  2  0  0  0  0
 62 47  2  0  0  0  0
 61 49  2  0  0  0  0
 58 51  1  0  0  0  0
  1130  1  0  0  0  0
  6131  1  0  0  0  0
 11132  1  0  0  0  0
 20133  1  0  0  0  0
 23134  1  0  0  0  0
 23135  1  0  0  0  0
 24136  1  0  0  0  0
 24137  1  0  0  0  0
 24138  1  0  0  0  0
 30139  1  0  0  0  0
 31140  1  0  0  0  0
 32141  1  0  0  0  0
 34142  1  0  0  0  0
 34143  1  0  0  0  0
 35144  1  0  0  0  0
 35145  1  0  0  0  0
 35146  1  0  0  0  0
 36147  1  0  0  0  0
 52148  1  0  0  0  0
 53149  1  0  0  0  0
 54150  1  0  0  0  0
 56151  1  0  0  0  0
 56152  1  0  0  0  0
 57153  1  0  0  0  0
 57154  1  0  0  0  0
 57155  1  0  0  0  0
 58156  1  0  0  0  0
 70157  1  0  0  0  0
 70158  1  0  0  0  0
 71159  1  0  0  0  0
 71160  1  0  0  0  0
 71161  1  0  0  0  0
 72162  1  0  0  0  0
 72163  1  0  0  0  0
 73164  1  0  0  0  0
 73165  1  0  0  0  0
 73166  1  0  0  0  0
 78167  1  0  0  0  0
 79168  1  0  0  0  0
 81169  1  0  0  0  0
 81170  1  0  0  0  0
 81171  1  0  0  0  0
 82172  1  0  0  0  0
 83173  1  0  0  0  0
 85174  1  0  0  0  0
 86175  1  0  0  0  0
 88176  1  0  0  0  0
 88177  1  0  0  0  0
 88178  1  0  0  0  0
 89179  1  0  0  0  0
 90180  1  0  0  0  0
 97181  1  0  0  0  0
 98182  1  0  0  0  0
100183  1  0  0  0  0
100184  1  0  0  0  0
100185  1  0  0  0  0
101186  1  0  0  0  0
102187  1  0  0  0  0
104188  1  0  0  0  0
105189  1  0  0  0  0
107190  1  0  0  0  0
107191  1  0  0  0  0
107192  1  0  0  0  0
108193  1  0  0  0  0
109194  1  0  0  0  0
112195  1  0  0  0  0
117196  1  0  0  0  0
122197  1  0  0  0  0
M  END
