109

N          1.65900       -7.20600       12.71890
C          1.66400       -6.36640       11.93590
C          1.67270       -5.33800       10.99290
C          2.42610       -4.19060       11.01550
C          2.19230       -3.36950        9.90360
C          1.26090       -3.88010        9.03560
S          0.66460       -5.41530        9.57830
C          0.84570       -3.33580        7.75150
C          0.94900       -4.15550        6.62070
C          0.67170       -3.68860        5.35770
C          0.29770       -2.35810        5.13780
C          0.22270       -1.51330        6.24550
C         -0.03220       -0.08490        6.37630
C          0.06290        0.80770        5.36020
C         -0.09310        2.22840        5.30000
C         -0.45090        3.14990        6.33080
C         -0.51930        4.42400        5.89200
S         -0.15640        4.56280        4.20750
C          0.09060        2.88220        4.09800
C         -0.19890        0.14940        7.82890
O         -0.53770        1.14690        8.43330
N          0.13080       -1.03130        8.46840
C         -0.15360       -1.18560        9.87660
C         -1.39520       -2.04060       10.11110
C          0.41850       -2.02460        7.54800
C         -0.05890       -1.95780        3.78650
C         -1.16700       -1.26840        3.37220
C         -1.19390       -1.11900        1.97810
S         -2.26510       -0.28270        0.89480
C         -1.22840       -0.70000       -0.45710
C         -1.45870       -0.29430       -1.76400
C         -2.64180        0.47190       -2.12050
C         -3.08300        1.64790       -1.59100
C         -4.27020        2.11370       -2.19400
C         -4.74710        1.28580       -3.16160
C         -5.91780        1.47600       -4.06190
C         -5.45820        1.88520       -5.46380
S         -3.73120       -0.10510       -3.34720
C         -0.49600       -0.65810       -2.71770
C          0.60860       -1.46340       -2.34630
C          0.80400       -1.92230       -1.05070
C          1.91150       -2.80740       -0.72730
C          3.24040       -2.62850       -0.97090
C          4.03320       -3.70920       -0.53070
C          3.31220       -4.71960        0.02420
C          3.79750       -5.98730        0.63720
C          3.57270       -5.98580        2.15070
S          1.61850       -4.35230        0.01560
C         -0.11870       -1.49770       -0.08280
C         -0.12430       -1.70900        1.32140
S          0.94390       -2.46420        2.44630
S          1.68720       -1.80760       -3.68690
C          0.70470       -0.83090       -4.73840
C          0.82550       -0.44420       -6.07740
C         -0.19840        0.39560       -6.45360
S         -1.31900        0.70100       -5.14560
C         -0.40530       -0.30680       -4.08880
C         -0.42110        0.99840       -7.72450
C          0.36710        0.94340       -8.84750
C         -0.15830        1.66570       -9.92940
S          0.64120        1.75950      -11.50170
C          2.10820        2.74680      -11.01900
C          1.73170        4.16170      -10.62940
C         -1.36410        2.28070       -9.65400
S         -1.85100        1.94960       -8.01380
C         -2.16700        3.11590      -10.47850
C         -3.35180        3.72530      -10.11720
C         -3.89270        4.52550      -11.12300
C         -3.12550        4.52990      -12.26510
C         -3.37500        5.23040      -13.44380
N         -3.58150        5.81400      -14.41160
S         -1.71290        3.52610      -12.10270
H          3.12180       -3.96270       11.80340
H          2.72230       -2.45150        9.71840
H          1.26350       -5.17990        6.75480
H          0.73690       -4.35730        4.51300
H          0.31820        0.38380        4.39650
H         -0.64350        2.84840        7.34260
H         -0.76390        5.30780        6.44630
H          0.35990        2.44500        3.15580
H         -0.32590       -0.17230       10.25100
H          0.70690       -1.61140       10.39580
H         -2.25290       -1.60190        9.60600
H         -1.25230       -3.05090        9.73440
H         -1.60750       -2.09330       11.17540
H         -1.92020       -0.89020        4.03830
H         -2.55600        2.17900       -0.81850
H         -4.75060        3.03530       -1.91760
H         -6.48970        0.54760       -4.12860
H         -6.56500        2.24990       -3.64430
H         -6.31610        2.02470       -6.11660
H         -4.89580        2.81520       -5.42020
H         -4.81580        1.11720       -5.88910
H          3.64060       -1.73800       -1.42190
H          5.10440       -3.73220       -0.62440
H          3.26870       -6.83720        0.19790
H          4.86180       -6.09770        0.42020
H          2.51150       -5.89560        2.37130
H          4.09170       -5.14720        2.60980
H          3.94340       -6.90880        2.58910
H          1.61490       -0.76450       -6.73050
H          1.29160        0.39880       -8.90050
H          2.60820        2.22340      -10.20470
H          2.74400        2.73360      -11.90280
H          2.62770        4.72730      -10.38200
H          1.07440        4.15980       -9.76120
H          1.22050        4.65850      -11.45070
H         -3.79980        3.58820       -9.14870
H         -4.80720        5.08360      -11.02930
