
  xtb     02032214473D
 energy: -430.584468420078 gnorm: 0.000335984699 xtb: 6.4.1 (unknown)
250278  0     0  0            999 V2000
    1.0623  -11.2250   13.2556 C   0  0  0  0  0  0  0  0  0  0  0  0
    1.3295  -11.1159   14.5838 C   0  0  0  0  0  0  0  0  0  0  0  0
    0.6610  -12.0348   15.5398 C   0  0  0  0  0  0  0  0  0  0  0  0
   -0.1163  -12.9209   15.2633 O   0  0  0  0  0  0  0  0  0  0  0  0
    1.1361  -11.6407   16.8851 C   0  0  0  0  0  0  0  0  0  0  0  0
    0.8140  -12.1629   18.1240 C   0  0  0  0  0  0  0  0  0  0  0  0
    1.4067  -11.5987   19.2463 C   0  0  0  0  0  0  0  0  0  0  0  0
    2.2980  -10.5405   19.1290 C   0  0  0  0  0  0  0  0  0  0  0  0
    2.6237  -10.0144   17.8858 C   0  0  0  0  0  0  0  0  0  0  0  0
    2.0345  -10.5735   16.7668 C   0  0  0  0  0  0  0  0  0  0  0  0
    2.2058  -10.2023   15.3411 C   0  0  0  0  0  0  0  0  0  0  0  0
    2.9332   -9.3244   14.9236 O   0  0  0  0  0  0  0  0  0  0  0  0
    1.5349  -10.4648   12.1596 C   0  0  0  0  0  0  0  0  0  0  0  0
    2.3901   -9.3899   12.0580 C   0  0  0  0  0  0  0  0  0  0  0  0
    2.4591   -9.0420   10.6926 C   0  0  0  0  0  0  0  0  0  0  0  0
    3.1326   -8.0209    9.9813 C   0  0  0  0  0  0  0  0  0  0  0  0
    4.0455   -7.0699   10.5502 C   0  0  0  0  0  0  0  0  0  0  0  0
    4.6313   -7.0406   11.7912 C   0  0  0  0  0  0  0  0  0  0  0  0
    5.4788   -5.9325   11.9491 C   0  0  0  0  0  0  0  0  0  0  0  0
    6.1569   -5.7079   13.0894 F   0  0  0  0  0  0  0  0  0  0  0  0
    5.5664   -5.0984   10.8711 C   0  0  0  0  0  0  0  0  0  0  0  0
    6.3861   -3.8633   10.7261 C   0  0  0  0  0  0  0  0  0  0  0  0
    7.4606   -4.0257    9.6502 C   0  0  0  0  0  0  0  0  0  0  0  0
    4.5794   -5.7082    9.5924 S   0  0  0  0  0  0  0  0  0  0  0  0
    2.8187   -7.9987    8.6255 C   0  0  0  0  0  0  0  0  0  0  0  0
    1.9541   -8.9050    7.9587 C   0  0  0  0  0  0  0  0  0  0  0  0
    1.3117   -9.9473    8.6584 C   0  0  0  0  0  0  0  0  0  0  0  0
    0.4176  -10.9040    8.0617 C   0  0  0  0  0  0  0  0  0  0  0  0
   -0.2397  -10.6863    6.4596 S   0  0  0  0  0  0  0  0  0  0  0  0
   -1.1582  -12.1479    6.5475 C   0  0  0  0  0  0  0  0  0  0  0  0
   -2.0067  -12.6218    5.4191 C   0  0  0  0  0  0  0  0  0  0  0  0
   -1.1654  -12.9675    4.1898 C   0  0  0  0  0  0  0  0  0  0  0  0
   -0.9381  -12.7442    7.7547 C   0  0  0  0  0  0  0  0  0  0  0  0
   -0.0650  -12.0612    8.6181 C   0  0  0  0  0  0  0  0  0  0  0  0
   -1.5219  -13.9065    8.0998 F   0  0  0  0  0  0  0  0  0  0  0  0
    1.5983   -9.9609   10.0279 C   0  0  0  0  0  0  0  0  0  0  0  0
    1.0637  -10.8146   10.9217 O   0  0  0  0  0  0  0  0  0  0  0  0
    1.9489   -8.4762    6.6062 C   0  0  0  0  0  0  0  0  0  0  0  0
    2.7646   -7.3763    6.5369 C   0  0  0  0  0  0  0  0  0  0  0  0
    3.3014   -7.0873    7.7525 O   0  0  0  0  0  0  0  0  0  0  0  0
    3.0650   -6.5066    5.4516 C   0  0  0  0  0  0  0  0  0  0  0  0
    3.8413   -5.3709    5.5001 C   0  0  0  0  0  0  0  0  0  0  0  0
    3.8439   -4.6993    4.2768 C   0  0  0  0  0  0  0  0  0  0  0  0
    4.5308   -3.1937    3.7387 S   0  0  0  0  0  0  0  0  0  0  0  0
    3.7465   -3.4075    2.2106 C   0  0  0  0  0  0  0  0  0  0  0  0
    3.5236   -2.6368    1.0416 C   0  0  0  0  0  0  0  0  0  0  0  0
    2.7054   -3.3291    0.1640 C   0  0  0  0  0  0  0  0  0  0  0  0
    2.3648   -4.6921    0.7435 C   0  0  0  0  0  0  0  0  0  0  0  0
    3.0195   -4.5837    2.1062 C   0  0  0  0  0  0  0  0  0  0  0  0
    3.0742   -5.3255    3.2828 C   0  0  0  0  0  0  0  0  0  0  0  0
    2.3478   -6.7748    3.8766 S   0  0  0  0  0  0  0  0  0  0  0  0
    0.8603   -4.8183    0.8807 C   0  0  0  0  0  0  0  0  0  0  0  0
    0.2146   -3.9164    1.7211 C   0  0  0  0  0  0  0  0  0  0  0  0
   -1.1526   -3.9687    1.9011 C   0  0  0  0  0  0  0  0  0  0  0  0
   -1.9159   -4.9297    1.2511 C   0  0  0  0  0  0  0  0  0  0  0  0
   -3.3946   -5.0338    1.4877 C   0  0  0  0  0  0  0  0  0  0  0  0
   -3.6837   -6.0082    2.6312 C   0  0  0  0  0  0  0  0  0  0  0  0
   -1.2690   -5.8211    0.4090 C   0  0  0  0  0  0  0  0  0  0  0  0
    0.0991   -5.7619    0.2104 C   0  0  0  0  0  0  0  0  0  0  0  0
    3.0953   -5.8570    0.1037 C   0  0  0  0  0  0  0  0  0  0  0  0
    2.7730   -7.1623    0.4548 C   0  0  0  0  0  0  0  0  0  0  0  0
    3.4858   -8.2254   -0.0658 C   0  0  0  0  0  0  0  0  0  0  0  0
    4.5547   -8.0174   -0.9276 C   0  0  0  0  0  0  0  0  0  0  0  0
    5.3515   -9.1742   -1.4577 C   0  0  0  0  0  0  0  0  0  0  0  0
    6.4893   -9.5238   -0.4963 C   0  0  0  0  0  0  0  0  0  0  0  0
    4.9089   -6.7101   -1.2306 C   0  0  0  0  0  0  0  0  0  0  0  0
    4.1950   -5.6429   -0.7172 C   0  0  0  0  0  0  0  0  0  0  0  0
    2.2425   -2.5145   -0.9015 C   0  0  0  0  0  0  0  0  0  0  0  0
    1.3640   -2.7717   -1.9749 C   0  0  0  0  0  0  0  0  0  0  0  0
    0.9913   -4.1127   -2.3965 C   0  0  0  0  0  0  0  0  0  0  0  0
    1.8378   -5.1251   -2.7375 C   0  0  0  0  0  0  0  0  0  0  0  0
    1.1770   -6.2565   -3.2572 C   0  0  0  0  0  0  0  0  0  0  0  0
   -0.1730   -6.1079   -3.3316 C   0  0  0  0  0  0  0  0  0  0  0  0
   -1.1769   -7.0660   -3.8764 C   0  0  0  0  0  0  0  0  0  0  0  0
   -2.1512   -7.5648   -2.8105 C   0  0  0  0  0  0  0  0  0  0  0  0
   -0.6597   -4.5548   -2.7317 S   0  0  0  0  0  0  0  0  0  0  0  0
    0.9049   -1.6717   -2.6907 C   0  0  0  0  0  0  0  0  0  0  0  0
   -0.2752   -1.7842   -3.9856 S   0  0  0  0  0  0  0  0  0  0  0  0
   -0.2863   -0.0646   -4.1060 C   0  0  0  0  0  0  0  0  0  0  0  0
   -1.0421    0.8942   -4.8243 C   0  0  0  0  0  0  0  0  0  0  0  0
   -0.6663    2.1658   -4.4098 C   0  0  0  0  0  0  0  0  0  0  0  0
    0.4122    2.0818   -3.3417 C   0  0  0  0  0  0  0  0  0  0  0  0
    1.6812    2.7495   -3.8514 C   0  0  0  0  0  0  0  0  0  0  0  0
    2.2375    2.2676   -5.0328 C   0  0  0  0  0  0  0  0  0  0  0  0
    3.3740    2.8408   -5.5629 C   0  0  0  0  0  0  0  0  0  0  0  0
    3.9926    3.9219   -4.9418 C   0  0  0  0  0  0  0  0  0  0  0  0
    5.2413    4.5015   -5.5526 C   0  0  0  0  0  0  0  0  0  0  0  0
    5.5597    5.9332   -5.1362 C   0  0  0  0  0  0  0  0  0  0  0  0
    3.4358    4.3951   -3.7644 C   0  0  0  0  0  0  0  0  0  0  0  0
    2.3019    3.8139   -3.2209 C   0  0  0  0  0  0  0  0  0  0  0  0
   -0.1583    2.6772   -2.0659 C   0  0  0  0  0  0  0  0  0  0  0  0
   -0.4459    4.0371   -2.0132 C   0  0  0  0  0  0  0  0  0  0  0  0
   -0.9835    4.6063   -0.8754 C   0  0  0  0  0  0  0  0  0  0  0  0
   -1.2658    3.8342    0.2438 C   0  0  0  0  0  0  0  0  0  0  0  0
   -1.7876    4.4623    1.5033 C   0  0  0  0  0  0  0  0  0  0  0  0
   -0.6254    4.8835    2.4054 C   0  0  0  0  0  0  0  0  0  0  0  0
   -1.0087    2.4727    0.1782 C   0  0  0  0  0  0  0  0  0  0  0  0
   -0.4695    1.8987   -0.9597 C   0  0  0  0  0  0  0  0  0  0  0  0
    0.5899    0.5780   -3.2544 C   0  0  0  0  0  0  0  0  0  0  0  0
    1.3274   -0.3314   -2.4580 C   0  0  0  0  0  0  0  0  0  0  0  0
    2.3396   -0.1061   -1.5141 C   0  0  0  0  0  0  0  0  0  0  0  0
    2.7400   -1.1881   -0.7514 C   0  0  0  0  0  0  0  0  0  0  0  0
    3.8473   -1.0032    0.5946 S   0  0  0  0  0  0  0  0  0  0  0  0
    3.0229    1.1706   -1.3047 C   0  0  0  0  0  0  0  0  0  0  0  0
    2.7938    2.1433   -0.3845 C   0  0  0  0  0  0  0  0  0  0  0  0
    3.7934    3.1423   -0.3777 C   0  0  0  0  0  0  0  0  0  0  0  0
    4.7866    2.9218   -1.2774 C   0  0  0  0  0  0  0  0  0  0  0  0
    6.0278    3.7121   -1.5110 C   0  0  0  0  0  0  0  0  0  0  0  0
    7.2431    3.0230   -0.8870 C   0  0  0  0  0  0  0  0  0  0  0  0
    4.5035    1.4642   -2.1714 S   0  0  0  0  0  0  0  0  0  0  0  0
   -1.4168    3.1436   -5.0620 C   0  0  0  0  0  0  0  0  0  0  0  0
   -2.3459    2.5988   -5.9653 C   0  0  0  0  0  0  0  0  0  0  0  0
   -2.2922    0.8628   -6.0160 S   0  0  0  0  0  0  0  0  0  0  0  0
   -3.1463    3.5452   -6.6060 C   0  0  0  0  0  0  0  0  0  0  0  0
   -2.8419    4.8247   -6.2014 C   0  0  0  0  0  0  0  0  0  0  0  0
   -1.5351    4.8665   -5.0350 S   0  0  0  0  0  0  0  0  0  0  0  0
   -3.4964    6.0368   -6.5547 C   0  0  0  0  0  0  0  0  0  0  0  0
   -3.2818    7.3126   -6.0983 C   0  0  0  0  0  0  0  0  0  0  0  0
   -4.2554    8.1352   -6.7117 C   0  0  0  0  0  0  0  0  0  0  0  0
   -4.5522    9.5129   -6.6379 C   0  0  0  0  0  0  0  0  0  0  0  0
   -3.8910   10.4580   -5.7793 C   0  0  0  0  0  0  0  0  0  0  0  0
   -3.1018   10.2406   -4.6795 C   0  0  0  0  0  0  0  0  0  0  0  0
   -2.6329   11.4372   -4.1129 C   0  0  0  0  0  0  0  0  0  0  0  0
   -1.8270   11.4401   -3.0356 F   0  0  0  0  0  0  0  0  0  0  0  0
   -3.0355   12.5824   -4.7385 C   0  0  0  0  0  0  0  0  0  0  0  0
   -2.7246   13.9965   -4.3829 C   0  0  0  0  0  0  0  0  0  0  0  0
   -3.2714   14.3650   -3.0016 C   0  0  0  0  0  0  0  0  0  0  0  0
   -4.0540   12.1720   -6.0718 S   0  0  0  0  0  0  0  0  0  0  0  0
   -5.5836    9.9010   -7.4879 C   0  0  0  0  0  0  0  0  0  0  0  0
   -6.3221    9.0422   -8.3429 C   0  0  0  0  0  0  0  0  0  0  0  0
   -6.0553    7.6535   -8.3830 C   0  0  0  0  0  0  0  0  0  0  0  0
   -6.7767    6.7069   -9.1888 C   0  0  0  0  0  0  0  0  0  0  0  0
   -7.8308    7.1992  -10.4888 S   0  0  0  0  0  0  0  0  0  0  0  0
   -8.2344    5.5690  -10.8916 C   0  0  0  0  0  0  0  0  0  0  0  0
   -9.1502    5.2311  -12.0157 C   0  0  0  0  0  0  0  0  0  0  0  0
   -8.5423    5.6096  -13.3673 C   0  0  0  0  0  0  0  0  0  0  0  0
   -7.5732    4.7211  -10.0497 C   0  0  0  0  0  0  0  0  0  0  0  0
   -6.7527    5.3377   -9.0923 C   0  0  0  0  0  0  0  0  0  0  0  0
   -7.7013    3.3841  -10.1272 F   0  0  0  0  0  0  0  0  0  0  0  0
   -5.0082    7.2637   -7.5461 C   0  0  0  0  0  0  0  0  0  0  0  0
   -4.5374    5.9988   -7.4287 O   0  0  0  0  0  0  0  0  0  0  0  0
   -7.2564    9.8850   -8.9874 C   0  0  0  0  0  0  0  0  0  0  0  0
   -7.0623   11.1558   -8.4918 C   0  0  0  0  0  0  0  0  0  0  0  0
   -6.0384   11.1648   -7.5912 O   0  0  0  0  0  0  0  0  0  0  0  0
   -7.7177   12.3741   -8.8018 C   0  0  0  0  0  0  0  0  0  0  0  0
   -7.6312   13.5220   -8.0758 C   0  0  0  0  0  0  0  0  0  0  0  0
   -7.9002   14.8505   -8.6907 C   0  0  0  0  0  0  0  0  0  0  0  0
   -8.4825   15.0738   -9.7256 O   0  0  0  0  0  0  0  0  0  0  0  0
   -7.2335   15.8211   -7.7921 C   0  0  0  0  0  0  0  0  0  0  0  0
   -7.0296   17.1774   -7.9609 C   0  0  0  0  0  0  0  0  0  0  0  0
   -6.3101   17.8666   -6.9950 C   0  0  0  0  0  0  0  0  0  0  0  0
   -5.8131   17.1912   -5.8898 C   0  0  0  0  0  0  0  0  0  0  0  0
   -4.6705   18.2460   -4.4615 I   0  0  0  0  0  0  0  0  0  0  0  0
   -6.0273   15.8346   -5.6921 C   0  0  0  0  0  0  0  0  0  0  0  0
   -6.7464   15.1502   -6.6553 C   0  0  0  0  0  0  0  0  0  0  0  0
   -7.1336   13.7450   -6.7349 C   0  0  0  0  0  0  0  0  0  0  0  0
   -7.2413   12.8887   -5.6740 C   0  0  0  0  0  0  0  0  0  0  0  0
   -6.8291   13.2064   -4.3654 C   0  0  0  0  0  0  0  0  0  0  0  0
   -6.4969   13.4169   -3.2869 N   0  0  0  0  0  0  0  0  0  0  0  0
   -7.8579   11.6218   -5.7559 C   0  0  0  0  0  0  0  0  0  0  0  0
   -8.3951   10.6080   -5.7728 N   0  0  0  0  0  0  0  0  0  0  0  0
    0.3647  -12.0139   12.9872 H   0  0  0  0  0  0  0  0  0  0  0  0
    0.1198  -12.9851   18.2057 H   0  0  0  0  0  0  0  0  0  0  0  0
    1.1713  -11.9879   20.2259 H   0  0  0  0  0  0  0  0  0  0  0  0
    2.7439  -10.1211   20.0188 H   0  0  0  0  0  0  0  0  0  0  0  0
    3.3153   -9.1920   17.7845 H   0  0  0  0  0  0  0  0  0  0  0  0
    2.8647   -8.9232   12.8936 H   0  0  0  0  0  0  0  0  0  0  0  0
    4.4985   -7.7736   12.5619 H   0  0  0  0  0  0  0  0  0  0  0  0
    5.7372   -3.0242   10.4608 H   0  0  0  0  0  0  0  0  0  0  0  0
    6.8532   -3.6451   11.6887 H   0  0  0  0  0  0  0  0  0  0  0  0
    8.0471   -3.1146    9.5659 H   0  0  0  0  0  0  0  0  0  0  0  0
    7.0008   -4.2358    8.6871 H   0  0  0  0  0  0  0  0  0  0  0  0
    8.1282   -4.8466    9.9017 H   0  0  0  0  0  0  0  0  0  0  0  0
   -2.5582  -13.5033    5.7526 H   0  0  0  0  0  0  0  0  0  0  0  0
   -2.7284  -11.8445    5.1532 H   0  0  0  0  0  0  0  0  0  0  0  0
   -1.8062  -13.3144    3.3834 H   0  0  0  0  0  0  0  0  0  0  0  0
   -0.4510  -13.7522    4.4278 H   0  0  0  0  0  0  0  0  0  0  0  0
   -0.6181  -12.0910    3.8497 H   0  0  0  0  0  0  0  0  0  0  0  0
    0.1940  -12.4240    9.5933 H   0  0  0  0  0  0  0  0  0  0  0  0
    1.4188   -8.9005    5.7800 H   0  0  0  0  0  0  0  0  0  0  0  0
    4.3517   -5.0513    6.3896 H   0  0  0  0  0  0  0  0  0  0  0  0
    0.7925   -3.1638    2.2394 H   0  0  0  0  0  0  0  0  0  0  0  0
   -1.6329   -3.2557    2.5560 H   0  0  0  0  0  0  0  0  0  0  0  0
   -3.8905   -5.3858    0.5807 H   0  0  0  0  0  0  0  0  0  0  0  0
   -3.8000   -4.0519    1.7392 H   0  0  0  0  0  0  0  0  0  0  0  0
   -3.2988   -6.9969    2.3918 H   0  0  0  0  0  0  0  0  0  0  0  0
   -3.2052   -5.6688    3.5471 H   0  0  0  0  0  0  0  0  0  0  0  0
   -4.7545   -6.0843    2.8054 H   0  0  0  0  0  0  0  0  0  0  0  0
   -1.8461   -6.5730   -0.1073 H   0  0  0  0  0  0  0  0  0  0  0  0
    0.5652   -6.4518   -0.4762 H   0  0  0  0  0  0  0  0  0  0  0  0
    1.9673   -7.3501    1.1489 H   0  0  0  0  0  0  0  0  0  0  0  0
    3.2110   -9.2336    0.2094 H   0  0  0  0  0  0  0  0  0  0  0  0
    5.7704   -8.9202   -2.4335 H   0  0  0  0  0  0  0  0  0  0  0  0
    4.7037  -10.0448   -1.5793 H   0  0  0  0  0  0  0  0  0  0  0  0
    7.0630  -10.3663   -0.8754 H   0  0  0  0  0  0  0  0  0  0  0  0
    6.0909   -9.7856    0.4814 H   0  0  0  0  0  0  0  0  0  0  0  0
    7.1574   -8.6740   -0.3762 H   0  0  0  0  0  0  0  0  0  0  0  0
    5.7551   -6.5221   -1.8765 H   0  0  0  0  0  0  0  0  0  0  0  0
    4.5003   -4.6332   -0.9537 H   0  0  0  0  0  0  0  0  0  0  0  0
    2.9055   -5.0482   -2.6614 H   0  0  0  0  0  0  0  0  0  0  0  0
    1.6952   -7.1427   -3.5793 H   0  0  0  0  0  0  0  0  0  0  0  0
   -1.7446   -6.5757   -4.6721 H   0  0  0  0  0  0  0  0  0  0  0  0
   -0.6431   -7.9129   -4.3132 H   0  0  0  0  0  0  0  0  0  0  0  0
   -1.6127   -8.0824   -2.0195 H   0  0  0  0  0  0  0  0  0  0  0  0
   -2.6933   -6.7256   -2.3803 H   0  0  0  0  0  0  0  0  0  0  0  0
   -2.8685   -8.2541   -3.2494 H   0  0  0  0  0  0  0  0  0  0  0  0
    1.7749    1.4331   -5.5406 H   0  0  0  0  0  0  0  0  0  0  0  0
    3.7902    2.4448   -6.4786 H   0  0  0  0  0  0  0  0  0  0  0  0
    5.1414    4.4612   -6.6404 H   0  0  0  0  0  0  0  0  0  0  0  0
    6.0848    3.8540   -5.2886 H   0  0  0  0  0  0  0  0  0  0  0  0
    6.4036    6.3056   -5.7129 H   0  0  0  0  0  0  0  0  0  0  0  0
    4.7059    6.5819   -5.3183 H   0  0  0  0  0  0  0  0  0  0  0  0
    5.8232    5.9912   -4.0828 H   0  0  0  0  0  0  0  0  0  0  0  0
    3.8824    5.2271   -3.2435 H   0  0  0  0  0  0  0  0  0  0  0  0
    1.9227    4.1947   -2.2861 H   0  0  0  0  0  0  0  0  0  0  0  0
   -0.2455    4.6615   -2.8706 H   0  0  0  0  0  0  0  0  0  0  0  0
   -1.1897    5.6669   -0.8595 H   0  0  0  0  0  0  0  0  0  0  0  0
   -2.4197    3.7510    2.0387 H   0  0  0  0  0  0  0  0  0  0  0  0
   -2.3894    5.3395    1.2587 H   0  0  0  0  0  0  0  0  0  0  0  0
    0.0091    5.6031    1.8927 H   0  0  0  0  0  0  0  0  0  0  0  0
   -0.9986    5.3391    3.3196 H   0  0  0  0  0  0  0  0  0  0  0  0
   -0.0191    4.0199    2.6702 H   0  0  0  0  0  0  0  0  0  0  0  0
   -1.2345    1.8449    1.0289 H   0  0  0  0  0  0  0  0  0  0  0  0
   -0.2922    0.8346   -0.9695 H   0  0  0  0  0  0  0  0  0  0  0  0
    1.9378    2.1491    0.2660 H   0  0  0  0  0  0  0  0  0  0  0  0
    3.7710    3.9928    0.2808 H   0  0  0  0  0  0  0  0  0  0  0  0
    6.1930    3.8247   -2.5846 H   0  0  0  0  0  0  0  0  0  0  0  0
    5.9030    4.7047   -1.0725 H   0  0  0  0  0  0  0  0  0  0  0  0
    7.1042    2.9101    0.1857 H   0  0  0  0  0  0  0  0  0  0  0  0
    8.1425    3.6079   -1.0632 H   0  0  0  0  0  0  0  0  0  0  0  0
    7.3774    2.0354   -1.3222 H   0  0  0  0  0  0  0  0  0  0  0  0
   -3.9178    3.3166   -7.3173 H   0  0  0  0  0  0  0  0  0  0  0  0
   -2.5002    7.5953   -5.4261 H   0  0  0  0  0  0  0  0  0  0  0  0
   -2.8851    9.2797   -4.2566 H   0  0  0  0  0  0  0  0  0  0  0  0
   -1.6392   14.1355   -4.3841 H   0  0  0  0  0  0  0  0  0  0  0  0
   -3.1484   14.6527   -5.1460 H   0  0  0  0  0  0  0  0  0  0  0  0
   -3.0907   15.4180   -2.8000 H   0  0  0  0  0  0  0  0  0  0  0  0
   -2.7792   13.7755   -2.2329 H   0  0  0  0  0  0  0  0  0  0  0  0
   -4.3405   14.1713   -2.9449 H   0  0  0  0  0  0  0  0  0  0  0  0
  -10.0973    5.7615  -11.8867 H   0  0  0  0  0  0  0  0  0  0  0  0
   -9.3496    4.1579  -11.9851 H   0  0  0  0  0  0  0  0  0  0  0  0
   -7.6072    5.0772  -13.5252 H   0  0  0  0  0  0  0  0  0  0  0  0
   -9.2279    5.3523  -14.1702 H   0  0  0  0  0  0  0  0  0  0  0  0
   -8.3441    6.6784  -13.4056 H   0  0  0  0  0  0  0  0  0  0  0  0
   -6.1907    4.7902   -8.3616 H   0  0  0  0  0  0  0  0  0  0  0  0
   -8.0055    9.6126   -9.7009 H   0  0  0  0  0  0  0  0  0  0  0  0
   -8.2512   12.4155   -9.7424 H   0  0  0  0  0  0  0  0  0  0  0  0
   -7.4178   17.6835   -8.8311 H   0  0  0  0  0  0  0  0  0  0  0  0
   -6.1310   18.9248   -7.1072 H   0  0  0  0  0  0  0  0  0  0  0  0
   -5.6311   15.3352   -4.8234 H   0  0  0  0  0  0  0  0  0  0  0  0
  1  2  2  0  0  0  0
  2  3  1  0  0  0  0
  3  4  2  0  0  0  0
  3  5  1  0  0  0  0
  5  6  2  0  0  0  0
  6  7  1  0  0  0  0
  7  8  2  0  0  0  0
  8  9  1  0  0  0  0
  9 10  2  0  0  0  0
 10 11  1  0  0  0  0
 11 12  2  0  0  0  0
  1 13  1  0  0  0  0
 13 14  2  0  0  0  0
 14 15  1  0  0  0  0
 15 16  2  0  0  0  0
 16 17  1  0  0  0  0
 17 18  2  0  0  0  0
 18 19  1  0  0  0  0
 19 20  1  0  0  0  0
 19 21  2  0  0  0  0
 21 22  1  0  0  0  0
 22 23  1  0  0  0  0
 21 24  1  0  0  0  0
 16 25  1  0  0  0  0
 25 26  2  0  0  0  0
 26 27  1  0  0  0  0
 27 28  1  0  0  0  0
 28 29  1  0  0  0  0
 29 30  1  0  0  0  0
 30 31  1  0  0  0  0
 31 32  1  0  0  0  0
 30 33  2  0  0  0  0
 33 34  1  0  0  0  0
 33 35  1  0  0  0  0
 27 36  2  0  0  0  0
 36 37  1  0  0  0  0
 26 38  1  0  0  0  0
 38 39  2  0  0  0  0
 39 40  1  0  0  0  0
 39 41  1  0  0  0  0
 41 42  2  0  0  0  0
 42 43  1  0  0  0  0
 43 44  1  0  0  0  0
 44 45  1  0  0  0  0
 45 46  1  0  0  0  0
 46 47  2  0  0  0  0
 47 48  1  0  0  0  0
 48 49  1  0  0  0  0
 49 50  1  0  0  0  0
 50 51  1  0  0  0  0
 48 52  1  0  0  0  0
 52 53  2  0  0  0  0
 53 54  1  0  0  0  0
 54 55  2  0  0  0  0
 55 56  1  0  0  0  0
 56 57  1  0  0  0  0
 55 58  1  0  0  0  0
 58 59  2  0  0  0  0
 48 60  1  0  0  0  0
 60 61  2  0  0  0  0
 61 62  1  0  0  0  0
 62 63  2  0  0  0  0
 63 64  1  0  0  0  0
 64 65  1  0  0  0  0
 63 66  1  0  0  0  0
 66 67  2  0  0  0  0
 47 68  1  0  0  0  0
 68 69  2  0  0  0  0
 69 70  1  0  0  0  0
 70 71  2  0  0  0  0
 71 72  1  0  0  0  0
 72 73  2  0  0  0  0
 73 74  1  0  0  0  0
 74 75  1  0  0  0  0
 73 76  1  0  0  0  0
 69 77  1  0  0  0  0
 77 78  1  0  0  0  0
 78 79  1  0  0  0  0
 79 80  1  0  0  0  0
 80 81  2  0  0  0  0
 81 82  1  0  0  0  0
 82 83  1  0  0  0  0
 83 84  2  0  0  0  0
 84 85  1  0  0  0  0
 85 86  2  0  0  0  0
 86 87  1  0  0  0  0
 87 88  1  0  0  0  0
 86 89  1  0  0  0  0
 89 90  2  0  0  0  0
 82 91  1  0  0  0  0
 91 92  2  0  0  0  0
 92 93  1  0  0  0  0
 93 94  2  0  0  0  0
 94 95  1  0  0  0  0
 95 96  1  0  0  0  0
 94 97  1  0  0  0  0
 97 98  2  0  0  0  0
 82 99  1  0  0  0  0
 99100  1  0  0  0  0
100101  1  0  0  0  0
101102  2  0  0  0  0
102103  1  0  0  0  0
101104  1  0  0  0  0
104105  2  0  0  0  0
105106  1  0  0  0  0
106107  2  0  0  0  0
107108  1  0  0  0  0
108109  1  0  0  0  0
107110  1  0  0  0  0
 81111  1  0  0  0  0
111112  2  0  0  0  0
112113  1  0  0  0  0
112114  1  0  0  0  0
114115  2  0  0  0  0
115116  1  0  0  0  0
115117  1  0  0  0  0
117118  2  0  0  0  0
118119  1  0  0  0  0
119120  2  0  0  0  0
120121  1  0  0  0  0
121122  2  0  0  0  0
122123  1  0  0  0  0
123124  1  0  0  0  0
123125  2  0  0  0  0
125126  1  0  0  0  0
126127  1  0  0  0  0
125128  1  0  0  0  0
120129  1  0  0  0  0
129130  2  0  0  0  0
130131  1  0  0  0  0
131132  1  0  0  0  0
132133  1  0  0  0  0
133134  1  0  0  0  0
134135  1  0  0  0  0
135136  1  0  0  0  0
134137  2  0  0  0  0
137138  1  0  0  0  0
137139  1  0  0  0  0
131140  2  0  0  0  0
140141  1  0  0  0  0
130142  1  0  0  0  0
142143  2  0  0  0  0
143144  1  0  0  0  0
143145  1  0  0  0  0
145146  2  0  0  0  0
146147  1  0  0  0  0
147148  2  0  0  0  0
147149  1  0  0  0  0
149150  2  0  0  0  0
150151  1  0  0  0  0
151152  2  0  0  0  0
152153  1  0  0  0  0
152154  1  0  0  0  0
154155  2  0  0  0  0
155156  1  0  0  0  0
156157  2  0  0  0  0
157158  1  0  0  0  0
158159  3  0  0  0  0
157160  1  0  0  0  0
160161  3  0  0  0  0
 11  2  1  0  0  0  0
 37 13  1  0  0  0  0
 51 41  1  0  0  0  0
 59 52  1  0  0  0  0
 67 60  1  0  0  0  0
102 68  1  0  0  0  0
110104  1  0  0  0  0
116111  1  0  0  0  0
141117  1  0  0  0  0
156146  1  0  0  0  0
 10  5  1  0  0  0  0
 36 15  1  0  0  0  0
 50 43  2  0  0  0  0
 76 70  1  0  0  0  0
100 77  2  0  0  0  0
140119  1  0  0  0  0
155149  1  0  0  0  0
 24 17  1  0  0  0  0
 40 25  1  0  0  0  0
 49 45  2  0  0  0  0
 99 79  2  0  0  0  0
128121  1  0  0  0  0
144129  1  0  0  0  0
 34 28  2  0  0  0  0
103 46  1  0  0  0  0
138132  2  0  0  0  0
113 80  1  0  0  0  0
 90 83  1  0  0  0  0
 98 91  1  0  0  0  0
  1162  1  0  0  0  0
  6163  1  0  0  0  0
  7164  1  0  0  0  0
  8165  1  0  0  0  0
  9166  1  0  0  0  0
 14167  1  0  0  0  0
 18168  1  0  0  0  0
 22169  1  0  0  0  0
 22170  1  0  0  0  0
 23171  1  0  0  0  0
 23172  1  0  0  0  0
 23173  1  0  0  0  0
 31174  1  0  0  0  0
 31175  1  0  0  0  0
 32176  1  0  0  0  0
 32177  1  0  0  0  0
 32178  1  0  0  0  0
 34179  1  0  0  0  0
 38180  1  0  0  0  0
 42181  1  0  0  0  0
 53182  1  0  0  0  0
 54183  1  0  0  0  0
 56184  1  0  0  0  0
 56185  1  0  0  0  0
 57186  1  0  0  0  0
 57187  1  0  0  0  0
 57188  1  0  0  0  0
 58189  1  0  0  0  0
 59190  1  0  0  0  0
 61191  1  0  0  0  0
 62192  1  0  0  0  0
 64193  1  0  0  0  0
 64194  1  0  0  0  0
 65195  1  0  0  0  0
 65196  1  0  0  0  0
 65197  1  0  0  0  0
 66198  1  0  0  0  0
 67199  1  0  0  0  0
 71200  1  0  0  0  0
 72201  1  0  0  0  0
 74202  1  0  0  0  0
 74203  1  0  0  0  0
 75204  1  0  0  0  0
 75205  1  0  0  0  0
 75206  1  0  0  0  0
 84207  1  0  0  0  0
 85208  1  0  0  0  0
 87209  1  0  0  0  0
 87210  1  0  0  0  0
 88211  1  0  0  0  0
 88212  1  0  0  0  0
 88213  1  0  0  0  0
 89214  1  0  0  0  0
 90215  1  0  0  0  0
 92216  1  0  0  0  0
 93217  1  0  0  0  0
 95218  1  0  0  0  0
 95219  1  0  0  0  0
 96220  1  0  0  0  0
 96221  1  0  0  0  0
 96222  1  0  0  0  0
 97223  1  0  0  0  0
 98224  1  0  0  0  0
105225  1  0  0  0  0
106226  1  0  0  0  0
108227  1  0  0  0  0
108228  1  0  0  0  0
109229  1  0  0  0  0
109230  1  0  0  0  0
109231  1  0  0  0  0
114232  1  0  0  0  0
118233  1  0  0  0  0
122234  1  0  0  0  0
126235  1  0  0  0  0
126236  1  0  0  0  0
127237  1  0  0  0  0
127238  1  0  0  0  0
127239  1  0  0  0  0
135240  1  0  0  0  0
135241  1  0  0  0  0
136242  1  0  0  0  0
136243  1  0  0  0  0
136244  1  0  0  0  0
138245  1  0  0  0  0
142246  1  0  0  0  0
145247  1  0  0  0  0
150248  1  0  0  0  0
151249  1  0  0  0  0
154250  1  0  0  0  0
M  END
