
  xtb     02092206593D
 energy: -399.037906413994 gnorm: 0.000817128125 xtb: 6.4.1 (unknown)
245270  0     0  0            999 V2000
   -7.8231   -0.3971   -9.7674 C   0  0  0  0  0  0  0  0  0  0  0  0
   -7.0196   -0.2379  -10.8663 C   0  0  0  0  0  0  0  0  0  0  0  0
   -5.5732   -0.0926  -10.9570 C   0  0  0  0  0  0  0  0  0  0  0  0
   -4.7559   -0.0592  -10.0522 O   0  0  0  0  0  0  0  0  0  0  0  0
   -5.2638   -0.0040  -12.4076 C   0  0  0  0  0  0  0  0  0  0  0  0
   -4.0430    0.1495  -13.0350 C   0  0  0  0  0  0  0  0  0  0  0  0
   -4.0223    0.2091  -14.4233 C   0  0  0  0  0  0  0  0  0  0  0  0
   -5.1946    0.1155  -15.1587 C   0  0  0  0  0  0  0  0  0  0  0  0
   -6.4240   -0.0396  -14.5289 C   0  0  0  0  0  0  0  0  0  0  0  0
   -6.4474   -0.0974  -13.1492 C   0  0  0  0  0  0  0  0  0  0  0  0
   -7.5962   -0.2532  -12.2196 C   0  0  0  0  0  0  0  0  0  0  0  0
   -8.7673   -0.3793  -12.5162 O   0  0  0  0  0  0  0  0  0  0  0  0
   -7.4994   -0.4191   -8.4087 C   0  0  0  0  0  0  0  0  0  0  0  0
   -8.4249   -0.6275   -7.3616 C   0  0  0  0  0  0  0  0  0  0  0  0
   -9.7495   -0.9545   -7.5255 N   0  0  0  0  0  0  0  0  0  0  0  0
  -10.1554   -1.8415   -8.5418 C   0  0  0  0  0  0  0  0  0  0  0  0
   -9.3942   -2.9700   -8.8327 C   0  0  0  0  0  0  0  0  0  0  0  0
   -9.7805   -3.8209   -9.8486 C   0  0  0  0  0  0  0  0  0  0  0  0
  -10.9332   -3.5807  -10.5864 C   0  0  0  0  0  0  0  0  0  0  0  0
  -11.3284   -4.4815  -11.7148 C   0  0  0  0  0  0  0  0  0  0  0  0
  -11.7001   -2.4652  -10.2704 C   0  0  0  0  0  0  0  0  0  0  0  0
  -11.3218   -1.6014   -9.2626 C   0  0  0  0  0  0  0  0  0  0  0  0
  -10.7056   -0.4502   -6.6301 C   0  0  0  0  0  0  0  0  0  0  0  0
  -10.5967    0.8487   -6.1394 C   0  0  0  0  0  0  0  0  0  0  0  0
  -11.5595    1.3541   -5.2883 C   0  0  0  0  0  0  0  0  0  0  0  0
  -12.6580    0.5909   -4.9155 C   0  0  0  0  0  0  0  0  0  0  0  0
  -13.7377    1.1563   -4.0443 C   0  0  0  0  0  0  0  0  0  0  0  0
  -12.7525   -0.7096   -5.3994 C   0  0  0  0  0  0  0  0  0  0  0  0
  -11.7910   -1.2312   -6.2399 C   0  0  0  0  0  0  0  0  0  0  0  0
   -7.8074   -0.4722   -6.1086 C   0  0  0  0  0  0  0  0  0  0  0  0
   -8.3581   -0.5851   -4.4693 S   0  0  0  0  0  0  0  0  0  0  0  0
   -6.7324   -0.2641   -3.8831 C   0  0  0  0  0  0  0  0  0  0  0  0
   -5.8320   -0.0287   -4.9145 C   0  0  0  0  0  0  0  0  0  0  0  0
   -4.5086    0.3571   -4.7765 N   0  0  0  0  0  0  0  0  0  0  0  0
   -3.6043   -0.0642   -5.7712 C   0  0  0  0  0  0  0  0  0  0  0  0
   -3.6173   -1.3849   -6.2096 C   0  0  0  0  0  0  0  0  0  0  0  0
   -2.7853   -1.7810   -7.2371 C   0  0  0  0  0  0  0  0  0  0  0  0
   -1.9187   -0.8803   -7.8429 C   0  0  0  0  0  0  0  0  0  0  0  0
   -1.0742   -1.3017   -9.0047 C   0  0  0  0  0  0  0  0  0  0  0  0
   -1.8862    0.4263   -7.3721 C   0  0  0  0  0  0  0  0  0  0  0  0
   -2.7175    0.8371   -6.3497 C   0  0  0  0  0  0  0  0  0  0  0  0
   -4.0740    1.2082   -3.7577 C   0  0  0  0  0  0  0  0  0  0  0  0
   -4.9035    2.1936   -3.2233 C   0  0  0  0  0  0  0  0  0  0  0  0
   -4.4774    2.9515   -2.1510 C   0  0  0  0  0  0  0  0  0  0  0  0
   -3.2205    2.7680   -1.5871 C   0  0  0  0  0  0  0  0  0  0  0  0
   -2.8002    3.5569   -0.3847 C   0  0  0  0  0  0  0  0  0  0  0  0
   -2.3794    1.8228   -2.1608 C   0  0  0  0  0  0  0  0  0  0  0  0
   -2.7928    1.0523   -3.2280 C   0  0  0  0  0  0  0  0  0  0  0  0
   -6.4525   -0.1767   -6.1806 C   0  0  0  0  0  0  0  0  0  0  0  0
   -5.8728   -0.0961   -7.8030 S   0  0  0  0  0  0  0  0  0  0  0  0
   -6.4258   -0.2017   -2.4856 C   0  0  0  0  0  0  0  0  0  0  0  0
   -7.0286    0.5455   -1.4967 C   0  0  0  0  0  0  0  0  0  0  0  0
   -8.3167    1.2365   -1.6042 C   0  0  0  0  0  0  0  0  0  0  0  0
   -9.4823    0.5252   -1.8673 C   0  0  0  0  0  0  0  0  0  0  0  0
  -10.6945    1.1864   -1.9196 C   0  0  0  0  0  0  0  0  0  0  0  0
  -10.7534    2.5516   -1.7038 C   0  0  0  0  0  0  0  0  0  0  0  0
   -9.6002    3.2751   -1.4274 C   0  0  0  0  0  0  0  0  0  0  0  0
   -9.6607    4.7437   -1.1199 C   0  0  0  0  0  0  0  0  0  0  0  0
   -9.7122    4.9624    0.3936 C   0  0  0  0  0  0  0  0  0  0  0  0
   -8.3873    2.6053   -1.3774 C   0  0  0  0  0  0  0  0  0  0  0  0
   -6.2145    0.6253   -0.3476 C   0  0  0  0  0  0  0  0  0  0  0  0
   -6.3487    1.5591    1.1220 S   0  0  0  0  0  0  0  0  0  0  0  0
   -4.7774    0.9997    1.5903 C   0  0  0  0  0  0  0  0  0  0  0  0
   -3.8434    1.1793    2.6243 C   0  0  0  0  0  0  0  0  0  0  0  0
   -3.9352    1.8892    3.8405 C   0  0  0  0  0  0  0  0  0  0  0  0
   -2.8323    1.8420    4.7564 C   0  0  0  0  0  0  0  0  0  0  0  0
   -3.0711    2.5138    5.8719 N   0  0  0  0  0  0  0  0  0  0  0  0
   -4.5550    3.1553    5.7756 S   0  0  0  0  0  0  0  0  0  0  0  0
   -4.9501    2.6008    4.3060 N   0  0  0  0  0  0  0  0  0  0  0  0
   -1.6527    1.1719    4.3675 C   0  0  0  0  0  0  0  0  0  0  0  0
   -0.3954    1.0918    4.9885 C   0  0  0  0  0  0  0  0  0  0  0  0
    0.3911    1.6137    6.4412 S   0  0  0  0  0  0  0  0  0  0  0  0
    1.8838    0.9254    5.8484 C   0  0  0  0  0  0  0  0  0  0  0  0
    3.1925    0.9058    6.3736 C   0  0  0  0  0  0  0  0  0  0  0  0
    3.5397    1.6387    7.5946 C   0  0  0  0  0  0  0  0  0  0  0  0
    2.8420    1.4088    8.7725 C   0  0  0  0  0  0  0  0  0  0  0  0
    3.0962    2.1997    9.8776 C   0  0  0  0  0  0  0  0  0  0  0  0
    4.0080    3.2341    9.7976 C   0  0  0  0  0  0  0  0  0  0  0  0
    4.7070    3.4869    8.6205 C   0  0  0  0  0  0  0  0  0  0  0  0
    5.6502    4.6605    8.5886 C   0  0  0  0  0  0  0  0  0  0  0  0
    6.4241    4.8475    7.2909 C   0  0  0  0  0  0  0  0  0  0  0  0
    4.4772    2.6657    7.5296 C   0  0  0  0  0  0  0  0  0  0  0  0
    4.0589    0.2444    5.5267 C   0  0  0  0  0  0  0  0  0  0  0  0
    3.2672   -0.3152    4.0536 S   0  0  0  0  0  0  0  0  0  0  0  0
    1.7564    0.3226    4.5957 C   0  0  0  0  0  0  0  0  0  0  0  0
    0.4493    0.4194    4.1037 C   0  0  0  0  0  0  0  0  0  0  0  0
   -0.2385    0.0550    2.9774 N   0  0  0  0  0  0  0  0  0  0  0  0
   -1.5419    0.5076    3.1129 C   0  0  0  0  0  0  0  0  0  0  0  0
   -2.6869    0.4250    2.2758 C   0  0  0  0  0  0  0  0  0  0  0  0
   -2.9415   -0.2259    1.0776 N   0  0  0  0  0  0  0  0  0  0  0  0
   -4.1992    0.1242    0.6707 C   0  0  0  0  0  0  0  0  0  0  0  0
   -5.0264   -0.0958   -0.4379 C   0  0  0  0  0  0  0  0  0  0  0  0
   -4.9237   -0.9441   -1.9371 S   0  0  0  0  0  0  0  0  0  0  0  0
   -2.2989   -1.3705    0.4732 C   0  0  0  0  0  0  0  0  0  0  0  0
   -2.2449   -2.5557    1.4342 C   0  0  0  0  0  0  0  0  0  0  0  0
    0.4972   -0.3242    1.7929 C   0  0  0  0  0  0  0  0  0  0  0  0
    0.4791    0.7884    0.7476 C   0  0  0  0  0  0  0  0  0  0  0  0
    5.4242   -0.1322    5.6895 C   0  0  0  0  0  0  0  0  0  0  0  0
    6.1481   -0.4161    6.8323 C   0  0  0  0  0  0  0  0  0  0  0  0
    5.6577   -0.3551    8.1521 N   0  0  0  0  0  0  0  0  0  0  0  0
    6.2720    0.5106    9.0561 C   0  0  0  0  0  0  0  0  0  0  0  0
    7.2600    1.4078    8.6582 C   0  0  0  0  0  0  0  0  0  0  0  0
    7.8294    2.2770    9.5688 C   0  0  0  0  0  0  0  0  0  0  0  0
    7.4219    2.3013   10.8935 C   0  0  0  0  0  0  0  0  0  0  0  0
    8.0394    3.2394   11.8870 C   0  0  0  0  0  0  0  0  0  0  0  0
    6.4101    1.4287   11.2786 C   0  0  0  0  0  0  0  0  0  0  0  0
    5.8416    0.5494   10.3831 C   0  0  0  0  0  0  0  0  0  0  0  0
    5.1399   -1.5989    8.6091 C   0  0  0  0  0  0  0  0  0  0  0  0
    5.8299   -2.3571    9.5507 C   0  0  0  0  0  0  0  0  0  0  0  0
    5.3257   -3.5715    9.9688 C   0  0  0  0  0  0  0  0  0  0  0  0
    4.1350   -4.0707    9.4520 C   0  0  0  0  0  0  0  0  0  0  0  0
    3.6114   -5.4008    9.9002 C   0  0  0  0  0  0  0  0  0  0  0  0
    3.4657   -3.3178    8.4976 C   0  0  0  0  0  0  0  0  0  0  0  0
    3.9583   -2.0961    8.0764 C   0  0  0  0  0  0  0  0  0  0  0  0
    7.4378   -0.8933    6.5075 C   0  0  0  0  0  0  0  0  0  0  0  0
    8.7857   -1.3881    7.4522 S   0  0  0  0  0  0  0  0  0  0  0  0
    9.7055   -1.7851    5.9930 C   0  0  0  0  0  0  0  0  0  0  0  0
    8.9904   -1.4586    4.8193 C   0  0  0  0  0  0  0  0  0  0  0  0
    9.4485   -1.5053    3.5248 N   0  0  0  0  0  0  0  0  0  0  0  0
    8.4822   -1.5377    2.4841 C   0  0  0  0  0  0  0  0  0  0  0  0
    7.5051   -2.5284    2.4600 C   0  0  0  0  0  0  0  0  0  0  0  0
    6.5628   -2.5427    1.4518 C   0  0  0  0  0  0  0  0  0  0  0  0
    6.5667   -1.5784    0.4505 C   0  0  0  0  0  0  0  0  0  0  0  0
    5.5277   -1.6076   -0.6269 C   0  0  0  0  0  0  0  0  0  0  0  0
    7.5517   -0.5998    0.4792 C   0  0  0  0  0  0  0  0  0  0  0  0
    8.5011   -0.5737    1.4822 C   0  0  0  0  0  0  0  0  0  0  0  0
   10.7748   -1.2368    3.1556 C   0  0  0  0  0  0  0  0  0  0  0  0
   11.2660   -1.7598    1.9576 C   0  0  0  0  0  0  0  0  0  0  0  0
   12.5671   -1.5176    1.5717 C   0  0  0  0  0  0  0  0  0  0  0  0
   13.4256   -0.7671    2.3681 C   0  0  0  0  0  0  0  0  0  0  0  0
   14.8446   -0.5365    1.9544 C   0  0  0  0  0  0  0  0  0  0  0  0
   12.9219   -0.2234    3.5429 C   0  0  0  0  0  0  0  0  0  0  0  0
   11.6143   -0.4413    3.9312 C   0  0  0  0  0  0  0  0  0  0  0  0
    7.7028   -0.9820    5.1470 C   0  0  0  0  0  0  0  0  0  0  0  0
    6.3410   -0.4422    4.2251 S   0  0  0  0  0  0  0  0  0  0  0  0
   10.9788   -2.3176    6.2181 C   0  0  0  0  0  0  0  0  0  0  0  0
   11.8332   -2.9898    5.3752 C   0  0  0  0  0  0  0  0  0  0  0  0
   13.2903   -2.9555    5.6292 C   0  0  0  0  0  0  0  0  0  0  0  0
   13.8572   -2.5180    6.6066 O   0  0  0  0  0  0  0  0  0  0  0  0
   13.9072   -3.5089    4.4021 C   0  0  0  0  0  0  0  0  0  0  0  0
   15.2419   -3.6112    4.0651 C   0  0  0  0  0  0  0  0  0  0  0  0
   15.5763   -4.1534    2.8333 C   0  0  0  0  0  0  0  0  0  0  0  0
   14.5738   -4.5902    1.9769 C   0  0  0  0  0  0  0  0  0  0  0  0
   15.0099   -5.2450    0.4412 Cl  0  0  0  0  0  0  0  0  0  0  0  0
   13.2257   -4.5090    2.3097 C   0  0  0  0  0  0  0  0  0  0  0  0
   12.8973   -3.9506    3.5310 C   0  0  0  0  0  0  0  0  0  0  0  0
   11.5990   -3.7173    4.1643 C   0  0  0  0  0  0  0  0  0  0  0  0
   10.4036   -4.2956    3.7957 C   0  0  0  0  0  0  0  0  0  0  0  0
    9.2927   -4.3321    4.6532 C   0  0  0  0  0  0  0  0  0  0  0  0
    8.3769   -4.4135    5.3432 N   0  0  0  0  0  0  0  0  0  0  0  0
   10.1869   -4.9579    2.5759 C   0  0  0  0  0  0  0  0  0  0  0  0
    9.9386   -5.4604    1.5724 N   0  0  0  0  0  0  0  0  0  0  0  0
   -8.8752   -0.5132  -10.0086 H   0  0  0  0  0  0  0  0  0  0  0  0
   -3.1359    0.2240  -12.4546 H   0  0  0  0  0  0  0  0  0  0  0  0
   -3.0803    0.3306  -14.9379 H   0  0  0  0  0  0  0  0  0  0  0  0
   -5.1504    0.1649  -16.2368 H   0  0  0  0  0  0  0  0  0  0  0  0
   -7.3406   -0.1123  -15.0941 H   0  0  0  0  0  0  0  0  0  0  0  0
   -8.4958   -3.1671   -8.2663 H   0  0  0  0  0  0  0  0  0  0  0  0
   -9.1763   -4.6888  -10.0698 H   0  0  0  0  0  0  0  0  0  0  0  0
  -10.8767   -5.4647  -11.6067 H   0  0  0  0  0  0  0  0  0  0  0  0
  -10.9904   -4.0534  -12.6590 H   0  0  0  0  0  0  0  0  0  0  0  0
  -12.4096   -4.5906  -11.7648 H   0  0  0  0  0  0  0  0  0  0  0  0
  -12.5996   -2.2617  -10.8323 H   0  0  0  0  0  0  0  0  0  0  0  0
  -11.9171   -0.7290   -9.0368 H   0  0  0  0  0  0  0  0  0  0  0  0
   -9.7640    1.4666   -6.4418 H   0  0  0  0  0  0  0  0  0  0  0  0
  -11.4586    2.3640   -4.9186 H   0  0  0  0  0  0  0  0  0  0  0  0
  -14.0590    0.4288   -3.3011 H   0  0  0  0  0  0  0  0  0  0  0  0
  -14.6067    1.4148   -4.6505 H   0  0  0  0  0  0  0  0  0  0  0  0
  -13.3975    2.0557   -3.5380 H   0  0  0  0  0  0  0  0  0  0  0  0
  -13.5932   -1.3243   -5.1110 H   0  0  0  0  0  0  0  0  0  0  0  0
  -11.8761   -2.2447   -6.6027 H   0  0  0  0  0  0  0  0  0  0  0  0
   -4.2921   -2.0911   -5.7471 H   0  0  0  0  0  0  0  0  0  0  0  0
   -2.8156   -2.8047   -7.5809 H   0  0  0  0  0  0  0  0  0  0  0  0
   -0.7363   -2.3297   -8.8912 H   0  0  0  0  0  0  0  0  0  0  0  0
   -1.6688   -1.2411   -9.9164 H   0  0  0  0  0  0  0  0  0  0  0  0
   -0.2088   -0.6529   -9.1176 H   0  0  0  0  0  0  0  0  0  0  0  0
   -1.2155    1.1405   -7.8274 H   0  0  0  0  0  0  0  0  0  0  0  0
   -2.6997    1.8610   -6.0056 H   0  0  0  0  0  0  0  0  0  0  0  0
   -5.8831    2.3581   -3.6478 H   0  0  0  0  0  0  0  0  0  0  0  0
   -5.1341    3.7051   -1.7405 H   0  0  0  0  0  0  0  0  0  0  0  0
   -3.2408    3.1300    0.5178 H   0  0  0  0  0  0  0  0  0  0  0  0
   -3.1383    4.5880   -0.4612 H   0  0  0  0  0  0  0  0  0  0  0  0
   -1.7183    3.5494   -0.2708 H   0  0  0  0  0  0  0  0  0  0  0  0
   -1.3862    1.6775   -1.7597 H   0  0  0  0  0  0  0  0  0  0  0  0
   -2.1371    0.3030   -3.6460 H   0  0  0  0  0  0  0  0  0  0  0  0
   -9.4400   -0.5452   -2.0011 H   0  0  0  0  0  0  0  0  0  0  0  0
  -11.5955    0.6288   -2.1226 H   0  0  0  0  0  0  0  0  0  0  0  0
  -11.7053    3.0631   -1.7374 H   0  0  0  0  0  0  0  0  0  0  0  0
  -10.5464    5.1860   -1.5804 H   0  0  0  0  0  0  0  0  0  0  0  0
   -8.7787    5.2441   -1.5252 H   0  0  0  0  0  0  0  0  0  0  0  0
   -9.7457    6.0247    0.6244 H   0  0  0  0  0  0  0  0  0  0  0  0
   -8.8351    4.5290    0.8687 H   0  0  0  0  0  0  0  0  0  0  0  0
  -10.5961    4.4873    0.8135 H   0  0  0  0  0  0  0  0  0  0  0  0
   -7.4814    3.1529   -1.1627 H   0  0  0  0  0  0  0  0  0  0  0  0
    2.1153    0.6120    8.8226 H   0  0  0  0  0  0  0  0  0  0  0  0
    2.5659    2.0182   10.8006 H   0  0  0  0  0  0  0  0  0  0  0  0
    4.1820    3.8641   10.6580 H   0  0  0  0  0  0  0  0  0  0  0  0
    6.3578    4.5451    9.4137 H   0  0  0  0  0  0  0  0  0  0  0  0
    5.0682    5.5657    8.7898 H   0  0  0  0  0  0  0  0  0  0  0  0
    7.0273    3.9695    7.0744 H   0  0  0  0  0  0  0  0  0  0  0  0
    5.7498    5.0279    6.4566 H   0  0  0  0  0  0  0  0  0  0  0  0
    7.0884    5.7047    7.3798 H   0  0  0  0  0  0  0  0  0  0  0  0
    4.9949    2.8282    6.5970 H   0  0  0  0  0  0  0  0  0  0  0  0
   -2.9039   -1.6381   -0.3968 H   0  0  0  0  0  0  0  0  0  0  0  0
   -1.3086   -1.1077    0.1006 H   0  0  0  0  0  0  0  0  0  0  0  0
   -3.2537   -2.8599    1.7035 H   0  0  0  0  0  0  0  0  0  0  0  0
   -1.7452   -3.3962    0.9600 H   0  0  0  0  0  0  0  0  0  0  0  0
   -1.7144   -2.2986    2.3481 H   0  0  0  0  0  0  0  0  0  0  0  0
    0.1185   -1.2629    1.3883 H   0  0  0  0  0  0  0  0  0  0  0  0
    1.5271   -0.5042    2.1117 H   0  0  0  0  0  0  0  0  0  0  0  0
    0.9672    1.6761    1.1438 H   0  0  0  0  0  0  0  0  0  0  0  0
    1.0104    0.4702   -0.1458 H   0  0  0  0  0  0  0  0  0  0  0  0
   -0.5415    1.0527    0.4801 H   0  0  0  0  0  0  0  0  0  0  0  0
    7.5891    1.4327    7.6301 H   0  0  0  0  0  0  0  0  0  0  0  0
    8.6077    2.9497    9.2358 H   0  0  0  0  0  0  0  0  0  0  0  0
    7.2699    3.8088   12.4070 H   0  0  0  0  0  0  0  0  0  0  0  0
    8.6019    2.6824   12.6362 H   0  0  0  0  0  0  0  0  0  0  0  0
    8.7175    3.9344   11.3972 H   0  0  0  0  0  0  0  0  0  0  0  0
    6.0602    1.4405   12.3011 H   0  0  0  0  0  0  0  0  0  0  0  0
    5.0504   -0.1103   10.7045 H   0  0  0  0  0  0  0  0  0  0  0  0
    6.7637   -1.9883    9.9498 H   0  0  0  0  0  0  0  0  0  0  0  0
    5.8716   -4.1492   10.7008 H   0  0  0  0  0  0  0  0  0  0  0  0
    2.5663   -5.5210    9.6260 H   0  0  0  0  0  0  0  0  0  0  0  0
    3.7084   -5.5096   10.9786 H   0  0  0  0  0  0  0  0  0  0  0  0
    4.1823   -6.2028    9.4315 H   0  0  0  0  0  0  0  0  0  0  0  0
    2.5418   -3.6883    8.0764 H   0  0  0  0  0  0  0  0  0  0  0  0
    3.4230   -1.5249    7.3353 H   0  0  0  0  0  0  0  0  0  0  0  0
    7.4786   -3.2787    3.2345 H   0  0  0  0  0  0  0  0  0  0  0  0
    5.8100   -3.3166    1.4446 H   0  0  0  0  0  0  0  0  0  0  0  0
    5.6032   -0.7325   -1.2668 H   0  0  0  0  0  0  0  0  0  0  0  0
    4.5314   -1.6390   -0.1889 H   0  0  0  0  0  0  0  0  0  0  0  0
    5.6490   -2.4986   -1.2419 H   0  0  0  0  0  0  0  0  0  0  0  0
    7.5741    0.1606   -0.2878 H   0  0  0  0  0  0  0  0  0  0  0  0
    9.2563    0.1986    1.4986 H   0  0  0  0  0  0  0  0  0  0  0  0
   10.6235   -2.3693    1.3391 H   0  0  0  0  0  0  0  0  0  0  0  0
   12.9300   -1.9356    0.6445 H   0  0  0  0  0  0  0  0  0  0  0  0
   15.2416   -1.4111    1.4441 H   0  0  0  0  0  0  0  0  0  0  0  0
   15.4674   -0.3162    2.8176 H   0  0  0  0  0  0  0  0  0  0  0  0
   14.9024    0.3091    1.2682 H   0  0  0  0  0  0  0  0  0  0  0  0
   13.5606    0.3818    4.1689 H   0  0  0  0  0  0  0  0  0  0  0  0
   11.2436    0.0142    4.8365 H   0  0  0  0  0  0  0  0  0  0  0  0
   11.3917   -2.1140    7.2023 H   0  0  0  0  0  0  0  0  0  0  0  0
   16.0028   -3.2725    4.7507 H   0  0  0  0  0  0  0  0  0  0  0  0
   16.6088   -4.2407    2.5334 H   0  0  0  0  0  0  0  0  0  0  0  0
   12.4749   -4.8585    1.6198 H   0  0  0  0  0  0  0  0  0  0  0  0
  1  2  2  0  0  0  0
  2  3  1  0  0  0  0
  3  4  2  0  0  0  0
  3  5  1  0  0  0  0
  5  6  2  0  0  0  0
  6  7  1  0  0  0  0
  7  8  2  0  0  0  0
  8  9  1  0  0  0  0
  9 10  2  0  0  0  0
 10 11  1  0  0  0  0
 11 12  2  0  0  0  0
  1 13  1  0  0  0  0
 13 14  2  0  0  0  0
 14 15  1  0  0  0  0
 15 16  1  0  0  0  0
 16 17  2  0  0  0  0
 17 18  1  0  0  0  0
 18 19  2  0  0  0  0
 19 20  1  0  0  0  0
 19 21  1  0  0  0  0
 21 22  2  0  0  0  0
 15 23  1  0  0  0  0
 23 24  2  0  0  0  0
 24 25  1  0  0  0  0
 25 26  2  0  0  0  0
 26 27  1  0  0  0  0
 26 28  1  0  0  0  0
 28 29  2  0  0  0  0
 14 30  1  0  0  0  0
 30 31  1  0  0  0  0
 31 32  1  0  0  0  0
 32 33  2  0  0  0  0
 33 34  1  0  0  0  0
 34 35  1  0  0  0  0
 35 36  2  0  0  0  0
 36 37  1  0  0  0  0
 37 38  2  0  0  0  0
 38 39  1  0  0  0  0
 38 40  1  0  0  0  0
 40 41  2  0  0  0  0
 34 42  1  0  0  0  0
 42 43  2  0  0  0  0
 43 44  1  0  0  0  0
 44 45  2  0  0  0  0
 45 46  1  0  0  0  0
 45 47  1  0  0  0  0
 47 48  2  0  0  0  0
 33 49  1  0  0  0  0
 49 50  1  0  0  0  0
 32 51  1  0  0  0  0
 51 52  2  0  0  0  0
 52 53  1  0  0  0  0
 53 54  2  0  0  0  0
 54 55  1  0  0  0  0
 55 56  2  0  0  0  0
 56 57  1  0  0  0  0
 57 58  1  0  0  0  0
 58 59  1  0  0  0  0
 57 60  2  0  0  0  0
 52 61  1  0  0  0  0
 61 62  1  0  0  0  0
 62 63  1  0  0  0  0
 63 64  1  0  0  0  0
 64 65  1  0  0  0  0
 65 66  1  0  0  0  0
 66 67  2  0  0  0  0
 67 68  1  0  0  0  0
 68 69  1  0  0  0  0
 66 70  1  0  0  0  0
 70 71  1  0  0  0  0
 71 72  1  0  0  0  0
 72 73  1  0  0  0  0
 73 74  1  0  0  0  0
 74 75  1  0  0  0  0
 75 76  2  0  0  0  0
 76 77  1  0  0  0  0
 77 78  2  0  0  0  0
 78 79  1  0  0  0  0
 79 80  1  0  0  0  0
 80 81  1  0  0  0  0
 79 82  2  0  0  0  0
 74 83  2  0  0  0  0
 83 84  1  0  0  0  0
 84 85  1  0  0  0  0
 85 86  1  0  0  0  0
 86 87  1  0  0  0  0
 87 88  1  0  0  0  0
 88 89  1  0  0  0  0
 89 90  1  0  0  0  0
 90 91  1  0  0  0  0
 91 92  1  0  0  0  0
 92 93  1  0  0  0  0
 90 94  1  0  0  0  0
 94 95  1  0  0  0  0
 87 96  1  0  0  0  0
 96 97  1  0  0  0  0
 83 98  1  0  0  0  0
 98 99  2  0  0  0  0
 99100  1  0  0  0  0
100101  1  0  0  0  0
101102  2  0  0  0  0
102103  1  0  0  0  0
103104  2  0  0  0  0
104105  1  0  0  0  0
104106  1  0  0  0  0
106107  2  0  0  0  0
100108  1  0  0  0  0
108109  2  0  0  0  0
109110  1  0  0  0  0
110111  2  0  0  0  0
111112  1  0  0  0  0
111113  1  0  0  0  0
113114  2  0  0  0  0
 99115  1  0  0  0  0
115116  1  0  0  0  0
116117  1  0  0  0  0
117118  2  0  0  0  0
118119  1  0  0  0  0
119120  1  0  0  0  0
120121  2  0  0  0  0
121122  1  0  0  0  0
122123  2  0  0  0  0
123124  1  0  0  0  0
123125  1  0  0  0  0
125126  2  0  0  0  0
119127  1  0  0  0  0
127128  2  0  0  0  0
128129  1  0  0  0  0
129130  2  0  0  0  0
130131  1  0  0  0  0
130132  1  0  0  0  0
132133  2  0  0  0  0
118134  1  0  0  0  0
134135  1  0  0  0  0
117136  1  0  0  0  0
136137  2  0  0  0  0
137138  1  0  0  0  0
138139  2  0  0  0  0
138140  1  0  0  0  0
140141  2  0  0  0  0
141142  1  0  0  0  0
142143  2  0  0  0  0
143144  1  0  0  0  0
143145  1  0  0  0  0
145146  2  0  0  0  0
146147  1  0  0  0  0
147148  2  0  0  0  0
148149  1  0  0  0  0
149150  3  0  0  0  0
148151  1  0  0  0  0
151152  3  0  0  0  0
 11  2  1  0  0  0  0
 50 13  1  0  0  0  0
 93 51  1  0  0  0  0
135 98  1  0  0  0  0
147137  1  0  0  0  0
 10  5  1  0  0  0  0
 22 16  1  0  0  0  0
 29 23  1  0  0  0  0
 49 30  2  0  0  0  0
 60 53  1  0  0  0  0
 92 61  2  0  0  0  0
107101  1  0  0  0  0
114108  1  0  0  0  0
134115  2  0  0  0  0
146140  1  0  0  0  0
 41 35  1  0  0  0  0
 48 42  1  0  0  0  0
 91 63  2  0  0  0  0
126120  1  0  0  0  0
133127  1  0  0  0  0
 89 64  2  0  0  0  0
 69 65  2  0  0  0  0
 88 70  2  0  0  0  0
 86 71  2  0  0  0  0
 85 73  2  0  0  0  0
 82 75  1  0  0  0  0
  1153  1  0  0  0  0
  6154  1  0  0  0  0
  7155  1  0  0  0  0
  8156  1  0  0  0  0
  9157  1  0  0  0  0
 17158  1  0  0  0  0
 18159  1  0  0  0  0
 20160  1  0  0  0  0
 20161  1  0  0  0  0
 20162  1  0  0  0  0
 21163  1  0  0  0  0
 22164  1  0  0  0  0
 24165  1  0  0  0  0
 25166  1  0  0  0  0
 27167  1  0  0  0  0
 27168  1  0  0  0  0
 27169  1  0  0  0  0
 28170  1  0  0  0  0
 29171  1  0  0  0  0
 36172  1  0  0  0  0
 37173  1  0  0  0  0
 39174  1  0  0  0  0
 39175  1  0  0  0  0
 39176  1  0  0  0  0
 40177  1  0  0  0  0
 41178  1  0  0  0  0
 43179  1  0  0  0  0
 44180  1  0  0  0  0
 46181  1  0  0  0  0
 46182  1  0  0  0  0
 46183  1  0  0  0  0
 47184  1  0  0  0  0
 48185  1  0  0  0  0
 54186  1  0  0  0  0
 55187  1  0  0  0  0
 56188  1  0  0  0  0
 58189  1  0  0  0  0
 58190  1  0  0  0  0
 59191  1  0  0  0  0
 59192  1  0  0  0  0
 59193  1  0  0  0  0
 60194  1  0  0  0  0
 76195  1  0  0  0  0
 77196  1  0  0  0  0
 78197  1  0  0  0  0
 80198  1  0  0  0  0
 80199  1  0  0  0  0
 81200  1  0  0  0  0
 81201  1  0  0  0  0
 81202  1  0  0  0  0
 82203  1  0  0  0  0
 94204  1  0  0  0  0
 94205  1  0  0  0  0
 95206  1  0  0  0  0
 95207  1  0  0  0  0
 95208  1  0  0  0  0
 96209  1  0  0  0  0
 96210  1  0  0  0  0
 97211  1  0  0  0  0
 97212  1  0  0  0  0
 97213  1  0  0  0  0
102214  1  0  0  0  0
103215  1  0  0  0  0
105216  1  0  0  0  0
105217  1  0  0  0  0
105218  1  0  0  0  0
106219  1  0  0  0  0
107220  1  0  0  0  0
109221  1  0  0  0  0
110222  1  0  0  0  0
112223  1  0  0  0  0
112224  1  0  0  0  0
112225  1  0  0  0  0
113226  1  0  0  0  0
114227  1  0  0  0  0
121228  1  0  0  0  0
122229  1  0  0  0  0
124230  1  0  0  0  0
124231  1  0  0  0  0
124232  1  0  0  0  0
125233  1  0  0  0  0
126234  1  0  0  0  0
128235  1  0  0  0  0
129236  1  0  0  0  0
131237  1  0  0  0  0
131238  1  0  0  0  0
131239  1  0  0  0  0
132240  1  0  0  0  0
133241  1  0  0  0  0
136242  1  0  0  0  0
141243  1  0  0  0  0
142244  1  0  0  0  0
145245  1  0  0  0  0
M  END
