
  xtb     02052207103D
 energy: -303.133196371706 gnorm: 0.000476729763 xtb: 6.4.1 (unknown)
172189  0     0  0            999 V2000
    5.1311   -1.6845   -9.8442 C   0  0  0  0  0  0  0  0  0  0  0  0
    4.1470   -1.6071  -10.7707 C   0  0  0  0  0  0  0  0  0  0  0  0
    2.7356   -2.0199  -10.5166 C   0  0  0  0  0  0  0  0  0  0  0  0
    2.2496   -2.4299   -9.4845 O   0  0  0  0  0  0  0  0  0  0  0  0
    2.0683   -1.9514  -11.8292 C   0  0  0  0  0  0  0  0  0  0  0  0
    0.7555   -2.2501  -12.1376 C   0  0  0  0  0  0  0  0  0  0  0  0
    0.3297   -2.1389  -13.4576 C   0  0  0  0  0  0  0  0  0  0  0  0
   -1.0839   -2.4390  -13.8409 C   0  0  0  0  0  0  0  0  0  0  0  0
    1.2454   -1.7377  -14.4313 C   0  0  0  0  0  0  0  0  0  0  0  0
    2.5647   -1.4410  -14.1313 C   0  0  0  0  0  0  0  0  0  0  0  0
    2.9869   -1.5452  -12.8129 C   0  0  0  0  0  0  0  0  0  0  0  0
    4.2792   -1.3004  -12.1863 C   0  0  0  0  0  0  0  0  0  0  0  0
    5.3885   -0.7884  -12.8011 C   0  0  0  0  0  0  0  0  0  0  0  0
    5.4556   -0.4702  -14.1744 C   0  0  0  0  0  0  0  0  0  0  0  0
    5.5701   -0.1947  -15.2826 N   0  0  0  0  0  0  0  0  0  0  0  0
    6.6004   -0.4782  -12.1466 C   0  0  0  0  0  0  0  0  0  0  0  0
    7.6072   -0.1815  -11.6821 N   0  0  0  0  0  0  0  0  0  0  0  0
    4.8402   -1.8189   -8.4387 C   0  0  0  0  0  0  0  0  0  0  0  0
    5.4906   -2.7331   -7.6298 C   0  0  0  0  0  0  0  0  0  0  0  0
    6.4771   -3.4841   -8.1454 F   0  0  0  0  0  0  0  0  0  0  0  0
    5.0805   -2.9780   -6.3169 C   0  0  0  0  0  0  0  0  0  0  0  0
    5.7165   -3.9340   -5.6205 F   0  0  0  0  0  0  0  0  0  0  0  0
    4.0278   -2.2848   -5.7417 C   0  0  0  0  0  0  0  0  0  0  0  0
    3.4583   -1.2171   -6.4897 C   0  0  0  0  0  0  0  0  0  0  0  0
    2.4937   -0.4644   -5.9380 N   0  0  0  0  0  0  0  0  0  0  0  0
    1.9157    0.4679   -6.6507 C   0  0  0  0  0  0  0  0  0  0  0  0
    0.8397    1.2786   -5.9925 C   0  0  0  0  0  0  0  0  0  0  0  0
    0.5623    0.8328   -4.5632 C   0  0  0  0  0  0  0  0  0  0  0  0
    2.3363    0.7143   -7.9909 C   0  0  0  0  0  0  0  0  0  0  0  0
    3.2846   -0.0037   -8.5354 N   0  0  0  0  0  0  0  0  0  0  0  0
    3.8462   -0.9994   -7.8328 C   0  0  0  0  0  0  0  0  0  0  0  0
    1.7259    1.7656   -8.8666 C   0  0  0  0  0  0  0  0  0  0  0  0
    0.5494    1.1751   -9.6487 C   0  0  0  0  0  0  0  0  0  0  0  0
    3.4464   -2.6893   -4.4857 C   0  0  0  0  0  0  0  0  0  0  0  0
    3.1052   -3.9782   -4.1242 C   0  0  0  0  0  0  0  0  0  0  0  0
    3.1912   -5.1267   -5.0269 C   0  0  0  0  0  0  0  0  0  0  0  0
    3.6369   -6.3615   -4.5691 C   0  0  0  0  0  0  0  0  0  0  0  0
    3.7160   -7.4294   -5.4441 C   0  0  0  0  0  0  0  0  0  0  0  0
    3.3565   -7.2771   -6.7710 C   0  0  0  0  0  0  0  0  0  0  0  0
    2.8943   -6.0530   -7.2425 C   0  0  0  0  0  0  0  0  0  0  0  0
    2.5343   -5.8687   -8.6893 C   0  0  0  0  0  0  0  0  0  0  0  0
    3.7934   -5.7342   -9.5472 C   0  0  0  0  0  0  0  0  0  0  0  0
    2.8069   -4.9903   -6.3596 C   0  0  0  0  0  0  0  0  0  0  0  0
    2.5465   -4.0055   -2.8314 C   0  0  0  0  0  0  0  0  0  0  0  0
    1.8830   -5.2950   -1.8595 S   0  0  0  0  0  0  0  0  0  0  0  0
    1.4647   -4.1313   -0.6493 C   0  0  0  0  0  0  0  0  0  0  0  0
    0.7682   -4.0743    0.5680 C   0  0  0  0  0  0  0  0  0  0  0  0
    0.0084   -5.0449    1.2588 C   0  0  0  0  0  0  0  0  0  0  0  0
   -0.8151   -4.6289    2.3605 C   0  0  0  0  0  0  0  0  0  0  0  0
   -1.5381   -5.6220    2.8529 N   0  0  0  0  0  0  0  0  0  0  0  0
   -1.2058   -6.9658    2.0134 S   0  0  0  0  0  0  0  0  0  0  0  0
   -0.1306   -6.3316    0.9825 N   0  0  0  0  0  0  0  0  0  0  0  0
   -0.7274   -3.2940    2.8144 C   0  0  0  0  0  0  0  0  0  0  0  0
   -1.3244   -2.6273    3.8962 C   0  0  0  0  0  0  0  0  0  0  0  0
   -2.5081   -2.9153    5.1239 S   0  0  0  0  0  0  0  0  0  0  0  0
   -2.2106   -1.3066    5.7478 C   0  0  0  0  0  0  0  0  0  0  0  0
   -2.7860   -0.5789    6.8000 C   0  0  0  0  0  0  0  0  0  0  0  0
   -3.9706   -1.0510    7.5137 C   0  0  0  0  0  0  0  0  0  0  0  0
   -4.0482   -2.3613    7.9745 C   0  0  0  0  0  0  0  0  0  0  0  0
   -5.1976   -2.8013    8.6025 C   0  0  0  0  0  0  0  0  0  0  0  0
   -6.2754   -1.9496    8.7650 C   0  0  0  0  0  0  0  0  0  0  0  0
   -6.2202   -0.6411    8.2989 C   0  0  0  0  0  0  0  0  0  0  0  0
   -7.4087    0.2685    8.4265 C   0  0  0  0  0  0  0  0  0  0  0  0
   -8.3423    0.0981    7.2266 C   0  0  0  0  0  0  0  0  0  0  0  0
   -5.0661   -0.2048    7.6705 C   0  0  0  0  0  0  0  0  0  0  0  0
   -2.1950    0.6783    6.9251 C   0  0  0  0  0  0  0  0  0  0  0  0
   -1.0330    1.0055    5.6479 S   0  0  0  0  0  0  0  0  0  0  0  0
   -1.2371   -0.6009    5.0329 C   0  0  0  0  0  0  0  0  0  0  0  0
   -0.7498   -1.3525    3.9607 C   0  0  0  0  0  0  0  0  0  0  0  0
    0.1531   -1.1907    2.9397 N   0  0  0  0  0  0  0  0  0  0  0  0
    0.1604   -2.3633    2.2049 C   0  0  0  0  0  0  0  0  0  0  0  0
    0.7902   -2.7151    0.9861 C   0  0  0  0  0  0  0  0  0  0  0  0
    1.4388   -1.9662    0.0210 N   0  0  0  0  0  0  0  0  0  0  0  0
    1.8404   -2.8227   -0.9703 C   0  0  0  0  0  0  0  0  0  0  0  0
    2.4488   -2.7469   -2.2308 C   0  0  0  0  0  0  0  0  0  0  0  0
    3.0395   -1.5028   -3.2770 S   0  0  0  0  0  0  0  0  0  0  0  0
    1.3914   -0.5414   -0.2222 C   0  0  0  0  0  0  0  0  0  0  0  0
    2.7759    0.1027   -0.1539 C   0  0  0  0  0  0  0  0  0  0  0  0
    1.2183   -0.2241    3.0930 C   0  0  0  0  0  0  0  0  0  0  0  0
    2.1028   -0.5629    4.2928 C   0  0  0  0  0  0  0  0  0  0  0  0
   -2.3733    1.6672    7.9360 C   0  0  0  0  0  0  0  0  0  0  0  0
   -2.8490    1.4355    9.2250 C   0  0  0  0  0  0  0  0  0  0  0  0
   -3.0944    0.1909    9.6652 F   0  0  0  0  0  0  0  0  0  0  0  0
   -3.0420    2.4636   10.1454 C   0  0  0  0  0  0  0  0  0  0  0  0
   -3.5701    2.1188   11.3338 F   0  0  0  0  0  0  0  0  0  0  0  0
   -2.7635    3.7991    9.8748 C   0  0  0  0  0  0  0  0  0  0  0  0
   -2.2211    4.0676    8.5831 C   0  0  0  0  0  0  0  0  0  0  0  0
   -1.8898    5.3250    8.2552 N   0  0  0  0  0  0  0  0  0  0  0  0
   -1.2989    5.5643    7.1086 C   0  0  0  0  0  0  0  0  0  0  0  0
   -0.9345    6.9923    6.8416 C   0  0  0  0  0  0  0  0  0  0  0  0
    0.4671    7.2831    7.3855 C   0  0  0  0  0  0  0  0  0  0  0  0
   -0.9870    4.5005    6.2200 C   0  0  0  0  0  0  0  0  0  0  0  0
   -1.3630    3.2790    6.5131 N   0  0  0  0  0  0  0  0  0  0  0  0
   -1.9846    3.0182    7.6661 C   0  0  0  0  0  0  0  0  0  0  0  0
   -0.2870    4.6747    4.9076 C   0  0  0  0  0  0  0  0  0  0  0  0
   -1.3122    4.8466    3.7839 C   0  0  0  0  0  0  0  0  0  0  0  0
   -3.0133    4.8928   10.7596 C   0  0  0  0  0  0  0  0  0  0  0  0
   -3.0663    4.9444   12.1155 C   0  0  0  0  0  0  0  0  0  0  0  0
   -3.7428    6.1038   12.7671 C   0  0  0  0  0  0  0  0  0  0  0  0
   -4.0825    7.1362   12.2381 O   0  0  0  0  0  0  0  0  0  0  0  0
   -3.9489    5.6914   14.1704 C   0  0  0  0  0  0  0  0  0  0  0  0
   -4.6456    6.3357   15.1757 C   0  0  0  0  0  0  0  0  0  0  0  0
   -4.7319    5.7261   16.4172 C   0  0  0  0  0  0  0  0  0  0  0  0
   -4.1279    4.4918   16.6209 C   0  0  0  0  0  0  0  0  0  0  0  0
   -4.2844    3.6682   18.3249 Br  0  0  0  0  0  0  0  0  0  0  0  0
   -3.4156    3.8335   15.6256 C   0  0  0  0  0  0  0  0  0  0  0  0
   -3.3249    4.4496   14.3896 C   0  0  0  0  0  0  0  0  0  0  0  0
   -2.6412    4.0400   13.1630 C   0  0  0  0  0  0  0  0  0  0  0  0
   -1.6138    3.1385   13.0957 C   0  0  0  0  0  0  0  0  0  0  0  0
   -1.1678    2.3696   14.1912 C   0  0  0  0  0  0  0  0  0  0  0  0
   -0.7667    1.7258   15.0519 N   0  0  0  0  0  0  0  0  0  0  0  0
   -0.8290    2.9414   11.9422 C   0  0  0  0  0  0  0  0  0  0  0  0
   -0.1542    2.7764   11.0284 N   0  0  0  0  0  0  0  0  0  0  0  0
    6.1738   -1.6627  -10.1321 H   0  0  0  0  0  0  0  0  0  0  0  0
    0.0792   -2.5629  -11.3557 H   0  0  0  0  0  0  0  0  0  0  0  0
   -1.5712   -1.5385  -14.2136 H   0  0  0  0  0  0  0  0  0  0  0  0
   -1.6486   -2.8135  -12.9915 H   0  0  0  0  0  0  0  0  0  0  0  0
   -1.1116   -3.1814  -14.6369 H   0  0  0  0  0  0  0  0  0  0  0  0
    0.9121   -1.6595  -15.4559 H   0  0  0  0  0  0  0  0  0  0  0  0
    3.2395   -1.1434  -14.9171 H   0  0  0  0  0  0  0  0  0  0  0  0
   -0.0720    1.2026   -6.5907 H   0  0  0  0  0  0  0  0  0  0  0  0
    1.1439    2.3298   -5.9978 H   0  0  0  0  0  0  0  0  0  0  0  0
   -0.2283    1.4402   -4.1289 H   0  0  0  0  0  0  0  0  0  0  0  0
    0.2576   -0.2097   -4.5482 H   0  0  0  0  0  0  0  0  0  0  0  0
    1.4600    0.9309   -3.9597 H   0  0  0  0  0  0  0  0  0  0  0  0
    1.3897    2.6170   -8.2746 H   0  0  0  0  0  0  0  0  0  0  0  0
    2.4867    2.1008   -9.5731 H   0  0  0  0  0  0  0  0  0  0  0  0
    0.8870    0.3321  -10.2468 H   0  0  0  0  0  0  0  0  0  0  0  0
   -0.2302    0.8258   -8.9755 H   0  0  0  0  0  0  0  0  0  0  0  0
    0.1258    1.9258  -10.3111 H   0  0  0  0  0  0  0  0  0  0  0  0
    3.9369   -6.4756   -3.5387 H   0  0  0  0  0  0  0  0  0  0  0  0
    4.0668   -8.3866   -5.0878 H   0  0  0  0  0  0  0  0  0  0  0  0
    3.4272   -8.1162   -7.4481 H   0  0  0  0  0  0  0  0  0  0  0  0
    1.9311   -4.9664   -8.8064 H   0  0  0  0  0  0  0  0  0  0  0  0
    1.9523   -6.7252   -9.0380 H   0  0  0  0  0  0  0  0  0  0  0  0
    3.5273   -5.6163  -10.5958 H   0  0  0  0  0  0  0  0  0  0  0  0
    4.4260   -6.6127   -9.4443 H   0  0  0  0  0  0  0  0  0  0  0  0
    4.3666   -4.8632   -9.2396 H   0  0  0  0  0  0  0  0  0  0  0  0
    2.4193   -4.0449   -6.7136 H   0  0  0  0  0  0  0  0  0  0  0  0
   -3.2005   -3.0197    7.8643 H   0  0  0  0  0  0  0  0  0  0  0  0
   -5.2513   -3.8149    8.9708 H   0  0  0  0  0  0  0  0  0  0  0  0
   -7.1693   -2.2994    9.2609 H   0  0  0  0  0  0  0  0  0  0  0  0
   -7.9539    0.0360    9.3433 H   0  0  0  0  0  0  0  0  0  0  0  0
   -7.0771    1.3078    8.4814 H   0  0  0  0  0  0  0  0  0  0  0  0
   -7.8182    0.3342    6.3029 H   0  0  0  0  0  0  0  0  0  0  0  0
   -9.2028    0.7572    7.3166 H   0  0  0  0  0  0  0  0  0  0  0  0
   -8.6954   -0.9287    7.1654 H   0  0  0  0  0  0  0  0  0  0  0  0
   -5.0136    0.8071    7.2901 H   0  0  0  0  0  0  0  0  0  0  0  0
    0.6963   -0.0851    0.4837 H   0  0  0  0  0  0  0  0  0  0  0  0
    0.9898   -0.3887   -1.2310 H   0  0  0  0  0  0  0  0  0  0  0  0
    2.6829    1.1812   -0.2474 H   0  0  0  0  0  0  0  0  0  0  0  0
    3.3965   -0.2614   -0.9675 H   0  0  0  0  0  0  0  0  0  0  0  0
    3.2826   -0.1263    0.7809 H   0  0  0  0  0  0  0  0  0  0  0  0
    1.8326   -0.2176    2.2001 H   0  0  0  0  0  0  0  0  0  0  0  0
    0.7641    0.7618    3.2344 H   0  0  0  0  0  0  0  0  0  0  0  0
    1.5352   -0.5197    5.2178 H   0  0  0  0  0  0  0  0  0  0  0  0
    2.9204    0.1498    4.3566 H   0  0  0  0  0  0  0  0  0  0  0  0
    2.5174   -1.5628    4.1833 H   0  0  0  0  0  0  0  0  0  0  0  0
   -1.6525    7.6276    7.3609 H   0  0  0  0  0  0  0  0  0  0  0  0
   -0.9754    7.2090    5.7742 H   0  0  0  0  0  0  0  0  0  0  0  0
    0.4941    7.0937    8.4554 H   0  0  0  0  0  0  0  0  0  0  0  0
    1.2121    6.6509    6.9070 H   0  0  0  0  0  0  0  0  0  0  0  0
    0.7277    8.3234    7.2081 H   0  0  0  0  0  0  0  0  0  0  0  0
    0.3830    5.5328    4.9368 H   0  0  0  0  0  0  0  0  0  0  0  0
    0.2965    3.7726    4.7189 H   0  0  0  0  0  0  0  0  0  0  0  0
   -0.8057    4.9584    2.8286 H   0  0  0  0  0  0  0  0  0  0  0  0
   -1.9307    5.7255    3.9532 H   0  0  0  0  0  0  0  0  0  0  0  0
   -1.9585    3.9738    3.7376 H   0  0  0  0  0  0  0  0  0  0  0  0
   -3.2359    5.8274   10.2538 H   0  0  0  0  0  0  0  0  0  0  0  0
   -5.1104    7.2913   14.9891 H   0  0  0  0  0  0  0  0  0  0  0  0
   -5.2680    6.1990   17.2255 H   0  0  0  0  0  0  0  0  0  0  0  0
   -2.9681    2.8722   15.8208 H   0  0  0  0  0  0  0  0  0  0  0  0
  1  2  2  0  0  0  0
  2  3  1  0  0  0  0
  3  4  2  0  0  0  0
  3  5  1  0  0  0  0
  5  6  2  0  0  0  0
  6  7  1  0  0  0  0
  7  8  1  0  0  0  0
  7  9  2  0  0  0  0
  9 10  1  0  0  0  0
 10 11  2  0  0  0  0
 11 12  1  0  0  0  0
 12 13  2  0  0  0  0
 13 14  1  0  0  0  0
 14 15  3  0  0  0  0
 13 16  1  0  0  0  0
 16 17  3  0  0  0  0
  1 18  1  0  0  0  0
 18 19  2  0  0  0  0
 19 20  1  0  0  0  0
 19 21  1  0  0  0  0
 21 22  1  0  0  0  0
 21 23  2  0  0  0  0
 23 24  1  0  0  0  0
 24 25  2  0  0  0  0
 25 26  1  0  0  0  0
 26 27  1  0  0  0  0
 27 28  1  0  0  0  0
 26 29  2  0  0  0  0
 29 30  1  0  0  0  0
 30 31  2  0  0  0  0
 29 32  1  0  0  0  0
 32 33  1  0  0  0  0
 23 34  1  0  0  0  0
 34 35  2  0  0  0  0
 35 36  1  0  0  0  0
 36 37  2  0  0  0  0
 37 38  1  0  0  0  0
 38 39  2  0  0  0  0
 39 40  1  0  0  0  0
 40 41  1  0  0  0  0
 41 42  1  0  0  0  0
 40 43  2  0  0  0  0
 35 44  1  0  0  0  0
 44 45  1  0  0  0  0
 45 46  1  0  0  0  0
 46 47  1  0  0  0  0
 47 48  1  0  0  0  0
 48 49  1  0  0  0  0
 49 50  2  0  0  0  0
 50 51  1  0  0  0  0
 51 52  1  0  0  0  0
 49 53  1  0  0  0  0
 53 54  1  0  0  0  0
 54 55  1  0  0  0  0
 55 56  1  0  0  0  0
 56 57  1  0  0  0  0
 57 58  1  0  0  0  0
 58 59  2  0  0  0  0
 59 60  1  0  0  0  0
 60 61  2  0  0  0  0
 61 62  1  0  0  0  0
 62 63  1  0  0  0  0
 63 64  1  0  0  0  0
 62 65  2  0  0  0  0
 57 66  2  0  0  0  0
 66 67  1  0  0  0  0
 67 68  1  0  0  0  0
 68 69  1  0  0  0  0
 69 70  1  0  0  0  0
 70 71  1  0  0  0  0
 71 72  1  0  0  0  0
 72 73  1  0  0  0  0
 73 74  1  0  0  0  0
 74 75  1  0  0  0  0
 75 76  1  0  0  0  0
 73 77  1  0  0  0  0
 77 78  1  0  0  0  0
 70 79  1  0  0  0  0
 79 80  1  0  0  0  0
 66 81  1  0  0  0  0
 81 82  2  0  0  0  0
 82 83  1  0  0  0  0
 82 84  1  0  0  0  0
 84 85  1  0  0  0  0
 84 86  2  0  0  0  0
 86 87  1  0  0  0  0
 87 88  2  0  0  0  0
 88 89  1  0  0  0  0
 89 90  1  0  0  0  0
 90 91  1  0  0  0  0
 89 92  2  0  0  0  0
 92 93  1  0  0  0  0
 93 94  2  0  0  0  0
 92 95  1  0  0  0  0
 95 96  1  0  0  0  0
 86 97  1  0  0  0  0
 97 98  2  0  0  0  0
 98 99  1  0  0  0  0
 99100  2  0  0  0  0
 99101  1  0  0  0  0
101102  2  0  0  0  0
102103  1  0  0  0  0
103104  2  0  0  0  0
104105  1  0  0  0  0
104106  1  0  0  0  0
106107  2  0  0  0  0
107108  1  0  0  0  0
108109  2  0  0  0  0
109110  1  0  0  0  0
110111  3  0  0  0  0
109112  1  0  0  0  0
112113  3  0  0  0  0
 12  2  1  0  0  0  0
 31 18  1  0  0  0  0
 76 34  1  0  0  0  0
 94 81  1  0  0  0  0
108 98  1  0  0  0  0
 11  5  1  0  0  0  0
 31 24  1  0  0  0  0
 43 36  1  0  0  0  0
 75 44  2  0  0  0  0
 94 87  1  0  0  0  0
107101  1  0  0  0  0
 74 46  2  0  0  0  0
 72 47  2  0  0  0  0
 52 48  2  0  0  0  0
 71 53  2  0  0  0  0
 69 54  2  0  0  0  0
 68 56  2  0  0  0  0
 65 58  1  0  0  0  0
  1114  1  0  0  0  0
  6115  1  0  0  0  0
  8116  1  0  0  0  0
  8117  1  0  0  0  0
  8118  1  0  0  0  0
  9119  1  0  0  0  0
 10120  1  0  0  0  0
 27121  1  0  0  0  0
 27122  1  0  0  0  0
 28123  1  0  0  0  0
 28124  1  0  0  0  0
 28125  1  0  0  0  0
 32126  1  0  0  0  0
 32127  1  0  0  0  0
 33128  1  0  0  0  0
 33129  1  0  0  0  0
 33130  1  0  0  0  0
 37131  1  0  0  0  0
 38132  1  0  0  0  0
 39133  1  0  0  0  0
 41134  1  0  0  0  0
 41135  1  0  0  0  0
 42136  1  0  0  0  0
 42137  1  0  0  0  0
 42138  1  0  0  0  0
 43139  1  0  0  0  0
 59140  1  0  0  0  0
 60141  1  0  0  0  0
 61142  1  0  0  0  0
 63143  1  0  0  0  0
 63144  1  0  0  0  0
 64145  1  0  0  0  0
 64146  1  0  0  0  0
 64147  1  0  0  0  0
 65148  1  0  0  0  0
 77149  1  0  0  0  0
 77150  1  0  0  0  0
 78151  1  0  0  0  0
 78152  1  0  0  0  0
 78153  1  0  0  0  0
 79154  1  0  0  0  0
 79155  1  0  0  0  0
 80156  1  0  0  0  0
 80157  1  0  0  0  0
 80158  1  0  0  0  0
 90159  1  0  0  0  0
 90160  1  0  0  0  0
 91161  1  0  0  0  0
 91162  1  0  0  0  0
 91163  1  0  0  0  0
 95164  1  0  0  0  0
 95165  1  0  0  0  0
 96166  1  0  0  0  0
 96167  1  0  0  0  0
 96168  1  0  0  0  0
 97169  1  0  0  0  0
102170  1  0  0  0  0
103171  1  0  0  0  0
106172  1  0  0  0  0
M  END
