163

C         12.51950        2.27070        2.60320
C         13.47270        1.43690        2.12560
C         13.18070        0.18460        1.37360
O         12.12930       -0.41330        1.31200
C         14.47680       -0.22950        0.80170
C         14.74430       -1.27230       -0.06170
C         16.05650       -1.49040       -0.47180
C         16.39420       -2.59950       -1.41650
C         17.06310       -0.64990        0.00480
C         16.80490        0.39330        0.87840
C         15.49590        0.60920        1.28730
C         14.91580        1.59680        2.18790
C         15.61160        2.47420        2.97600
C         15.02100        3.34370        3.91450
N         14.60170        4.05350        4.71500
C         17.01780        2.58270        2.99260
N         18.15610        2.71710        3.05660
C         11.12380        2.12780        2.22190
C         10.02890        2.05770        3.07400
O         10.06210        2.00620        4.42630
C         11.19670        2.39280        5.17110
C         11.33540        3.90770        5.26520
C          8.70130        1.91590        2.56250
O          7.67780        1.82010        3.46500
C          7.63840        0.65630        4.29270
C          7.28900        1.05920        5.71650
C          8.42830        1.92890        1.19760
C          9.55240        1.99670        0.31850
C         10.87690        2.07110        0.81730
N         11.91120        2.13150       -0.03880
C         11.66510        2.07350       -1.32250
C         10.35840        1.96560       -1.81650
N          9.33860        1.94690       -0.99770
C          7.11300        1.83520        0.63300
S          6.91740        1.68510       -1.11130
C          5.20250        1.60290       -0.91700
C          4.01840        1.48740       -1.64440
S          3.55650        1.37110       -3.31510
C          1.91320        1.27310       -2.79280
C          0.65650        1.16940       -3.40380
C          0.27640        1.29750       -4.75700
C         -1.12170        1.35130       -5.07530
N         -1.34080        1.55490       -6.36500
S          0.09120        1.66220       -7.11540
N          1.04500        1.45640       -5.82230
C         -2.06220        1.12170       -4.04850
C         -3.45750        0.96400       -4.10500
S         -4.74110        1.04980       -5.26260
C         -5.85570        0.51110       -4.02790
C         -7.23520        0.22770       -4.05870
C         -8.08160        0.55530       -5.24630
C         -8.58280        1.99730       -5.14560
C         -7.67650       -0.21570       -2.83550
S         -6.40380       -0.24530       -1.62650
C         -5.24820        0.29280       -2.79160
C         -3.87390        0.56920       -2.83540
N         -2.80330        0.52030       -1.97500
C         -1.66850        0.86790       -2.70480
C         -0.29940        1.04450       -2.36120
N          0.37060        1.15350       -1.15620
C          1.71920        1.30130       -1.40490
C          2.94310        1.48180       -0.72250
N          3.45490        1.60210        0.55900
C          4.82400        1.69980        0.43220
C          5.90290        1.84230        1.30230
C          2.80360        2.03260        1.77170
C          2.54810        3.54040        1.76590
C         -0.18660        1.25600        0.16540
C          0.02020       -0.03590        0.96010
C         -2.92760       -0.36910       -0.83870
C         -2.48530       -1.78490       -1.20470
C         -8.99280       -0.65910       -2.41820
C         -9.68870       -1.64070       -3.13110
O         -9.05210       -2.08710       -4.23280
C         -9.44330       -3.23940       -4.96470
C         -8.39070       -3.43940       -6.04460
C        -10.94990       -2.09940       -2.66180
O        -11.61280       -3.03590       -3.39980
C        -12.09170       -4.22070       -2.76440
C        -13.36440       -4.67880       -3.45520
C        -11.50230       -1.59400       -1.48870
C        -10.78690       -0.62430       -0.73540
C         -9.52510       -0.16870       -1.20070
N         -8.82930        0.73480       -0.48870
C         -9.34600        1.17370        0.62710
C        -10.62050        0.76860        1.05860
N        -11.31930       -0.10420        0.38240
C        -12.85000       -1.91210       -1.07510
C        -13.20290       -1.99920        0.22640
C        -12.21590       -2.09430        1.34470
O        -11.11720       -2.60740        1.31160
C        -12.97530       -1.68920        2.54720
C        -12.51780       -1.46450        3.82880
C        -13.43240       -1.13610        4.82580
C        -12.98440       -0.89150        6.23170
C        -14.78700       -1.05280        4.50250
C        -15.25700       -1.28950        3.22190
C        -14.34330       -1.61270        2.22770
C        -14.52810       -1.91300        0.81360
C        -15.72210       -2.09260        0.16840
C        -15.83120       -2.45980       -1.18770
N        -15.97030       -2.77430       -2.28360
C        -16.98400       -1.98340        0.78820
N        -18.03710       -1.91050        1.23960
H         12.81220        3.15950        3.14540
H         13.93750       -1.90100       -0.40800
H         15.54010       -3.25270       -1.57280
H         17.22500       -3.18890       -1.03250
H         16.69740       -2.19020       -2.38020
H         18.07970       -0.82200       -0.31820
H         17.61310        1.01820        1.22230
H         11.02600        1.96740        6.16470
H         12.10110        1.93540        4.75080
H         10.52920        4.32100        5.86610
H         11.28410        4.35930        4.27670
H         12.28900        4.16330        5.71750
H          8.59550        0.13050        4.26660
H          6.86790       -0.01350        3.88390
H          7.20510        0.17400        6.34080
H          8.06430        1.70740        6.11380
H          6.34460        1.59700        5.73040
H         12.52340        2.11890       -1.97930
H         10.13890        1.90450       -2.87240
H         -7.47210        0.44620       -6.14580
H         -8.93030       -0.12130       -5.31140
H         -9.18690        2.12520       -4.24960
H         -7.74370        2.68780       -5.09860
H         -9.18840        2.24650       -6.01350
H          5.83280        1.96300        2.36540
H          1.87250        1.48720        1.91730
H          3.47180        1.77870        2.59840
H          2.04820        3.84130        2.68290
H          1.92740        3.82190        0.91730
H          3.49100        4.07640        1.68850
H         -1.24140        1.51990        0.07970
H          0.30580        2.08900        0.67530
H         -0.47880       -0.87460        0.48430
H         -0.36610        0.07470        1.97070
H          1.07940       -0.27790        1.00920
H         -2.37080       -0.00680        0.02000
H         -3.98620       -0.37580       -0.56670
H         -3.10220       -2.17030       -2.01300
H         -2.58870       -2.44290       -0.34590
H         -1.44830       -1.78980       -1.53550
H         -9.47720       -4.11360       -4.30390
H        -10.43120       -3.09340       -5.41280
H         -8.62470       -4.32670       -6.62550
H         -7.40980       -3.55530       -5.59200
H         -8.36450       -2.57710       -6.70470
H        -11.31090       -4.99040       -2.86330
H        -12.26700       -4.04570       -1.69850
H        -14.16580       -3.95830       -3.31270
H        -13.67640       -5.63400       -3.04260
H        -13.18500       -4.79430       -4.52070
H         -8.75680        1.88510        1.18880
H        -11.07780        1.16970        1.95290
H        -13.59420       -1.93980       -1.86070
H        -11.46230       -1.54350        4.04290
H        -13.41440        0.03160        6.61650
H        -11.90120       -0.83010        6.29200
H        -13.31960       -1.70490        6.87530
H        -15.49240       -0.79850        5.28040
H        -16.31240       -1.21750        3.01410
