
  xtb     02042213483D
 energy: -302.064638112813 gnorm: 0.000589853155 xtb: 6.4.1 (unknown)
179196  0     0  0            999 V2000
    9.5163    2.3712    7.1543 C   0  0  0  0  0  0  0  0  0  0  0  0
   10.5376    2.4396    6.2660 C   0  0  0  0  0  0  0  0  0  0  0  0
   10.3627    2.6419    4.8025 C   0  0  0  0  0  0  0  0  0  0  0  0
    9.3274    2.7271    4.1790 O   0  0  0  0  0  0  0  0  0  0  0  0
   11.7268    2.8361    4.2698 C   0  0  0  0  0  0  0  0  0  0  0  0
   12.1132    3.0586    2.9635 C   0  0  0  0  0  0  0  0  0  0  0  0
   13.4661    3.2169    2.6763 C   0  0  0  0  0  0  0  0  0  0  0  0
   13.9327    3.4292    1.2713 C   0  0  0  0  0  0  0  0  0  0  0  0
   14.3892    3.1577    3.7198 C   0  0  0  0  0  0  0  0  0  0  0  0
   14.0089    2.9399    5.0343 C   0  0  0  0  0  0  0  0  0  0  0  0
   12.6609    2.7722    5.3181 C   0  0  0  0  0  0  0  0  0  0  0  0
   11.9563    2.5110    6.5674 C   0  0  0  0  0  0  0  0  0  0  0  0
   12.5386    2.2804    7.7848 C   0  0  0  0  0  0  0  0  0  0  0  0
   11.8437    1.9252    8.9607 C   0  0  0  0  0  0  0  0  0  0  0  0
   11.3651    1.6054    9.9542 N   0  0  0  0  0  0  0  0  0  0  0  0
   13.9284    2.3338    8.0192 C   0  0  0  0  0  0  0  0  0  0  0  0
   15.0472    2.3676    8.2752 N   0  0  0  0  0  0  0  0  0  0  0  0
    8.1326    2.1541    6.8183 C   0  0  0  0  0  0  0  0  0  0  0  0
    7.7290    1.1652    5.9127 C   0  0  0  0  0  0  0  0  0  0  0  0
    8.7016    0.3811    5.4193 O   0  0  0  0  0  0  0  0  0  0  0  0
    8.5526   -0.3101    4.1835 C   0  0  0  0  0  0  0  0  0  0  0  0
    9.9485   -0.6204    3.6641 C   0  0  0  0  0  0  0  0  0  0  0  0
    6.3443    0.9499    5.6872 C   0  0  0  0  0  0  0  0  0  0  0  0
    5.9537   -0.1290    4.9171 O   0  0  0  0  0  0  0  0  0  0  0  0
    5.2919   -1.1710    5.6247 C   0  0  0  0  0  0  0  0  0  0  0  0
    6.1654   -1.8248    6.6890 C   0  0  0  0  0  0  0  0  0  0  0  0
    5.3812    1.7815    6.2456 C   0  0  0  0  0  0  0  0  0  0  0  0
    5.7846    2.8114    7.1402 C   0  0  0  0  0  0  0  0  0  0  0  0
    7.1534    2.9301    7.4905 C   0  0  0  0  0  0  0  0  0  0  0  0
    7.5398    3.8252    8.4203 N   0  0  0  0  0  0  0  0  0  0  0  0
    6.6184    4.5906    8.9444 C   0  0  0  0  0  0  0  0  0  0  0  0
    5.2819    4.5458    8.5109 C   0  0  0  0  0  0  0  0  0  0  0  0
    4.8756    3.6686    7.6304 N   0  0  0  0  0  0  0  0  0  0  0  0
    3.9805    1.6040    5.9399 C   0  0  0  0  0  0  0  0  0  0  0  0
    2.8974    1.6695    6.7934 C   0  0  0  0  0  0  0  0  0  0  0  0
    2.9871    1.8320    8.2440 C   0  0  0  0  0  0  0  0  0  0  0  0
    3.9423    1.1424    8.9867 C   0  0  0  0  0  0  0  0  0  0  0  0
    4.0206    1.3276   10.3529 C   0  0  0  0  0  0  0  0  0  0  0  0
    3.1476    2.1917   10.9908 C   0  0  0  0  0  0  0  0  0  0  0  0
    2.1717    2.8674   10.2696 C   0  0  0  0  0  0  0  0  0  0  0  0
    1.2475    3.8376   10.9478 C   0  0  0  0  0  0  0  0  0  0  0  0
    1.8337    5.2500   10.8997 C   0  0  0  0  0  0  0  0  0  0  0  0
    2.0975    2.6759    8.8987 C   0  0  0  0  0  0  0  0  0  0  0  0
    1.6886    1.4738    6.0927 C   0  0  0  0  0  0  0  0  0  0  0  0
    0.0230    1.3390    6.6074 S   0  0  0  0  0  0  0  0  0  0  0  0
   -0.4362    0.9951    4.9727 C   0  0  0  0  0  0  0  0  0  0  0  0
   -1.5817    0.6373    4.2350 C   0  0  0  0  0  0  0  0  0  0  0  0
   -2.8968    0.2685    4.6014 C   0  0  0  0  0  0  0  0  0  0  0  0
   -3.7769   -0.2885    3.6027 C   0  0  0  0  0  0  0  0  0  0  0  0
   -4.9347   -0.6743    4.1140 N   0  0  0  0  0  0  0  0  0  0  0  0
   -4.9312   -0.3581    5.7017 S   0  0  0  0  0  0  0  0  0  0  0  0
   -3.4466    0.2799    5.8048 N   0  0  0  0  0  0  0  0  0  0  0  0
   -3.3700   -0.2968    2.2487 C   0  0  0  0  0  0  0  0  0  0  0  0
   -4.0117   -0.6361    1.0411 C   0  0  0  0  0  0  0  0  0  0  0  0
   -5.4819   -1.3706    0.4931 S   0  0  0  0  0  0  0  0  0  0  0  0
   -4.9547   -1.1503   -1.1569 C   0  0  0  0  0  0  0  0  0  0  0  0
   -5.5383   -1.4559   -2.4038 C   0  0  0  0  0  0  0  0  0  0  0  0
   -6.8638   -2.0373   -2.6094 C   0  0  0  0  0  0  0  0  0  0  0  0
   -7.2878   -3.1469   -1.8870 C   0  0  0  0  0  0  0  0  0  0  0  0
   -8.5295   -3.6938   -2.1485 C   0  0  0  0  0  0  0  0  0  0  0  0
   -9.3536   -3.1392   -3.1136 C   0  0  0  0  0  0  0  0  0  0  0  0
   -8.9597   -2.0091   -3.8197 C   0  0  0  0  0  0  0  0  0  0  0  0
   -9.8632   -1.3676   -4.8361 C   0  0  0  0  0  0  0  0  0  0  0  0
   -9.1883   -1.1698   -6.1926 C   0  0  0  0  0  0  0  0  0  0  0  0
   -7.7128   -1.4670   -3.5507 C   0  0  0  0  0  0  0  0  0  0  0  0
   -4.7314   -1.0536   -3.4444 C   0  0  0  0  0  0  0  0  0  0  0  0
   -3.2641   -0.2686   -2.9088 S   0  0  0  0  0  0  0  0  0  0  0  0
   -3.7133   -0.5215   -1.2590 C   0  0  0  0  0  0  0  0  0  0  0  0
   -3.1645   -0.2451   -0.0011 C   0  0  0  0  0  0  0  0  0  0  0  0
   -2.0045    0.2874    0.5058 N   0  0  0  0  0  0  0  0  0  0  0  0
   -2.1045    0.2266    1.8837 C   0  0  0  0  0  0  0  0  0  0  0  0
   -1.1572    0.5148    2.8881 C   0  0  0  0  0  0  0  0  0  0  0  0
    0.2069    0.7259    2.8085 N   0  0  0  0  0  0  0  0  0  0  0  0
    0.6400    1.0110    4.0799 C   0  0  0  0  0  0  0  0  0  0  0  0
    1.8569    1.2678    4.7227 C   0  0  0  0  0  0  0  0  0  0  0  0
    3.5237    1.3120    4.2727 S   0  0  0  0  0  0  0  0  0  0  0  0
    1.1123    0.1295    1.8481 C   0  0  0  0  0  0  0  0  0  0  0  0
    1.6541   -1.2070    2.3551 C   0  0  0  0  0  0  0  0  0  0  0  0
   -1.2471    1.2649   -0.2488 C   0  0  0  0  0  0  0  0  0  0  0  0
   -2.1229    2.4498   -0.6556 C   0  0  0  0  0  0  0  0  0  0  0  0
   -4.9353   -1.3041   -4.8559 C   0  0  0  0  0  0  0  0  0  0  0  0
   -4.7872   -0.2809   -5.7916 C   0  0  0  0  0  0  0  0  0  0  0  0
   -4.4858    0.9299   -5.2646 O   0  0  0  0  0  0  0  0  0  0  0  0
   -3.7478    1.9079   -5.9858 C   0  0  0  0  0  0  0  0  0  0  0  0
   -2.4013    1.3846   -6.4649 C   0  0  0  0  0  0  0  0  0  0  0  0
   -5.0664   -0.5309   -7.1615 C   0  0  0  0  0  0  0  0  0  0  0  0
   -5.0389    0.5239   -8.0218 O   0  0  0  0  0  0  0  0  0  0  0  0
   -6.1532    0.7368   -8.8907 C   0  0  0  0  0  0  0  0  0  0  0  0
   -5.6670    1.3876  -10.1737 C   0  0  0  0  0  0  0  0  0  0  0  0
   -5.3461   -1.8208   -7.6109 C   0  0  0  0  0  0  0  0  0  0  0  0
   -5.4529   -2.8787   -6.6668 C   0  0  0  0  0  0  0  0  0  0  0  0
   -5.2825   -2.6107   -5.2824 C   0  0  0  0  0  0  0  0  0  0  0  0
   -5.3853   -3.6006   -4.3815 N   0  0  0  0  0  0  0  0  0  0  0  0
   -5.6522   -4.8035   -4.8132 C   0  0  0  0  0  0  0  0  0  0  0  0
   -5.7618   -5.0883   -6.1841 C   0  0  0  0  0  0  0  0  0  0  0  0
   -5.6509   -4.1413   -7.0783 N   0  0  0  0  0  0  0  0  0  0  0  0
   -5.3421   -2.1474   -9.0151 C   0  0  0  0  0  0  0  0  0  0  0  0
   -5.9871   -3.2211   -9.5200 C   0  0  0  0  0  0  0  0  0  0  0  0
   -7.0324   -3.9992   -8.7783 C   0  0  0  0  0  0  0  0  0  0  0  0
   -7.9405   -3.5443   -8.1092 O   0  0  0  0  0  0  0  0  0  0  0  0
   -6.9774   -5.3508   -9.3874 C   0  0  0  0  0  0  0  0  0  0  0  0
   -7.5936   -6.5160   -8.9839 C   0  0  0  0  0  0  0  0  0  0  0  0
   -7.4364   -7.6663   -9.7527 C   0  0  0  0  0  0  0  0  0  0  0  0
   -8.0661   -8.9596   -9.3426 C   0  0  0  0  0  0  0  0  0  0  0  0
   -6.6767   -7.6034  -10.9212 C   0  0  0  0  0  0  0  0  0  0  0  0
   -6.0737   -6.4326  -11.3465 C   0  0  0  0  0  0  0  0  0  0  0  0
   -6.2206   -5.2895  -10.5714 C   0  0  0  0  0  0  0  0  0  0  0  0
   -5.6997   -3.9398  -10.7479 C   0  0  0  0  0  0  0  0  0  0  0  0
   -5.0598   -3.4475  -11.8536 C   0  0  0  0  0  0  0  0  0  0  0  0
   -4.6318   -2.1105  -11.9736 C   0  0  0  0  0  0  0  0  0  0  0  0
   -4.2692   -1.0300  -12.1169 N   0  0  0  0  0  0  0  0  0  0  0  0
   -4.7935   -4.1980  -13.0170 C   0  0  0  0  0  0  0  0  0  0  0  0
   -4.5463   -4.7614  -13.9862 N   0  0  0  0  0  0  0  0  0  0  0  0
    9.7029    2.5516    8.2054 H   0  0  0  0  0  0  0  0  0  0  0  0
   11.3674    3.1032    2.1833 H   0  0  0  0  0  0  0  0  0  0  0  0
   14.7014    4.1982    1.2327 H   0  0  0  0  0  0  0  0  0  0  0  0
   14.3656    2.5076    0.8810 H   0  0  0  0  0  0  0  0  0  0  0  0
   13.1077    3.7189    0.6259 H   0  0  0  0  0  0  0  0  0  0  0  0
   15.4378    3.2877    3.4944 H   0  0  0  0  0  0  0  0  0  0  0  0
   14.7562    2.9087    5.8103 H   0  0  0  0  0  0  0  0  0  0  0  0
    7.9994   -1.2430    4.3330 H   0  0  0  0  0  0  0  0  0  0  0  0
    8.0044    0.3165    3.4745 H   0  0  0  0  0  0  0  0  0  0  0  0
   10.4824    0.2974    3.4353 H   0  0  0  0  0  0  0  0  0  0  0  0
   10.5101   -1.1713    4.4145 H   0  0  0  0  0  0  0  0  0  0  0  0
    9.8744   -1.2209    2.7618 H   0  0  0  0  0  0  0  0  0  0  0  0
    5.0241   -1.8904    4.8472 H   0  0  0  0  0  0  0  0  0  0  0  0
    4.3707   -0.7961    6.0897 H   0  0  0  0  0  0  0  0  0  0  0  0
    5.6084   -2.6237    7.1708 H   0  0  0  0  0  0  0  0  0  0  0  0
    7.0681   -2.2426    6.2498 H   0  0  0  0  0  0  0  0  0  0  0  0
    6.4567   -1.0966    7.4444 H   0  0  0  0  0  0  0  0  0  0  0  0
    6.9429    5.2791    9.7127 H   0  0  0  0  0  0  0  0  0  0  0  0
    4.5384    5.2351    8.8853 H   0  0  0  0  0  0  0  0  0  0  0  0
    4.6195    0.4603    8.4931 H   0  0  0  0  0  0  0  0  0  0  0  0
    4.7673    0.7957   10.9245 H   0  0  0  0  0  0  0  0  0  0  0  0
    3.2200    2.3368   12.0592 H   0  0  0  0  0  0  0  0  0  0  0  0
    0.2769    3.8335   10.4483 H   0  0  0  0  0  0  0  0  0  0  0  0
    1.0992    3.5440   11.9887 H   0  0  0  0  0  0  0  0  0  0  0  0
    1.9695    5.5657    9.8676 H   0  0  0  0  0  0  0  0  0  0  0  0
    1.1702    5.9558   11.3942 H   0  0  0  0  0  0  0  0  0  0  0  0
    2.8008    5.2749   11.3981 H   0  0  0  0  0  0  0  0  0  0  0  0
    1.3532    3.2079    8.3250 H   0  0  0  0  0  0  0  0  0  0  0  0
   -6.6376   -3.5858   -1.1460 H   0  0  0  0  0  0  0  0  0  0  0  0
   -8.8588   -4.5635   -1.5983 H   0  0  0  0  0  0  0  0  0  0  0  0
  -10.3187   -3.5829   -3.3133 H   0  0  0  0  0  0  0  0  0  0  0  0
  -10.7552   -1.9834   -4.9656 H   0  0  0  0  0  0  0  0  0  0  0  0
  -10.1853   -0.3939   -4.4522 H   0  0  0  0  0  0  0  0  0  0  0  0
   -9.8919   -0.7317   -6.8972 H   0  0  0  0  0  0  0  0  0  0  0  0
   -8.3315   -0.5041   -6.1110 H   0  0  0  0  0  0  0  0  0  0  0  0
   -8.8460   -2.1184   -6.5967 H   0  0  0  0  0  0  0  0  0  0  0  0
   -7.3916   -0.5750   -4.0684 H   0  0  0  0  0  0  0  0  0  0  0  0
    0.5843   -0.0454    0.9132 H   0  0  0  0  0  0  0  0  0  0  0  0
    1.9404    0.8245    1.6777 H   0  0  0  0  0  0  0  0  0  0  0  0
    2.2279   -1.0720    3.2675 H   0  0  0  0  0  0  0  0  0  0  0  0
    0.8329   -1.8921    2.5548 H   0  0  0  0  0  0  0  0  0  0  0  0
    2.3022   -1.6458    1.6016 H   0  0  0  0  0  0  0  0  0  0  0  0
   -0.4315    1.6364    0.3702 H   0  0  0  0  0  0  0  0  0  0  0  0
   -0.8418    0.7808   -1.1434 H   0  0  0  0  0  0  0  0  0  0  0  0
   -2.9195    2.1333   -1.3228 H   0  0  0  0  0  0  0  0  0  0  0  0
   -1.5161    3.1911   -1.1683 H   0  0  0  0  0  0  0  0  0  0  0  0
   -2.5653    2.9083    0.2262 H   0  0  0  0  0  0  0  0  0  0  0  0
   -4.3272    2.2986   -6.8258 H   0  0  0  0  0  0  0  0  0  0  0  0
   -3.6066    2.7023   -5.2474 H   0  0  0  0  0  0  0  0  0  0  0  0
   -2.5377    0.6360   -7.2411 H   0  0  0  0  0  0  0  0  0  0  0  0
   -1.8574    0.9397   -5.6340 H   0  0  0  0  0  0  0  0  0  0  0  0
   -1.8186    2.2052   -6.8730 H   0  0  0  0  0  0  0  0  0  0  0  0
   -6.6689   -0.2049   -9.1008 H   0  0  0  0  0  0  0  0  0  0  0  0
   -6.8534    1.4052   -8.3679 H   0  0  0  0  0  0  0  0  0  0  0  0
   -6.5214    1.6453  -10.7927 H   0  0  0  0  0  0  0  0  0  0  0  0
   -5.1104    2.2923   -9.9438 H   0  0  0  0  0  0  0  0  0  0  0  0
   -5.0224    0.7136  -10.7324 H   0  0  0  0  0  0  0  0  0  0  0  0
   -5.7484   -5.5773   -4.0650 H   0  0  0  0  0  0  0  0  0  0  0  0
   -5.9152   -6.0924   -6.5548 H   0  0  0  0  0  0  0  0  0  0  0  0
   -4.6517   -1.5800   -9.6269 H   0  0  0  0  0  0  0  0  0  0  0  0
   -8.1881   -6.5255   -8.0822 H   0  0  0  0  0  0  0  0  0  0  0  0
   -8.6970   -9.3446  -10.1422 H   0  0  0  0  0  0  0  0  0  0  0  0
   -8.6713   -8.8342   -8.4488 H   0  0  0  0  0  0  0  0  0  0  0  0
   -7.2973   -9.7055   -9.1421 H   0  0  0  0  0  0  0  0  0  0  0  0
   -6.5608   -8.4986  -11.5148 H   0  0  0  0  0  0  0  0  0  0  0  0
   -5.4993   -6.4228  -12.2589 H   0  0  0  0  0  0  0  0  0  0  0  0
  1  2  2  0  0  0  0
  2  3  1  0  0  0  0
  3  4  2  0  0  0  0
  3  5  1  0  0  0  0
  5  6  2  0  0  0  0
  6  7  1  0  0  0  0
  7  8  1  0  0  0  0
  7  9  2  0  0  0  0
  9 10  1  0  0  0  0
 10 11  2  0  0  0  0
 11 12  1  0  0  0  0
 12 13  2  0  0  0  0
 13 14  1  0  0  0  0
 14 15  3  0  0  0  0
 13 16  1  0  0  0  0
 16 17  3  0  0  0  0
  1 18  1  0  0  0  0
 18 19  2  0  0  0  0
 19 20  1  0  0  0  0
 20 21  1  0  0  0  0
 21 22  1  0  0  0  0
 19 23  1  0  0  0  0
 23 24  1  0  0  0  0
 24 25  1  0  0  0  0
 25 26  1  0  0  0  0
 23 27  2  0  0  0  0
 27 28  1  0  0  0  0
 28 29  2  0  0  0  0
 29 30  1  0  0  0  0
 30 31  2  0  0  0  0
 31 32  1  0  0  0  0
 32 33  2  0  0  0  0
 27 34  1  0  0  0  0
 34 35  2  0  0  0  0
 35 36  1  0  0  0  0
 36 37  2  0  0  0  0
 37 38  1  0  0  0  0
 38 39  2  0  0  0  0
 39 40  1  0  0  0  0
 40 41  1  0  0  0  0
 41 42  1  0  0  0  0
 40 43  2  0  0  0  0
 35 44  1  0  0  0  0
 44 45  1  0  0  0  0
 45 46  1  0  0  0  0
 46 47  1  0  0  0  0
 47 48  1  0  0  0  0
 48 49  1  0  0  0  0
 49 50  2  0  0  0  0
 50 51  1  0  0  0  0
 51 52  1  0  0  0  0
 49 53  1  0  0  0  0
 53 54  1  0  0  0  0
 54 55  1  0  0  0  0
 55 56  1  0  0  0  0
 56 57  1  0  0  0  0
 57 58  1  0  0  0  0
 58 59  2  0  0  0  0
 59 60  1  0  0  0  0
 60 61  2  0  0  0  0
 61 62  1  0  0  0  0
 62 63  1  0  0  0  0
 63 64  1  0  0  0  0
 62 65  2  0  0  0  0
 57 66  2  0  0  0  0
 66 67  1  0  0  0  0
 67 68  1  0  0  0  0
 68 69  1  0  0  0  0
 69 70  1  0  0  0  0
 70 71  1  0  0  0  0
 71 72  1  0  0  0  0
 72 73  1  0  0  0  0
 73 74  1  0  0  0  0
 74 75  1  0  0  0  0
 75 76  1  0  0  0  0
 73 77  1  0  0  0  0
 77 78  1  0  0  0  0
 70 79  1  0  0  0  0
 79 80  1  0  0  0  0
 66 81  1  0  0  0  0
 81 82  2  0  0  0  0
 82 83  1  0  0  0  0
 83 84  1  0  0  0  0
 84 85  1  0  0  0  0
 82 86  1  0  0  0  0
 86 87  1  0  0  0  0
 87 88  1  0  0  0  0
 88 89  1  0  0  0  0
 86 90  2  0  0  0  0
 90 91  1  0  0  0  0
 91 92  2  0  0  0  0
 92 93  1  0  0  0  0
 93 94  2  0  0  0  0
 94 95  1  0  0  0  0
 95 96  2  0  0  0  0
 90 97  1  0  0  0  0
 97 98  2  0  0  0  0
 98 99  1  0  0  0  0
 99100  2  0  0  0  0
 99101  1  0  0  0  0
101102  2  0  0  0  0
102103  1  0  0  0  0
103104  1  0  0  0  0
103105  2  0  0  0  0
105106  1  0  0  0  0
106107  2  0  0  0  0
107108  1  0  0  0  0
108109  2  0  0  0  0
109110  1  0  0  0  0
110111  3  0  0  0  0
109112  1  0  0  0  0
112113  3  0  0  0  0
 12  2  1  0  0  0  0
 29 18  1  0  0  0  0
 76 34  1  0  0  0  0
 92 81  1  0  0  0  0
108 98  1  0  0  0  0
 11  5  1  0  0  0  0
 33 28  1  0  0  0  0
 43 36  1  0  0  0  0
 75 44  2  0  0  0  0
 96 91  1  0  0  0  0
107101  1  0  0  0  0
 74 46  2  0  0  0  0
 72 47  2  0  0  0  0
 52 48  2  0  0  0  0
 71 53  2  0  0  0  0
 69 54  2  0  0  0  0
 68 56  2  0  0  0  0
 65 58  1  0  0  0  0
  1114  1  0  0  0  0
  6115  1  0  0  0  0
  8116  1  0  0  0  0
  8117  1  0  0  0  0
  8118  1  0  0  0  0
  9119  1  0  0  0  0
 10120  1  0  0  0  0
 21121  1  0  0  0  0
 21122  1  0  0  0  0
 22123  1  0  0  0  0
 22124  1  0  0  0  0
 22125  1  0  0  0  0
 25126  1  0  0  0  0
 25127  1  0  0  0  0
 26128  1  0  0  0  0
 26129  1  0  0  0  0
 26130  1  0  0  0  0
 31131  1  0  0  0  0
 32132  1  0  0  0  0
 37133  1  0  0  0  0
 38134  1  0  0  0  0
 39135  1  0  0  0  0
 41136  1  0  0  0  0
 41137  1  0  0  0  0
 42138  1  0  0  0  0
 42139  1  0  0  0  0
 42140  1  0  0  0  0
 43141  1  0  0  0  0
 59142  1  0  0  0  0
 60143  1  0  0  0  0
 61144  1  0  0  0  0
 63145  1  0  0  0  0
 63146  1  0  0  0  0
 64147  1  0  0  0  0
 64148  1  0  0  0  0
 64149  1  0  0  0  0
 65150  1  0  0  0  0
 77151  1  0  0  0  0
 77152  1  0  0  0  0
 78153  1  0  0  0  0
 78154  1  0  0  0  0
 78155  1  0  0  0  0
 79156  1  0  0  0  0
 79157  1  0  0  0  0
 80158  1  0  0  0  0
 80159  1  0  0  0  0
 80160  1  0  0  0  0
 84161  1  0  0  0  0
 84162  1  0  0  0  0
 85163  1  0  0  0  0
 85164  1  0  0  0  0
 85165  1  0  0  0  0
 88166  1  0  0  0  0
 88167  1  0  0  0  0
 89168  1  0  0  0  0
 89169  1  0  0  0  0
 89170  1  0  0  0  0
 94171  1  0  0  0  0
 95172  1  0  0  0  0
 97173  1  0  0  0  0
102174  1  0  0  0  0
104175  1  0  0  0  0
104176  1  0  0  0  0
104177  1  0  0  0  0
105178  1  0  0  0  0
106179  1  0  0  0  0
M  END
