119

C         -4.25890        3.08900       -3.20400
C         -2.89820        3.21590       -3.09030
C         -1.93240        2.10280       -3.21660
O         -2.16870        0.92610       -3.42690
C         -0.60230        2.69520       -2.99020
C          0.63020        2.07410       -2.99330
C          1.75880        2.81090       -2.64920
C          3.10670        2.16540       -2.58530
C          1.61390        4.16340       -2.34500
C          0.38480        4.80340       -2.37930
C         -0.74260        4.06320       -2.70260
C         -2.15390        4.42580       -2.80020
C         -2.65960        5.68930       -2.63170
C         -1.87340        6.82600       -2.34990
N         -1.30020        7.79480       -2.12290
C         -4.02010        6.04920       -2.71500
N         -5.10480        6.42610       -2.75530
C         -4.94040        1.86420       -3.34230
C         -6.29180        1.78350       -3.48880
C         -7.03610        0.57150       -3.59550
C         -6.70080       -0.65910       -3.13150
C         -5.64020       -1.01330       -2.23860
S         -4.81030       -2.53870       -2.57110
C         -3.75830       -2.24390       -1.25440
C         -2.62870       -2.81320       -0.65360
C         -1.91430       -3.98740       -0.97040
C         -0.68330       -4.24610       -0.28700
N         -0.10230       -5.36520       -0.69380
S         -1.03540       -6.04300       -1.83010
N         -2.20700       -4.92630       -1.85780
C         -0.28560       -3.37110        0.74460
C          0.82980       -3.41330        1.59350
S          2.32040       -4.27760        1.75370
C          2.72730       -3.27030        3.12370
C          3.92370       -3.10720        3.85690
C          5.15190       -3.92530        3.61910
C          4.97930       -5.33330        4.18940
C          3.83380       -2.04380        4.72120
S          2.22140       -1.33070        4.74750
C          1.72810       -2.34910        3.44250
C          0.64910       -2.41580        2.55320
N         -0.52450       -1.74780        2.32170
C         -1.10250       -2.28620        1.18080
C         -2.23950       -1.93740        0.39990
N         -3.12440       -0.87130        0.42400
C         -4.05260       -1.05610       -0.57840
C         -5.16380       -0.36450       -1.11070
C         -5.89900        0.75990       -0.44690
C         -6.63130        0.24120        0.79500
C         -2.97200        0.42990        1.03610
C         -2.50860        1.49700        0.04160
C         -1.09580       -0.94450        3.38280
C         -0.47910        0.45450        3.46430
C          4.88700       -1.31690        5.39890
C          5.10130       -0.00190        5.17570
C          4.45650        0.76870        4.14710
C          4.05390        0.22210        2.97080
C          3.19330        0.79240        2.01100
C          2.78580        0.15560        0.86780
C          1.49790        0.49310        0.21950
O          0.78600        1.44910        0.46750
C          1.22310       -0.60570       -0.71820
C          0.14970       -0.79170       -1.54340
C          0.13430       -1.89610       -2.42200
C         -0.91960       -2.08050       -3.34020
C         -0.92510       -3.15140       -4.19010
C          0.13490       -4.06620       -4.13410
F          0.11060       -5.11940       -4.97240
C          1.18440       -3.92820       -3.26690
C          1.21000       -2.82960       -2.38780
C          2.29130       -2.63620       -1.49730
C          2.30870       -1.52970       -0.69160
C          3.32520       -1.02070        0.22260
C          4.61830       -1.47510        0.29980
C          5.67810       -0.76370        0.90100
N          6.59100       -0.20030        1.31000
C          5.07710       -2.66540       -0.29960
N          5.51350       -3.63940       -0.72270
H         -4.87140        3.97920       -3.13960
H          0.70860        1.02960       -3.25460
H          3.06430        1.13530       -2.93110
H          3.47460        2.17250       -1.55930
H          3.82320        2.71210       -3.19530
H          2.49180        4.73260       -2.07580
H          0.32320        5.85340       -2.14520
H         -4.35650        0.95710       -3.32810
H         -6.85010        2.70400       -3.62190
H         -7.96740        0.65160       -4.14280
H         -7.29000       -1.49990       -3.47910
H          6.01420       -3.43760        4.07560
H          5.32700       -3.99780        2.54220
H          4.13440       -5.82960        3.71860
H          4.80490       -5.29120        5.26230
H          5.87340       -5.92200        4.00410
H         -5.21780        1.56620       -0.17370
H         -6.63620        1.17150       -1.13350
H         -5.94780       -0.23800        1.49270
H         -7.13100        1.06140        1.30470
H         -7.38040       -0.49180        0.50410
H         -3.93610        0.71370        1.46640
H         -2.24480        0.37650        1.83140
H         -3.00780        1.37660       -0.91520
H         -1.43300        1.44300       -0.10800
H         -2.73810        2.48540        0.43300
H         -0.89670       -1.46550        4.32660
H         -2.17950       -0.91380        3.25830
H         -0.38330        0.91800        2.48510
H          0.51570        0.39800        3.89760
H         -1.09110        1.09020        4.09860
H          5.49270       -1.85080        6.11930
H          5.80780        0.52540        5.80240
H          4.33510        1.83000        4.32070
H          4.33710       -0.80540        2.79150
H          2.67740        1.71240        2.26170
H         -0.67390       -0.09610       -1.56320
H         -1.71010       -1.34740       -3.37270
H         -1.72500       -3.31500       -4.89380
H          1.98240       -4.65390       -3.25140
H          3.08090       -3.37000       -1.47870
