252

C          3.46590       11.99350       -3.11190
C          4.45410       12.26050       -2.20040
C          4.80900       13.66030       -1.87920
O          4.43210       14.66010       -2.45430
C          5.67900       13.57340       -0.68500
C          6.20260       14.58740        0.08660
C          6.98360       14.26060        1.19580
C          7.58150       15.34660        2.03370
C          7.20440       12.92050        1.49670
C          6.68850       11.89260        0.71860
C          5.92450       12.22000       -0.38720
C          5.28460       11.39270       -1.40750
C          5.65460       10.10570       -1.72210
C          6.60530        9.37040       -0.99500
N          7.38440        8.73020       -0.44280
C          5.24030        9.43380       -2.88700
N          4.98280        8.87260       -3.85700
C          2.72430       10.81040       -3.23690
C          2.12410       10.27700       -4.39060
N          2.08520       10.85710       -5.62680
C          2.12630       10.02790       -6.76700
C          1.24250       10.23890       -7.81910
C          1.29070        9.42250       -8.93190
C          2.21100        8.38620       -9.01970
C          2.29000        7.52500      -10.24120
C          3.08670        8.18350       -7.95860
C          3.05470        8.99290       -6.84140
C          1.92820       12.24060       -5.79560
C          1.09010       12.96810       -4.95220
C          0.94710       14.32980       -5.12420
C          1.62120       14.99940       -6.13960
C          1.48640       16.48210       -6.29070
C          2.43870       14.26190       -6.98790
C          2.59580       12.89980       -6.82370
C          1.60930        8.98770       -4.13240
S          0.80480        7.80600       -5.10600
C          0.56010        6.77530       -3.70270
C          1.04930        7.35960       -2.53430
N          0.96240        6.83300       -1.24970
C         -0.27090        6.47880       -0.69770
C         -0.33050        5.55380        0.34530
C         -1.54860        5.16330        0.86250
C         -2.74040        5.66890        0.35870
C         -4.06590        5.24430        0.91400
C         -2.67420        6.59240       -0.67830
C         -1.46290        6.99810       -1.20000
C          2.10710        6.96470       -0.44020
C          3.35850        6.66010       -0.97080
C          4.49200        6.78840       -0.19400
C          4.41250        7.22010        1.12560
C          5.64360        7.31600        1.97130
C          3.16120        7.53700        1.64000
C          2.01960        7.41800        0.87200
C          1.67660        8.59350       -2.80710
S          2.48710        9.76180       -1.83020
C          0.03650        5.46600       -3.86970
C         -0.42350        4.85530       -5.02870
C         -0.68370        5.48630       -6.32540
C         -1.50830        6.60240       -6.44120
C         -1.77750        7.13070       -7.68890
C         -1.26290        6.53530       -8.82740
C         -0.46790        5.40120       -8.73250
C         -0.00010        4.67040       -9.95750
C         -0.94700        3.50740      -10.26270
C         -0.17520        4.89480       -7.47570
C         -0.67400        3.48640       -4.82280
S         -1.26080        2.22410       -5.88130
C         -1.23060        1.12340       -4.54410
C         -1.59710       -0.19890       -4.24660
C         -2.20670       -1.19380       -5.04020
C         -2.61420       -2.42150       -4.41850
N         -3.21910       -3.24120       -5.26450
S         -3.26820       -2.53070       -6.71880
N         -2.52010       -1.14900       -6.32580
C         -2.29880       -2.63570       -3.06020
C         -2.49080       -3.75540       -2.23300
S         -3.20690       -5.32860       -2.30150
C         -2.67160       -5.62220       -0.66630
C         -2.81460       -6.72240        0.20750
C         -3.60180       -7.91840       -0.08450
C         -4.34940       -8.54010        0.91390
C         -5.09820       -9.66300        0.62000
C         -5.10940      -10.18150       -0.66350
C         -4.38780       -9.56380       -1.67580
C         -4.43640      -10.07390       -3.08700
C         -5.46200       -9.28440       -3.90270
C         -3.65000       -8.42860       -1.37730
C         -2.17840       -6.48430        1.40870
S         -1.47590       -4.87690        1.50170
C         -1.97490       -4.54630       -0.11750
C         -1.87670       -3.47280       -1.01380
N         -1.33540       -2.21150       -1.03570
C         -1.59520       -1.67000       -2.28890
C         -1.34170       -0.39600       -2.85970
N         -0.86390        0.79090       -2.33170
C         -0.78730        1.70120       -3.35300
C         -0.45600        3.05170       -3.51510
S          0.13790        4.33260       -2.52580
C         -0.85560        1.26180       -0.96450
C          0.55850        1.50020       -0.43910
C         -0.24110       -1.92160       -0.13340
C          1.10290       -2.21900       -0.79440
C         -1.93150       -7.42180        2.46320
C         -1.39860       -8.69760        2.33210
N         -0.93210       -9.25410        1.15620
C         -0.36190       -8.44350        0.16380
C         -0.59380       -8.70900       -1.18330
C         -0.11520       -7.85200       -2.15350
C          0.61090       -6.71550       -1.81780
C          1.05070       -5.74890       -2.87470
C          0.89590       -6.49450       -0.47640
C          0.42680       -7.34690        0.50360
C         -1.05120      -10.63840        0.95310
C         -0.03610      -11.34310        0.31080
C         -0.15470      -12.70330        0.11300
C         -1.27500      -13.39980        0.55270
C         -1.37890      -14.88140        0.35830
C         -2.28010      -12.68960        1.19550
C         -2.17710      -11.32700        1.39390
C         -1.33780       -9.34050        3.59160
S         -0.75160      -10.87530        4.11280
C         -1.17190      -10.49350        5.79230
C         -1.64630       -9.16780        5.92720
N         -1.84800       -8.48810        7.09050
C         -2.72150       -7.37730        7.10080
C         -2.31560       -6.18370        7.68640
C         -3.16910       -5.09760        7.69640
C         -4.43550       -5.17670        7.12990
C         -5.34770       -3.98920        7.11490
C         -4.83480       -6.38160        6.56150
C         -3.99290       -7.47530        6.54440
C         -1.20290       -8.81730        8.29110
C          0.13530       -9.20880        8.31090
C          0.73620       -9.56160        9.50030
C          0.03060       -9.53610       10.70180
C          0.68440       -9.97640       11.97320
C         -1.28790       -9.10230       10.67930
C         -1.90170       -8.74230        9.49390
C         -1.77070       -8.56120        4.65680
S         -2.25700       -6.98450        4.13030
C         -0.97310      -11.49900        6.73500
C         -1.60520      -11.59460        7.96200
C         -2.93900      -11.04250        8.23460
O         -3.65260      -10.41280        7.47510
C         -3.29490      -11.52070        9.58930
C         -4.44280      -11.29230       10.31930
C         -4.53770      -11.83250       11.59380
C         -3.49250      -12.59310       12.09900
Cl        -3.62820      -13.25740       13.68540
C         -2.33330      -12.84040       11.36840
C         -2.23990      -12.29280       10.10270
C         -1.16790      -12.33620        9.10630
C          0.09250      -12.84790        9.30360
C          1.13810      -12.74200        8.36590
N          2.04340      -12.66090        7.66310
C          0.51740      -13.46480       10.49340
N          0.92550      -13.95750       11.44820
H          3.20810       12.82210       -3.76310
H          6.00820       15.61800       -0.17120
H          8.41900       15.80310        1.50560
H          7.94630       14.95670        2.98040
H          6.84900       16.12720        2.22940
H          7.79820       12.66940        2.36380
H          6.87510       10.86550        0.98870
H          0.52080       11.04030       -7.75740
H          0.59820        9.59270       -9.74330
H          1.38610        7.61360      -10.83760
H          3.13680        7.82920      -10.85730
H          2.43330        6.48300       -9.96660
H          3.81170        7.38490       -8.01280
H          3.74810        8.83750       -6.02790
H          0.55630       12.45860       -4.16310
H          0.30080       14.88340       -4.45910
H          2.14360       16.98310       -5.57950
H          1.76400       16.79990       -7.29260
H          0.46690       16.80190       -6.08580
H          2.97030       14.76280       -7.78370
H          3.24240       12.33890       -7.48190
H          0.58540        5.13320        0.73190
H         -1.57280        4.44160        1.66690
H         -4.73110        4.92160        0.11450
H         -4.54510        6.07790        1.42730
H         -3.94800        4.42790        1.62220
H         -3.58850        7.00400       -1.08140
H         -1.43590        7.72130       -2.00210
H          3.43550        6.32290       -1.99450
H          5.45640        6.54820       -0.61660
H          5.90020        6.33280        2.36730
H          6.48640        7.66690        1.37930
H          5.48830        7.99020        2.81050
H          3.07750        7.89140        2.65760
H          1.05660        7.68260        1.28340
H         -1.94640        7.03970       -5.55610
H         -2.40880        8.00270       -7.77580
H         -1.49540        6.94530       -9.79980
H          1.00550        4.27700       -9.79520
H          0.02750        5.34710      -10.81320
H         -1.95230        3.87860      -10.44850
H         -0.98810        2.82110       -9.42000
H         -0.60950        2.96230      -11.14120
H          0.45650        4.02280       -7.38680
H         -4.35750       -8.13050        1.91330
H         -5.67950      -10.13790        1.39720
H         -5.68900      -11.06660       -0.88200
H         -4.70500      -11.13200       -3.09030
H         -3.45340       -9.96880       -3.55110
H         -5.19550       -8.23030       -3.92580
H         -6.45050       -9.37820       -3.45830
H         -5.50350       -9.65600       -4.92380
H         -3.08770       -7.94310       -2.16010
H         -1.39590        2.21600       -0.93930
H         -1.41270        0.55560       -0.34760
H          1.02460        2.31190       -0.99090
H          1.17960        0.61530       -0.54520
H          0.51720        1.78170        0.60960
H         -0.37540       -2.56950        0.73660
H         -0.27300       -0.89210        0.21210
H          1.23890       -1.60140       -1.68000
H          1.91300       -2.02210       -0.09710
H          1.14570       -3.26290       -1.09500
H         -1.17000       -9.57930       -1.45850
H         -0.32510       -8.05880       -3.19300
H          1.95010       -5.21730       -2.57050
H          1.24760       -6.26310       -3.81230
H          0.26390       -5.01440       -3.05800
H          1.49310       -5.64100       -0.18730
H          0.66350       -7.15810        1.54070
H          0.84450      -10.81760       -0.02810
H          0.64200      -13.23710       -0.38470
H         -2.41750      -15.20310        0.36880
H         -0.92450      -15.18210       -0.58320
H         -0.85620      -15.39930        1.16320
H         -3.16210      -13.20770        1.54290
H         -2.97610      -10.78850        1.87990
H         -1.33190       -6.11240        8.12730
H         -2.84300       -4.17220        8.14840
H         -5.07580       -3.27820        7.89110
H         -6.38190       -4.29340        7.25960
H         -5.27960       -3.48310        6.15140
H         -5.82270       -6.46530        6.13260
H         -4.31380       -8.41950        6.13330
H          0.70130       -9.24000        7.39200
H          1.77130       -9.87050        9.49810
H          0.06920       -9.72850       12.83410
H          0.83960      -11.05560       11.96300
H          1.65930       -9.50600       12.08660
H         -1.85220       -9.05870       11.59950
H         -2.93020       -8.41390        9.49050
H         -0.29160      -12.28910        6.44310
H         -5.24230      -10.69810        9.90420
H         -5.41640      -11.66660       12.19700
H         -1.54880      -13.44480       11.79330
