173

C         -6.63050       -7.39280        3.42370
C         -5.83320       -7.88470        4.42580
C         -4.56630       -7.30180        4.87710
O         -3.99960       -6.31800        4.43170
C         -4.10320       -8.14860        5.99190
C         -2.97030       -8.01470        6.76460
C         -2.73330       -8.93900        7.78180
C         -1.52100       -8.80520        8.64740
C         -3.64840       -9.96780        7.98360
C         -4.79050      -10.10890        7.20720
C         -5.02580       -9.19040        6.19700
C         -6.11070       -9.06000        5.22650
C         -7.17730       -9.91470        5.11050
C         -7.37120      -11.04610        5.93020
N         -7.59200      -11.97980        6.56140
C         -8.22770       -9.81610        4.17410
N         -9.12320       -9.82310        3.45400
C         -6.46940       -6.26970        2.60420
C         -7.41980       -5.92570        1.62620
C         -8.61400       -6.74600        1.35520
C         -8.50010       -7.93130        0.62750
C         -9.63720       -8.69090        0.40230
C        -10.87220       -8.30360        0.89430
C        -12.09470       -9.12920        0.61710
C        -12.70230       -8.75090       -0.73510
C        -10.96640       -7.11950        1.61220
C         -9.85450       -6.33150        1.85450
C         -9.91570       -5.05280        2.65290
C        -11.28270       -4.69850        3.22310
C         -7.18690       -8.36710        0.03700
C         -6.93770       -7.66890       -1.30110
C         -7.11070       -4.75040        0.95830
C         -5.92220       -4.18000        1.38860
S         -5.16370       -5.11020        2.63890
C         -5.31290       -2.99530        0.89160
C         -5.90600       -1.91640        0.25560
C         -7.34590       -1.68230        0.13160
C         -8.18370       -1.82860        1.23510
C         -9.53200       -1.55160        1.11620
C        -10.05470       -1.12960       -0.09440
C         -9.23140       -0.96630       -1.20120
C         -9.79650       -0.53880       -2.52470
C        -10.20890       -1.76040       -3.34860
C         -7.87820       -1.24400       -1.07570
C         -4.93970       -0.99130       -0.18140
S         -5.06850        0.53020       -1.03090
C         -3.34770        0.68910       -0.95100
C         -2.34100        1.55050       -1.40980
C         -2.40050        2.68210       -2.25230
C         -1.17400        3.28460       -2.68820
N         -1.37420        4.29130       -3.52390
S         -2.96830        4.47020       -3.73910
N         -3.46620        3.26710       -2.77600
C          0.04580        2.80820       -2.15930
C          1.35580        3.28790       -2.29350
S          2.21830        4.52290       -3.14340
C          3.67560        4.04750       -2.30000
C          4.99370        4.51900       -2.34870
C          5.46050        5.50910       -3.31620
C          4.72880        6.66750       -3.55740
C          5.18250        7.58620       -4.48460
C          6.35830        7.35930       -5.17790
C          7.08820        6.19550       -4.96780
C          8.39010        5.95750       -5.67880
C          9.56470        6.36350       -4.78600
C          6.62430        5.27420       -4.04340
C          5.80880        3.82040       -1.45750
S          4.95800        2.51670       -0.64530
C          3.48270        2.97370       -1.41770
C          2.15610        2.53680       -1.42460
N          1.40060        1.58370       -0.78990
C          0.09400        1.72630       -1.23180
C         -1.10060        1.01220       -0.95970
N         -1.35820       -0.17420       -0.29640
C         -2.71320       -0.36590       -0.28780
C         -3.62510       -1.33710        0.14510
S         -3.56690       -2.84260        0.99140
C         -0.47810       -1.27580        0.02160
C         -0.31560       -1.47040        1.52830
C          1.88990        1.05200        0.46480
C          1.41010        1.90140        1.63970
C          7.16080        4.05560       -1.09870
C          7.80070        5.31320       -1.16790
C          9.18590        5.51010       -0.78860
N          9.56040        6.78070       -0.96280
S          8.30260        7.63710       -1.48190
N          7.22740        6.45770       -1.54100
C         10.00410        4.46570       -0.30470
C          9.36070        3.21020       -0.23550
N          9.91320        2.07810        0.20330
S          8.81080        0.91400        0.19490
N          7.57340        1.76540       -0.36990
C          7.96940        3.02310       -0.57590
C         11.36560        4.58460        0.06980
C         12.06790        5.68200        0.47450
C         13.55340        5.66800        0.39030
O         14.26170        4.70880        0.17880
C         13.96490        7.07510        0.56520
C         15.20880        7.62630        0.46720
C         15.36290        9.01910        0.65690
C         16.62280        9.64290        0.57140
C         16.74990       10.99310        0.75600
C         15.62170       11.77840        1.03450
C         14.38330       11.20320        1.12330
C         14.21670        9.81560        0.94030
C         12.93990        9.21510        1.04170
C         12.81610        7.86440        0.86290
C         11.65650        6.98190        0.94040
C         10.46930        7.28810        1.55910
C          9.47460        6.34100        1.86380
N          8.64310        5.60520        2.15950
C         10.13070        8.57270        2.02400
N          9.78530        9.60280        2.39770
H         -7.54590       -7.93440        3.21310
H         -2.28290       -7.20290        6.57810
H         -1.65110       -7.97410        9.34100
H         -1.34910       -9.70940        9.22520
H         -0.64020       -8.59660        8.04320
H         -3.46570      -10.68370        8.77180
H         -5.47000      -10.92230        7.40180
H         -9.55170       -9.61250       -0.15540
H        -11.82770      -10.18720        0.61030
H        -12.83510       -8.96990        1.40290
H        -11.98290       -8.91790       -1.53380
H        -13.58870       -9.34810       -0.93600
H        -12.98250       -7.69960       -0.74350
H        -11.93030       -6.82470        1.99540
H         -9.19790       -5.12930        3.47670
H         -9.57750       -4.23230        2.01270
H        -12.00770       -4.54380        2.42720
H        -11.64370       -5.48270        3.88430
H        -11.21010       -3.77780        3.79880
H         -7.20620       -9.44730       -0.11960
H         -6.36340       -8.14150        0.71700
H         -7.74990       -7.87900       -1.99330
H         -6.87530       -6.59190       -1.16160
H         -6.00580       -8.01530       -1.74250
H         -7.71150       -4.33830        0.16680
H         -7.77010       -2.14140        2.18250
H        -10.17950       -1.65630        1.97440
H        -11.11010       -0.91440       -0.17820
H        -10.66780        0.09940       -2.36570
H         -9.04870        0.03350       -3.07660
H         -9.34990       -2.40260       -3.53020
H        -10.96200       -2.33910       -2.81800
H        -10.61980       -1.45140       -4.30670
H         -7.22800       -1.12580       -1.93050
H          3.82430        6.85650       -3.00060
H          4.61770        8.48880       -4.66440
H          6.71170        8.08740       -5.89390
H          8.48440        4.90050       -5.93660
H          8.42190        6.53890       -6.60200
H          9.57000        5.77540       -3.87020
H         10.50910        6.20320       -5.30060
H          9.49090        7.41530       -4.51640
H          7.17420        4.35690       -3.88190
H          0.47670       -1.11910       -0.48190
H         -0.92400       -2.18460       -0.39870
H          0.00440       -0.55490        2.01750
H          0.41580       -2.25040        1.72120
H         -1.26170       -1.77600        1.96660
H          2.98100        1.08020        0.41070
H          1.58950        0.01750        0.59920
H          1.76150        2.92490        1.53210
H          0.32280        1.91470        1.68440
H          1.79830        1.49910        2.57150
H         11.94410        3.66980       -0.01800
H         16.06780        7.00910        0.24890
H         17.48830        9.03300        0.35680
H         17.71990       11.46290        0.68860
H         15.73870       12.84210        1.17920
H         13.51160       11.80320        1.34060
H         12.08740        9.84240        1.25040
