258

C         -1.47260       10.29760       -6.10290
C         -0.33960       10.87690       -6.64070
C          0.94500       10.17700       -6.78520
O          1.19710        9.01930       -6.50170
C          1.91090       11.20960       -7.22050
C          3.25420       11.07750       -7.48910
C          3.97490       12.19890       -7.90260
C          5.43740       12.07980       -8.19750
C          3.31770       13.41830       -8.01860
C          1.96350       13.55870       -7.74260
C          1.24960       12.44330       -7.34320
C         -0.15900       12.25180       -7.00780
C         -1.15970       13.17940       -7.17610
C         -2.52560       12.91180       -6.96570
N         -3.65730       12.75540       -6.84070
C         -0.94970       14.48210       -7.66080
N         -0.83960       15.55080       -8.06980
C         -1.76520        8.93480       -6.10360
C         -1.32270        7.88810       -6.94370
N         -0.65990        8.01180       -8.12630
C         -0.64940        9.18530       -8.89310
C          0.52630        9.57690       -9.52940
C          0.56840       10.75540      -10.25060
C         -0.55280       11.56580      -10.36660
C         -0.49840       12.87070      -11.09630
C         -1.73800       11.13960       -9.77110
C         -1.79230        9.96920       -9.04430
C          0.02520        6.88890       -8.64900
C          0.97620        6.22500       -7.88090
C          1.62370        5.12210       -8.39900
C          1.34040        4.65880       -9.67970
C          2.05860        3.46240      -10.22130
C          0.40010        5.34070      -10.44070
C         -0.25240        6.45000       -9.93750
C         -1.78060        6.64260       -6.45720
S         -1.57690        5.00470       -6.98650
C         -2.61640        4.43530       -5.69020
C         -3.13810        5.47640       -4.93060
N         -4.06820        5.32850       -3.91410
C         -3.97770        6.17360       -2.79760
C         -2.73130        6.47650       -2.25600
C         -2.63300        7.32520       -1.17160
C         -3.76580        7.88370       -0.59340
C         -3.65460        8.82210        0.56890
C         -5.00660        7.56950       -1.13630
C         -5.11840        6.73080       -2.22640
C         -5.14740        4.44940       -4.06720
C         -5.68360        4.18980       -5.32680
C         -6.71160        3.28210       -5.47330
C         -7.24590        2.61690       -4.37510
C         -8.35000        1.62070       -4.55650
C         -6.72140        2.89620       -3.12010
C         -5.68420        3.79420       -2.96120
C         -2.63300        6.72260       -5.36440
S         -2.89020        8.35180       -4.86260
C         -2.72540        3.03840       -5.43760
C         -2.53380        1.98570       -6.31480
C         -2.39540        2.11370       -7.76560
C         -3.24130        2.94030       -8.50140
C         -3.08820        3.04010       -9.86990
C         -2.11320        2.30310      -10.52020
C         -1.27940        1.45290       -9.80690
C         -0.28540        0.57190      -10.50670
C         -0.88280       -0.81940      -10.72780
C         -1.42430        1.37370       -8.43030
C         -2.49770        0.75180       -5.63390
S         -2.27490       -0.89700       -6.17240
C         -2.36340       -1.42730       -4.52560
C         -2.16800       -2.59700       -3.77050
C         -1.70820       -3.88460       -4.12870
C         -1.29420       -4.79460       -3.09270
N         -0.79150       -5.91770       -3.57970
S         -0.84440       -5.84710       -5.19700
N         -1.50230       -4.37450       -5.34070
C         -1.48420       -4.42760       -1.74240
C         -1.17430       -5.05740       -0.52190
S         -0.30630       -6.43780        0.06020
C         -0.56220       -5.89010        1.70120
C         -0.13890       -6.37630        2.95760
C          0.61810       -7.61600        3.12800
C          0.33580       -8.49930        4.16770
C          1.02410       -9.69150        4.27030
C          1.98470      -10.02820        3.33220
C          2.27770       -9.16410        2.28590
C          3.25640       -9.54490        1.21190
C          2.50900      -10.07770       -0.01250
C          1.59740       -7.95900        2.20160
C         -0.58240       -5.55910        3.98130
S         -1.53220       -4.19540        3.39710
C         -1.32460       -4.72480        1.76930
C         -1.67130       -4.24580        0.50070
N         -2.28440       -3.13910       -0.03260
C         -2.12390       -3.20620       -1.40600
C         -2.32870       -2.22920       -2.40790
N         -2.58940       -0.87000       -2.33510
C         -2.58740       -0.38880       -3.61850
C         -2.66410        0.85730       -4.25350
S         -2.87250        2.49990       -3.76720
C         -2.36650        0.04210       -1.23190
C         -0.94820       -0.06870       -0.68060
C         -3.35530       -2.46520        0.66910
C         -4.38090       -3.45630        1.21790
C         -0.21710       -5.57390        5.35990
C         -0.97080       -5.13640        6.44120
N         -2.30880       -4.78370        6.39350
C         -3.21130       -5.49560        5.59380
C         -4.27720       -4.84160        4.98090
C         -5.13860       -5.53920        4.15610
C         -4.95710       -6.89280        3.90570
C         -5.86650       -7.64520        2.98330
C         -3.90070       -7.54260        4.53560
C         -3.04590       -6.86140        5.37640
C         -2.75640       -3.73980        7.21860
C         -1.98080       -2.59450        7.37910
C         -2.40720       -1.57810        8.21040
C         -3.61460       -1.66820        8.89160
C         -4.05690       -0.57480        9.81470
C         -4.38890       -2.80900        8.71380
C         -3.97000       -3.83660        7.89330
C         -0.19360       -5.12340        7.62230
S         -0.49820       -4.62200        9.23860
C          1.15800       -5.02730        9.71290
C          1.92070       -5.47560        8.61230
N          3.27340       -5.71360        8.58200
C          4.20790       -4.96610        9.31490
C          3.94700       -3.66620        9.74080
C          4.88640       -2.97200       10.47890
C          6.11580       -3.53530       10.79420
C          7.13000       -2.78580       11.59980
C          6.39060       -4.81480       10.32200
C          5.45440       -5.52620        9.60260
C          3.77810       -6.52910        7.53470
C          3.27050       -7.80710        7.32780
C          3.78100       -8.59760        6.31620
C          4.79700       -8.13770        5.49000
C          5.34140       -8.98670        4.38530
C          5.28960       -6.85390        5.69870
C          4.79060       -6.05450        6.70590
C          1.11650       -5.55180        7.45290
S          1.42430       -6.01110        5.81020
C          1.45850       -4.78800       11.05670
C          2.52610       -5.17890       11.83170
C          2.91900       -4.34630       12.98900
O          2.30550       -3.41760       13.47000
C          4.25540       -4.84180       13.38310
C          5.12020       -4.33580       14.30720
C          6.37610       -4.95900       14.48890
C          7.32110       -4.45740       15.40620
C          8.53940       -5.05850       15.56470
C          8.83760       -6.19310       14.79950
F         10.04380       -6.77100       14.96500
C          7.95580       -6.72300       13.89910
C          6.69800       -6.11500       13.72100
C          5.77120       -6.62850       12.78340
C          4.57630       -5.98910       12.60520
C          3.46190       -6.25420       11.69900
C          3.24070       -7.42420       11.00340
C          4.19600       -8.44160       10.84720
N          4.95800       -9.27920       10.64900
C          1.99680       -7.73230       10.43330
N          0.97940       -8.02680        9.98560
H         -2.18620       10.93290       -5.59190
H          3.73480       10.11560       -7.38650
H          5.99650       11.97880       -7.26700
H          5.63610       11.19540       -8.79990
H          5.80480       12.95690       -8.72380
H          3.87720       14.28790       -8.33200
H          1.49540       14.52540       -7.83610
H          1.40780        8.96020       -9.43810
H          1.49550       11.05620      -10.71650
H         -0.52090       13.69850      -10.38670
H          0.41240       12.95100      -11.68400
H         -1.35750       12.97960      -11.75530
H         -2.62970       11.74120       -9.87080
H         -2.72100        9.66280       -8.58680
H          1.20750        6.60120       -6.89660
H          2.36460        4.61080       -7.80200
H          1.64020        3.15560      -11.17570
H          1.98650        2.63120       -9.52300
H          3.11530        3.68880      -10.36290
H          0.16980        4.99810      -11.43870
H         -0.98410        6.97520      -10.53410
H         -1.84260        6.03940       -2.68810
H         -1.65840        7.55320       -0.76450
H         -2.75050        8.62740        1.14110
H         -4.51650        8.73040        1.22600
H         -3.61290        9.85160        0.21170
H         -5.89960        7.99840       -0.70520
H         -6.08820        6.50830       -2.64610
H         -5.29420        4.71080       -6.18930
H         -7.11290        3.08950       -6.45800
H         -7.97030        0.72370       -5.04640
H         -9.13880        2.03240       -5.18380
H         -8.77750        1.33410       -3.59900
H         -7.12190        2.39490       -2.25050
H         -5.27440        3.98660       -1.98090
H         -4.02310        3.48850       -7.99710
H         -3.74060        3.68820      -10.43660
H         -2.00720        2.38030      -11.59280
H          0.61920        0.47780       -9.90280
H         -0.01260        1.00600      -11.47030
H         -1.15610       -1.26850       -9.77580
H         -1.77710       -0.75310      -11.34340
H         -0.16500       -1.46710      -11.22580
H         -0.76700        0.73070       -7.86340
H         -0.43920       -8.25970        4.87850
H          0.79660      -10.37120        5.07850
H          2.50440      -10.97270        3.40740
H          3.93900      -10.31300        1.58080
H          3.84450       -8.67260        0.91730
H          1.92030      -10.95200        0.25650
H          3.21090      -10.35850       -0.79420
H          1.83530       -9.31930       -0.40460
H          1.83650       -7.27410        1.40160
H         -2.52610        1.04750       -1.62900
H         -3.09470       -0.11080       -0.43440
H         -0.22430        0.10870       -1.47260
H         -0.80070        0.67380        0.09870
H         -0.76790       -1.05510       -0.26180
H         -3.86220       -1.81400       -0.04100
H         -2.93730       -1.87190        1.48950
H         -5.21430       -2.90790        1.64890
H         -3.95050       -4.08660        1.99060
H         -4.75610       -4.09050        0.41740
H         -4.41760       -3.78380        5.14670
H         -5.96060       -5.01610        3.68860
H         -6.68600       -7.01610        2.64520
H         -6.28040       -8.51920        3.48410
H         -5.31440       -7.99410        2.11080
H         -3.75130       -8.59960        4.36950
H         -2.24870       -7.38570        5.88170
H         -1.04670       -2.50520        6.84320
H         -1.79340       -0.69680        8.32820
H         -3.70210        0.39350        9.46870
H         -3.64950       -0.74500       10.81180
H         -5.14100       -0.54710        9.89450
H         -5.33060       -2.89960        9.23560
H         -4.57590       -4.72260        7.77460
H          3.01110       -3.19190        9.48870
H          4.65430       -1.97200       10.81420
H          7.87420       -2.33630       10.94160
H          6.65810       -1.99190       12.17290
H          7.64840       -3.45570       12.28330
H          7.34700       -5.26710       10.53880
H          5.67730       -6.52930        9.26990
H          2.47910       -8.18070        7.95810
H          3.38220       -9.58980        6.17190
H          4.91480       -8.66830        3.43470
H          5.08810      -10.03190        4.53950
H          6.42300       -8.88910        4.32010
H          6.07370       -6.47390        5.06020
H          5.17970       -5.05770        6.85520
H          0.76900       -4.11610       11.56110
H          4.85580       -3.46590       14.88960
H          7.06760       -3.58160       15.98460
H          9.27410       -4.68510       16.26030
H          8.21910       -7.59980       13.32810
H          6.04030       -7.50220       12.21100
