238

C          3.39140      -12.84950       -3.86820
C          3.09710      -13.81510       -2.93670
C          2.37520      -13.60620       -1.67950
O          1.84370      -12.58160       -1.28440
C          2.42560      -14.89650       -0.96480
C          1.92270      -15.21560        0.27810
C          2.09920      -16.50940        0.76600
C          1.54840      -16.89560        2.10220
C          2.77690      -17.43900       -0.01800
C          3.28340      -17.12440       -1.27120
C          3.10800      -15.83810       -1.75520
C          3.51050      -15.19990       -3.00710
C          4.12870      -15.83130       -4.05740
C          4.45940      -15.24950       -5.29890
N          4.75050      -14.87500       -6.34600
C          4.50010      -17.19130       -4.04780
N          4.83320      -18.28900       -4.10640
C          3.04770      -11.49560       -3.91250
C          3.47670      -10.65770       -4.95870
C          4.32070      -11.15560       -6.06090
C          5.70390      -11.24650       -5.88950
C          6.47870      -11.74780       -6.92310
C          5.91120      -12.17190       -8.11460
C          6.76830      -12.68940       -9.23270
C          7.17840      -11.54820      -10.16550
C          4.53790      -12.06820       -8.26690
C          3.73160      -11.56740       -7.25710
C          2.24010      -11.53570       -7.44930
C          1.61080      -12.86580       -7.02930
C          6.36600      -10.76950       -4.62550
C          6.67740       -9.27400       -4.70850
C          3.02810       -9.35410       -4.82710
C          2.24960       -9.15660       -3.69450
S          2.06730      -10.61180       -2.76700
C          1.67410       -7.93930       -3.26340
S          2.05910       -6.43240       -4.09860
C          1.08480       -5.55730       -2.98060
C          0.68060       -4.26280       -2.66420
S          0.91660       -2.63410       -3.20550
C         -0.10760       -2.09840       -1.91420
C         -0.48590       -0.80960       -1.42910
C         -0.12830        0.46070       -1.87250
C         -0.55120        1.53380       -1.12520
C         -0.27800        3.02180       -1.33830
C          1.21980        3.26100       -1.30260
C          2.02070        2.85690       -2.36330
C          3.38870        3.06890       -2.32140
C          3.97280        3.69050       -1.23800
C          3.18120        4.09880       -0.16450
O          3.82930        4.71710        0.85670
C          3.08590        5.18320        1.96570
C          4.06090        5.83540        2.93310
C          1.81060        3.86820       -0.20090
C         -0.95120        3.51890       -2.61010
C         -2.25350        3.11530       -2.87160
C         -2.91520        3.58950       -3.99140
C         -2.29380        4.46580       -4.85590
C         -0.98620        4.88010       -4.60250
O         -0.45110        5.74760       -5.50100
C          0.89470        6.15480       -5.35450
C          1.23080        7.06330       -6.52650
C         -0.32430        4.40660       -3.47480
C         -1.00290        3.61540       -0.14970
C         -1.59140        2.61390        0.60060
C         -1.32630        1.32870        0.03690
C         -1.68990        0.05880        0.47530
C         -1.27440       -1.01510       -0.27580
C         -1.49700       -2.50720       -0.03190
C         -0.98510       -2.91120        1.34040
C          0.27120       -2.47160        1.73460
C          0.77860       -2.84650        2.96700
C          0.04820       -3.65890        3.80910
C         -1.21270       -4.11270        3.42110
O         -1.83980       -4.93390        4.30670
C         -3.14810       -5.39830        4.04150
C         -4.21570       -4.33430        4.27780
C         -1.72110       -3.73320        2.18360
C         -2.96850       -2.82860       -0.24170
C         -3.39990       -3.65290       -1.26880
C         -4.75190       -3.92630       -1.41900
C         -5.68230       -3.37450       -0.56740
C         -5.26390       -2.52710        0.46110
O         -6.24480       -2.01470        1.24820
C         -5.91470       -1.03660        2.21570
C         -7.21190       -0.54590        2.83810
C         -3.90900       -2.27150        0.62120
C         -0.62030       -3.10290       -1.11260
C         -0.16520       -4.36070       -1.52890
N         -0.29170       -5.67710       -1.17050
C          0.48300       -6.41180       -2.02950
C          0.82390       -7.75420       -2.19130
C         -0.97620       -6.21280       -0.02280
C         -0.01090       -6.46730        1.13260
S         -2.44580        3.15490        2.01000
C         -1.99000        4.78080        1.61700
C         -2.08710        6.06950        2.13970
S         -2.71890        6.95400        3.47780
C         -2.00850        8.44310        2.84600
C         -1.34280        8.24600        1.65010
C         -1.38390        6.91250        1.25130
N         -0.85770        6.17680        0.22190
C         -0.16440        6.73970       -0.90700
C         -1.14130        7.33820       -1.91600
C         -1.22860        4.87320        0.42290
C         -2.13410        9.64310        3.58980
C         -1.44540       10.84540        3.37610
C         -0.45520       11.05320        2.30000
C         -0.84830       11.62420        1.09030
C          0.08640       11.75410        0.07200
C          1.39370       11.32860        0.23790
C          2.37250       11.39670       -0.90000
C          2.34800       10.09260       -1.70080
C          1.77110       10.77690        1.45610
C          0.86670       10.63230        2.49480
C          1.23680       10.01770        3.82080
C          2.70130        9.63090        3.97980
C         -2.25750       12.09990        0.87020
C         -2.38700       13.58930        1.19170
C         -1.77950       11.79880        4.32040
C         -2.72460       11.38310        5.26240
S         -3.19960        9.73170        4.95390
C         -3.17980       12.22930        6.28010
C         -4.10140       12.00760        7.27380
C         -4.84870       10.76310        7.48070
O         -4.76900        9.73170        6.83560
C         -5.73000       11.00430        8.63840
C         -6.63700       10.14920        9.22610
C         -7.37180       10.59570       10.32380
C         -8.38100        9.70030       10.96960
C         -7.16560       11.89050       10.79140
C         -6.25330       12.75580       10.20380
C         -5.52380       12.31190        9.11260
C         -4.50980       12.96130        8.28430
C         -4.04870       14.24210        8.46080
C         -3.07190       14.88520        7.67430
N         -2.28580       15.48340        7.08650
C         -4.49600       15.11030        9.47780
N         -4.81150       15.87060       10.27880
H          4.00270      -13.15380       -4.71060
H          1.40390      -14.46660        0.85780
H          1.55570      -16.04790        2.78330
H          2.12030      -17.71020        2.53980
H          0.51580      -17.22910        1.99280
H          2.91560      -18.44080        0.36200
H          3.80470      -17.87640       -1.84050
H          7.54880      -11.82230       -6.78760
H          6.21660      -13.44040       -9.80040
H          7.66330      -13.16130       -8.82340
H          7.74420      -10.79700       -9.61860
H          7.79480      -11.92280      -10.97950
H          6.29750      -11.07000      -10.58820
H          4.07910      -12.39810       -9.18820
H          1.79610      -10.72520       -6.86790
H          2.01940      -11.35760       -8.50400
H          2.10180      -13.69160       -7.53890
H          0.55140      -12.87950       -7.27620
H          1.71650      -13.01910       -5.95760
H          7.29670      -11.32090       -4.47660
H          5.72300      -10.95450       -3.76260
H          7.30870       -9.06770       -5.56980
H          5.75970       -8.69960       -4.80960
H          7.19460       -8.94330       -3.81050
H          3.24680       -8.56780       -5.52940
H          0.47240        0.56830       -2.76080
H          1.57850        2.39210       -3.23020
H          4.00380        2.74920       -3.14920
H          5.03490        3.87030       -1.19600
H          2.33150        5.91300        1.63580
H          2.57010        4.34630        2.45650
H          4.79930        5.10890        3.26020
H          3.52490        6.21460        3.79840
H          4.57920        6.65530        2.44300
H          1.19550        4.15990        0.63420
H         -2.74910        2.42930       -2.20170
H         -3.92680        3.26920       -4.19040
H         -2.79410        4.84350       -5.73300
H          1.02860        6.69580       -4.40640
H          1.55730        5.27810       -5.35080
H          2.26090        7.39920       -6.45050
H          0.57130        7.92690       -6.52770
H          1.09750        6.52630       -7.46130
H          0.68630        4.72300       -3.27310
H         -2.24710       -0.04400        1.39270
H          0.84760       -1.83600        1.07930
H          1.75500       -2.50110        3.27160
H          0.43090       -3.96240        4.77020
H         -3.21920       -5.80070        3.02260
H         -3.28750       -6.22330        4.74580
H         -5.20110       -4.76040        4.11100
H         -4.07880       -3.49330        3.60300
H         -4.15390       -3.96990        5.30020
H         -2.69290       -4.07510        1.86540
H         -2.69430       -4.08630       -1.95960
H         -5.07660       -4.57650       -2.21750
H         -6.73620       -3.57420       -0.67530
H         -5.26840       -1.47080        2.99190
H         -5.38130       -0.20180        1.74040
H         -7.85080       -0.11500        2.07240
H         -6.99750        0.20750        3.59040
H         -7.73800       -1.37590        3.30150
H         -3.56890       -1.64760        1.43010
H          0.49010       -8.57050       -1.57680
H         -1.74560       -5.49790        0.27220
H         -1.46010       -7.14870       -0.31990
H          0.48260       -5.54250        1.42180
H         -0.54960       -6.85540        1.99240
H          0.74600       -7.19070        0.83940
H         -0.86240        9.03420        1.10450
H          0.51070        7.51850       -0.53660
H          0.42930        5.94950       -1.36920
H         -0.59870        7.76890       -2.75310
H         -1.73380        8.11970       -1.44580
H         -1.81100        6.56950       -2.29480
H         -0.21910       12.18670       -0.87060
H          3.38040       11.56320       -0.51510
H          2.11710       12.22790       -1.55990
H          1.35040        9.91150       -2.09640
H          2.62470        9.25270       -1.06640
H          3.04740       10.14180       -2.53210
H          2.79290       10.45420        1.57940
H          0.96750       10.72400        4.61190
H          0.61680        9.12750        3.96940
H          3.34700       10.49890        3.86810
H          2.86210        9.21550        4.97230
H          2.98820        8.87880        3.24840
H         -2.94780       11.53210        1.49690
H         -2.53410       11.93690       -0.17420
H         -1.69660       14.16950        0.58350
H         -3.39940       13.93280        0.99260
H         -2.16000       13.77420        2.23820
H         -1.34540       12.78370        4.34930
H         -2.71910       13.20940        6.25170
H         -6.76810        9.15130        8.83500
H         -8.03720        8.66850       10.96990
H         -8.58190       10.01000       11.99210
H         -9.31800        9.73960       10.41290
H         -7.73470       12.23600       11.64230
H         -6.12820       13.74930       10.60200
