
  xtb     02112201223D
 energy: -369.406253731840 gnorm: 0.000299092986 xtb: 6.4.1 (unknown)
238258  0     0  0            999 V2000
    3.3914  -12.8495   -3.8682 C   0  0  0  0  0  0  0  0  0  0  0  0
    3.0971  -13.8151   -2.9367 C   0  0  0  0  0  0  0  0  0  0  0  0
    2.3752  -13.6062   -1.6795 C   0  0  0  0  0  0  0  0  0  0  0  0
    1.8437  -12.5816   -1.2844 O   0  0  0  0  0  0  0  0  0  0  0  0
    2.4256  -14.8965   -0.9648 C   0  0  0  0  0  0  0  0  0  0  0  0
    1.9227  -15.2156    0.2781 C   0  0  0  0  0  0  0  0  0  0  0  0
    2.0992  -16.5094    0.7660 C   0  0  0  0  0  0  0  0  0  0  0  0
    1.5484  -16.8956    2.1022 C   0  0  0  0  0  0  0  0  0  0  0  0
    2.7769  -17.4390   -0.0180 C   0  0  0  0  0  0  0  0  0  0  0  0
    3.2834  -17.1244   -1.2712 C   0  0  0  0  0  0  0  0  0  0  0  0
    3.1080  -15.8381   -1.7552 C   0  0  0  0  0  0  0  0  0  0  0  0
    3.5105  -15.1999   -3.0071 C   0  0  0  0  0  0  0  0  0  0  0  0
    4.1287  -15.8313   -4.0574 C   0  0  0  0  0  0  0  0  0  0  0  0
    4.4594  -15.2495   -5.2989 C   0  0  0  0  0  0  0  0  0  0  0  0
    4.7505  -14.8750   -6.3460 N   0  0  0  0  0  0  0  0  0  0  0  0
    4.5001  -17.1913   -4.0478 C   0  0  0  0  0  0  0  0  0  0  0  0
    4.8332  -18.2890   -4.1064 N   0  0  0  0  0  0  0  0  0  0  0  0
    3.0477  -11.4956   -3.9125 C   0  0  0  0  0  0  0  0  0  0  0  0
    3.4767  -10.6577   -4.9587 C   0  0  0  0  0  0  0  0  0  0  0  0
    4.3207  -11.1556   -6.0609 C   0  0  0  0  0  0  0  0  0  0  0  0
    5.7039  -11.2465   -5.8895 C   0  0  0  0  0  0  0  0  0  0  0  0
    6.4787  -11.7478   -6.9231 C   0  0  0  0  0  0  0  0  0  0  0  0
    5.9112  -12.1719   -8.1146 C   0  0  0  0  0  0  0  0  0  0  0  0
    6.7683  -12.6894   -9.2327 C   0  0  0  0  0  0  0  0  0  0  0  0
    7.1784  -11.5482  -10.1655 C   0  0  0  0  0  0  0  0  0  0  0  0
    4.5379  -12.0682   -8.2669 C   0  0  0  0  0  0  0  0  0  0  0  0
    3.7316  -11.5674   -7.2571 C   0  0  0  0  0  0  0  0  0  0  0  0
    2.2401  -11.5357   -7.4493 C   0  0  0  0  0  0  0  0  0  0  0  0
    1.6108  -12.8658   -7.0293 C   0  0  0  0  0  0  0  0  0  0  0  0
    6.3660  -10.7695   -4.6255 C   0  0  0  0  0  0  0  0  0  0  0  0
    6.6774   -9.2740   -4.7085 C   0  0  0  0  0  0  0  0  0  0  0  0
    3.0281   -9.3541   -4.8271 C   0  0  0  0  0  0  0  0  0  0  0  0
    2.2496   -9.1566   -3.6945 C   0  0  0  0  0  0  0  0  0  0  0  0
    2.0673  -10.6118   -2.7670 S   0  0  0  0  0  0  0  0  0  0  0  0
    1.6741   -7.9393   -3.2634 C   0  0  0  0  0  0  0  0  0  0  0  0
    2.0591   -6.4324   -4.0986 S   0  0  0  0  0  0  0  0  0  0  0  0
    1.0848   -5.5573   -2.9806 C   0  0  0  0  0  0  0  0  0  0  0  0
    0.6806   -4.2628   -2.6642 C   0  0  0  0  0  0  0  0  0  0  0  0
    0.9166   -2.6341   -3.2055 S   0  0  0  0  0  0  0  0  0  0  0  0
   -0.1076   -2.0984   -1.9142 C   0  0  0  0  0  0  0  0  0  0  0  0
   -0.4859   -0.8096   -1.4291 C   0  0  0  0  0  0  0  0  0  0  0  0
   -0.1283    0.4607   -1.8725 C   0  0  0  0  0  0  0  0  0  0  0  0
   -0.5512    1.5338   -1.1252 C   0  0  0  0  0  0  0  0  0  0  0  0
   -0.2780    3.0218   -1.3383 C   0  0  0  0  0  0  0  0  0  0  0  0
    1.2198    3.2610   -1.3026 C   0  0  0  0  0  0  0  0  0  0  0  0
    2.0207    2.8569   -2.3633 C   0  0  0  0  0  0  0  0  0  0  0  0
    3.3887    3.0689   -2.3214 C   0  0  0  0  0  0  0  0  0  0  0  0
    3.9728    3.6905   -1.2380 C   0  0  0  0  0  0  0  0  0  0  0  0
    3.1812    4.0988   -0.1645 C   0  0  0  0  0  0  0  0  0  0  0  0
    3.8293    4.7171    0.8567 O   0  0  0  0  0  0  0  0  0  0  0  0
    3.0859    5.1832    1.9657 C   0  0  0  0  0  0  0  0  0  0  0  0
    4.0609    5.8354    2.9331 C   0  0  0  0  0  0  0  0  0  0  0  0
    1.8106    3.8682   -0.2009 C   0  0  0  0  0  0  0  0  0  0  0  0
   -0.9512    3.5189   -2.6101 C   0  0  0  0  0  0  0  0  0  0  0  0
   -2.2535    3.1153   -2.8716 C   0  0  0  0  0  0  0  0  0  0  0  0
   -2.9152    3.5895   -3.9914 C   0  0  0  0  0  0  0  0  0  0  0  0
   -2.2938    4.4658   -4.8559 C   0  0  0  0  0  0  0  0  0  0  0  0
   -0.9862    4.8801   -4.6025 C   0  0  0  0  0  0  0  0  0  0  0  0
   -0.4511    5.7476   -5.5010 O   0  0  0  0  0  0  0  0  0  0  0  0
    0.8947    6.1548   -5.3545 C   0  0  0  0  0  0  0  0  0  0  0  0
    1.2308    7.0633   -6.5265 C   0  0  0  0  0  0  0  0  0  0  0  0
   -0.3243    4.4066   -3.4748 C   0  0  0  0  0  0  0  0  0  0  0  0
   -1.0029    3.6154   -0.1497 C   0  0  0  0  0  0  0  0  0  0  0  0
   -1.5914    2.6139    0.6006 C   0  0  0  0  0  0  0  0  0  0  0  0
   -1.3263    1.3287    0.0369 C   0  0  0  0  0  0  0  0  0  0  0  0
   -1.6899    0.0588    0.4753 C   0  0  0  0  0  0  0  0  0  0  0  0
   -1.2744   -1.0151   -0.2758 C   0  0  0  0  0  0  0  0  0  0  0  0
   -1.4970   -2.5072   -0.0319 C   0  0  0  0  0  0  0  0  0  0  0  0
   -0.9851   -2.9112    1.3404 C   0  0  0  0  0  0  0  0  0  0  0  0
    0.2712   -2.4716    1.7346 C   0  0  0  0  0  0  0  0  0  0  0  0
    0.7786   -2.8465    2.9670 C   0  0  0  0  0  0  0  0  0  0  0  0
    0.0482   -3.6589    3.8091 C   0  0  0  0  0  0  0  0  0  0  0  0
   -1.2127   -4.1127    3.4211 C   0  0  0  0  0  0  0  0  0  0  0  0
   -1.8398   -4.9339    4.3067 O   0  0  0  0  0  0  0  0  0  0  0  0
   -3.1481   -5.3983    4.0415 C   0  0  0  0  0  0  0  0  0  0  0  0
   -4.2157   -4.3343    4.2778 C   0  0  0  0  0  0  0  0  0  0  0  0
   -1.7211   -3.7332    2.1836 C   0  0  0  0  0  0  0  0  0  0  0  0
   -2.9685   -2.8286   -0.2417 C   0  0  0  0  0  0  0  0  0  0  0  0
   -3.3999   -3.6529   -1.2688 C   0  0  0  0  0  0  0  0  0  0  0  0
   -4.7519   -3.9263   -1.4190 C   0  0  0  0  0  0  0  0  0  0  0  0
   -5.6823   -3.3745   -0.5674 C   0  0  0  0  0  0  0  0  0  0  0  0
   -5.2639   -2.5271    0.4611 C   0  0  0  0  0  0  0  0  0  0  0  0
   -6.2448   -2.0147    1.2482 O   0  0  0  0  0  0  0  0  0  0  0  0
   -5.9147   -1.0366    2.2157 C   0  0  0  0  0  0  0  0  0  0  0  0
   -7.2119   -0.5459    2.8381 C   0  0  0  0  0  0  0  0  0  0  0  0
   -3.9090   -2.2715    0.6212 C   0  0  0  0  0  0  0  0  0  0  0  0
   -0.6203   -3.1029   -1.1126 C   0  0  0  0  0  0  0  0  0  0  0  0
   -0.1652   -4.3607   -1.5289 C   0  0  0  0  0  0  0  0  0  0  0  0
   -0.2917   -5.6771   -1.1705 N   0  0  0  0  0  0  0  0  0  0  0  0
    0.4830   -6.4118   -2.0295 C   0  0  0  0  0  0  0  0  0  0  0  0
    0.8239   -7.7542   -2.1913 C   0  0  0  0  0  0  0  0  0  0  0  0
   -0.9762   -6.2128   -0.0228 C   0  0  0  0  0  0  0  0  0  0  0  0
   -0.0109   -6.4673    1.1326 C   0  0  0  0  0  0  0  0  0  0  0  0
   -2.4458    3.1549    2.0100 S   0  0  0  0  0  0  0  0  0  0  0  0
   -1.9900    4.7808    1.6170 C   0  0  0  0  0  0  0  0  0  0  0  0
   -2.0871    6.0695    2.1397 C   0  0  0  0  0  0  0  0  0  0  0  0
   -2.7189    6.9540    3.4778 S   0  0  0  0  0  0  0  0  0  0  0  0
   -2.0085    8.4431    2.8460 C   0  0  0  0  0  0  0  0  0  0  0  0
   -1.3428    8.2460    1.6501 C   0  0  0  0  0  0  0  0  0  0  0  0
   -1.3839    6.9125    1.2513 C   0  0  0  0  0  0  0  0  0  0  0  0
   -0.8577    6.1768    0.2219 N   0  0  0  0  0  0  0  0  0  0  0  0
   -0.1644    6.7397   -0.9070 C   0  0  0  0  0  0  0  0  0  0  0  0
   -1.1413    7.3382   -1.9160 C   0  0  0  0  0  0  0  0  0  0  0  0
   -1.2286    4.8732    0.4229 C   0  0  0  0  0  0  0  0  0  0  0  0
   -2.1341    9.6431    3.5898 C   0  0  0  0  0  0  0  0  0  0  0  0
   -1.4454   10.8454    3.3761 C   0  0  0  0  0  0  0  0  0  0  0  0
   -0.4552   11.0532    2.3000 C   0  0  0  0  0  0  0  0  0  0  0  0
   -0.8483   11.6242    1.0903 C   0  0  0  0  0  0  0  0  0  0  0  0
    0.0864   11.7541    0.0720 C   0  0  0  0  0  0  0  0  0  0  0  0
    1.3937   11.3286    0.2379 C   0  0  0  0  0  0  0  0  0  0  0  0
    2.3725   11.3967   -0.9000 C   0  0  0  0  0  0  0  0  0  0  0  0
    2.3480   10.0926   -1.7008 C   0  0  0  0  0  0  0  0  0  0  0  0
    1.7711   10.7769    1.4561 C   0  0  0  0  0  0  0  0  0  0  0  0
    0.8667   10.6323    2.4948 C   0  0  0  0  0  0  0  0  0  0  0  0
    1.2368   10.0177    3.8208 C   0  0  0  0  0  0  0  0  0  0  0  0
    2.7013    9.6309    3.9798 C   0  0  0  0  0  0  0  0  0  0  0  0
   -2.2575   12.0999    0.8702 C   0  0  0  0  0  0  0  0  0  0  0  0
   -2.3870   13.5893    1.1917 C   0  0  0  0  0  0  0  0  0  0  0  0
   -1.7795   11.7988    4.3204 C   0  0  0  0  0  0  0  0  0  0  0  0
   -2.7246   11.3831    5.2624 C   0  0  0  0  0  0  0  0  0  0  0  0
   -3.1996    9.7317    4.9539 S   0  0  0  0  0  0  0  0  0  0  0  0
   -3.1798   12.2293    6.2801 C   0  0  0  0  0  0  0  0  0  0  0  0
   -4.1014   12.0076    7.2738 C   0  0  0  0  0  0  0  0  0  0  0  0
   -4.8487   10.7631    7.4807 C   0  0  0  0  0  0  0  0  0  0  0  0
   -4.7690    9.7317    6.8356 O   0  0  0  0  0  0  0  0  0  0  0  0
   -5.7300   11.0043    8.6384 C   0  0  0  0  0  0  0  0  0  0  0  0
   -6.6370   10.1492    9.2261 C   0  0  0  0  0  0  0  0  0  0  0  0
   -7.3718   10.5957   10.3238 C   0  0  0  0  0  0  0  0  0  0  0  0
   -8.3810    9.7003   10.9696 C   0  0  0  0  0  0  0  0  0  0  0  0
   -7.1656   11.8905   10.7914 C   0  0  0  0  0  0  0  0  0  0  0  0
   -6.2533   12.7558   10.2038 C   0  0  0  0  0  0  0  0  0  0  0  0
   -5.5238   12.3119    9.1126 C   0  0  0  0  0  0  0  0  0  0  0  0
   -4.5098   12.9613    8.2843 C   0  0  0  0  0  0  0  0  0  0  0  0
   -4.0487   14.2421    8.4608 C   0  0  0  0  0  0  0  0  0  0  0  0
   -3.0719   14.8852    7.6743 C   0  0  0  0  0  0  0  0  0  0  0  0
   -2.2858   15.4834    7.0865 N   0  0  0  0  0  0  0  0  0  0  0  0
   -4.4960   15.1103    9.4778 C   0  0  0  0  0  0  0  0  0  0  0  0
   -4.8115   15.8706   10.2788 N   0  0  0  0  0  0  0  0  0  0  0  0
    4.0027  -13.1538   -4.7106 H   0  0  0  0  0  0  0  0  0  0  0  0
    1.4039  -14.4666    0.8578 H   0  0  0  0  0  0  0  0  0  0  0  0
    1.5557  -16.0479    2.7833 H   0  0  0  0  0  0  0  0  0  0  0  0
    2.1203  -17.7102    2.5398 H   0  0  0  0  0  0  0  0  0  0  0  0
    0.5158  -17.2291    1.9928 H   0  0  0  0  0  0  0  0  0  0  0  0
    2.9156  -18.4408    0.3620 H   0  0  0  0  0  0  0  0  0  0  0  0
    3.8047  -17.8764   -1.8405 H   0  0  0  0  0  0  0  0  0  0  0  0
    7.5488  -11.8223   -6.7876 H   0  0  0  0  0  0  0  0  0  0  0  0
    6.2166  -13.4404   -9.8004 H   0  0  0  0  0  0  0  0  0  0  0  0
    7.6633  -13.1613   -8.8234 H   0  0  0  0  0  0  0  0  0  0  0  0
    7.7442  -10.7970   -9.6186 H   0  0  0  0  0  0  0  0  0  0  0  0
    7.7948  -11.9228  -10.9795 H   0  0  0  0  0  0  0  0  0  0  0  0
    6.2975  -11.0700  -10.5882 H   0  0  0  0  0  0  0  0  0  0  0  0
    4.0791  -12.3981   -9.1882 H   0  0  0  0  0  0  0  0  0  0  0  0
    1.7961  -10.7252   -6.8679 H   0  0  0  0  0  0  0  0  0  0  0  0
    2.0194  -11.3576   -8.5040 H   0  0  0  0  0  0  0  0  0  0  0  0
    2.1018  -13.6916   -7.5389 H   0  0  0  0  0  0  0  0  0  0  0  0
    0.5514  -12.8795   -7.2762 H   0  0  0  0  0  0  0  0  0  0  0  0
    1.7165  -13.0191   -5.9576 H   0  0  0  0  0  0  0  0  0  0  0  0
    7.2967  -11.3209   -4.4766 H   0  0  0  0  0  0  0  0  0  0  0  0
    5.7230  -10.9545   -3.7626 H   0  0  0  0  0  0  0  0  0  0  0  0
    7.3087   -9.0677   -5.5698 H   0  0  0  0  0  0  0  0  0  0  0  0
    5.7597   -8.6996   -4.8096 H   0  0  0  0  0  0  0  0  0  0  0  0
    7.1946   -8.9433   -3.8105 H   0  0  0  0  0  0  0  0  0  0  0  0
    3.2468   -8.5678   -5.5294 H   0  0  0  0  0  0  0  0  0  0  0  0
    0.4724    0.5683   -2.7608 H   0  0  0  0  0  0  0  0  0  0  0  0
    1.5785    2.3921   -3.2302 H   0  0  0  0  0  0  0  0  0  0  0  0
    4.0038    2.7492   -3.1492 H   0  0  0  0  0  0  0  0  0  0  0  0
    5.0349    3.8703   -1.1960 H   0  0  0  0  0  0  0  0  0  0  0  0
    2.3315    5.9130    1.6358 H   0  0  0  0  0  0  0  0  0  0  0  0
    2.5701    4.3463    2.4565 H   0  0  0  0  0  0  0  0  0  0  0  0
    4.7993    5.1089    3.2602 H   0  0  0  0  0  0  0  0  0  0  0  0
    3.5249    6.2146    3.7984 H   0  0  0  0  0  0  0  0  0  0  0  0
    4.5792    6.6553    2.4430 H   0  0  0  0  0  0  0  0  0  0  0  0
    1.1955    4.1599    0.6342 H   0  0  0  0  0  0  0  0  0  0  0  0
   -2.7491    2.4293   -2.2017 H   0  0  0  0  0  0  0  0  0  0  0  0
   -3.9268    3.2692   -4.1904 H   0  0  0  0  0  0  0  0  0  0  0  0
   -2.7941    4.8435   -5.7330 H   0  0  0  0  0  0  0  0  0  0  0  0
    1.0286    6.6958   -4.4064 H   0  0  0  0  0  0  0  0  0  0  0  0
    1.5573    5.2781   -5.3508 H   0  0  0  0  0  0  0  0  0  0  0  0
    2.2609    7.3992   -6.4505 H   0  0  0  0  0  0  0  0  0  0  0  0
    0.5713    7.9269   -6.5277 H   0  0  0  0  0  0  0  0  0  0  0  0
    1.0975    6.5263   -7.4613 H   0  0  0  0  0  0  0  0  0  0  0  0
    0.6863    4.7230   -3.2731 H   0  0  0  0  0  0  0  0  0  0  0  0
   -2.2471   -0.0440    1.3927 H   0  0  0  0  0  0  0  0  0  0  0  0
    0.8476   -1.8360    1.0793 H   0  0  0  0  0  0  0  0  0  0  0  0
    1.7550   -2.5011    3.2716 H   0  0  0  0  0  0  0  0  0  0  0  0
    0.4309   -3.9624    4.7702 H   0  0  0  0  0  0  0  0  0  0  0  0
   -3.2192   -5.8007    3.0226 H   0  0  0  0  0  0  0  0  0  0  0  0
   -3.2875   -6.2233    4.7458 H   0  0  0  0  0  0  0  0  0  0  0  0
   -5.2011   -4.7604    4.1110 H   0  0  0  0  0  0  0  0  0  0  0  0
   -4.0788   -3.4933    3.6030 H   0  0  0  0  0  0  0  0  0  0  0  0
   -4.1539   -3.9699    5.3002 H   0  0  0  0  0  0  0  0  0  0  0  0
   -2.6929   -4.0751    1.8654 H   0  0  0  0  0  0  0  0  0  0  0  0
   -2.6943   -4.0863   -1.9596 H   0  0  0  0  0  0  0  0  0  0  0  0
   -5.0766   -4.5765   -2.2175 H   0  0  0  0  0  0  0  0  0  0  0  0
   -6.7362   -3.5742   -0.6753 H   0  0  0  0  0  0  0  0  0  0  0  0
   -5.2684   -1.4708    2.9919 H   0  0  0  0  0  0  0  0  0  0  0  0
   -5.3813   -0.2018    1.7404 H   0  0  0  0  0  0  0  0  0  0  0  0
   -7.8508   -0.1150    2.0724 H   0  0  0  0  0  0  0  0  0  0  0  0
   -6.9975    0.2075    3.5904 H   0  0  0  0  0  0  0  0  0  0  0  0
   -7.7380   -1.3759    3.3015 H   0  0  0  0  0  0  0  0  0  0  0  0
   -3.5689   -1.6476    1.4301 H   0  0  0  0  0  0  0  0  0  0  0  0
    0.4901   -8.5705   -1.5768 H   0  0  0  0  0  0  0  0  0  0  0  0
   -1.7456   -5.4979    0.2722 H   0  0  0  0  0  0  0  0  0  0  0  0
   -1.4601   -7.1487   -0.3199 H   0  0  0  0  0  0  0  0  0  0  0  0
    0.4826   -5.5425    1.4218 H   0  0  0  0  0  0  0  0  0  0  0  0
   -0.5496   -6.8554    1.9924 H   0  0  0  0  0  0  0  0  0  0  0  0
    0.7460   -7.1907    0.8394 H   0  0  0  0  0  0  0  0  0  0  0  0
   -0.8624    9.0342    1.1045 H   0  0  0  0  0  0  0  0  0  0  0  0
    0.5107    7.5185   -0.5366 H   0  0  0  0  0  0  0  0  0  0  0  0
    0.4293    5.9495   -1.3692 H   0  0  0  0  0  0  0  0  0  0  0  0
   -0.5987    7.7689   -2.7531 H   0  0  0  0  0  0  0  0  0  0  0  0
   -1.7338    8.1197   -1.4458 H   0  0  0  0  0  0  0  0  0  0  0  0
   -1.8110    6.5695   -2.2948 H   0  0  0  0  0  0  0  0  0  0  0  0
   -0.2191   12.1867   -0.8706 H   0  0  0  0  0  0  0  0  0  0  0  0
    3.3804   11.5632   -0.5151 H   0  0  0  0  0  0  0  0  0  0  0  0
    2.1171   12.2279   -1.5599 H   0  0  0  0  0  0  0  0  0  0  0  0
    1.3504    9.9115   -2.0964 H   0  0  0  0  0  0  0  0  0  0  0  0
    2.6247    9.2527   -1.0664 H   0  0  0  0  0  0  0  0  0  0  0  0
    3.0474   10.1418   -2.5321 H   0  0  0  0  0  0  0  0  0  0  0  0
    2.7929   10.4542    1.5794 H   0  0  0  0  0  0  0  0  0  0  0  0
    0.9675   10.7240    4.6119 H   0  0  0  0  0  0  0  0  0  0  0  0
    0.6168    9.1275    3.9694 H   0  0  0  0  0  0  0  0  0  0  0  0
    3.3470   10.4989    3.8681 H   0  0  0  0  0  0  0  0  0  0  0  0
    2.8621    9.2155    4.9723 H   0  0  0  0  0  0  0  0  0  0  0  0
    2.9882    8.8788    3.2484 H   0  0  0  0  0  0  0  0  0  0  0  0
   -2.9478   11.5321    1.4969 H   0  0  0  0  0  0  0  0  0  0  0  0
   -2.5341   11.9369   -0.1742 H   0  0  0  0  0  0  0  0  0  0  0  0
   -1.6966   14.1695    0.5835 H   0  0  0  0  0  0  0  0  0  0  0  0
   -3.3994   13.9328    0.9926 H   0  0  0  0  0  0  0  0  0  0  0  0
   -2.1600   13.7742    2.2382 H   0  0  0  0  0  0  0  0  0  0  0  0
   -1.3454   12.7837    4.3493 H   0  0  0  0  0  0  0  0  0  0  0  0
   -2.7191   13.2094    6.2517 H   0  0  0  0  0  0  0  0  0  0  0  0
   -6.7681    9.1513    8.8350 H   0  0  0  0  0  0  0  0  0  0  0  0
   -8.0372    8.6685   10.9699 H   0  0  0  0  0  0  0  0  0  0  0  0
   -8.5819   10.0100   11.9921 H   0  0  0  0  0  0  0  0  0  0  0  0
   -9.3180    9.7396   10.4129 H   0  0  0  0  0  0  0  0  0  0  0  0
   -7.7347   12.2360   11.6423 H   0  0  0  0  0  0  0  0  0  0  0  0
   -6.1282   13.7493   10.6020 H   0  0  0  0  0  0  0  0  0  0  0  0
  1  2  2  0  0  0  0
  2  3  1  0  0  0  0
  3  4  2  0  0  0  0
  3  5  1  0  0  0  0
  5  6  2  0  0  0  0
  6  7  1  0  0  0  0
  7  8  1  0  0  0  0
  7  9  2  0  0  0  0
  9 10  1  0  0  0  0
 10 11  2  0  0  0  0
 11 12  1  0  0  0  0
 12 13  2  0  0  0  0
 13 14  1  0  0  0  0
 14 15  3  0  0  0  0
 13 16  1  0  0  0  0
 16 17  3  0  0  0  0
  1 18  1  0  0  0  0
 18 19  2  0  0  0  0
 19 20  1  0  0  0  0
 20 21  2  0  0  0  0
 21 22  1  0  0  0  0
 22 23  2  0  0  0  0
 23 24  1  0  0  0  0
 24 25  1  0  0  0  0
 23 26  1  0  0  0  0
 26 27  2  0  0  0  0
 27 28  1  0  0  0  0
 28 29  1  0  0  0  0
 21 30  1  0  0  0  0
 30 31  1  0  0  0  0
 19 32  1  0  0  0  0
 32 33  2  0  0  0  0
 33 34  1  0  0  0  0
 33 35  1  0  0  0  0
 35 36  1  0  0  0  0
 36 37  1  0  0  0  0
 37 38  1  0  0  0  0
 38 39  1  0  0  0  0
 39 40  1  0  0  0  0
 40 41  1  0  0  0  0
 41 42  2  0  0  0  0
 42 43  1  0  0  0  0
 43 44  1  0  0  0  0
 44 45  1  0  0  0  0
 45 46  2  0  0  0  0
 46 47  1  0  0  0  0
 47 48  2  0  0  0  0
 48 49  1  0  0  0  0
 49 50  1  0  0  0  0
 50 51  1  0  0  0  0
 51 52  1  0  0  0  0
 49 53  2  0  0  0  0
 44 54  1  0  0  0  0
 54 55  2  0  0  0  0
 55 56  1  0  0  0  0
 56 57  2  0  0  0  0
 57 58  1  0  0  0  0
 58 59  1  0  0  0  0
 59 60  1  0  0  0  0
 60 61  1  0  0  0  0
 58 62  2  0  0  0  0
 44 63  1  0  0  0  0
 63 64  2  0  0  0  0
 64 65  1  0  0  0  0
 65 66  1  0  0  0  0
 66 67  2  0  0  0  0
 67 68  1  0  0  0  0
 68 69  1  0  0  0  0
 69 70  2  0  0  0  0
 70 71  1  0  0  0  0
 71 72  2  0  0  0  0
 72 73  1  0  0  0  0
 73 74  1  0  0  0  0
 74 75  1  0  0  0  0
 75 76  1  0  0  0  0
 73 77  2  0  0  0  0
 68 78  1  0  0  0  0
 78 79  2  0  0  0  0
 79 80  1  0  0  0  0
 80 81  2  0  0  0  0
 81 82  1  0  0  0  0
 82 83  1  0  0  0  0
 83 84  1  0  0  0  0
 84 85  1  0  0  0  0
 82 86  2  0  0  0  0
 68 87  1  0  0  0  0
 87 88  1  0  0  0  0
 88 89  1  0  0  0  0
 89 90  1  0  0  0  0
 90 91  1  0  0  0  0
 89 92  1  0  0  0  0
 92 93  1  0  0  0  0
 64 94  1  0  0  0  0
 94 95  1  0  0  0  0
 95 96  1  0  0  0  0
 96 97  1  0  0  0  0
 97 98  1  0  0  0  0
 98 99  2  0  0  0  0
 99100  1  0  0  0  0
100101  1  0  0  0  0
101102  1  0  0  0  0
102103  1  0  0  0  0
101104  1  0  0  0  0
 98105  1  0  0  0  0
105106  2  0  0  0  0
106107  1  0  0  0  0
107108  2  0  0  0  0
108109  1  0  0  0  0
109110  2  0  0  0  0
110111  1  0  0  0  0
111112  1  0  0  0  0
110113  1  0  0  0  0
113114  2  0  0  0  0
114115  1  0  0  0  0
115116  1  0  0  0  0
108117  1  0  0  0  0
117118  1  0  0  0  0
106119  1  0  0  0  0
119120  2  0  0  0  0
120121  1  0  0  0  0
120122  1  0  0  0  0
122123  2  0  0  0  0
123124  1  0  0  0  0
124125  2  0  0  0  0
124126  1  0  0  0  0
126127  2  0  0  0  0
127128  1  0  0  0  0
128129  1  0  0  0  0
128130  2  0  0  0  0
130131  1  0  0  0  0
131132  2  0  0  0  0
132133  1  0  0  0  0
133134  2  0  0  0  0
134135  1  0  0  0  0
135136  3  0  0  0  0
134137  1  0  0  0  0
137138  3  0  0  0  0
 12  2  1  0  0  0  0
 34 18  1  0  0  0  0
 91 35  2  0  0  0  0
104 95  2  0  0  0  0
121105  1  0  0  0  0
133123  1  0  0  0  0
 11  5  1  0  0  0  0
 27 20  1  0  0  0  0
 90 37  2  0  0  0  0
100 96  2  0  0  0  0
114107  1  0  0  0  0
132126  1  0  0  0  0
 88 38  2  0  0  0  0
 87 40  2  0  0  0  0
 67 41  1  0  0  0  0
 77 69  1  0  0  0  0
 86 78  1  0  0  0  0
 65 43  2  0  0  0  0
 53 45  1  0  0  0  0
 62 54  1  0  0  0  0
104 63  1  0  0  0  0
  1139  1  0  0  0  0
  6140  1  0  0  0  0
  8141  1  0  0  0  0
  8142  1  0  0  0  0
  8143  1  0  0  0  0
  9144  1  0  0  0  0
 10145  1  0  0  0  0
 22146  1  0  0  0  0
 24147  1  0  0  0  0
 24148  1  0  0  0  0
 25149  1  0  0  0  0
 25150  1  0  0  0  0
 25151  1  0  0  0  0
 26152  1  0  0  0  0
 28153  1  0  0  0  0
 28154  1  0  0  0  0
 29155  1  0  0  0  0
 29156  1  0  0  0  0
 29157  1  0  0  0  0
 30158  1  0  0  0  0
 30159  1  0  0  0  0
 31160  1  0  0  0  0
 31161  1  0  0  0  0
 31162  1  0  0  0  0
 32163  1  0  0  0  0
 42164  1  0  0  0  0
 46165  1  0  0  0  0
 47166  1  0  0  0  0
 48167  1  0  0  0  0
 51168  1  0  0  0  0
 51169  1  0  0  0  0
 52170  1  0  0  0  0
 52171  1  0  0  0  0
 52172  1  0  0  0  0
 53173  1  0  0  0  0
 55174  1  0  0  0  0
 56175  1  0  0  0  0
 57176  1  0  0  0  0
 60177  1  0  0  0  0
 60178  1  0  0  0  0
 61179  1  0  0  0  0
 61180  1  0  0  0  0
 61181  1  0  0  0  0
 62182  1  0  0  0  0
 66183  1  0  0  0  0
 70184  1  0  0  0  0
 71185  1  0  0  0  0
 72186  1  0  0  0  0
 75187  1  0  0  0  0
 75188  1  0  0  0  0
 76189  1  0  0  0  0
 76190  1  0  0  0  0
 76191  1  0  0  0  0
 77192  1  0  0  0  0
 79193  1  0  0  0  0
 80194  1  0  0  0  0
 81195  1  0  0  0  0
 84196  1  0  0  0  0
 84197  1  0  0  0  0
 85198  1  0  0  0  0
 85199  1  0  0  0  0
 85200  1  0  0  0  0
 86201  1  0  0  0  0
 91202  1  0  0  0  0
 92203  1  0  0  0  0
 92204  1  0  0  0  0
 93205  1  0  0  0  0
 93206  1  0  0  0  0
 93207  1  0  0  0  0
 99208  1  0  0  0  0
102209  1  0  0  0  0
102210  1  0  0  0  0
103211  1  0  0  0  0
103212  1  0  0  0  0
103213  1  0  0  0  0
109214  1  0  0  0  0
111215  1  0  0  0  0
111216  1  0  0  0  0
112217  1  0  0  0  0
112218  1  0  0  0  0
112219  1  0  0  0  0
113220  1  0  0  0  0
115221  1  0  0  0  0
115222  1  0  0  0  0
116223  1  0  0  0  0
116224  1  0  0  0  0
116225  1  0  0  0  0
117226  1  0  0  0  0
117227  1  0  0  0  0
118228  1  0  0  0  0
118229  1  0  0  0  0
118230  1  0  0  0  0
119231  1  0  0  0  0
122232  1  0  0  0  0
127233  1  0  0  0  0
129234  1  0  0  0  0
129235  1  0  0  0  0
129236  1  0  0  0  0
130237  1  0  0  0  0
131238  1  0  0  0  0
M  END
