
  xtb     02072221363D
 energy: -420.126385482127 gnorm: 0.000505003144 xtb: 6.4.1 (unknown)
258284  0     0  0            999 V2000
   -1.4726   10.2976   -6.1029 C   0  0  0  0  0  0  0  0  0  0  0  0
   -0.3396   10.8769   -6.6407 C   0  0  0  0  0  0  0  0  0  0  0  0
    0.9450   10.1770   -6.7852 C   0  0  0  0  0  0  0  0  0  0  0  0
    1.1971    9.0193   -6.5017 O   0  0  0  0  0  0  0  0  0  0  0  0
    1.9109   11.2096   -7.2205 C   0  0  0  0  0  0  0  0  0  0  0  0
    3.2542   11.0775   -7.4891 C   0  0  0  0  0  0  0  0  0  0  0  0
    3.9749   12.1989   -7.9026 C   0  0  0  0  0  0  0  0  0  0  0  0
    5.4374   12.0798   -8.1975 C   0  0  0  0  0  0  0  0  0  0  0  0
    3.3177   13.4183   -8.0186 C   0  0  0  0  0  0  0  0  0  0  0  0
    1.9635   13.5587   -7.7426 C   0  0  0  0  0  0  0  0  0  0  0  0
    1.2496   12.4433   -7.3432 C   0  0  0  0  0  0  0  0  0  0  0  0
   -0.1590   12.2518   -7.0078 C   0  0  0  0  0  0  0  0  0  0  0  0
   -1.1597   13.1794   -7.1761 C   0  0  0  0  0  0  0  0  0  0  0  0
   -2.5256   12.9118   -6.9657 C   0  0  0  0  0  0  0  0  0  0  0  0
   -3.6573   12.7554   -6.8407 N   0  0  0  0  0  0  0  0  0  0  0  0
   -0.9497   14.4821   -7.6608 C   0  0  0  0  0  0  0  0  0  0  0  0
   -0.8396   15.5508   -8.0698 N   0  0  0  0  0  0  0  0  0  0  0  0
   -1.7652    8.9348   -6.1036 C   0  0  0  0  0  0  0  0  0  0  0  0
   -1.3227    7.8881   -6.9437 C   0  0  0  0  0  0  0  0  0  0  0  0
   -0.6599    8.0118   -8.1263 N   0  0  0  0  0  0  0  0  0  0  0  0
   -0.6494    9.1853   -8.8931 C   0  0  0  0  0  0  0  0  0  0  0  0
    0.5263    9.5769   -9.5294 C   0  0  0  0  0  0  0  0  0  0  0  0
    0.5684   10.7554  -10.2506 C   0  0  0  0  0  0  0  0  0  0  0  0
   -0.5528   11.5658  -10.3666 C   0  0  0  0  0  0  0  0  0  0  0  0
   -0.4984   12.8707  -11.0963 C   0  0  0  0  0  0  0  0  0  0  0  0
   -1.7380   11.1396   -9.7711 C   0  0  0  0  0  0  0  0  0  0  0  0
   -1.7923    9.9692   -9.0443 C   0  0  0  0  0  0  0  0  0  0  0  0
    0.0252    6.8889   -8.6490 C   0  0  0  0  0  0  0  0  0  0  0  0
    0.9762    6.2250   -7.8809 C   0  0  0  0  0  0  0  0  0  0  0  0
    1.6237    5.1221   -8.3990 C   0  0  0  0  0  0  0  0  0  0  0  0
    1.3404    4.6588   -9.6797 C   0  0  0  0  0  0  0  0  0  0  0  0
    2.0586    3.4624  -10.2213 C   0  0  0  0  0  0  0  0  0  0  0  0
    0.4001    5.3407  -10.4407 C   0  0  0  0  0  0  0  0  0  0  0  0
   -0.2524    6.4500   -9.9375 C   0  0  0  0  0  0  0  0  0  0  0  0
   -1.7806    6.6426   -6.4572 C   0  0  0  0  0  0  0  0  0  0  0  0
   -1.5769    5.0047   -6.9865 S   0  0  0  0  0  0  0  0  0  0  0  0
   -2.6164    4.4353   -5.6902 C   0  0  0  0  0  0  0  0  0  0  0  0
   -3.1381    5.4764   -4.9306 C   0  0  0  0  0  0  0  0  0  0  0  0
   -4.0682    5.3285   -3.9141 N   0  0  0  0  0  0  0  0  0  0  0  0
   -3.9777    6.1736   -2.7976 C   0  0  0  0  0  0  0  0  0  0  0  0
   -2.7313    6.4765   -2.2560 C   0  0  0  0  0  0  0  0  0  0  0  0
   -2.6330    7.3252   -1.1716 C   0  0  0  0  0  0  0  0  0  0  0  0
   -3.7658    7.8837   -0.5934 C   0  0  0  0  0  0  0  0  0  0  0  0
   -3.6546    8.8221    0.5689 C   0  0  0  0  0  0  0  0  0  0  0  0
   -5.0066    7.5695   -1.1363 C   0  0  0  0  0  0  0  0  0  0  0  0
   -5.1184    6.7308   -2.2264 C   0  0  0  0  0  0  0  0  0  0  0  0
   -5.1474    4.4494   -4.0672 C   0  0  0  0  0  0  0  0  0  0  0  0
   -5.6836    4.1898   -5.3268 C   0  0  0  0  0  0  0  0  0  0  0  0
   -6.7116    3.2821   -5.4733 C   0  0  0  0  0  0  0  0  0  0  0  0
   -7.2459    2.6169   -4.3751 C   0  0  0  0  0  0  0  0  0  0  0  0
   -8.3500    1.6207   -4.5565 C   0  0  0  0  0  0  0  0  0  0  0  0
   -6.7214    2.8962   -3.1201 C   0  0  0  0  0  0  0  0  0  0  0  0
   -5.6842    3.7942   -2.9612 C   0  0  0  0  0  0  0  0  0  0  0  0
   -2.6330    6.7226   -5.3644 C   0  0  0  0  0  0  0  0  0  0  0  0
   -2.8902    8.3518   -4.8626 S   0  0  0  0  0  0  0  0  0  0  0  0
   -2.7254    3.0384   -5.4376 C   0  0  0  0  0  0  0  0  0  0  0  0
   -2.5338    1.9857   -6.3148 C   0  0  0  0  0  0  0  0  0  0  0  0
   -2.3954    2.1137   -7.7656 C   0  0  0  0  0  0  0  0  0  0  0  0
   -3.2413    2.9403   -8.5014 C   0  0  0  0  0  0  0  0  0  0  0  0
   -3.0882    3.0401   -9.8699 C   0  0  0  0  0  0  0  0  0  0  0  0
   -2.1132    2.3031  -10.5202 C   0  0  0  0  0  0  0  0  0  0  0  0
   -1.2794    1.4529   -9.8069 C   0  0  0  0  0  0  0  0  0  0  0  0
   -0.2854    0.5719  -10.5067 C   0  0  0  0  0  0  0  0  0  0  0  0
   -0.8828   -0.8194  -10.7278 C   0  0  0  0  0  0  0  0  0  0  0  0
   -1.4243    1.3737   -8.4303 C   0  0  0  0  0  0  0  0  0  0  0  0
   -2.4977    0.7518   -5.6339 C   0  0  0  0  0  0  0  0  0  0  0  0
   -2.2749   -0.8970   -6.1724 S   0  0  0  0  0  0  0  0  0  0  0  0
   -2.3634   -1.4273   -4.5256 C   0  0  0  0  0  0  0  0  0  0  0  0
   -2.1680   -2.5970   -3.7705 C   0  0  0  0  0  0  0  0  0  0  0  0
   -1.7082   -3.8846   -4.1287 C   0  0  0  0  0  0  0  0  0  0  0  0
   -1.2942   -4.7946   -3.0927 C   0  0  0  0  0  0  0  0  0  0  0  0
   -0.7915   -5.9177   -3.5797 N   0  0  0  0  0  0  0  0  0  0  0  0
   -0.8444   -5.8471   -5.1970 S   0  0  0  0  0  0  0  0  0  0  0  0
   -1.5023   -4.3745   -5.3407 N   0  0  0  0  0  0  0  0  0  0  0  0
   -1.4842   -4.4276   -1.7424 C   0  0  0  0  0  0  0  0  0  0  0  0
   -1.1743   -5.0574   -0.5219 C   0  0  0  0  0  0  0  0  0  0  0  0
   -0.3063   -6.4378    0.0602 S   0  0  0  0  0  0  0  0  0  0  0  0
   -0.5622   -5.8901    1.7012 C   0  0  0  0  0  0  0  0  0  0  0  0
   -0.1389   -6.3763    2.9576 C   0  0  0  0  0  0  0  0  0  0  0  0
    0.6181   -7.6160    3.1280 C   0  0  0  0  0  0  0  0  0  0  0  0
    0.3358   -8.4993    4.1677 C   0  0  0  0  0  0  0  0  0  0  0  0
    1.0241   -9.6915    4.2703 C   0  0  0  0  0  0  0  0  0  0  0  0
    1.9847  -10.0282    3.3322 C   0  0  0  0  0  0  0  0  0  0  0  0
    2.2777   -9.1641    2.2859 C   0  0  0  0  0  0  0  0  0  0  0  0
    3.2564   -9.5449    1.2119 C   0  0  0  0  0  0  0  0  0  0  0  0
    2.5090  -10.0777   -0.0125 C   0  0  0  0  0  0  0  0  0  0  0  0
    1.5974   -7.9590    2.2016 C   0  0  0  0  0  0  0  0  0  0  0  0
   -0.5824   -5.5591    3.9813 C   0  0  0  0  0  0  0  0  0  0  0  0
   -1.5322   -4.1954    3.3971 S   0  0  0  0  0  0  0  0  0  0  0  0
   -1.3246   -4.7248    1.7693 C   0  0  0  0  0  0  0  0  0  0  0  0
   -1.6713   -4.2458    0.5007 C   0  0  0  0  0  0  0  0  0  0  0  0
   -2.2844   -3.1391   -0.0326 N   0  0  0  0  0  0  0  0  0  0  0  0
   -2.1239   -3.2062   -1.4060 C   0  0  0  0  0  0  0  0  0  0  0  0
   -2.3287   -2.2292   -2.4079 C   0  0  0  0  0  0  0  0  0  0  0  0
   -2.5894   -0.8700   -2.3351 N   0  0  0  0  0  0  0  0  0  0  0  0
   -2.5874   -0.3888   -3.6185 C   0  0  0  0  0  0  0  0  0  0  0  0
   -2.6641    0.8573   -4.2535 C   0  0  0  0  0  0  0  0  0  0  0  0
   -2.8725    2.4999   -3.7672 S   0  0  0  0  0  0  0  0  0  0  0  0
   -2.3665    0.0421   -1.2319 C   0  0  0  0  0  0  0  0  0  0  0  0
   -0.9482   -0.0687   -0.6806 C   0  0  0  0  0  0  0  0  0  0  0  0
   -3.3553   -2.4652    0.6691 C   0  0  0  0  0  0  0  0  0  0  0  0
   -4.3809   -3.4563    1.2179 C   0  0  0  0  0  0  0  0  0  0  0  0
   -0.2171   -5.5739    5.3599 C   0  0  0  0  0  0  0  0  0  0  0  0
   -0.9708   -5.1364    6.4412 C   0  0  0  0  0  0  0  0  0  0  0  0
   -2.3088   -4.7837    6.3935 N   0  0  0  0  0  0  0  0  0  0  0  0
   -3.2113   -5.4956    5.5938 C   0  0  0  0  0  0  0  0  0  0  0  0
   -4.2772   -4.8416    4.9809 C   0  0  0  0  0  0  0  0  0  0  0  0
   -5.1386   -5.5392    4.1561 C   0  0  0  0  0  0  0  0  0  0  0  0
   -4.9571   -6.8928    3.9057 C   0  0  0  0  0  0  0  0  0  0  0  0
   -5.8665   -7.6452    2.9833 C   0  0  0  0  0  0  0  0  0  0  0  0
   -3.9007   -7.5426    4.5356 C   0  0  0  0  0  0  0  0  0  0  0  0
   -3.0459   -6.8614    5.3764 C   0  0  0  0  0  0  0  0  0  0  0  0
   -2.7564   -3.7398    7.2186 C   0  0  0  0  0  0  0  0  0  0  0  0
   -1.9808   -2.5945    7.3791 C   0  0  0  0  0  0  0  0  0  0  0  0
   -2.4072   -1.5781    8.2104 C   0  0  0  0  0  0  0  0  0  0  0  0
   -3.6146   -1.6682    8.8916 C   0  0  0  0  0  0  0  0  0  0  0  0
   -4.0569   -0.5748    9.8147 C   0  0  0  0  0  0  0  0  0  0  0  0
   -4.3889   -2.8090    8.7138 C   0  0  0  0  0  0  0  0  0  0  0  0
   -3.9700   -3.8366    7.8933 C   0  0  0  0  0  0  0  0  0  0  0  0
   -0.1936   -5.1234    7.6223 C   0  0  0  0  0  0  0  0  0  0  0  0
   -0.4982   -4.6220    9.2386 S   0  0  0  0  0  0  0  0  0  0  0  0
    1.1580   -5.0273    9.7129 C   0  0  0  0  0  0  0  0  0  0  0  0
    1.9207   -5.4756    8.6123 C   0  0  0  0  0  0  0  0  0  0  0  0
    3.2734   -5.7136    8.5820 N   0  0  0  0  0  0  0  0  0  0  0  0
    4.2079   -4.9661    9.3149 C   0  0  0  0  0  0  0  0  0  0  0  0
    3.9470   -3.6662    9.7408 C   0  0  0  0  0  0  0  0  0  0  0  0
    4.8864   -2.9720   10.4789 C   0  0  0  0  0  0  0  0  0  0  0  0
    6.1158   -3.5353   10.7942 C   0  0  0  0  0  0  0  0  0  0  0  0
    7.1300   -2.7858   11.5998 C   0  0  0  0  0  0  0  0  0  0  0  0
    6.3906   -4.8148   10.3220 C   0  0  0  0  0  0  0  0  0  0  0  0
    5.4544   -5.5262    9.6026 C   0  0  0  0  0  0  0  0  0  0  0  0
    3.7781   -6.5291    7.5347 C   0  0  0  0  0  0  0  0  0  0  0  0
    3.2705   -7.8071    7.3278 C   0  0  0  0  0  0  0  0  0  0  0  0
    3.7810   -8.5976    6.3162 C   0  0  0  0  0  0  0  0  0  0  0  0
    4.7970   -8.1377    5.4900 C   0  0  0  0  0  0  0  0  0  0  0  0
    5.3414   -8.9867    4.3853 C   0  0  0  0  0  0  0  0  0  0  0  0
    5.2896   -6.8539    5.6987 C   0  0  0  0  0  0  0  0  0  0  0  0
    4.7906   -6.0545    6.7059 C   0  0  0  0  0  0  0  0  0  0  0  0
    1.1165   -5.5518    7.4529 C   0  0  0  0  0  0  0  0  0  0  0  0
    1.4243   -6.0111    5.8102 S   0  0  0  0  0  0  0  0  0  0  0  0
    1.4585   -4.7880   11.0567 C   0  0  0  0  0  0  0  0  0  0  0  0
    2.5261   -5.1789   11.8317 C   0  0  0  0  0  0  0  0  0  0  0  0
    2.9190   -4.3463   12.9890 C   0  0  0  0  0  0  0  0  0  0  0  0
    2.3055   -3.4176   13.4700 O   0  0  0  0  0  0  0  0  0  0  0  0
    4.2554   -4.8418   13.3831 C   0  0  0  0  0  0  0  0  0  0  0  0
    5.1202   -4.3358   14.3072 C   0  0  0  0  0  0  0  0  0  0  0  0
    6.3761   -4.9590   14.4889 C   0  0  0  0  0  0  0  0  0  0  0  0
    7.3211   -4.4574   15.4062 C   0  0  0  0  0  0  0  0  0  0  0  0
    8.5394   -5.0585   15.5647 C   0  0  0  0  0  0  0  0  0  0  0  0
    8.8376   -6.1931   14.7995 C   0  0  0  0  0  0  0  0  0  0  0  0
   10.0438   -6.7710   14.9650 F   0  0  0  0  0  0  0  0  0  0  0  0
    7.9558   -6.7230   13.8991 C   0  0  0  0  0  0  0  0  0  0  0  0
    6.6980   -6.1150   13.7210 C   0  0  0  0  0  0  0  0  0  0  0  0
    5.7712   -6.6285   12.7834 C   0  0  0  0  0  0  0  0  0  0  0  0
    4.5763   -5.9891   12.6052 C   0  0  0  0  0  0  0  0  0  0  0  0
    3.4619   -6.2542   11.6990 C   0  0  0  0  0  0  0  0  0  0  0  0
    3.2407   -7.4242   11.0034 C   0  0  0  0  0  0  0  0  0  0  0  0
    4.1960   -8.4416   10.8472 C   0  0  0  0  0  0  0  0  0  0  0  0
    4.9580   -9.2792   10.6490 N   0  0  0  0  0  0  0  0  0  0  0  0
    1.9968   -7.7323   10.4333 C   0  0  0  0  0  0  0  0  0  0  0  0
    0.9794   -8.0268    9.9856 N   0  0  0  0  0  0  0  0  0  0  0  0
   -2.1862   10.9329   -5.5919 H   0  0  0  0  0  0  0  0  0  0  0  0
    3.7348   10.1156   -7.3865 H   0  0  0  0  0  0  0  0  0  0  0  0
    5.9965   11.9788   -7.2670 H   0  0  0  0  0  0  0  0  0  0  0  0
    5.6361   11.1954   -8.7999 H   0  0  0  0  0  0  0  0  0  0  0  0
    5.8048   12.9569   -8.7238 H   0  0  0  0  0  0  0  0  0  0  0  0
    3.8772   14.2879   -8.3320 H   0  0  0  0  0  0  0  0  0  0  0  0
    1.4954   14.5254   -7.8361 H   0  0  0  0  0  0  0  0  0  0  0  0
    1.4078    8.9602   -9.4381 H   0  0  0  0  0  0  0  0  0  0  0  0
    1.4955   11.0562  -10.7165 H   0  0  0  0  0  0  0  0  0  0  0  0
   -0.5209   13.6985  -10.3867 H   0  0  0  0  0  0  0  0  0  0  0  0
    0.4124   12.9510  -11.6840 H   0  0  0  0  0  0  0  0  0  0  0  0
   -1.3575   12.9796  -11.7553 H   0  0  0  0  0  0  0  0  0  0  0  0
   -2.6297   11.7412   -9.8708 H   0  0  0  0  0  0  0  0  0  0  0  0
   -2.7210    9.6628   -8.5868 H   0  0  0  0  0  0  0  0  0  0  0  0
    1.2075    6.6012   -6.8966 H   0  0  0  0  0  0  0  0  0  0  0  0
    2.3646    4.6108   -7.8020 H   0  0  0  0  0  0  0  0  0  0  0  0
    1.6402    3.1556  -11.1757 H   0  0  0  0  0  0  0  0  0  0  0  0
    1.9865    2.6312   -9.5230 H   0  0  0  0  0  0  0  0  0  0  0  0
    3.1153    3.6888  -10.3629 H   0  0  0  0  0  0  0  0  0  0  0  0
    0.1698    4.9981  -11.4387 H   0  0  0  0  0  0  0  0  0  0  0  0
   -0.9841    6.9752  -10.5341 H   0  0  0  0  0  0  0  0  0  0  0  0
   -1.8426    6.0394   -2.6881 H   0  0  0  0  0  0  0  0  0  0  0  0
   -1.6584    7.5532   -0.7645 H   0  0  0  0  0  0  0  0  0  0  0  0
   -2.7505    8.6274    1.1411 H   0  0  0  0  0  0  0  0  0  0  0  0
   -4.5165    8.7304    1.2260 H   0  0  0  0  0  0  0  0  0  0  0  0
   -3.6129    9.8516    0.2117 H   0  0  0  0  0  0  0  0  0  0  0  0
   -5.8996    7.9984   -0.7052 H   0  0  0  0  0  0  0  0  0  0  0  0
   -6.0882    6.5083   -2.6461 H   0  0  0  0  0  0  0  0  0  0  0  0
   -5.2942    4.7108   -6.1893 H   0  0  0  0  0  0  0  0  0  0  0  0
   -7.1129    3.0895   -6.4580 H   0  0  0  0  0  0  0  0  0  0  0  0
   -7.9703    0.7237   -5.0464 H   0  0  0  0  0  0  0  0  0  0  0  0
   -9.1388    2.0324   -5.1838 H   0  0  0  0  0  0  0  0  0  0  0  0
   -8.7775    1.3341   -3.5990 H   0  0  0  0  0  0  0  0  0  0  0  0
   -7.1219    2.3949   -2.2505 H   0  0  0  0  0  0  0  0  0  0  0  0
   -5.2744    3.9866   -1.9809 H   0  0  0  0  0  0  0  0  0  0  0  0
   -4.0231    3.4885   -7.9971 H   0  0  0  0  0  0  0  0  0  0  0  0
   -3.7406    3.6882  -10.4366 H   0  0  0  0  0  0  0  0  0  0  0  0
   -2.0072    2.3803  -11.5928 H   0  0  0  0  0  0  0  0  0  0  0  0
    0.6192    0.4778   -9.9028 H   0  0  0  0  0  0  0  0  0  0  0  0
   -0.0126    1.0060  -11.4703 H   0  0  0  0  0  0  0  0  0  0  0  0
   -1.1561   -1.2685   -9.7758 H   0  0  0  0  0  0  0  0  0  0  0  0
   -1.7771   -0.7531  -11.3434 H   0  0  0  0  0  0  0  0  0  0  0  0
   -0.1650   -1.4671  -11.2258 H   0  0  0  0  0  0  0  0  0  0  0  0
   -0.7670    0.7307   -7.8634 H   0  0  0  0  0  0  0  0  0  0  0  0
   -0.4392   -8.2597    4.8785 H   0  0  0  0  0  0  0  0  0  0  0  0
    0.7966  -10.3712    5.0785 H   0  0  0  0  0  0  0  0  0  0  0  0
    2.5044  -10.9727    3.4074 H   0  0  0  0  0  0  0  0  0  0  0  0
    3.9390  -10.3130    1.5808 H   0  0  0  0  0  0  0  0  0  0  0  0
    3.8445   -8.6726    0.9173 H   0  0  0  0  0  0  0  0  0  0  0  0
    1.9203  -10.9520    0.2565 H   0  0  0  0  0  0  0  0  0  0  0  0
    3.2109  -10.3585   -0.7942 H   0  0  0  0  0  0  0  0  0  0  0  0
    1.8353   -9.3193   -0.4046 H   0  0  0  0  0  0  0  0  0  0  0  0
    1.8365   -7.2741    1.4016 H   0  0  0  0  0  0  0  0  0  0  0  0
   -2.5261    1.0475   -1.6290 H   0  0  0  0  0  0  0  0  0  0  0  0
   -3.0947   -0.1108   -0.4344 H   0  0  0  0  0  0  0  0  0  0  0  0
   -0.2243    0.1087   -1.4726 H   0  0  0  0  0  0  0  0  0  0  0  0
   -0.8007    0.6738    0.0987 H   0  0  0  0  0  0  0  0  0  0  0  0
   -0.7679   -1.0551   -0.2618 H   0  0  0  0  0  0  0  0  0  0  0  0
   -3.8622   -1.8140   -0.0410 H   0  0  0  0  0  0  0  0  0  0  0  0
   -2.9373   -1.8719    1.4895 H   0  0  0  0  0  0  0  0  0  0  0  0
   -5.2143   -2.9079    1.6489 H   0  0  0  0  0  0  0  0  0  0  0  0
   -3.9505   -4.0866    1.9906 H   0  0  0  0  0  0  0  0  0  0  0  0
   -4.7561   -4.0905    0.4174 H   0  0  0  0  0  0  0  0  0  0  0  0
   -4.4176   -3.7838    5.1467 H   0  0  0  0  0  0  0  0  0  0  0  0
   -5.9606   -5.0161    3.6886 H   0  0  0  0  0  0  0  0  0  0  0  0
   -6.6860   -7.0161    2.6452 H   0  0  0  0  0  0  0  0  0  0  0  0
   -6.2804   -8.5192    3.4841 H   0  0  0  0  0  0  0  0  0  0  0  0
   -5.3144   -7.9941    2.1108 H   0  0  0  0  0  0  0  0  0  0  0  0
   -3.7513   -8.5996    4.3695 H   0  0  0  0  0  0  0  0  0  0  0  0
   -2.2487   -7.3857    5.8817 H   0  0  0  0  0  0  0  0  0  0  0  0
   -1.0467   -2.5052    6.8432 H   0  0  0  0  0  0  0  0  0  0  0  0
   -1.7934   -0.6968    8.3282 H   0  0  0  0  0  0  0  0  0  0  0  0
   -3.7021    0.3935    9.4687 H   0  0  0  0  0  0  0  0  0  0  0  0
   -3.6495   -0.7450   10.8118 H   0  0  0  0  0  0  0  0  0  0  0  0
   -5.1410   -0.5471    9.8945 H   0  0  0  0  0  0  0  0  0  0  0  0
   -5.3306   -2.8996    9.2356 H   0  0  0  0  0  0  0  0  0  0  0  0
   -4.5759   -4.7226    7.7746 H   0  0  0  0  0  0  0  0  0  0  0  0
    3.0111   -3.1919    9.4887 H   0  0  0  0  0  0  0  0  0  0  0  0
    4.6543   -1.9720   10.8142 H   0  0  0  0  0  0  0  0  0  0  0  0
    7.8742   -2.3363   10.9416 H   0  0  0  0  0  0  0  0  0  0  0  0
    6.6581   -1.9919   12.1729 H   0  0  0  0  0  0  0  0  0  0  0  0
    7.6484   -3.4557   12.2833 H   0  0  0  0  0  0  0  0  0  0  0  0
    7.3470   -5.2671   10.5388 H   0  0  0  0  0  0  0  0  0  0  0  0
    5.6773   -6.5293    9.2699 H   0  0  0  0  0  0  0  0  0  0  0  0
    2.4791   -8.1807    7.9581 H   0  0  0  0  0  0  0  0  0  0  0  0
    3.3822   -9.5898    6.1719 H   0  0  0  0  0  0  0  0  0  0  0  0
    4.9148   -8.6683    3.4347 H   0  0  0  0  0  0  0  0  0  0  0  0
    5.0881  -10.0319    4.5395 H   0  0  0  0  0  0  0  0  0  0  0  0
    6.4230   -8.8891    4.3201 H   0  0  0  0  0  0  0  0  0  0  0  0
    6.0737   -6.4739    5.0602 H   0  0  0  0  0  0  0  0  0  0  0  0
    5.1797   -5.0577    6.8552 H   0  0  0  0  0  0  0  0  0  0  0  0
    0.7690   -4.1161   11.5611 H   0  0  0  0  0  0  0  0  0  0  0  0
    4.8558   -3.4659   14.8896 H   0  0  0  0  0  0  0  0  0  0  0  0
    7.0676   -3.5816   15.9846 H   0  0  0  0  0  0  0  0  0  0  0  0
    9.2741   -4.6851   16.2603 H   0  0  0  0  0  0  0  0  0  0  0  0
    8.2191   -7.5998   13.3281 H   0  0  0  0  0  0  0  0  0  0  0  0
    6.0403   -7.5022   12.2110 H   0  0  0  0  0  0  0  0  0  0  0  0
  1  2  2  0  0  0  0
  2  3  1  0  0  0  0
  3  4  2  0  0  0  0
  3  5  1  0  0  0  0
  5  6  2  0  0  0  0
  6  7  1  0  0  0  0
  7  8  1  0  0  0  0
  7  9  2  0  0  0  0
  9 10  1  0  0  0  0
 10 11  2  0  0  0  0
 11 12  1  0  0  0  0
 12 13  2  0  0  0  0
 13 14  1  0  0  0  0
 14 15  3  0  0  0  0
 13 16  1  0  0  0  0
 16 17  3  0  0  0  0
  1 18  1  0  0  0  0
 18 19  2  0  0  0  0
 19 20  1  0  0  0  0
 20 21  1  0  0  0  0
 21 22  2  0  0  0  0
 22 23  1  0  0  0  0
 23 24  2  0  0  0  0
 24 25  1  0  0  0  0
 24 26  1  0  0  0  0
 26 27  2  0  0  0  0
 20 28  1  0  0  0  0
 28 29  2  0  0  0  0
 29 30  1  0  0  0  0
 30 31  2  0  0  0  0
 31 32  1  0  0  0  0
 31 33  1  0  0  0  0
 33 34  2  0  0  0  0
 19 35  1  0  0  0  0
 35 36  1  0  0  0  0
 36 37  1  0  0  0  0
 37 38  2  0  0  0  0
 38 39  1  0  0  0  0
 39 40  1  0  0  0  0
 40 41  2  0  0  0  0
 41 42  1  0  0  0  0
 42 43  2  0  0  0  0
 43 44  1  0  0  0  0
 43 45  1  0  0  0  0
 45 46  2  0  0  0  0
 39 47  1  0  0  0  0
 47 48  2  0  0  0  0
 48 49  1  0  0  0  0
 49 50  2  0  0  0  0
 50 51  1  0  0  0  0
 50 52  1  0  0  0  0
 52 53  2  0  0  0  0
 38 54  1  0  0  0  0
 54 55  1  0  0  0  0
 37 56  1  0  0  0  0
 56 57  2  0  0  0  0
 57 58  1  0  0  0  0
 58 59  2  0  0  0  0
 59 60  1  0  0  0  0
 60 61  2  0  0  0  0
 61 62  1  0  0  0  0
 62 63  1  0  0  0  0
 63 64  1  0  0  0  0
 62 65  2  0  0  0  0
 57 66  1  0  0  0  0
 66 67  1  0  0  0  0
 67 68  1  0  0  0  0
 68 69  1  0  0  0  0
 69 70  1  0  0  0  0
 70 71  1  0  0  0  0
 71 72  2  0  0  0  0
 72 73  1  0  0  0  0
 73 74  1  0  0  0  0
 71 75  1  0  0  0  0
 75 76  1  0  0  0  0
 76 77  1  0  0  0  0
 77 78  1  0  0  0  0
 78 79  1  0  0  0  0
 79 80  1  0  0  0  0
 80 81  2  0  0  0  0
 81 82  1  0  0  0  0
 82 83  2  0  0  0  0
 83 84  1  0  0  0  0
 84 85  1  0  0  0  0
 85 86  1  0  0  0  0
 84 87  2  0  0  0  0
 79 88  2  0  0  0  0
 88 89  1  0  0  0  0
 89 90  1  0  0  0  0
 90 91  1  0  0  0  0
 91 92  1  0  0  0  0
 92 93  1  0  0  0  0
 93 94  1  0  0  0  0
 94 95  1  0  0  0  0
 95 96  1  0  0  0  0
 96 97  1  0  0  0  0
 97 98  1  0  0  0  0
 95 99  1  0  0  0  0
 99100  1  0  0  0  0
 92101  1  0  0  0  0
101102  1  0  0  0  0
 88103  1  0  0  0  0
103104  2  0  0  0  0
104105  1  0  0  0  0
105106  1  0  0  0  0
106107  2  0  0  0  0
107108  1  0  0  0  0
108109  2  0  0  0  0
109110  1  0  0  0  0
109111  1  0  0  0  0
111112  2  0  0  0  0
105113  1  0  0  0  0
113114  2  0  0  0  0
114115  1  0  0  0  0
115116  2  0  0  0  0
116117  1  0  0  0  0
116118  1  0  0  0  0
118119  2  0  0  0  0
104120  1  0  0  0  0
120121  1  0  0  0  0
121122  1  0  0  0  0
122123  2  0  0  0  0
123124  1  0  0  0  0
124125  1  0  0  0  0
125126  2  0  0  0  0
126127  1  0  0  0  0
127128  2  0  0  0  0
128129  1  0  0  0  0
128130  1  0  0  0  0
130131  2  0  0  0  0
124132  1  0  0  0  0
132133  2  0  0  0  0
133134  1  0  0  0  0
134135  2  0  0  0  0
135136  1  0  0  0  0
135137  1  0  0  0  0
137138  2  0  0  0  0
123139  1  0  0  0  0
139140  1  0  0  0  0
122141  1  0  0  0  0
141142  2  0  0  0  0
142143  1  0  0  0  0
143144  2  0  0  0  0
143145  1  0  0  0  0
145146  2  0  0  0  0
146147  1  0  0  0  0
147148  2  0  0  0  0
148149  1  0  0  0  0
149150  2  0  0  0  0
150151  1  0  0  0  0
150152  1  0  0  0  0
152153  2  0  0  0  0
153154  1  0  0  0  0
154155  2  0  0  0  0
155156  1  0  0  0  0
156157  2  0  0  0  0
157158  1  0  0  0  0
158159  3  0  0  0  0
157160  1  0  0  0  0
160161  3  0  0  0  0
 12  2  1  0  0  0  0
 55 18  1  0  0  0  0
 98 56  1  0  0  0  0
140103  1  0  0  0  0
156142  1  0  0  0  0
 11  5  1  0  0  0  0
 27 21  1  0  0  0  0
 34 28  1  0  0  0  0
 54 35  2  0  0  0  0
 65 58  1  0  0  0  0
 97 66  2  0  0  0  0
112106  1  0  0  0  0
119113  1  0  0  0  0
139120  2  0  0  0  0
155145  1  0  0  0  0
 46 40  1  0  0  0  0
 53 47  1  0  0  0  0
 96 68  2  0  0  0  0
131125  1  0  0  0  0
138132  1  0  0  0  0
153147  1  0  0  0  0
 94 69  2  0  0  0  0
 74 70  2  0  0  0  0
 93 75  2  0  0  0  0
 91 76  2  0  0  0  0
 90 78  2  0  0  0  0
 87 80  1  0  0  0  0
  1162  1  0  0  0  0
  6163  1  0  0  0  0
  8164  1  0  0  0  0
  8165  1  0  0  0  0
  8166  1  0  0  0  0
  9167  1  0  0  0  0
 10168  1  0  0  0  0
 22169  1  0  0  0  0
 23170  1  0  0  0  0
 25171  1  0  0  0  0
 25172  1  0  0  0  0
 25173  1  0  0  0  0
 26174  1  0  0  0  0
 27175  1  0  0  0  0
 29176  1  0  0  0  0
 30177  1  0  0  0  0
 32178  1  0  0  0  0
 32179  1  0  0  0  0
 32180  1  0  0  0  0
 33181  1  0  0  0  0
 34182  1  0  0  0  0
 41183  1  0  0  0  0
 42184  1  0  0  0  0
 44185  1  0  0  0  0
 44186  1  0  0  0  0
 44187  1  0  0  0  0
 45188  1  0  0  0  0
 46189  1  0  0  0  0
 48190  1  0  0  0  0
 49191  1  0  0  0  0
 51192  1  0  0  0  0
 51193  1  0  0  0  0
 51194  1  0  0  0  0
 52195  1  0  0  0  0
 53196  1  0  0  0  0
 59197  1  0  0  0  0
 60198  1  0  0  0  0
 61199  1  0  0  0  0
 63200  1  0  0  0  0
 63201  1  0  0  0  0
 64202  1  0  0  0  0
 64203  1  0  0  0  0
 64204  1  0  0  0  0
 65205  1  0  0  0  0
 81206  1  0  0  0  0
 82207  1  0  0  0  0
 83208  1  0  0  0  0
 85209  1  0  0  0  0
 85210  1  0  0  0  0
 86211  1  0  0  0  0
 86212  1  0  0  0  0
 86213  1  0  0  0  0
 87214  1  0  0  0  0
 99215  1  0  0  0  0
 99216  1  0  0  0  0
100217  1  0  0  0  0
100218  1  0  0  0  0
100219  1  0  0  0  0
101220  1  0  0  0  0
101221  1  0  0  0  0
102222  1  0  0  0  0
102223  1  0  0  0  0
102224  1  0  0  0  0
107225  1  0  0  0  0
108226  1  0  0  0  0
110227  1  0  0  0  0
110228  1  0  0  0  0
110229  1  0  0  0  0
111230  1  0  0  0  0
112231  1  0  0  0  0
114232  1  0  0  0  0
115233  1  0  0  0  0
117234  1  0  0  0  0
117235  1  0  0  0  0
117236  1  0  0  0  0
118237  1  0  0  0  0
119238  1  0  0  0  0
126239  1  0  0  0  0
127240  1  0  0  0  0
129241  1  0  0  0  0
129242  1  0  0  0  0
129243  1  0  0  0  0
130244  1  0  0  0  0
131245  1  0  0  0  0
133246  1  0  0  0  0
134247  1  0  0  0  0
136248  1  0  0  0  0
136249  1  0  0  0  0
136250  1  0  0  0  0
137251  1  0  0  0  0
138252  1  0  0  0  0
141253  1  0  0  0  0
146254  1  0  0  0  0
148255  1  0  0  0  0
149256  1  0  0  0  0
152257  1  0  0  0  0
154258  1  0  0  0  0
M  END
