
  xtb     02112204573D
 energy: -304.228212201821 gnorm: 0.000247458626 xtb: 6.4.1 (unknown)
182199  0     0  0            999 V2000
    0.5843    7.1008   -4.9185 C   0  0  0  0  0  0  0  0  0  0  0  0
   -0.3930    7.7908   -5.5776 C   0  0  0  0  0  0  0  0  0  0  0  0
   -0.4488    9.2698   -5.4558 C   0  0  0  0  0  0  0  0  0  0  0  0
    0.1793    9.9615   -4.6846 O   0  0  0  0  0  0  0  0  0  0  0  0
   -1.3926    9.7070   -6.5059 C   0  0  0  0  0  0  0  0  0  0  0  0
   -1.7543   10.9863   -6.8699 C   0  0  0  0  0  0  0  0  0  0  0  0
   -2.6988   11.1613   -7.8812 C   0  0  0  0  0  0  0  0  0  0  0  0
   -3.1257   12.5387   -8.2789 C   0  0  0  0  0  0  0  0  0  0  0  0
   -3.2572   10.0392   -8.4870 C   0  0  0  0  0  0  0  0  0  0  0  0
   -2.9043    8.7481   -8.1205 C   0  0  0  0  0  0  0  0  0  0  0  0
   -1.9536    8.5771   -7.1294 C   0  0  0  0  0  0  0  0  0  0  0  0
   -1.4207    7.3766   -6.4972 C   0  0  0  0  0  0  0  0  0  0  0  0
   -1.9738    6.1219   -6.5608 C   0  0  0  0  0  0  0  0  0  0  0  0
   -1.6465    5.1155   -5.6341 C   0  0  0  0  0  0  0  0  0  0  0  0
   -1.4493    4.3030   -4.8466 N   0  0  0  0  0  0  0  0  0  0  0  0
   -2.9876    5.7488   -7.4609 C   0  0  0  0  0  0  0  0  0  0  0  0
   -3.7951    5.3860   -8.1930 N   0  0  0  0  0  0  0  0  0  0  0  0
    1.1365    5.8262   -5.1714 C   0  0  0  0  0  0  0  0  0  0  0  0
    1.2742    5.0867   -6.3486 C   0  0  0  0  0  0  0  0  0  0  0  0
    0.7900    5.4963   -7.6768 C   0  0  0  0  0  0  0  0  0  0  0  0
    1.2110    6.7064   -8.2485 C   0  0  0  0  0  0  0  0  0  0  0  0
    0.6970    7.0924   -9.4763 C   0  0  0  0  0  0  0  0  0  0  0  0
   -0.2127    6.3070  -10.1694 C   0  0  0  0  0  0  0  0  0  0  0  0
   -0.7747    6.7447  -11.4911 C   0  0  0  0  0  0  0  0  0  0  0  0
   -2.1279    7.4325  -11.3106 C   0  0  0  0  0  0  0  0  0  0  0  0
   -0.5818    5.0951   -9.6133 C   0  0  0  0  0  0  0  0  0  0  0  0
   -0.0860    4.6649   -8.3890 C   0  0  0  0  0  0  0  0  0  0  0  0
   -0.5019    3.2929   -7.9274 C   0  0  0  0  0  0  0  0  0  0  0  0
    0.1788    2.2082   -8.7670 C   0  0  0  0  0  0  0  0  0  0  0  0
    2.3230    7.5284   -7.6536 C   0  0  0  0  0  0  0  0  0  0  0  0
    3.6704    6.8591   -7.9348 C   0  0  0  0  0  0  0  0  0  0  0  0
    1.9638    3.8884   -6.1424 C   0  0  0  0  0  0  0  0  0  0  0  0
    2.3404    3.6643   -4.8332 C   0  0  0  0  0  0  0  0  0  0  0  0
    1.9105    5.0114   -3.8335 S   0  0  0  0  0  0  0  0  0  0  0  0
    2.8656    2.4722   -4.2633 C   0  0  0  0  0  0  0  0  0  0  0  0
    3.3754    1.3480   -4.8949 C   0  0  0  0  0  0  0  0  0  0  0  0
    3.7281    1.2489   -6.3124 C   0  0  0  0  0  0  0  0  0  0  0  0
    4.5183    2.2220   -6.9209 C   0  0  0  0  0  0  0  0  0  0  0  0
    4.8544    2.0991   -8.2550 C   0  0  0  0  0  0  0  0  0  0  0  0
    4.4137    1.0104   -8.9892 C   0  0  0  0  0  0  0  0  0  0  0  0
    3.6335    0.0267   -8.3957 C   0  0  0  0  0  0  0  0  0  0  0  0
    3.1997   -1.1875   -9.1636 C   0  0  0  0  0  0  0  0  0  0  0  0
    4.1765   -2.3399   -8.9211 C   0  0  0  0  0  0  0  0  0  0  0  0
    3.3004    0.1548   -7.0550 C   0  0  0  0  0  0  0  0  0  0  0  0
    3.5430    0.2867   -3.9848 C   0  0  0  0  0  0  0  0  0  0  0  0
    4.0635   -1.3730   -4.1763 S   0  0  0  0  0  0  0  0  0  0  0  0
    3.7512   -1.6434   -2.4937 C   0  0  0  0  0  0  0  0  0  0  0  0
    3.7606   -2.6899   -1.5569 C   0  0  0  0  0  0  0  0  0  0  0  0
    4.1885   -4.0317   -1.6593 C   0  0  0  0  0  0  0  0  0  0  0  0
    4.1000   -4.8806   -0.5052 C   0  0  0  0  0  0  0  0  0  0  0  0
    4.5692   -6.0967   -0.7354 N   0  0  0  0  0  0  0  0  0  0  0  0
    5.0752   -6.1698   -2.2716 S   0  0  0  0  0  0  0  0  0  0  0  0
    4.7143   -4.6514   -2.7043 N   0  0  0  0  0  0  0  0  0  0  0  0
    3.4913   -4.3799    0.6666 C   0  0  0  0  0  0  0  0  0  0  0  0
    3.1073   -5.0213    1.8550 C   0  0  0  0  0  0  0  0  0  0  0  0
    3.1650   -6.5902    2.5867 S   0  0  0  0  0  0  0  0  0  0  0  0
    2.1886   -5.9863    3.9089 C   0  0  0  0  0  0  0  0  0  0  0  0
    1.6648   -6.5914    5.0671 C   0  0  0  0  0  0  0  0  0  0  0  0
    2.0051   -7.9524    5.4747 C   0  0  0  0  0  0  0  0  0  0  0  0
    2.3463   -8.2267    6.7980 C   0  0  0  0  0  0  0  0  0  0  0  0
    2.7142   -9.5066    7.1617 C   0  0  0  0  0  0  0  0  0  0  0  0
    2.7519  -10.5183    6.2170 C   0  0  0  0  0  0  0  0  0  0  0  0
    2.4181  -10.2617    4.8938 C   0  0  0  0  0  0  0  0  0  0  0  0
    2.5007  -11.3353    3.8477 C   0  0  0  0  0  0  0  0  0  0  0  0
    3.8111  -11.2155    3.0669 C   0  0  0  0  0  0  0  0  0  0  0  0
    2.0495   -8.9747    4.5340 C   0  0  0  0  0  0  0  0  0  0  0  0
    0.9120   -5.6871    5.8050 C   0  0  0  0  0  0  0  0  0  0  0  0
    0.9527   -4.0671    5.1340 S   0  0  0  0  0  0  0  0  0  0  0  0
    1.8630   -4.6335    3.7802 C   0  0  0  0  0  0  0  0  0  0  0  0
    2.3968   -4.0840    2.6088 C   0  0  0  0  0  0  0  0  0  0  0  0
    2.3606   -2.8823    1.9562 N   0  0  0  0  0  0  0  0  0  0  0  0
    3.0245   -3.0362    0.7517 C   0  0  0  0  0  0  0  0  0  0  0  0
    3.2630   -2.1549   -0.3346 C   0  0  0  0  0  0  0  0  0  0  0  0
    3.0181   -0.8026   -0.5171 N   0  0  0  0  0  0  0  0  0  0  0  0
    3.3009   -0.5047   -1.8223 C   0  0  0  0  0  0  0  0  0  0  0  0
    3.1893    0.6016   -2.6707 C   0  0  0  0  0  0  0  0  0  0  0  0
    2.6541    2.2358   -2.5351 S   0  0  0  0  0  0  0  0  0  0  0  0
    2.9377    0.2686    0.4520 C   0  0  0  0  0  0  0  0  0  0  0  0
    4.1179    0.2388    1.4193 C   0  0  0  0  0  0  0  0  0  0  0  0
    1.4190   -1.8732    2.3848 C   0  0  0  0  0  0  0  0  0  0  0  0
    0.2330   -1.7698    1.4290 C   0  0  0  0  0  0  0  0  0  0  0  0
    0.0505   -5.9012    6.9300 C   0  0  0  0  0  0  0  0  0  0  0  0
   -0.6352   -7.0879    7.1770 C   0  0  0  0  0  0  0  0  0  0  0  0
   -0.5244   -8.1347    6.3418 F   0  0  0  0  0  0  0  0  0  0  0  0
   -1.5287   -7.2145    8.2391 C   0  0  0  0  0  0  0  0  0  0  0  0
   -2.1724   -8.3828    8.3890 F   0  0  0  0  0  0  0  0  0  0  0  0
   -1.8501   -6.1597    9.0813 C   0  0  0  0  0  0  0  0  0  0  0  0
   -1.1536   -4.9378    8.8721 C   0  0  0  0  0  0  0  0  0  0  0  0
   -1.3497   -3.9085    9.7184 N   0  0  0  0  0  0  0  0  0  0  0  0
   -0.7304   -2.7817    9.4919 C   0  0  0  0  0  0  0  0  0  0  0  0
   -0.9027   -1.7339   10.2962 O   0  0  0  0  0  0  0  0  0  0  0  0
   -1.8387   -1.8711   11.3617 C   0  0  0  0  0  0  0  0  0  0  0  0
   -1.3311   -2.7548   12.4923 C   0  0  0  0  0  0  0  0  0  0  0  0
    0.1583   -2.6244    8.3767 C   0  0  0  0  0  0  0  0  0  0  0  0
    0.3913   -3.6396    7.5988 N   0  0  0  0  0  0  0  0  0  0  0  0
   -0.2327   -4.8149    7.8111 C   0  0  0  0  0  0  0  0  0  0  0  0
    0.8368   -1.3273    8.1137 C   0  0  0  0  0  0  0  0  0  0  0  0
   -2.8056   -6.2846   10.1468 C   0  0  0  0  0  0  0  0  0  0  0  0
   -3.6857   -5.3012   10.4628 C   0  0  0  0  0  0  0  0  0  0  0  0
   -4.0872   -4.2143    9.5241 C   0  0  0  0  0  0  0  0  0  0  0  0
   -3.7147   -4.0317    8.3859 O   0  0  0  0  0  0  0  0  0  0  0  0
   -5.1564   -3.4733   10.2228 C   0  0  0  0  0  0  0  0  0  0  0  0
   -5.8636   -2.3734    9.7809 C   0  0  0  0  0  0  0  0  0  0  0  0
   -6.8564   -1.8364   10.5960 C   0  0  0  0  0  0  0  0  0  0  0  0
   -7.6544   -0.6524   10.1521 C   0  0  0  0  0  0  0  0  0  0  0  0
   -7.1139   -2.4346   11.8292 C   0  0  0  0  0  0  0  0  0  0  0  0
   -6.4117   -3.5420   12.2776 C   0  0  0  0  0  0  0  0  0  0  0  0
   -5.4155   -4.0704   11.4690 C   0  0  0  0  0  0  0  0  0  0  0  0
   -4.5046   -5.1930   11.6563 C   0  0  0  0  0  0  0  0  0  0  0  0
   -4.3675   -5.9343   12.7992 C   0  0  0  0  0  0  0  0  0  0  0  0
   -5.1558   -5.7572   13.9552 C   0  0  0  0  0  0  0  0  0  0  0  0
   -5.7653   -5.6583   14.9230 N   0  0  0  0  0  0  0  0  0  0  0  0
   -3.3976   -6.9410   12.9915 C   0  0  0  0  0  0  0  0  0  0  0  0
   -2.6190   -7.7496   13.2321 N   0  0  0  0  0  0  0  0  0  0  0  0
    1.0507    7.6537   -4.1060 H   0  0  0  0  0  0  0  0  0  0  0  0
   -1.3142   11.8351   -6.3679 H   0  0  0  0  0  0  0  0  0  0  0  0
   -3.8441   12.9253   -7.5554 H   0  0  0  0  0  0  0  0  0  0  0  0
   -3.5984   12.5355   -9.2578 H   0  0  0  0  0  0  0  0  0  0  0  0
   -2.2748   13.2162   -8.2955 H   0  0  0  0  0  0  0  0  0  0  0  0
   -3.9937   10.1762   -9.2658 H   0  0  0  0  0  0  0  0  0  0  0  0
   -3.3654    7.9034   -8.6048 H   0  0  0  0  0  0  0  0  0  0  0  0
    1.0312    8.0234   -9.9131 H   0  0  0  0  0  0  0  0  0  0  0  0
   -0.9007    5.8736  -12.1376 H   0  0  0  0  0  0  0  0  0  0  0  0
   -0.0813    7.4339  -11.9775 H   0  0  0  0  0  0  0  0  0  0  0  0
   -2.0151    8.3318  -10.7087 H   0  0  0  0  0  0  0  0  0  0  0  0
   -2.5443    7.7099  -12.2764 H   0  0  0  0  0  0  0  0  0  0  0  0
   -2.8251    6.7640  -10.8103 H   0  0  0  0  0  0  0  0  0  0  0  0
   -1.2721    4.4570  -10.1460 H   0  0  0  0  0  0  0  0  0  0  0  0
   -1.5846    3.1935   -8.0434 H   0  0  0  0  0  0  0  0  0  0  0  0
   -0.2656    3.1368   -6.8757 H   0  0  0  0  0  0  0  0  0  0  0  0
    1.2629    2.2873   -8.7095 H   0  0  0  0  0  0  0  0  0  0  0  0
   -0.1075    2.2958   -9.8121 H   0  0  0  0  0  0  0  0  0  0  0  0
   -0.1116    1.2232   -8.4097 H   0  0  0  0  0  0  0  0  0  0  0  0
    2.2073    7.6560   -6.5784 H   0  0  0  0  0  0  0  0  0  0  0  0
    2.3143    8.5225   -8.1053 H   0  0  0  0  0  0  0  0  0  0  0  0
    4.4827    7.4635   -7.5380 H   0  0  0  0  0  0  0  0  0  0  0  0
    3.8164    6.7379   -9.0061 H   0  0  0  0  0  0  0  0  0  0  0  0
    3.7098    5.8753   -7.4715 H   0  0  0  0  0  0  0  0  0  0  0  0
    2.1724    3.1915   -6.9312 H   0  0  0  0  0  0  0  0  0  0  0  0
    4.8679    3.0647   -6.3426 H   0  0  0  0  0  0  0  0  0  0  0  0
    5.4655    2.8553   -8.7257 H   0  0  0  0  0  0  0  0  0  0  0  0
    4.6798    0.9233  -10.0327 H   0  0  0  0  0  0  0  0  0  0  0  0
    2.2007   -1.4899   -8.8432 H   0  0  0  0  0  0  0  0  0  0  0  0
    3.1631   -0.9602  -10.2307 H   0  0  0  0  0  0  0  0  0  0  0  0
    3.8632   -3.2254   -9.4689 H   0  0  0  0  0  0  0  0  0  0  0  0
    5.1759   -2.0634   -9.2496 H   0  0  0  0  0  0  0  0  0  0  0  0
    4.2202   -2.5824   -7.8617 H   0  0  0  0  0  0  0  0  0  0  0  0
    2.6849   -0.5977   -6.5843 H   0  0  0  0  0  0  0  0  0  0  0  0
    2.3329   -7.4323    7.5311 H   0  0  0  0  0  0  0  0  0  0  0  0
    2.9767   -9.7175    8.1881 H   0  0  0  0  0  0  0  0  0  0  0  0
    3.0407  -11.5170    6.5116 H   0  0  0  0  0  0  0  0  0  0  0  0
    2.4463  -12.3186    4.3183 H   0  0  0  0  0  0  0  0  0  0  0  0
    1.6611  -11.2397    3.1563 H   0  0  0  0  0  0  0  0  0  0  0  0
    4.6611  -11.3226    3.7373 H   0  0  0  0  0  0  0  0  0  0  0  0
    3.8711  -11.9881    2.3040 H   0  0  0  0  0  0  0  0  0  0  0  0
    3.8771  -10.2431    2.5842 H   0  0  0  0  0  0  0  0  0  0  0  0
    1.7683   -8.7686    3.5119 H   0  0  0  0  0  0  0  0  0  0  0  0
    2.9627    1.2015   -0.1167 H   0  0  0  0  0  0  0  0  0  0  0  0
    1.9838    0.2453    0.9802 H   0  0  0  0  0  0  0  0  0  0  0  0
    4.1616   -0.7031    1.9608 H   0  0  0  0  0  0  0  0  0  0  0  0
    5.0500    0.3571    0.8714 H   0  0  0  0  0  0  0  0  0  0  0  0
    4.0309    1.0526    2.1341 H   0  0  0  0  0  0  0  0  0  0  0  0
    1.9183   -0.9129    2.5145 H   0  0  0  0  0  0  0  0  0  0  0  0
    1.0604   -2.1851    3.3688 H   0  0  0  0  0  0  0  0  0  0  0  0
    0.5578   -1.5338    0.4186 H   0  0  0  0  0  0  0  0  0  0  0  0
   -0.3014   -2.7163    1.4011 H   0  0  0  0  0  0  0  0  0  0  0  0
   -0.4511   -0.9969    1.7688 H   0  0  0  0  0  0  0  0  0  0  0  0
   -1.9982   -0.8485   11.7118 H   0  0  0  0  0  0  0  0  0  0  0  0
   -2.7759   -2.2719   10.9608 H   0  0  0  0  0  0  0  0  0  0  0  0
   -1.2048   -3.7760   12.1428 H   0  0  0  0  0  0  0  0  0  0  0  0
   -0.3772   -2.3848   12.8602 H   0  0  0  0  0  0  0  0  0  0  0  0
   -2.0506   -2.7456   13.3063 H   0  0  0  0  0  0  0  0  0  0  0  0
    1.4312   -1.0379    8.9786 H   0  0  0  0  0  0  0  0  0  0  0  0
    1.4728   -1.4212    7.2388 H   0  0  0  0  0  0  0  0  0  0  0  0
    0.0929   -0.5493    7.9516 H   0  0  0  0  0  0  0  0  0  0  0  0
   -2.7894   -7.2114   10.7059 H   0  0  0  0  0  0  0  0  0  0  0  0
   -5.6380   -1.9436    8.8162 H   0  0  0  0  0  0  0  0  0  0  0  0
   -7.1513   -0.1223    9.3476 H   0  0  0  0  0  0  0  0  0  0  0  0
   -8.6281   -0.9800    9.7867 H   0  0  0  0  0  0  0  0  0  0  0  0
   -7.8244    0.0328   10.9798 H   0  0  0  0  0  0  0  0  0  0  0  0
   -7.8910   -2.0209   12.4555 H   0  0  0  0  0  0  0  0  0  0  0  0
   -6.6509   -3.9770   13.2342 H   0  0  0  0  0  0  0  0  0  0  0  0
  1  2  2  0  0  0  0
  2  3  1  0  0  0  0
  3  4  2  0  0  0  0
  3  5  1  0  0  0  0
  5  6  2  0  0  0  0
  6  7  1  0  0  0  0
  7  8  1  0  0  0  0
  7  9  2  0  0  0  0
  9 10  1  0  0  0  0
 10 11  2  0  0  0  0
 11 12  1  0  0  0  0
 12 13  2  0  0  0  0
 13 14  1  0  0  0  0
 14 15  3  0  0  0  0
 13 16  1  0  0  0  0
 16 17  3  0  0  0  0
  1 18  1  0  0  0  0
 18 19  2  0  0  0  0
 19 20  1  0  0  0  0
 20 21  2  0  0  0  0
 21 22  1  0  0  0  0
 22 23  2  0  0  0  0
 23 24  1  0  0  0  0
 24 25  1  0  0  0  0
 23 26  1  0  0  0  0
 26 27  2  0  0  0  0
 27 28  1  0  0  0  0
 28 29  1  0  0  0  0
 21 30  1  0  0  0  0
 30 31  1  0  0  0  0
 19 32  1  0  0  0  0
 32 33  2  0  0  0  0
 33 34  1  0  0  0  0
 33 35  1  0  0  0  0
 35 36  2  0  0  0  0
 36 37  1  0  0  0  0
 37 38  2  0  0  0  0
 38 39  1  0  0  0  0
 39 40  2  0  0  0  0
 40 41  1  0  0  0  0
 41 42  1  0  0  0  0
 42 43  1  0  0  0  0
 41 44  2  0  0  0  0
 36 45  1  0  0  0  0
 45 46  1  0  0  0  0
 46 47  1  0  0  0  0
 47 48  1  0  0  0  0
 48 49  1  0  0  0  0
 49 50  1  0  0  0  0
 50 51  2  0  0  0  0
 51 52  1  0  0  0  0
 52 53  1  0  0  0  0
 50 54  1  0  0  0  0
 54 55  1  0  0  0  0
 55 56  1  0  0  0  0
 56 57  1  0  0  0  0
 57 58  1  0  0  0  0
 58 59  1  0  0  0  0
 59 60  2  0  0  0  0
 60 61  1  0  0  0  0
 61 62  2  0  0  0  0
 62 63  1  0  0  0  0
 63 64  1  0  0  0  0
 64 65  1  0  0  0  0
 63 66  2  0  0  0  0
 58 67  2  0  0  0  0
 67 68  1  0  0  0  0
 68 69  1  0  0  0  0
 69 70  1  0  0  0  0
 70 71  1  0  0  0  0
 71 72  1  0  0  0  0
 72 73  1  0  0  0  0
 73 74  1  0  0  0  0
 74 75  1  0  0  0  0
 75 76  1  0  0  0  0
 76 77  1  0  0  0  0
 74 78  1  0  0  0  0
 78 79  1  0  0  0  0
 71 80  1  0  0  0  0
 80 81  1  0  0  0  0
 67 82  1  0  0  0  0
 82 83  2  0  0  0  0
 83 84  1  0  0  0  0
 83 85  1  0  0  0  0
 85 86  1  0  0  0  0
 85 87  2  0  0  0  0
 87 88  1  0  0  0  0
 88 89  2  0  0  0  0
 89 90  1  0  0  0  0
 90 91  1  0  0  0  0
 91 92  1  0  0  0  0
 92 93  1  0  0  0  0
 90 94  2  0  0  0  0
 94 95  1  0  0  0  0
 95 96  2  0  0  0  0
 94 97  1  0  0  0  0
 87 98  1  0  0  0  0
 98 99  2  0  0  0  0
 99100  1  0  0  0  0
100101  2  0  0  0  0
100102  1  0  0  0  0
102103  2  0  0  0  0
103104  1  0  0  0  0
104105  1  0  0  0  0
104106  2  0  0  0  0
106107  1  0  0  0  0
107108  2  0  0  0  0
108109  1  0  0  0  0
109110  2  0  0  0  0
110111  1  0  0  0  0
111112  3  0  0  0  0
110113  1  0  0  0  0
113114  3  0  0  0  0
 12  2  1  0  0  0  0
 34 18  1  0  0  0  0
 77 35  1  0  0  0  0
 96 82  1  0  0  0  0
109 99  1  0  0  0  0
 11  5  1  0  0  0  0
 27 20  1  0  0  0  0
 44 37  1  0  0  0  0
 76 45  2  0  0  0  0
 96 88  1  0  0  0  0
108102  1  0  0  0  0
 75 47  2  0  0  0  0
 73 48  2  0  0  0  0
 53 49  2  0  0  0  0
 72 54  2  0  0  0  0
 70 55  2  0  0  0  0
 69 57  2  0  0  0  0
 66 59  1  0  0  0  0
  1115  1  0  0  0  0
  6116  1  0  0  0  0
  8117  1  0  0  0  0
  8118  1  0  0  0  0
  8119  1  0  0  0  0
  9120  1  0  0  0  0
 10121  1  0  0  0  0
 22122  1  0  0  0  0
 24123  1  0  0  0  0
 24124  1  0  0  0  0
 25125  1  0  0  0  0
 25126  1  0  0  0  0
 25127  1  0  0  0  0
 26128  1  0  0  0  0
 28129  1  0  0  0  0
 28130  1  0  0  0  0
 29131  1  0  0  0  0
 29132  1  0  0  0  0
 29133  1  0  0  0  0
 30134  1  0  0  0  0
 30135  1  0  0  0  0
 31136  1  0  0  0  0
 31137  1  0  0  0  0
 31138  1  0  0  0  0
 32139  1  0  0  0  0
 38140  1  0  0  0  0
 39141  1  0  0  0  0
 40142  1  0  0  0  0
 42143  1  0  0  0  0
 42144  1  0  0  0  0
 43145  1  0  0  0  0
 43146  1  0  0  0  0
 43147  1  0  0  0  0
 44148  1  0  0  0  0
 60149  1  0  0  0  0
 61150  1  0  0  0  0
 62151  1  0  0  0  0
 64152  1  0  0  0  0
 64153  1  0  0  0  0
 65154  1  0  0  0  0
 65155  1  0  0  0  0
 65156  1  0  0  0  0
 66157  1  0  0  0  0
 78158  1  0  0  0  0
 78159  1  0  0  0  0
 79160  1  0  0  0  0
 79161  1  0  0  0  0
 79162  1  0  0  0  0
 80163  1  0  0  0  0
 80164  1  0  0  0  0
 81165  1  0  0  0  0
 81166  1  0  0  0  0
 81167  1  0  0  0  0
 92168  1  0  0  0  0
 92169  1  0  0  0  0
 93170  1  0  0  0  0
 93171  1  0  0  0  0
 93172  1  0  0  0  0
 97173  1  0  0  0  0
 97174  1  0  0  0  0
 97175  1  0  0  0  0
 98176  1  0  0  0  0
103177  1  0  0  0  0
105178  1  0  0  0  0
105179  1  0  0  0  0
105180  1  0  0  0  0
106181  1  0  0  0  0
107182  1  0  0  0  0
M  END
