
  xtb     02082210153D
 energy: -409.460382590767 gnorm: 0.000347898381 xtb: 6.4.1 (unknown)
255280  0     0  0            999 V2000
    2.4914    9.7470    7.5208 C   0  0  0  0  0  0  0  0  0  0  0  0
    3.1121   10.7167    6.7621 C   0  0  0  0  0  0  0  0  0  0  0  0
    2.9637   10.9189    5.3200 C   0  0  0  0  0  0  0  0  0  0  0  0
    2.3716   10.2169    4.5168 O   0  0  0  0  0  0  0  0  0  0  0  0
    3.6590   12.1849    5.0137 C   0  0  0  0  0  0  0  0  0  0  0  0
    3.8002   12.8206    3.8002 C   0  0  0  0  0  0  0  0  0  0  0  0
    4.5060   14.0229    3.7450 C   0  0  0  0  0  0  0  0  0  0  0  0
    4.6665   14.7340    2.4383 C   0  0  0  0  0  0  0  0  0  0  0  0
    5.0435   14.5423    4.9176 C   0  0  0  0  0  0  0  0  0  0  0  0
    4.9079   13.9033    6.1435 C   0  0  0  0  0  0  0  0  0  0  0  0
    4.2085   12.7097    6.1965 C   0  0  0  0  0  0  0  0  0  0  0  0
    3.9114   11.7934    7.2963 C   0  0  0  0  0  0  0  0  0  0  0  0
    4.3599   11.9370    8.5879 C   0  0  0  0  0  0  0  0  0  0  0  0
    5.0814   13.0538    9.0526 C   0  0  0  0  0  0  0  0  0  0  0  0
    5.6538   13.9419    9.5042 N   0  0  0  0  0  0  0  0  0  0  0  0
    4.2062   10.9916    9.6187 C   0  0  0  0  0  0  0  0  0  0  0  0
    4.1585   10.2631   10.5076 N   0  0  0  0  0  0  0  0  0  0  0  0
    1.7123    8.6601    7.1335 C   0  0  0  0  0  0  0  0  0  0  0  0
    1.0896    7.7760    8.0534 C   0  0  0  0  0  0  0  0  0  0  0  0
    1.0364    7.9453    9.4141 N   0  0  0  0  0  0  0  0  0  0  0  0
    1.1725    6.8191   10.2459 C   0  0  0  0  0  0  0  0  0  0  0  0
    2.1049    5.8317    9.9374 C   0  0  0  0  0  0  0  0  0  0  0  0
    2.3029    4.7726   10.7990 C   0  0  0  0  0  0  0  0  0  0  0  0
    1.5894    4.6704   11.9874 C   0  0  0  0  0  0  0  0  0  0  0  0
    1.8933    3.5801   12.9678 C   0  0  0  0  0  0  0  0  0  0  0  0
    0.6295    5.6360   12.2641 C   0  0  0  0  0  0  0  0  0  0  0  0
    0.4152    6.6965   11.4067 C   0  0  0  0  0  0  0  0  0  0  0  0
    0.8401    9.2107    9.9955 C   0  0  0  0  0  0  0  0  0  0  0  0
    0.0090   10.1440    9.3798 C   0  0  0  0  0  0  0  0  0  0  0  0
   -0.1610   11.3948    9.9385 C   0  0  0  0  0  0  0  0  0  0  0  0
    0.4714   11.7425   11.1264 C   0  0  0  0  0  0  0  0  0  0  0  0
    0.3120   13.1069   11.7229 C   0  0  0  0  0  0  0  0  0  0  0  0
    1.2732   10.7929   11.7492 C   0  0  0  0  0  0  0  0  0  0  0  0
    1.4644    9.5431   11.1958 C   0  0  0  0  0  0  0  0  0  0  0  0
    0.5188    6.6809    7.3887 C   0  0  0  0  0  0  0  0  0  0  0  0
   -0.3835    5.2908    7.9045 S   0  0  0  0  0  0  0  0  0  0  0  0
   -0.5910    4.7872    6.2284 C   0  0  0  0  0  0  0  0  0  0  0  0
    0.0795    5.6217    5.3357 C   0  0  0  0  0  0  0  0  0  0  0  0
    0.2229    5.4410    3.9654 N   0  0  0  0  0  0  0  0  0  0  0  0
    0.2378    6.6019    3.1686 C   0  0  0  0  0  0  0  0  0  0  0  0
    1.2128    6.7889    2.1952 C   0  0  0  0  0  0  0  0  0  0  0  0
    1.2515    7.9666    1.4757 C   0  0  0  0  0  0  0  0  0  0  0  0
    0.3320    8.9810    1.7083 C   0  0  0  0  0  0  0  0  0  0  0  0
    0.4221   10.2876    0.9834 C   0  0  0  0  0  0  0  0  0  0  0  0
   -0.6558    8.7731    2.6629 C   0  0  0  0  0  0  0  0  0  0  0  0
   -0.7103    7.5982    3.3839 C   0  0  0  0  0  0  0  0  0  0  0  0
    0.4891    4.1922    3.4063 C   0  0  0  0  0  0  0  0  0  0  0  0
    0.0517    3.8933    2.1148 C   0  0  0  0  0  0  0  0  0  0  0  0
    0.1696    2.6105    1.6196 C   0  0  0  0  0  0  0  0  0  0  0  0
    0.7199    1.5895    2.3848 C   0  0  0  0  0  0  0  0  0  0  0  0
    0.7480    0.1751    1.8896 C   0  0  0  0  0  0  0  0  0  0  0  0
    1.2215    1.9108    3.6411 C   0  0  0  0  0  0  0  0  0  0  0  0
    1.1247    3.1924    4.1426 C   0  0  0  0  0  0  0  0  0  0  0  0
    0.6732    6.7155    6.0084 C   0  0  0  0  0  0  0  0  0  0  0  0
    1.4960    8.1315    5.4631 S   0  0  0  0  0  0  0  0  0  0  0  0
   -1.3478    3.6172    5.9399 C   0  0  0  0  0  0  0  0  0  0  0  0
   -1.5622    2.5183    6.7537 C   0  0  0  0  0  0  0  0  0  0  0  0
   -1.2060    2.4465    8.1830 C   0  0  0  0  0  0  0  0  0  0  0  0
   -2.1572    2.8748    9.1042 C   0  0  0  0  0  0  0  0  0  0  0  0
   -1.9011    2.8087   10.4590 C   0  0  0  0  0  0  0  0  0  0  0  0
   -0.6884    2.3110   10.9022 C   0  0  0  0  0  0  0  0  0  0  0  0
    0.2585    1.8900    9.9887 C   0  0  0  0  0  0  0  0  0  0  0  0
    0.0185    1.9470    8.6223 C   0  0  0  0  0  0  0  0  0  0  0  0
    1.0563    1.4473    7.6582 C   0  0  0  0  0  0  0  0  0  0  0  0
    1.1007   -0.0814    7.6431 C   0  0  0  0  0  0  0  0  0  0  0  0
   -2.1875    1.4734    6.0529 C   0  0  0  0  0  0  0  0  0  0  0  0
   -2.5409   -0.1915    6.4588 S   0  0  0  0  0  0  0  0  0  0  0  0
   -2.9923   -0.4784    4.8082 C   0  0  0  0  0  0  0  0  0  0  0  0
   -3.3490   -1.5473    3.9647 C   0  0  0  0  0  0  0  0  0  0  0  0
   -3.6644   -2.9019    4.2116 C   0  0  0  0  0  0  0  0  0  0  0  0
   -4.0195   -3.7512    3.1048 C   0  0  0  0  0  0  0  0  0  0  0  0
   -4.3323   -4.9776    3.4909 N   0  0  0  0  0  0  0  0  0  0  0  0
   -4.1932   -5.0620    5.1025 S   0  0  0  0  0  0  0  0  0  0  0  0
   -3.7227   -3.5360    5.3716 N   0  0  0  0  0  0  0  0  0  0  0  0
   -3.9053   -3.2490    1.7887 C   0  0  0  0  0  0  0  0  0  0  0  0
   -3.9090   -3.8885    0.5364 C   0  0  0  0  0  0  0  0  0  0  0  0
   -4.1017   -5.4821   -0.1128 S   0  0  0  0  0  0  0  0  0  0  0  0
   -3.5469   -4.8938   -1.6598 C   0  0  0  0  0  0  0  0  0  0  0  0
   -3.2316   -5.5470   -2.8703 C   0  0  0  0  0  0  0  0  0  0  0  0
   -3.4398   -6.9795   -3.1205 C   0  0  0  0  0  0  0  0  0  0  0  0
   -4.1087   -7.4575   -4.2546 C   0  0  0  0  0  0  0  0  0  0  0  0
   -4.8503   -6.5526   -5.1996 C   0  0  0  0  0  0  0  0  0  0  0  0
   -6.1507   -6.0756   -4.5492 C   0  0  0  0  0  0  0  0  0  0  0  0
   -4.2013   -8.8317   -4.4359 C   0  0  0  0  0  0  0  0  0  0  0  0
   -3.6723   -9.7243   -3.5210 C   0  0  0  0  0  0  0  0  0  0  0  0
   -3.0767   -9.2457   -2.3680 C   0  0  0  0  0  0  0  0  0  0  0  0
   -2.9729   -7.8829   -2.1702 C   0  0  0  0  0  0  0  0  0  0  0  0
   -2.6675   -4.6694   -3.7712 C   0  0  0  0  0  0  0  0  0  0  0  0
   -2.6646   -3.0092   -3.1948 S   0  0  0  0  0  0  0  0  0  0  0  0
   -3.2792   -3.5252   -1.6654 C   0  0  0  0  0  0  0  0  0  0  0  0
   -3.4958   -2.9452   -0.4081 C   0  0  0  0  0  0  0  0  0  0  0  0
   -3.2799   -1.7366    0.2010 N   0  0  0  0  0  0  0  0  0  0  0  0
   -3.5339   -1.8991    1.5504 C   0  0  0  0  0  0  0  0  0  0  0  0
   -3.4100   -1.0149    2.6484 C   0  0  0  0  0  0  0  0  0  0  0  0
   -3.1841    0.3484    2.7024 N   0  0  0  0  0  0  0  0  0  0  0  0
   -2.9140    0.6644    4.0079 C   0  0  0  0  0  0  0  0  0  0  0  0
   -2.4765    1.7824    4.7223 C   0  0  0  0  0  0  0  0  0  0  0  0
   -2.0804    3.4157    4.3519 S   0  0  0  0  0  0  0  0  0  0  0  0
   -3.6541    1.3634    1.7860 C   0  0  0  0  0  0  0  0  0  0  0  0
   -4.8795    2.0886    2.3411 C   0  0  0  0  0  0  0  0  0  0  0  0
   -2.4970   -0.7170   -0.4618 C   0  0  0  0  0  0  0  0  0  0  0  0
   -3.2967    0.0281   -1.5290 C   0  0  0  0  0  0  0  0  0  0  0  0
   -1.9386   -5.0332   -4.9505 C   0  0  0  0  0  0  0  0  0  0  0  0
   -0.9237   -5.9780   -4.9966 C   0  0  0  0  0  0  0  0  0  0  0  0
   -0.3366   -6.5927   -3.9083 N   0  0  0  0  0  0  0  0  0  0  0  0
   -0.1568   -5.9171   -2.6928 C   0  0  0  0  0  0  0  0  0  0  0  0
   -0.1467   -6.6370   -1.4991 C   0  0  0  0  0  0  0  0  0  0  0  0
   -0.0874   -5.9775   -0.2888 C   0  0  0  0  0  0  0  0  0  0  0  0
   -0.0112   -4.5898   -0.2268 C   0  0  0  0  0  0  0  0  0  0  0  0
   -0.0300   -3.8832    1.0942 C   0  0  0  0  0  0  0  0  0  0  0  0
    0.0804   -3.8893   -1.4208 C   0  0  0  0  0  0  0  0  0  0  0  0
    0.0163   -4.5374   -2.6398 C   0  0  0  0  0  0  0  0  0  0  0  0
    0.3493   -7.8036   -4.1347 C   0  0  0  0  0  0  0  0  0  0  0  0
   -0.2880   -8.8539   -4.7882 C   0  0  0  0  0  0  0  0  0  0  0  0
    0.4164  -10.0025   -5.0949 C   0  0  0  0  0  0  0  0  0  0  0  0
    1.7594  -10.1303   -4.7615 C   0  0  0  0  0  0  0  0  0  0  0  0
    2.5284  -11.3632   -5.1249 C   0  0  0  0  0  0  0  0  0  0  0  0
    2.3748   -9.0903   -4.0741 C   0  0  0  0  0  0  0  0  0  0  0  0
    1.6827   -7.9386   -3.7600 C   0  0  0  0  0  0  0  0  0  0  0  0
   -0.4823   -6.1630   -6.3280 C   0  0  0  0  0  0  0  0  0  0  0  0
    0.7149   -7.1761   -7.0354 S   0  0  0  0  0  0  0  0  0  0  0  0
    0.4525   -6.4310   -8.6128 C   0  0  0  0  0  0  0  0  0  0  0  0
   -0.5319   -5.4283   -8.5587 C   0  0  0  0  0  0  0  0  0  0  0  0
   -0.9026   -4.6383   -9.6102 N   0  0  0  0  0  0  0  0  0  0  0  0
   -2.2105   -4.1237   -9.6533 C   0  0  0  0  0  0  0  0  0  0  0  0
   -2.4440   -2.8059  -10.0345 C   0  0  0  0  0  0  0  0  0  0  0  0
   -3.7346   -2.3176  -10.0750 C   0  0  0  0  0  0  0  0  0  0  0  0
   -4.8186   -3.1192   -9.7361 C   0  0  0  0  0  0  0  0  0  0  0  0
   -6.2133   -2.5743   -9.7519 C   0  0  0  0  0  0  0  0  0  0  0  0
   -4.5757   -4.4357   -9.3629 C   0  0  0  0  0  0  0  0  0  0  0  0
   -3.2913   -4.9394   -9.3259 C   0  0  0  0  0  0  0  0  0  0  0  0
    0.0235   -4.2467  -10.6002 C   0  0  0  0  0  0  0  0  0  0  0  0
   -0.3784   -4.1635  -11.9293 C   0  0  0  0  0  0  0  0  0  0  0  0
    0.5239   -3.7749  -12.8999 C   0  0  0  0  0  0  0  0  0  0  0  0
    1.8387   -3.4648  -12.5734 C   0  0  0  0  0  0  0  0  0  0  0  0
    2.8198   -3.0819  -13.6376 C   0  0  0  0  0  0  0  0  0  0  0  0
    2.2245   -3.5416  -11.2399 C   0  0  0  0  0  0  0  0  0  0  0  0
    1.3323   -3.9199  -10.2574 C   0  0  0  0  0  0  0  0  0  0  0  0
   -1.0671   -5.3150   -7.2551 C   0  0  0  0  0  0  0  0  0  0  0  0
   -2.2307   -4.2719   -6.5094 S   0  0  0  0  0  0  0  0  0  0  0  0
    1.0464   -6.9581   -9.7689 C   0  0  0  0  0  0  0  0  0  0  0  0
    2.0330   -7.9034   -9.8550 C   0  0  0  0  0  0  0  0  0  0  0  0
    2.1512   -8.7397  -11.0703 C   0  0  0  0  0  0  0  0  0  0  0  0
    1.6461   -8.5358  -12.1538 O   0  0  0  0  0  0  0  0  0  0  0  0
    2.9674   -9.9039  -10.6554 C   0  0  0  0  0  0  0  0  0  0  0  0
    3.2895  -11.0389  -11.3677 C   0  0  0  0  0  0  0  0  0  0  0  0
    4.0528  -12.0314  -10.7528 C   0  0  0  0  0  0  0  0  0  0  0  0
    4.4355  -13.2623  -11.5126 C   0  0  0  0  0  0  0  0  0  0  0  0
    4.4663  -11.8499   -9.4362 C   0  0  0  0  0  0  0  0  0  0  0  0
    4.1584  -10.7042   -8.7159 C   0  0  0  0  0  0  0  0  0  0  0  0
    3.4041   -9.7198   -9.3300 C   0  0  0  0  0  0  0  0  0  0  0  0
    2.9637   -8.4050   -8.8743 C   0  0  0  0  0  0  0  0  0  0  0  0
    3.5465   -7.6774   -7.8642 C   0  0  0  0  0  0  0  0  0  0  0  0
    3.3486   -6.2890   -7.7298 C   0  0  0  0  0  0  0  0  0  0  0  0
    3.2591   -5.1459   -7.6536 N   0  0  0  0  0  0  0  0  0  0  0  0
    4.4475   -8.2150   -6.9298 C   0  0  0  0  0  0  0  0  0  0  0  0
    5.1590   -8.6221   -6.1245 N   0  0  0  0  0  0  0  0  0  0  0  0
    2.6194    9.8375    8.5919 H   0  0  0  0  0  0  0  0  0  0  0  0
    3.3728   12.3851    2.9091 H   0  0  0  0  0  0  0  0  0  0  0  0
    5.3427   15.5796    2.5316 H   0  0  0  0  0  0  0  0  0  0  0  0
    3.7005   15.0998    2.0904 H   0  0  0  0  0  0  0  0  0  0  0  0
    5.0542   14.0543    1.6813 H   0  0  0  0  0  0  0  0  0  0  0  0
    5.5889   15.4741    4.8763 H   0  0  0  0  0  0  0  0  0  0  0  0
    5.3442   14.3429    7.0255 H   0  0  0  0  0  0  0  0  0  0  0  0
    2.6937    5.9173    9.0358 H   0  0  0  0  0  0  0  0  0  0  0  0
    3.0457    4.0264   10.5579 H   0  0  0  0  0  0  0  0  0  0  0  0
    1.0650    3.4294   13.6558 H   0  0  0  0  0  0  0  0  0  0  0  0
    2.7722    3.8505   13.5547 H   0  0  0  0  0  0  0  0  0  0  0  0
    2.1103    2.6446   12.4581 H   0  0  0  0  0  0  0  0  0  0  0  0
    0.0461    5.5640   13.1705 H   0  0  0  0  0  0  0  0  0  0  0  0
   -0.3280    7.4446   11.6392 H   0  0  0  0  0  0  0  0  0  0  0  0
   -0.4934    9.8867    8.4587 H   0  0  0  0  0  0  0  0  0  0  0  0
   -0.8022   12.1107    9.4446 H   0  0  0  0  0  0  0  0  0  0  0  0
    0.0549   13.0364   12.7784 H   0  0  0  0  0  0  0  0  0  0  0  0
    1.2489   13.6591   11.6468 H   0  0  0  0  0  0  0  0  0  0  0  0
   -0.4625   13.6708   11.2091 H   0  0  0  0  0  0  0  0  0  0  0  0
    1.7744   11.0425   12.6722 H   0  0  0  0  0  0  0  0  0  0  0  0
    2.1110    8.8286   11.6795 H   0  0  0  0  0  0  0  0  0  0  0  0
    1.9487    6.0171    2.0226 H   0  0  0  0  0  0  0  0  0  0  0  0
    2.0255    8.1075    0.7350 H   0  0  0  0  0  0  0  0  0  0  0  0
    0.9980   10.1896    0.0663 H   0  0  0  0  0  0  0  0  0  0  0  0
   -0.5677   10.6705    0.7427 H   0  0  0  0  0  0  0  0  0  0  0  0
    0.9181   11.0169    1.6242 H   0  0  0  0  0  0  0  0  0  0  0  0
   -1.3868    9.5463    2.8500 H   0  0  0  0  0  0  0  0  0  0  0  0
   -1.4782    7.4471    4.1292 H   0  0  0  0  0  0  0  0  0  0  0  0
   -0.4174    4.6649    1.5230 H   0  0  0  0  0  0  0  0  0  0  0  0
   -0.1941    2.3946    0.6241 H   0  0  0  0  0  0  0  0  0  0  0  0
    1.6743   -0.3180    2.1771 H   0  0  0  0  0  0  0  0  0  0  0  0
   -0.0782   -0.3886    2.3284 H   0  0  0  0  0  0  0  0  0  0  0  0
    0.6525    0.1397    0.8064 H   0  0  0  0  0  0  0  0  0  0  0  0
    1.6893    1.1410    4.2382 H   0  0  0  0  0  0  0  0  0  0  0  0
    1.5214    3.4258    5.1198 H   0  0  0  0  0  0  0  0  0  0  0  0
   -3.1008    3.2596    8.7450 H   0  0  0  0  0  0  0  0  0  0  0  0
   -2.6455    3.1422   11.1662 H   0  0  0  0  0  0  0  0  0  0  0  0
   -0.4856    2.2484   11.9598 H   0  0  0  0  0  0  0  0  0  0  0  0
    1.2064    1.5036   10.3350 H   0  0  0  0  0  0  0  0  0  0  0  0
    2.0362    1.8337    7.9508 H   0  0  0  0  0  0  0  0  0  0  0  0
    0.8312    1.8073    6.6537 H   0  0  0  0  0  0  0  0  0  0  0  0
    1.3278   -0.4676    8.6338 H   0  0  0  0  0  0  0  0  0  0  0  0
    0.1395   -0.4842    7.3331 H   0  0  0  0  0  0  0  0  0  0  0  0
    1.8641   -0.4316    6.9518 H   0  0  0  0  0  0  0  0  0  0  0  0
   -5.0859   -7.1016   -6.1137 H   0  0  0  0  0  0  0  0  0  0  0  0
   -4.2583   -5.6836   -5.4775 H   0  0  0  0  0  0  0  0  0  0  0  0
   -6.7067   -5.4425   -5.2370 H   0  0  0  0  0  0  0  0  0  0  0  0
   -5.9363   -5.5044   -3.6487 H   0  0  0  0  0  0  0  0  0  0  0  0
   -6.7728   -6.9247   -4.2746 H   0  0  0  0  0  0  0  0  0  0  0  0
   -4.7090   -9.2091   -5.3128 H   0  0  0  0  0  0  0  0  0  0  0  0
   -3.7472  -10.7871   -3.6971 H   0  0  0  0  0  0  0  0  0  0  0  0
   -2.6951   -9.9295   -1.6249 H   0  0  0  0  0  0  0  0  0  0  0  0
   -2.5183   -7.5014   -1.2699 H   0  0  0  0  0  0  0  0  0  0  0  0
   -2.8462    2.0826    1.6121 H   0  0  0  0  0  0  0  0  0  0  0  0
   -3.9329    0.8861    0.8517 H   0  0  0  0  0  0  0  0  0  0  0  0
   -5.6731    1.3760    2.5566 H   0  0  0  0  0  0  0  0  0  0  0  0
   -4.6349    2.6258    3.2527 H   0  0  0  0  0  0  0  0  0  0  0  0
   -5.2406    2.8040    1.6072 H   0  0  0  0  0  0  0  0  0  0  0  0
   -2.0947   -0.0363    0.2886 H   0  0  0  0  0  0  0  0  0  0  0  0
   -1.6528   -1.2165   -0.9517 H   0  0  0  0  0  0  0  0  0  0  0  0
   -4.2130    0.4527   -1.1249 H   0  0  0  0  0  0  0  0  0  0  0  0
   -2.6937    0.8310   -1.9438 H   0  0  0  0  0  0  0  0  0  0  0  0
   -3.5670   -0.6491   -2.3345 H   0  0  0  0  0  0  0  0  0  0  0  0
   -0.1957   -7.7148   -1.5351 H   0  0  0  0  0  0  0  0  0  0  0  0
   -0.1154   -6.5475    0.6285 H   0  0  0  0  0  0  0  0  0  0  0  0
    0.6676   -4.3463    1.7894 H   0  0  0  0  0  0  0  0  0  0  0  0
    0.2329   -2.8340    0.9807 H   0  0  0  0  0  0  0  0  0  0  0  0
   -1.0258   -3.9424    1.5364 H   0  0  0  0  0  0  0  0  0  0  0  0
    0.2052   -2.8153   -1.4042 H   0  0  0  0  0  0  0  0  0  0  0  0
    0.1040   -3.9711   -3.5554 H   0  0  0  0  0  0  0  0  0  0  0  0
   -1.3288   -8.7557   -5.0609 H   0  0  0  0  0  0  0  0  0  0  0  0
   -0.0832  -10.8075   -5.6143 H   0  0  0  0  0  0  0  0  0  0  0  0
    2.3621  -12.1441   -4.3821 H   0  0  0  0  0  0  0  0  0  0  0  0
    2.2100  -11.7462   -6.0926 H   0  0  0  0  0  0  0  0  0  0  0  0
    3.5938  -11.1494   -5.1595 H   0  0  0  0  0  0  0  0  0  0  0  0
    3.4185   -9.1705   -3.8094 H   0  0  0  0  0  0  0  0  0  0  0  0
    2.1764   -7.1256   -3.2481 H   0  0  0  0  0  0  0  0  0  0  0  0
   -1.6098   -2.1705  -10.2921 H   0  0  0  0  0  0  0  0  0  0  0  0
   -3.9023   -1.2918  -10.3692 H   0  0  0  0  0  0  0  0  0  0  0  0
   -6.3019   -1.7515  -10.4571 H   0  0  0  0  0  0  0  0  0  0  0  0
   -6.9293   -3.3482  -10.0186 H   0  0  0  0  0  0  0  0  0  0  0  0
   -6.4760   -2.2005   -8.7616 H   0  0  0  0  0  0  0  0  0  0  0  0
   -5.4047   -5.0787   -9.1055 H   0  0  0  0  0  0  0  0  0  0  0  0
   -3.1182   -5.9701   -9.0521 H   0  0  0  0  0  0  0  0  0  0  0  0
   -1.3952   -4.4122  -12.1963 H   0  0  0  0  0  0  0  0  0  0  0  0
    0.2030   -3.7210  -13.9298 H   0  0  0  0  0  0  0  0  0  0  0  0
    3.2473   -3.9797  -14.0851 H   0  0  0  0  0  0  0  0  0  0  0  0
    3.6331   -2.4916  -13.2225 H   0  0  0  0  0  0  0  0  0  0  0  0
    2.3345   -2.5128  -14.4275 H   0  0  0  0  0  0  0  0  0  0  0  0
    3.2383   -3.2962  -10.9603 H   0  0  0  0  0  0  0  0  0  0  0  0
    1.6545   -3.9726   -9.2283 H   0  0  0  0  0  0  0  0  0  0  0  0
    0.5886   -6.6853  -10.7139 H   0  0  0  0  0  0  0  0  0  0  0  0
    2.9523  -11.1497  -12.3876 H   0  0  0  0  0  0  0  0  0  0  0  0
    4.7073  -14.0707  -10.8385 H   0  0  0  0  0  0  0  0  0  0  0  0
    5.2935  -13.0495  -12.1512 H   0  0  0  0  0  0  0  0  0  0  0  0
    3.6190  -13.5903  -12.1520 H   0  0  0  0  0  0  0  0  0  0  0  0
    5.0487  -12.6250   -8.9590 H   0  0  0  0  0  0  0  0  0  0  0  0
    4.4941  -10.5981   -7.6969 H   0  0  0  0  0  0  0  0  0  0  0  0
  1  2  2  0  0  0  0
  2  3  1  0  0  0  0
  3  4  2  0  0  0  0
  3  5  1  0  0  0  0
  5  6  2  0  0  0  0
  6  7  1  0  0  0  0
  7  8  1  0  0  0  0
  7  9  2  0  0  0  0
  9 10  1  0  0  0  0
 10 11  2  0  0  0  0
 11 12  1  0  0  0  0
 12 13  2  0  0  0  0
 13 14  1  0  0  0  0
 14 15  3  0  0  0  0
 13 16  1  0  0  0  0
 16 17  3  0  0  0  0
  1 18  1  0  0  0  0
 18 19  2  0  0  0  0
 19 20  1  0  0  0  0
 20 21  1  0  0  0  0
 21 22  2  0  0  0  0
 22 23  1  0  0  0  0
 23 24  2  0  0  0  0
 24 25  1  0  0  0  0
 24 26  1  0  0  0  0
 26 27  2  0  0  0  0
 20 28  1  0  0  0  0
 28 29  2  0  0  0  0
 29 30  1  0  0  0  0
 30 31  2  0  0  0  0
 31 32  1  0  0  0  0
 31 33  1  0  0  0  0
 33 34  2  0  0  0  0
 19 35  1  0  0  0  0
 35 36  1  0  0  0  0
 36 37  1  0  0  0  0
 37 38  2  0  0  0  0
 38 39  1  0  0  0  0
 39 40  1  0  0  0  0
 40 41  2  0  0  0  0
 41 42  1  0  0  0  0
 42 43  2  0  0  0  0
 43 44  1  0  0  0  0
 43 45  1  0  0  0  0
 45 46  2  0  0  0  0
 39 47  1  0  0  0  0
 47 48  2  0  0  0  0
 48 49  1  0  0  0  0
 49 50  2  0  0  0  0
 50 51  1  0  0  0  0
 50 52  1  0  0  0  0
 52 53  2  0  0  0  0
 38 54  1  0  0  0  0
 54 55  1  0  0  0  0
 37 56  1  0  0  0  0
 56 57  2  0  0  0  0
 57 58  1  0  0  0  0
 58 59  2  0  0  0  0
 59 60  1  0  0  0  0
 60 61  2  0  0  0  0
 61 62  1  0  0  0  0
 62 63  2  0  0  0  0
 63 64  1  0  0  0  0
 64 65  1  0  0  0  0
 57 66  1  0  0  0  0
 66 67  1  0  0  0  0
 67 68  1  0  0  0  0
 68 69  1  0  0  0  0
 69 70  1  0  0  0  0
 70 71  1  0  0  0  0
 71 72  2  0  0  0  0
 72 73  1  0  0  0  0
 73 74  1  0  0  0  0
 71 75  1  0  0  0  0
 75 76  1  0  0  0  0
 76 77  1  0  0  0  0
 77 78  1  0  0  0  0
 78 79  1  0  0  0  0
 79 80  1  0  0  0  0
 80 81  2  0  0  0  0
 81 82  1  0  0  0  0
 82 83  1  0  0  0  0
 81 84  1  0  0  0  0
 84 85  2  0  0  0  0
 85 86  1  0  0  0  0
 86 87  2  0  0  0  0
 79 88  2  0  0  0  0
 88 89  1  0  0  0  0
 89 90  1  0  0  0  0
 90 91  1  0  0  0  0
 91 92  1  0  0  0  0
 92 93  1  0  0  0  0
 93 94  1  0  0  0  0
 94 95  1  0  0  0  0
 95 96  1  0  0  0  0
 96 97  1  0  0  0  0
 97 98  1  0  0  0  0
 95 99  1  0  0  0  0
 99100  1  0  0  0  0
 92101  1  0  0  0  0
101102  1  0  0  0  0
 88103  1  0  0  0  0
103104  2  0  0  0  0
104105  1  0  0  0  0
105106  1  0  0  0  0
106107  2  0  0  0  0
107108  1  0  0  0  0
108109  2  0  0  0  0
109110  1  0  0  0  0
109111  1  0  0  0  0
111112  2  0  0  0  0
105113  1  0  0  0  0
113114  2  0  0  0  0
114115  1  0  0  0  0
115116  2  0  0  0  0
116117  1  0  0  0  0
116118  1  0  0  0  0
118119  2  0  0  0  0
104120  1  0  0  0  0
120121  1  0  0  0  0
121122  1  0  0  0  0
122123  2  0  0  0  0
123124  1  0  0  0  0
124125  1  0  0  0  0
125126  2  0  0  0  0
126127  1  0  0  0  0
127128  2  0  0  0  0
128129  1  0  0  0  0
128130  1  0  0  0  0
130131  2  0  0  0  0
124132  1  0  0  0  0
132133  2  0  0  0  0
133134  1  0  0  0  0
134135  2  0  0  0  0
135136  1  0  0  0  0
135137  1  0  0  0  0
137138  2  0  0  0  0
123139  1  0  0  0  0
139140  1  0  0  0  0
122141  1  0  0  0  0
141142  2  0  0  0  0
142143  1  0  0  0  0
143144  2  0  0  0  0
143145  1  0  0  0  0
145146  2  0  0  0  0
146147  1  0  0  0  0
147148  1  0  0  0  0
147149  2  0  0  0  0
149150  1  0  0  0  0
150151  2  0  0  0  0
151152  1  0  0  0  0
152153  2  0  0  0  0
153154  1  0  0  0  0
154155  3  0  0  0  0
153156  1  0  0  0  0
156157  3  0  0  0  0
 12  2  1  0  0  0  0
 55 18  1  0  0  0  0
 98 56  1  0  0  0  0
140103  1  0  0  0  0
152142  1  0  0  0  0
 11  5  1  0  0  0  0
 27 21  1  0  0  0  0
 34 28  1  0  0  0  0
 54 35  2  0  0  0  0
 63 58  1  0  0  0  0
 97 66  2  0  0  0  0
112106  1  0  0  0  0
119113  1  0  0  0  0
139120  2  0  0  0  0
151145  1  0  0  0  0
 46 40  1  0  0  0  0
 53 47  1  0  0  0  0
 96 68  2  0  0  0  0
131125  1  0  0  0  0
138132  1  0  0  0  0
 94 69  2  0  0  0  0
 74 70  2  0  0  0  0
 93 75  2  0  0  0  0
 91 76  2  0  0  0  0
 90 78  2  0  0  0  0
 87 80  1  0  0  0  0
  1158  1  0  0  0  0
  6159  1  0  0  0  0
  8160  1  0  0  0  0
  8161  1  0  0  0  0
  8162  1  0  0  0  0
  9163  1  0  0  0  0
 10164  1  0  0  0  0
 22165  1  0  0  0  0
 23166  1  0  0  0  0
 25167  1  0  0  0  0
 25168  1  0  0  0  0
 25169  1  0  0  0  0
 26170  1  0  0  0  0
 27171  1  0  0  0  0
 29172  1  0  0  0  0
 30173  1  0  0  0  0
 32174  1  0  0  0  0
 32175  1  0  0  0  0
 32176  1  0  0  0  0
 33177  1  0  0  0  0
 34178  1  0  0  0  0
 41179  1  0  0  0  0
 42180  1  0  0  0  0
 44181  1  0  0  0  0
 44182  1  0  0  0  0
 44183  1  0  0  0  0
 45184  1  0  0  0  0
 46185  1  0  0  0  0
 48186  1  0  0  0  0
 49187  1  0  0  0  0
 51188  1  0  0  0  0
 51189  1  0  0  0  0
 51190  1  0  0  0  0
 52191  1  0  0  0  0
 53192  1  0  0  0  0
 59193  1  0  0  0  0
 60194  1  0  0  0  0
 61195  1  0  0  0  0
 62196  1  0  0  0  0
 64197  1  0  0  0  0
 64198  1  0  0  0  0
 65199  1  0  0  0  0
 65200  1  0  0  0  0
 65201  1  0  0  0  0
 82202  1  0  0  0  0
 82203  1  0  0  0  0
 83204  1  0  0  0  0
 83205  1  0  0  0  0
 83206  1  0  0  0  0
 84207  1  0  0  0  0
 85208  1  0  0  0  0
 86209  1  0  0  0  0
 87210  1  0  0  0  0
 99211  1  0  0  0  0
 99212  1  0  0  0  0
100213  1  0  0  0  0
100214  1  0  0  0  0
100215  1  0  0  0  0
101216  1  0  0  0  0
101217  1  0  0  0  0
102218  1  0  0  0  0
102219  1  0  0  0  0
102220  1  0  0  0  0
107221  1  0  0  0  0
108222  1  0  0  0  0
110223  1  0  0  0  0
110224  1  0  0  0  0
110225  1  0  0  0  0
111226  1  0  0  0  0
112227  1  0  0  0  0
114228  1  0  0  0  0
115229  1  0  0  0  0
117230  1  0  0  0  0
117231  1  0  0  0  0
117232  1  0  0  0  0
118233  1  0  0  0  0
119234  1  0  0  0  0
126235  1  0  0  0  0
127236  1  0  0  0  0
129237  1  0  0  0  0
129238  1  0  0  0  0
129239  1  0  0  0  0
130240  1  0  0  0  0
131241  1  0  0  0  0
133242  1  0  0  0  0
134243  1  0  0  0  0
136244  1  0  0  0  0
136245  1  0  0  0  0
136246  1  0  0  0  0
137247  1  0  0  0  0
138248  1  0  0  0  0
141249  1  0  0  0  0
146250  1  0  0  0  0
148251  1  0  0  0  0
148252  1  0  0  0  0
148253  1  0  0  0  0
149254  1  0  0  0  0
150255  1  0  0  0  0
M  END
