175

C          6.23100        6.95140        2.02470
C          5.34150        7.37810        2.96670
C          4.99980        8.82040        3.05900
O          5.60890        9.74810        2.57480
C          3.72560        8.86190        3.81010
C          2.90710        9.94030        4.07270
C          1.72800        9.73630        4.78730
C          0.80620       10.87960        5.07190
C          1.40650        8.44910        5.21280
C          2.22840        7.36040        4.96250
C          3.40150        7.56720        4.25630
C          4.47980        6.66010        3.87780
C          4.77080        5.46990        4.49520
C          6.00580        4.81130        4.33330
N          7.02780        4.29090        4.26900
C          3.92420        4.83740        5.42450
N          3.25770        4.26830        6.16680
C          6.36840        5.67870        1.43810
C          7.39650        5.29370        0.57740
C          8.52910        6.17960        0.25240
C          8.53650        6.86400       -0.96450
C          9.59650        7.70910       -1.25670
C         10.64740        7.88600       -0.37090
C         11.75820        8.84750       -0.68140
C         11.40320       10.24850       -0.17950
C         10.62040        7.19800        0.83310
C          9.57440        6.35090        1.16440
C          9.61400        5.58820        2.45780
C         10.13970        4.16990        2.23310
C          7.43030        6.70190       -1.97190
C          7.83330        5.72770       -3.08020
C          7.22230        4.01160        0.05650
C          6.05320        3.39900        0.46820
S          5.15780        4.42490        1.54510
C          5.50920        2.14590        0.08390
C          6.08130        1.12500       -0.65900
C          7.47920        1.03840       -1.09520
C          7.77190        0.86540       -2.44360
C          9.08810        0.74470       -2.84990
C         10.10990        0.77110       -1.91810
C          9.83280        0.92220       -0.56380
C         10.93870        0.86880        0.44990
C         11.24000       -0.58350        0.82590
C          8.51260        1.06180       -0.16360
C          5.14920        0.10630       -0.92460
S          5.26570       -1.40320       -1.79830
C          3.60360       -1.72030       -1.42860
C          2.62780       -2.70930       -1.65640
C          2.66690       -4.00380       -2.22350
C          1.48920       -4.83420       -2.16790
N          1.70210       -6.04050       -2.66880
S          3.23710       -6.12790       -3.17400
N          3.69620       -4.62870       -2.77230
C          0.27810       -4.28550       -1.68740
C         -1.05000       -4.75410       -1.64980
S         -1.94560       -6.19940       -1.98120
C         -3.41870       -5.35770       -1.56440
C         -4.77830       -5.75450       -1.56480
C         -5.16440       -7.14800       -1.82120
C         -4.52860       -8.15860       -1.10270
C         -4.85710       -9.47990       -1.33440
C         -5.81430       -9.80790       -2.27970
C         -6.45120       -8.81310       -3.00780
C         -7.47110       -9.14580       -4.06090
C         -6.87920       -8.98840       -5.46230
C         -6.11060       -7.48770       -2.77640
C         -5.59500       -4.71650       -1.18600
S         -4.69480       -3.25340       -0.79750
C         -3.20720       -4.03250       -1.19320
C         -1.85100       -3.68590       -1.23510
N         -1.07790       -2.57970       -0.98410
C          0.23330       -2.94440       -1.23080
C          1.43510       -2.22680       -1.06000
N          1.68330       -1.02340       -0.42680
C          2.99990       -0.71400       -0.66520
C          3.88440        0.32760       -0.37260
S          3.82450        1.82460        0.48200
C          1.01520       -0.52990        0.76180
C          1.78900       -0.89820        2.02730
C         -1.63750       -1.25010       -1.12060
C         -2.21990       -1.03540       -2.51750
C         -7.02560       -4.63400       -0.94460
C         -8.01040       -4.83270       -1.93200
N         -7.92540       -5.13080       -3.23860
N         -9.16080       -5.15980       -3.64740
C         -9.49010       -5.43680       -5.01670
C         -9.28950       -4.19170       -5.87440
N        -10.08070       -4.89330       -2.76410
C         -9.39740       -4.66880       -1.63390
C         -9.84350       -4.25380       -0.35960
C         -8.84690       -4.07360        0.59050
C         -7.49490       -4.24910        0.30270
C        -11.24440       -4.11480       -0.09230
C        -11.87160       -3.25980        0.76320
C        -13.28630       -3.61350        1.06340
O        -13.92040       -4.39720        0.38780
N        -13.82490       -3.06280        2.20520
C        -15.16710       -3.48860        2.58970
C        -16.22640       -2.60390        1.94560
C        -13.21960       -2.09290        2.99370
O        -13.72750       -1.71530        4.02640
C        -11.97990       -1.53330        2.43850
C        -11.33380       -2.07080        1.36450
C        -10.17030       -1.34140        0.76610
C        -11.49230       -0.36230        3.05580
N        -11.07050        0.58760        3.54100
H          6.85970        7.72390        1.59030
H          3.18670       10.92470        3.72820
H          0.27930       10.73080        6.01150
H          1.35360       11.81780        5.11450
H          0.06210       10.95960        4.27850
H          0.48700        8.29450        5.75870
H          1.94500        6.37780        5.30480
H          9.59570        8.24570       -2.19530
H         11.92750        8.88320       -1.75960
H         12.68090        8.51580       -0.20100
H         10.49120       10.60100       -0.65600
H         11.24120       10.23460        0.89590
H         12.20540       10.94830       -0.40210
H         11.43190        7.32770        1.53550
H          8.62080        5.52490        2.90400
H         10.26710        6.10510        3.16310
H         11.14380        4.19620        1.81390
H         10.16310        3.63050        3.17650
H          9.49160        3.63510        1.54290
H          7.20980        7.67410       -2.41900
H          6.52180        6.34190       -1.48570
H          8.03320        4.74040       -2.67050
H          8.73290        6.07620       -3.58220
H          7.03670        5.64050       -3.81560
H          7.91830        3.54700       -0.61750
H          6.97030        0.83990       -3.16640
H          9.31600        0.62320       -3.89850
H         11.13560        0.66870       -2.24160
H         10.65100        1.41930        1.34660
H         11.83940        1.32910        0.03860
H         12.04300       -0.62660        1.55780
H         11.53900       -1.15040       -0.05300
H         10.35640       -1.05390        1.25130
H          8.27660        1.17920        0.88490
H         -3.78920       -7.90520       -0.35770
H         -4.36400      -10.26040       -0.77390
H         -6.06630      -10.84430       -2.45320
H         -8.33280       -8.48130       -3.95430
H         -7.81880      -10.17190       -3.92840
H         -7.62490       -9.21800       -6.22060
H         -6.52510       -7.97120       -5.61470
H         -6.03600       -9.66290       -5.59110
H         -6.57820       -6.70330       -3.35050
H          0.02510       -0.97810        0.82370
H          0.92330        0.55850        0.68700
H          1.23590       -0.56410        2.90050
H          2.76720       -0.42650        2.04020
H          1.91970       -1.97670        2.08640
H         -0.85370       -0.51280       -0.95930
H         -2.42170       -1.12280       -0.36740
H         -1.45290       -1.19800       -3.27170
H         -2.58700       -0.01660       -2.60510
H         -3.04460       -1.71690       -2.70590
H        -10.53270       -5.75810       -5.03670
H         -8.83990       -6.24300       -5.36400
H         -9.93790       -3.38860       -5.53250
H         -8.25570       -3.86010       -5.81520
H         -9.52760       -4.41610       -6.91000
H         -9.13200       -3.82490        1.60130
H         -6.77650       -4.08940        1.09360
H        -11.88760       -4.82110       -0.60720
H        -15.28660       -4.52350        2.26410
H        -15.22620       -3.42500        3.67770
H        -17.21480       -2.93880        2.24690
H        -16.09640       -1.57090        2.26070
H        -16.15280       -2.65960        0.86180
H         -9.28180       -1.43600        1.38850
H        -10.40450       -0.27850        0.70990
H         -9.94100       -1.70970       -0.22910
