255

C          2.49140        9.74700        7.52080
C          3.11210       10.71670        6.76210
C          2.96370       10.91890        5.32000
O          2.37160       10.21690        4.51680
C          3.65900       12.18490        5.01370
C          3.80020       12.82060        3.80020
C          4.50600       14.02290        3.74500
C          4.66650       14.73400        2.43830
C          5.04350       14.54230        4.91760
C          4.90790       13.90330        6.14350
C          4.20850       12.70970        6.19650
C          3.91140       11.79340        7.29630
C          4.35990       11.93700        8.58790
C          5.08140       13.05380        9.05260
N          5.65380       13.94190        9.50420
C          4.20620       10.99160        9.61870
N          4.15850       10.26310       10.50760
C          1.71230        8.66010        7.13350
C          1.08960        7.77600        8.05340
N          1.03640        7.94530        9.41410
C          1.17250        6.81910       10.24590
C          2.10490        5.83170        9.93740
C          2.30290        4.77260       10.79900
C          1.58940        4.67040       11.98740
C          1.89330        3.58010       12.96780
C          0.62950        5.63600       12.26410
C          0.41520        6.69650       11.40670
C          0.84010        9.21070        9.99550
C          0.00900       10.14400        9.37980
C         -0.16100       11.39480        9.93850
C          0.47140       11.74250       11.12640
C          0.31200       13.10690       11.72290
C          1.27320       10.79290       11.74920
C          1.46440        9.54310       11.19580
C          0.51880        6.68090        7.38870
S         -0.38350        5.29080        7.90450
C         -0.59100        4.78720        6.22840
C          0.07950        5.62170        5.33570
N          0.22290        5.44100        3.96540
C          0.23780        6.60190        3.16860
C          1.21280        6.78890        2.19520
C          1.25150        7.96660        1.47570
C          0.33200        8.98100        1.70830
C          0.42210       10.28760        0.98340
C         -0.65580        8.77310        2.66290
C         -0.71030        7.59820        3.38390
C          0.48910        4.19220        3.40630
C          0.05170        3.89330        2.11480
C          0.16960        2.61050        1.61960
C          0.71990        1.58950        2.38480
C          0.74800        0.17510        1.88960
C          1.22150        1.91080        3.64110
C          1.12470        3.19240        4.14260
C          0.67320        6.71550        6.00840
S          1.49600        8.13150        5.46310
C         -1.34780        3.61720        5.93990
C         -1.56220        2.51830        6.75370
C         -1.20600        2.44650        8.18300
C         -2.15720        2.87480        9.10420
C         -1.90110        2.80870       10.45900
C         -0.68840        2.31100       10.90220
C          0.25850        1.89000        9.98870
C          0.01850        1.94700        8.62230
C          1.05630        1.44730        7.65820
C          1.10070       -0.08140        7.64310
C         -2.18750        1.47340        6.05290
S         -2.54090       -0.19150        6.45880
C         -2.99230       -0.47840        4.80820
C         -3.34900       -1.54730        3.96470
C         -3.66440       -2.90190        4.21160
C         -4.01950       -3.75120        3.10480
N         -4.33230       -4.97760        3.49090
S         -4.19320       -5.06200        5.10250
N         -3.72270       -3.53600        5.37160
C         -3.90530       -3.24900        1.78870
C         -3.90900       -3.88850        0.53640
S         -4.10170       -5.48210       -0.11280
C         -3.54690       -4.89380       -1.65980
C         -3.23160       -5.54700       -2.87030
C         -3.43980       -6.97950       -3.12050
C         -4.10870       -7.45750       -4.25460
C         -4.85030       -6.55260       -5.19960
C         -6.15070       -6.07560       -4.54920
C         -4.20130       -8.83170       -4.43590
C         -3.67230       -9.72430       -3.52100
C         -3.07670       -9.24570       -2.36800
C         -2.97290       -7.88290       -2.17020
C         -2.66750       -4.66940       -3.77120
S         -2.66460       -3.00920       -3.19480
C         -3.27920       -3.52520       -1.66540
C         -3.49580       -2.94520       -0.40810
N         -3.27990       -1.73660        0.20100
C         -3.53390       -1.89910        1.55040
C         -3.41000       -1.01490        2.64840
N         -3.18410        0.34840        2.70240
C         -2.91400        0.66440        4.00790
C         -2.47650        1.78240        4.72230
S         -2.08040        3.41570        4.35190
C         -3.65410        1.36340        1.78600
C         -4.87950        2.08860        2.34110
C         -2.49700       -0.71700       -0.46180
C         -3.29670        0.02810       -1.52900
C         -1.93860       -5.03320       -4.95050
C         -0.92370       -5.97800       -4.99660
N         -0.33660       -6.59270       -3.90830
C         -0.15680       -5.91710       -2.69280
C         -0.14670       -6.63700       -1.49910
C         -0.08740       -5.97750       -0.28880
C         -0.01120       -4.58980       -0.22680
C         -0.03000       -3.88320        1.09420
C          0.08040       -3.88930       -1.42080
C          0.01630       -4.53740       -2.63980
C          0.34930       -7.80360       -4.13470
C         -0.28800       -8.85390       -4.78820
C          0.41640      -10.00250       -5.09490
C          1.75940      -10.13030       -4.76150
C          2.52840      -11.36320       -5.12490
C          2.37480       -9.09030       -4.07410
C          1.68270       -7.93860       -3.76000
C         -0.48230       -6.16300       -6.32800
S          0.71490       -7.17610       -7.03540
C          0.45250       -6.43100       -8.61280
C         -0.53190       -5.42830       -8.55870
N         -0.90260       -4.63830       -9.61020
C         -2.21050       -4.12370       -9.65330
C         -2.44400       -2.80590      -10.03450
C         -3.73460       -2.31760      -10.07500
C         -4.81860       -3.11920       -9.73610
C         -6.21330       -2.57430       -9.75190
C         -4.57570       -4.43570       -9.36290
C         -3.29130       -4.93940       -9.32590
C          0.02350       -4.24670      -10.60020
C         -0.37840       -4.16350      -11.92930
C          0.52390       -3.77490      -12.89990
C          1.83870       -3.46480      -12.57340
C          2.81980       -3.08190      -13.63760
C          2.22450       -3.54160      -11.23990
C          1.33230       -3.91990      -10.25740
C         -1.06710       -5.31500       -7.25510
S         -2.23070       -4.27190       -6.50940
C          1.04640       -6.95810       -9.76890
C          2.03300       -7.90340       -9.85500
C          2.15120       -8.73970      -11.07030
O          1.64610       -8.53580      -12.15380
C          2.96740       -9.90390      -10.65540
C          3.28950      -11.03890      -11.36770
C          4.05280      -12.03140      -10.75280
C          4.43550      -13.26230      -11.51260
C          4.46630      -11.84990       -9.43620
C          4.15840      -10.70420       -8.71590
C          3.40410       -9.71980       -9.33000
C          2.96370       -8.40500       -8.87430
C          3.54650       -7.67740       -7.86420
C          3.34860       -6.28900       -7.72980
N          3.25910       -5.14590       -7.65360
C          4.44750       -8.21500       -6.92980
N          5.15900       -8.62210       -6.12450
H          2.61940        9.83750        8.59190
H          3.37280       12.38510        2.90910
H          5.34270       15.57960        2.53160
H          3.70050       15.09980        2.09040
H          5.05420       14.05430        1.68130
H          5.58890       15.47410        4.87630
H          5.34420       14.34290        7.02550
H          2.69370        5.91730        9.03580
H          3.04570        4.02640       10.55790
H          1.06500        3.42940       13.65580
H          2.77220        3.85050       13.55470
H          2.11030        2.64460       12.45810
H          0.04610        5.56400       13.17050
H         -0.32800        7.44460       11.63920
H         -0.49340        9.88670        8.45870
H         -0.80220       12.11070        9.44460
H          0.05490       13.03640       12.77840
H          1.24890       13.65910       11.64680
H         -0.46250       13.67080       11.20910
H          1.77440       11.04250       12.67220
H          2.11100        8.82860       11.67950
H          1.94870        6.01710        2.02260
H          2.02550        8.10750        0.73500
H          0.99800       10.18960        0.06630
H         -0.56770       10.67050        0.74270
H          0.91810       11.01690        1.62420
H         -1.38680        9.54630        2.85000
H         -1.47820        7.44710        4.12920
H         -0.41740        4.66490        1.52300
H         -0.19410        2.39460        0.62410
H          1.67430       -0.31800        2.17710
H         -0.07820       -0.38860        2.32840
H          0.65250        0.13970        0.80640
H          1.68930        1.14100        4.23820
H          1.52140        3.42580        5.11980
H         -3.10080        3.25960        8.74500
H         -2.64550        3.14220       11.16620
H         -0.48560        2.24840       11.95980
H          1.20640        1.50360       10.33500
H          2.03620        1.83370        7.95080
H          0.83120        1.80730        6.65370
H          1.32780       -0.46760        8.63380
H          0.13950       -0.48420        7.33310
H          1.86410       -0.43160        6.95180
H         -5.08590       -7.10160       -6.11370
H         -4.25830       -5.68360       -5.47750
H         -6.70670       -5.44250       -5.23700
H         -5.93630       -5.50440       -3.64870
H         -6.77280       -6.92470       -4.27460
H         -4.70900       -9.20910       -5.31280
H         -3.74720      -10.78710       -3.69710
H         -2.69510       -9.92950       -1.62490
H         -2.51830       -7.50140       -1.26990
H         -2.84620        2.08260        1.61210
H         -3.93290        0.88610        0.85170
H         -5.67310        1.37600        2.55660
H         -4.63490        2.62580        3.25270
H         -5.24060        2.80400        1.60720
H         -2.09470       -0.03630        0.28860
H         -1.65280       -1.21650       -0.95170
H         -4.21300        0.45270       -1.12490
H         -2.69370        0.83100       -1.94380
H         -3.56700       -0.64910       -2.33450
H         -0.19570       -7.71480       -1.53510
H         -0.11540       -6.54750        0.62850
H          0.66760       -4.34630        1.78940
H          0.23290       -2.83400        0.98070
H         -1.02580       -3.94240        1.53640
H          0.20520       -2.81530       -1.40420
H          0.10400       -3.97110       -3.55540
H         -1.32880       -8.75570       -5.06090
H         -0.08320      -10.80750       -5.61430
H          2.36210      -12.14410       -4.38210
H          2.21000      -11.74620       -6.09260
H          3.59380      -11.14940       -5.15950
H          3.41850       -9.17050       -3.80940
H          2.17640       -7.12560       -3.24810
H         -1.60980       -2.17050      -10.29210
H         -3.90230       -1.29180      -10.36920
H         -6.30190       -1.75150      -10.45710
H         -6.92930       -3.34820      -10.01860
H         -6.47600       -2.20050       -8.76160
H         -5.40470       -5.07870       -9.10550
H         -3.11820       -5.97010       -9.05210
H         -1.39520       -4.41220      -12.19630
H          0.20300       -3.72100      -13.92980
H          3.24730       -3.97970      -14.08510
H          3.63310       -2.49160      -13.22250
H          2.33450       -2.51280      -14.42750
H          3.23830       -3.29620      -10.96030
H          1.65450       -3.97260       -9.22830
H          0.58860       -6.68530      -10.71390
H          2.95230      -11.14970      -12.38760
H          4.70730      -14.07070      -10.83850
H          5.29350      -13.04950      -12.15120
H          3.61900      -13.59030      -12.15200
H          5.04870      -12.62500       -8.95900
H          4.49410      -10.59810       -7.69690
