161

C         -9.45350       -3.33780        7.51960
C        -10.78520       -3.56000        7.52280
C        -11.71800       -3.08450        6.45170
O        -11.43080       -2.47120        5.44960
C        -13.06750       -3.41060        6.94140
C        -14.27900       -3.18590        6.31960
C        -15.45180       -3.56780        6.96620
C        -16.78050       -3.37420        6.31030
C        -15.36650       -4.15590        8.22830
C        -14.15500       -4.38050        8.86170
C        -12.98550       -4.00810        8.21310
C        -11.58730       -4.12740        8.59990
C        -11.11130       -4.72740        9.73240
C        -11.93160       -5.27380       10.74360
N        -12.54280       -5.72550       11.60330
C         -9.74530       -4.90570       10.04260
N         -8.65830       -5.10270       10.35350
C         -8.71410       -2.88650        6.35810
C         -7.73530       -1.89530        6.47450
F         -7.51000       -1.34980        7.67750
C         -7.03940       -1.42800        5.37500
F         -6.15260       -0.43400        5.54090
C         -7.26280       -1.94190        4.09070
C         -8.18380       -2.99760        3.99240
F         -8.34300       -3.62540        2.81990
C         -8.89660       -3.44560        5.08660
F         -9.71100       -4.49670        4.94240
C         -6.56320       -1.44060        2.93130
C         -7.07690       -1.23290        1.66310
C         -8.49380       -1.31660        1.31330
C         -9.47140       -0.83820        2.18320
C        -10.80540       -0.93040        1.83840
C        -11.17560       -1.48770        0.62690
C        -10.21350       -1.95210       -0.26100
C        -10.60980       -2.59600       -1.55810
C        -10.78720       -4.10350       -1.36650
C         -8.87640       -1.86250        0.09260
C         -6.06200       -0.83580        0.76970
S         -6.06300       -0.43170       -0.93000
C         -4.36010       -0.13860       -0.84240
C         -3.29910        0.24630       -1.68370
C         -3.23650        0.70280       -3.01990
C         -1.97420        1.15090       -3.55220
N         -2.08660        1.61530       -4.78630
S         -3.63370        1.49520       -5.24570
N         -4.22650        0.84570       -3.88650
C         -0.80140        0.98440       -2.78060
C          0.56820        1.14950       -3.06080
S          1.58630        1.72190       -4.33970
C          2.98570        1.25850       -3.40170
C          4.37230        1.33210       -3.64420
C          4.99430        1.92600       -4.82970
C          4.53500        1.60420       -6.10300
C          5.15000        2.15440       -7.21090
C          6.21220        3.02910       -7.05880
C          6.66670        3.38240       -5.79360
C          7.80140        4.35310       -5.62310
C          8.99790        3.73530       -4.89910
C          6.04720        2.82350       -4.68560
C          5.08950        0.80320       -2.58910
S          4.07980        0.28450       -1.26160
C          2.66390        0.69980       -2.16290
C          1.27750        0.64320       -1.96700
N          0.40720        0.19680       -1.00390
C         -0.87130        0.42430       -1.47960
C         -2.13120        0.21610       -0.88000
N         -2.47020       -0.10240        0.42240
C         -3.82480       -0.33280        0.43560
C         -4.79960       -0.72580        1.35890
S         -4.84450       -1.10860        3.03920
C         -1.79050        0.35990        1.61670
C         -2.45430        1.61490        2.18280
C          0.81030       -0.84800       -0.08480
C          1.26310       -2.10040       -0.83530
C          6.52720        0.67160       -2.51280
C          7.28390        0.18920       -3.57750
O          6.72220       -0.41020       -4.67240
C          5.74120       -1.42410       -4.49490
C          6.11570       -2.45720       -3.44010
C          8.69750        0.35570       -3.57990
O          9.54250        0.06580       -4.58520
C          9.21400       -0.66530       -5.75930
C          8.62800        0.21360       -6.85650
C          9.33530        0.93450       -2.47150
C          8.59060        1.21480       -1.29610
C          7.17790        1.10540       -1.32540
N          6.44400        1.43790       -0.25240
C          7.07710        1.81420        0.82850
C          8.48020        1.81090        0.89220
N          9.21670        1.52000       -0.14760
C         10.75680        1.12140       -2.48650
C         11.40010        2.15130       -1.88050
C         10.75120        3.41590       -1.44060
O          9.59880        3.76000       -1.59840
C         11.84260        4.24750       -0.89760
C         11.76480        5.50690       -0.33910
C         12.93280        6.12750        0.09580
C         12.89120        7.48140        0.72990
C         14.14780        5.45970       -0.05320
C         14.23520        4.19850       -0.62040
C         13.06990        3.57950       -1.05060
C         12.83200        2.28250       -1.67270
C         13.78930        1.34520       -1.95730
C         15.16880        1.52580       -1.72360
N         16.30310        1.61090       -1.56710
C         13.54960        0.07360       -2.51950
N         13.45130       -0.98230       -2.96070
H         -8.87070       -3.46450        8.42280
H        -14.30280       -2.72580        5.34310
H        -16.74750       -2.55290        5.59920
H        -17.05660       -4.27900        5.76750
H        -17.55480       -3.17870        7.04820
H        -16.27800       -4.44600        8.73030
H        -14.13740       -4.83270        9.83970
H         -9.18680       -0.38160        3.11990
H        -11.55770       -0.56780        2.52230
H        -12.22140       -1.55890        0.36450
H        -11.54660       -2.16430       -1.91590
H         -9.83950       -2.41550       -2.31030
H         -9.86000       -4.55070       -1.01590
H        -11.07080       -4.57640       -2.30390
H        -11.56020       -4.30230       -0.62770
H         -8.12140       -2.24210       -0.57990
H          3.71080        0.91650       -6.22030
H          4.80090        1.89850       -8.20050
H          6.68860        3.44920       -7.93310
H          8.11770        4.71080       -6.60550
H          7.45140        5.21570       -5.04960
H          9.83350        4.43210       -4.89850
H          9.31460        2.81890       -5.39120
H          8.75440        3.50420       -3.86550
H          6.37660        3.10040       -3.69450
H         -1.80940       -0.43910        2.36510
H         -0.75940        0.60260        1.36500
H         -1.88320        1.97370        3.03440
H         -2.48400        2.39660        1.42650
H         -3.46830        1.40860        2.51260
H          1.63000       -0.46990        0.53400
H         -0.03330       -1.11490        0.54820
H          1.50530       -2.88310       -0.12190
H          0.46700       -2.45440       -1.48690
H          2.14410       -1.89620       -1.43670
H          4.76360       -0.98870       -4.26330
H          5.68380       -1.88960       -5.48280
H          6.11500       -2.01570       -2.44550
H          5.39240       -3.26740       -3.46010
H          7.10490       -2.86510       -3.63750
H          8.54930       -1.50050       -5.53300
H         10.18170       -1.06420       -6.08180
H          7.67840        0.63730       -6.54250
H          8.46890       -0.38590       -7.74830
H          9.31600        1.02080       -7.09520
H          6.46710        2.09510        1.67560
H          9.00660        2.03610        1.80990
H         11.32130        0.37300       -3.02640
H         10.80480        5.99240       -0.24390
H         13.73260        8.08790        0.40180
H         12.95400        7.38470        1.81430
H         11.96530        7.99640        0.48780
H         15.05300        5.94480        0.28260
H         15.19720        3.72350       -0.72220
