
  xtb     02112208493D
 energy: -249.040177547449 gnorm: 0.000715169204 xtb: 6.4.1 (unknown)
131145  0     0  0            999 V2000
   -6.6791   -7.1970   -3.9188 C   0  0  0  0  0  0  0  0  0  0  0  0
   -6.3942   -8.3476   -3.2770 C   0  0  0  0  0  0  0  0  0  0  0  0
   -5.2241   -8.5245   -2.3569 C   0  0  0  0  0  0  0  0  0  0  0  0
   -4.4265   -7.6814   -2.0186 O   0  0  0  0  0  0  0  0  0  0  0  0
   -5.1881   -9.9631   -2.0504 C   0  0  0  0  0  0  0  0  0  0  0  0
   -4.2898  -10.6427   -1.2515 C   0  0  0  0  0  0  0  0  0  0  0  0
   -4.4303  -12.0188   -1.0972 C   0  0  0  0  0  0  0  0  0  0  0  0
   -3.4808  -12.7980   -0.2462 C   0  0  0  0  0  0  0  0  0  0  0  0
   -5.4687  -12.6713   -1.7644 C   0  0  0  0  0  0  0  0  0  0  0  0
   -6.3713  -11.9983   -2.5706 C   0  0  0  0  0  0  0  0  0  0  0  0
   -6.2368  -10.6238   -2.7170 C   0  0  0  0  0  0  0  0  0  0  0  0
   -7.0194   -9.6525   -3.4665 C   0  0  0  0  0  0  0  0  0  0  0  0
   -8.1705   -9.9016   -4.1595 C   0  0  0  0  0  0  0  0  0  0  0  0
   -8.7516  -11.1818   -4.2951 C   0  0  0  0  0  0  0  0  0  0  0  0
   -9.2679  -12.1951   -4.4459 N   0  0  0  0  0  0  0  0  0  0  0  0
   -8.9487   -8.9198   -4.8117 C   0  0  0  0  0  0  0  0  0  0  0  0
   -9.6374   -8.1729   -5.3451 N   0  0  0  0  0  0  0  0  0  0  0  0
   -6.0747   -5.9182   -3.5867 C   0  0  0  0  0  0  0  0  0  0  0  0
   -5.5693   -5.0853   -4.5885 C   0  0  0  0  0  0  0  0  0  0  0  0
   -5.6143   -5.5084   -5.8589 F   0  0  0  0  0  0  0  0  0  0  0  0
   -4.9750   -3.8710   -4.2972 C   0  0  0  0  0  0  0  0  0  0  0  0
   -4.4282   -3.1639   -5.2946 F   0  0  0  0  0  0  0  0  0  0  0  0
   -4.8993   -3.3929   -2.9819 C   0  0  0  0  0  0  0  0  0  0  0  0
   -5.4263   -4.2213   -1.9823 C   0  0  0  0  0  0  0  0  0  0  0  0
   -5.4118   -3.7970   -0.7098 F   0  0  0  0  0  0  0  0  0  0  0  0
   -5.9965   -5.4472   -2.2723 C   0  0  0  0  0  0  0  0  0  0  0  0
   -6.5516   -6.1556   -1.2841 F   0  0  0  0  0  0  0  0  0  0  0  0
   -4.2902   -2.1174   -2.6707 C   0  0  0  0  0  0  0  0  0  0  0  0
   -4.4234   -0.9267   -3.3588 C   0  0  0  0  0  0  0  0  0  0  0  0
   -5.3599   -0.6943   -4.4575 C   0  0  0  0  0  0  0  0  0  0  0  0
   -6.6553   -1.2041   -4.4078 C   0  0  0  0  0  0  0  0  0  0  0  0
   -7.5262   -0.9724   -5.4548 C   0  0  0  0  0  0  0  0  0  0  0  0
   -7.1174   -0.2357   -6.5528 C   0  0  0  0  0  0  0  0  0  0  0  0
   -5.8333    0.2910   -6.6125 C   0  0  0  0  0  0  0  0  0  0  0  0
   -5.3676    1.0508   -7.8202 C   0  0  0  0  0  0  0  0  0  0  0  0
   -4.7264    0.0953   -8.8288 C   0  0  0  0  0  0  0  0  0  0  0  0
   -4.9642    0.0577   -5.5581 C   0  0  0  0  0  0  0  0  0  0  0  0
   -3.5943    0.0698   -2.8032 C   0  0  0  0  0  0  0  0  0  0  0  0
   -3.3277    1.7497   -3.2004 S   0  0  0  0  0  0  0  0  0  0  0  0
   -2.2063    1.8586   -1.8872 C   0  0  0  0  0  0  0  0  0  0  0  0
   -1.3681    2.8073   -1.2767 C   0  0  0  0  0  0  0  0  0  0  0  0
   -1.1971    4.1928   -1.4908 C   0  0  0  0  0  0  0  0  0  0  0  0
   -0.3013    4.9231   -0.6385 C   0  0  0  0  0  0  0  0  0  0  0  0
   -0.2815    6.2169   -0.9165 N   0  0  0  0  0  0  0  0  0  0  0  0
   -1.2975    6.4936   -2.1459 S   0  0  0  0  0  0  0  0  0  0  0  0
   -1.8014    4.9730   -2.3731 N   0  0  0  0  0  0  0  0  0  0  0  0
    0.4857    4.2118    0.2951 C   0  0  0  0  0  0  0  0  0  0  0  0
    1.5804    4.6076    1.0777 C   0  0  0  0  0  0  0  0  0  0  0  0
    2.4693    6.0451    1.4405 S   0  0  0  0  0  0  0  0  0  0  0  0
    3.5973    5.0832    2.3629 C   0  0  0  0  0  0  0  0  0  0  0  0
    4.7846    5.4100    3.0386 C   0  0  0  0  0  0  0  0  0  0  0  0
    5.3903    6.7387    3.0413 C   0  0  0  0  0  0  0  0  0  0  0  0
    4.6124    7.8659    3.2846 C   0  0  0  0  0  0  0  0  0  0  0  0
    5.2056    9.1136    3.3235 C   0  0  0  0  0  0  0  0  0  0  0  0
    6.5667    9.2481    3.1201 C   0  0  0  0  0  0  0  0  0  0  0  0
    7.3553    8.1348    2.8516 C   0  0  0  0  0  0  0  0  0  0  0  0
    8.8251    8.2787    2.5773 C   0  0  0  0  0  0  0  0  0  0  0  0
    9.0752    8.4502    1.0777 C   0  0  0  0  0  0  0  0  0  0  0  0
    6.7536    6.8883    2.8014 C   0  0  0  0  0  0  0  0  0  0  0  0
    5.3607    4.2784    3.6030 C   0  0  0  0  0  0  0  0  0  0  0  0
    4.4634    2.8102    3.2474 S   0  0  0  0  0  0  0  0  0  0  0  0
    3.2794    3.7185    2.3790 C   0  0  0  0  0  0  0  0  0  0  0  0
    2.1151    3.4481    1.6534 C   0  0  0  0  0  0  0  0  0  0  0  0
    1.3712    2.3582    1.2816 N   0  0  0  0  0  0  0  0  0  0  0  0
    0.3549    2.8045    0.4585 C   0  0  0  0  0  0  0  0  0  0  0  0
   -0.6819    2.1289   -0.2321 C   0  0  0  0  0  0  0  0  0  0  0  0
   -1.1402    0.8228   -0.1696 N   0  0  0  0  0  0  0  0  0  0  0  0
   -2.0524    0.6628   -1.1810 C   0  0  0  0  0  0  0  0  0  0  0  0
   -2.8551   -0.3612   -1.6996 C   0  0  0  0  0  0  0  0  0  0  0  0
   -3.1752   -2.0131   -1.3231 S   0  0  0  0  0  0  0  0  0  0  0  0
   -1.2209   -0.0388    0.9911 C   0  0  0  0  0  0  0  0  0  0  0  0
   -2.5749    0.0953    1.6881 C   0  0  0  0  0  0  0  0  0  0  0  0
    1.8954    1.0212    1.4573 C   0  0  0  0  0  0  0  0  0  0  0  0
    1.7798    0.5389    2.9031 C   0  0  0  0  0  0  0  0  0  0  0  0
    6.5338    4.1960    4.3931 C   0  0  0  0  0  0  0  0  0  0  0  0
    7.0986    5.1281    5.2410 C   0  0  0  0  0  0  0  0  0  0  0  0
    6.7570    6.4426    5.8081 C   0  0  0  0  0  0  0  0  0  0  0  0
    5.7253    7.0627    5.7935 O   0  0  0  0  0  0  0  0  0  0  0  0
    7.9097    6.8431    6.4860 N   0  0  0  0  0  0  0  0  0  0  0  0
    8.0250    8.1208    7.1429 C   0  0  0  0  0  0  0  0  0  0  0  0
    8.9136    5.8925    6.5029 C   0  0  0  0  0  0  0  0  0  0  0  0
   10.0132    6.0410    6.9726 O   0  0  0  0  0  0  0  0  0  0  0  0
    8.3430    4.7365    5.7782 C   0  0  0  0  0  0  0  0  0  0  0  0
    8.7471    3.4774    5.4077 C   0  0  0  0  0  0  0  0  0  0  0  0
    7.5637    2.7765    4.3150 S   0  0  0  0  0  0  0  0  0  0  0  0
    9.9234    2.7553    5.7934 C   0  0  0  0  0  0  0  0  0  0  0  0
   10.5250    2.8765    7.0213 C   0  0  0  0  0  0  0  0  0  0  0  0
    9.9241    3.5497    8.1061 C   0  0  0  0  0  0  0  0  0  0  0  0
    9.4022    3.9952    9.0245 N   0  0  0  0  0  0  0  0  0  0  0  0
   11.7380    2.2144    7.3126 C   0  0  0  0  0  0  0  0  0  0  0  0
   12.7250    1.6859    7.5558 N   0  0  0  0  0  0  0  0  0  0  0  0
   10.4646    1.8552    4.8423 C   0  0  0  0  0  0  0  0  0  0  0  0
   10.8762    1.1329    4.0547 N   0  0  0  0  0  0  0  0  0  0  0  0
   -7.3676   -7.1829   -4.7539 H   0  0  0  0  0  0  0  0  0  0  0  0
   -3.4993  -10.1005   -0.7546 H   0  0  0  0  0  0  0  0  0  0  0  0
   -4.0203  -13.4940    0.3931 H   0  0  0  0  0  0  0  0  0  0  0  0
   -2.8102  -13.3811   -0.8777 H   0  0  0  0  0  0  0  0  0  0  0  0
   -2.8802  -12.1383    0.3739 H   0  0  0  0  0  0  0  0  0  0  0  0
   -5.5707  -13.7403   -1.6463 H   0  0  0  0  0  0  0  0  0  0  0  0
   -7.1551  -12.5439   -3.0702 H   0  0  0  0  0  0  0  0  0  0  0  0
   -6.9824   -1.7623   -3.5420 H   0  0  0  0  0  0  0  0  0  0  0  0
   -8.5304   -1.3677   -5.4133 H   0  0  0  0  0  0  0  0  0  0  0  0
   -7.8033   -0.0636   -7.3695 H   0  0  0  0  0  0  0  0  0  0  0  0
   -6.2131    1.5574   -8.2894 H   0  0  0  0  0  0  0  0  0  0  0  0
   -4.6371    1.8054   -7.5225 H   0  0  0  0  0  0  0  0  0  0  0  0
   -5.4462   -0.6536   -9.1510 H   0  0  0  0  0  0  0  0  0  0  0  0
   -3.8809   -0.4185   -8.3772 H   0  0  0  0  0  0  0  0  0  0  0  0
   -4.3776    0.6415   -9.7020 H   0  0  0  0  0  0  0  0  0  0  0  0
   -3.9578    0.4470   -5.6010 H   0  0  0  0  0  0  0  0  0  0  0  0
    3.5572    7.7574    3.4791 H   0  0  0  0  0  0  0  0  0  0  0  0
    4.6027    9.9856    3.5269 H   0  0  0  0  0  0  0  0  0  0  0  0
    7.0263   10.2248    3.1692 H   0  0  0  0  0  0  0  0  0  0  0  0
    9.2172    9.1482    3.1086 H   0  0  0  0  0  0  0  0  0  0  0  0
    9.3587    7.3936    2.9326 H   0  0  0  0  0  0  0  0  0  0  0  0
    8.7016    7.5876    0.5304 H   0  0  0  0  0  0  0  0  0  0  0  0
   10.1393    8.5537    0.8795 H   0  0  0  0  0  0  0  0  0  0  0  0
    8.5639    9.3364    0.7090 H   0  0  0  0  0  0  0  0  0  0  0  0
    7.3533    6.0193    2.5661 H   0  0  0  0  0  0  0  0  0  0  0  0
   -0.4433    0.2315    1.6957 H   0  0  0  0  0  0  0  0  0  0  0  0
   -1.0732   -1.0724    0.6627 H   0  0  0  0  0  0  0  0  0  0  0  0
   -2.7448    1.1280    1.9851 H   0  0  0  0  0  0  0  0  0  0  0  0
   -3.3847   -0.2167    1.0353 H   0  0  0  0  0  0  0  0  0  0  0  0
   -2.5901   -0.5314    2.5751 H   0  0  0  0  0  0  0  0  0  0  0  0
    2.9565    1.0405    1.1824 H   0  0  0  0  0  0  0  0  0  0  0  0
    1.3886    0.3494    0.7639 H   0  0  0  0  0  0  0  0  0  0  0  0
    2.4291    1.1243    3.5478 H   0  0  0  0  0  0  0  0  0  0  0  0
    0.7640    0.6327    3.2806 H   0  0  0  0  0  0  0  0  0  0  0  0
    2.0830   -0.5022    2.9663 H   0  0  0  0  0  0  0  0  0  0  0  0
    8.5614    7.9925    8.0819 H   0  0  0  0  0  0  0  0  0  0  0  0
    8.5707    8.8248    6.5114 H   0  0  0  0  0  0  0  0  0  0  0  0
    7.0199    8.4985    7.3230 H   0  0  0  0  0  0  0  0  0  0  0  0
  1  2  2  0  0  0  0
  2  3  1  0  0  0  0
  3  4  2  0  0  0  0
  3  5  1  0  0  0  0
  5  6  2  0  0  0  0
  6  7  1  0  0  0  0
  7  8  1  0  0  0  0
  7  9  2  0  0  0  0
  9 10  1  0  0  0  0
 10 11  2  0  0  0  0
 11 12  1  0  0  0  0
 12 13  2  0  0  0  0
 13 14  1  0  0  0  0
 14 15  3  0  0  0  0
 13 16  1  0  0  0  0
 16 17  3  0  0  0  0
  1 18  1  0  0  0  0
 18 19  2  0  0  0  0
 19 20  1  0  0  0  0
 19 21  1  0  0  0  0
 21 22  1  0  0  0  0
 21 23  2  0  0  0  0
 23 24  1  0  0  0  0
 24 25  1  0  0  0  0
 24 26  2  0  0  0  0
 26 27  1  0  0  0  0
 23 28  1  0  0  0  0
 28 29  2  0  0  0  0
 29 30  1  0  0  0  0
 30 31  2  0  0  0  0
 31 32  1  0  0  0  0
 32 33  2  0  0  0  0
 33 34  1  0  0  0  0
 34 35  1  0  0  0  0
 35 36  1  0  0  0  0
 34 37  2  0  0  0  0
 29 38  1  0  0  0  0
 38 39  1  0  0  0  0
 39 40  1  0  0  0  0
 40 41  1  0  0  0  0
 41 42  1  0  0  0  0
 42 43  1  0  0  0  0
 43 44  2  0  0  0  0
 44 45  1  0  0  0  0
 45 46  1  0  0  0  0
 43 47  1  0  0  0  0
 47 48  1  0  0  0  0
 48 49  1  0  0  0  0
 49 50  1  0  0  0  0
 50 51  1  0  0  0  0
 51 52  1  0  0  0  0
 52 53  2  0  0  0  0
 53 54  1  0  0  0  0
 54 55  2  0  0  0  0
 55 56  1  0  0  0  0
 56 57  1  0  0  0  0
 57 58  1  0  0  0  0
 56 59  2  0  0  0  0
 51 60  2  0  0  0  0
 60 61  1  0  0  0  0
 61 62  1  0  0  0  0
 62 63  1  0  0  0  0
 63 64  1  0  0  0  0
 64 65  1  0  0  0  0
 65 66  1  0  0  0  0
 66 67  1  0  0  0  0
 67 68  1  0  0  0  0
 68 69  1  0  0  0  0
 69 70  1  0  0  0  0
 67 71  1  0  0  0  0
 71 72  1  0  0  0  0
 64 73  1  0  0  0  0
 73 74  1  0  0  0  0
 60 75  1  0  0  0  0
 75 76  2  0  0  0  0
 76 77  1  0  0  0  0
 77 78  2  0  0  0  0
 77 79  1  0  0  0  0
 79 80  1  0  0  0  0
 79 81  1  0  0  0  0
 81 82  2  0  0  0  0
 81 83  1  0  0  0  0
 83 84  2  0  0  0  0
 84 85  1  0  0  0  0
 84 86  1  0  0  0  0
 86 87  2  0  0  0  0
 87 88  1  0  0  0  0
 88 89  3  0  0  0  0
 87 90  1  0  0  0  0
 90 91  3  0  0  0  0
 86 92  1  0  0  0  0
 92 93  3  0  0  0  0
 12  2  1  0  0  0  0
 26 18  1  0  0  0  0
 70 28  1  0  0  0  0
 85 75  1  0  0  0  0
 11  5  1  0  0  0  0
 37 30  1  0  0  0  0
 69 38  2  0  0  0  0
 83 76  1  0  0  0  0
 68 40  2  0  0  0  0
 66 41  2  0  0  0  0
 46 42  2  0  0  0  0
 65 47  2  0  0  0  0
 63 48  2  0  0  0  0
 62 50  2  0  0  0  0
 59 52  1  0  0  0  0
  1 94  1  0  0  0  0
  6 95  1  0  0  0  0
  8 96  1  0  0  0  0
  8 97  1  0  0  0  0
  8 98  1  0  0  0  0
  9 99  1  0  0  0  0
 10100  1  0  0  0  0
 31101  1  0  0  0  0
 32102  1  0  0  0  0
 33103  1  0  0  0  0
 35104  1  0  0  0  0
 35105  1  0  0  0  0
 36106  1  0  0  0  0
 36107  1  0  0  0  0
 36108  1  0  0  0  0
 37109  1  0  0  0  0
 53110  1  0  0  0  0
 54111  1  0  0  0  0
 55112  1  0  0  0  0
 57113  1  0  0  0  0
 57114  1  0  0  0  0
 58115  1  0  0  0  0
 58116  1  0  0  0  0
 58117  1  0  0  0  0
 59118  1  0  0  0  0
 71119  1  0  0  0  0
 71120  1  0  0  0  0
 72121  1  0  0  0  0
 72122  1  0  0  0  0
 72123  1  0  0  0  0
 73124  1  0  0  0  0
 73125  1  0  0  0  0
 74126  1  0  0  0  0
 74127  1  0  0  0  0
 74128  1  0  0  0  0
 80129  1  0  0  0  0
 80130  1  0  0  0  0
 80131  1  0  0  0  0
M  END
