150

C         -5.30780        9.94010        0.89200
C         -6.43600        9.48170        0.25290
C         -6.49800        8.29430       -0.58970
O         -5.56830        7.56150       -0.90880
C         -7.90530        8.13660       -0.98890
C         -8.48360        7.15180       -1.76050
C         -9.85730        7.19940       -1.99660
C        -10.51080        6.15220       -2.84110
C        -10.59940        8.24180       -1.44910
C        -10.02200        9.23790       -0.67300
C         -8.65830        9.18870       -0.43540
C         -7.76510       10.05630        0.33120
C         -8.14320       11.20090        0.98430
C         -9.46410       11.69540        1.01130
N        -10.51500       12.15350        1.07550
C         -7.28870       12.05540        1.71100
N         -6.66360       12.80440        2.31820
C         -4.00330        9.42990        0.90230
C         -3.00940       10.00600        1.69870
C         -1.74430        9.42970        1.68280
C         -0.66960        9.88190        2.62500
C         -0.30870        8.78580        3.62830
C         -1.65380        8.34370        0.81180
Se        -3.28910        7.95140       -0.02420
C         -0.54970        7.48060        0.53950
C          0.80080        7.72160        0.35610
C          1.40150        9.05000        0.26770
C          2.65340        9.30690        0.82180
C          3.19680       10.57420        0.73160
C          2.50390       11.59130        0.09710
C          1.26230       11.34850       -0.47740
C          0.46900       12.44910       -1.12020
C         -0.61150       12.94970       -0.15910
C          0.72760       10.07230       -0.39590
C          1.51030        6.51950        0.14090
S          3.20510        6.16560       -0.11300
C          2.81350        4.48420       -0.25370
C          3.45360        3.24390       -0.40150
C          4.82730        2.92210       -0.43710
C          5.21410        1.54240       -0.44090
N          6.52840        1.38420       -0.41930
S          7.21940        2.84840       -0.40060
N          5.86800        3.74030       -0.41610
C          4.20940        0.55340       -0.50470
C          4.31050       -0.84310       -0.60050
S          5.52150       -2.08120       -0.58990
C          4.26460       -3.27930       -0.79320
C          4.29330       -4.68440       -0.89350
C          5.52080       -5.48080       -0.84970
C          6.46310       -5.24980        0.14750
C          7.61470       -6.01250        0.19240
C          7.83310       -7.00440       -0.74720
C          6.91170       -7.23540       -1.76160
C          7.11460       -8.34620       -2.74990
C          6.40350       -9.61200       -2.26590
C          5.76360       -6.45990       -1.80810
C          3.02070       -5.20160       -1.05790
S          1.78840       -3.94440       -1.11830
C          2.98570       -2.72430       -0.88110
C          3.01170       -1.33130       -0.75190
N          2.11680       -0.29710       -0.73720
C          2.82220        0.88040       -0.55820
C          2.43690        2.24290       -0.40990
N          1.22000        2.87660       -0.22880
C          1.44920        4.22020       -0.13550
C          0.70380        5.38110        0.10330
S         -0.95580        5.77830        0.36910
C         -0.12090        2.39140       -0.00660
C         -1.00110        2.56580       -1.24490
C          0.73490       -0.57010       -1.05270
C         -0.01900       -1.15950        0.14070
C          2.56390       -6.54900       -1.07990
C          1.32910       -6.96320       -1.52740
C          1.08070       -8.32930       -1.34090
S         -0.26510       -9.18980       -2.02780
C         -1.52050       -7.88610       -2.28060
C         -1.98420       -7.29010       -0.96630
C          2.13780       -8.98580       -0.70510
S          3.47380       -7.87540       -0.43390
C          2.33290      -10.31760       -0.30080
C          1.39550      -11.22140        0.13050
C          0.04280      -10.88360        0.60380
O         -0.49990       -9.79460        0.58510
C         -0.49410      -12.12380        1.19760
C         -1.71560      -12.33080        1.80070
C         -2.01190      -13.59320        2.31310
C         -3.34100      -13.85460        2.94810
C         -1.06170      -14.60470        2.20630
C          0.17160      -14.40240        1.60260
C          0.46220      -13.14870        1.08970
C          1.63910      -12.62170        0.40550
C          2.73630      -13.34900        0.02110
C          3.81970      -12.84400       -0.72710
N          4.72690      -12.51420       -1.35020
C          2.91060      -14.71960        0.30020
N          3.11440      -15.83160        0.50250
H         -5.42460       10.82520        1.50770
H         -7.87480        6.35870       -2.16810
H        -11.58300        6.12030       -2.66630
H        -10.08650        5.17200       -2.63480
H        -10.34400        6.37150       -3.89610
H        -11.66370        8.27810       -1.63130
H        -10.63930       10.02300       -0.26830
H         -3.23720       10.85470        2.32490
H         -1.03170       10.75830        3.16610
H          0.22580       10.17350        2.07590
H          0.43480        9.15480        4.33020
H          0.10170        7.91720        3.11960
H         -1.18970        8.47540        4.18650
H          3.18460        8.52150        1.33700
H          4.16490       10.77270        1.16680
H          2.93220       12.58170        0.04280
H         -0.00560       12.07880       -2.03150
H          1.12790       13.27640       -1.38900
H         -1.29030       12.14120        0.10490
H         -1.18730       13.75030       -0.61710
H         -0.15840       13.32730        0.75500
H         -0.22890        9.86590       -0.85540
H          6.28300       -4.48770        0.89060
H          8.34380       -5.83490        0.96900
H          8.73060       -7.60370       -0.69800
H          6.71320       -8.05680       -3.72330
H          8.18040       -8.55150       -2.86560
H          6.55620      -10.43100       -2.96290
H          6.78320       -9.91350       -1.29280
H          5.33460       -9.43580       -2.17250
H          5.05010       -6.61090       -2.60620
H         -0.54920        2.98550        0.80830
H         -0.08690        1.35840        0.32420
H         -1.97090        2.10650       -1.07590
H         -1.15390        3.62210       -1.44910
H         -0.54530        2.11800       -2.12580
H          0.26170        0.33370       -1.42530
H          0.72620       -1.30600       -1.86470
H          0.10720       -0.55150        1.03410
H          0.35280       -2.15590        0.36290
H         -1.07800       -1.23200       -0.09100
H          0.64650       -6.27930       -1.99860
H         -1.12320       -7.13870       -2.96670
H         -2.33290       -8.41800       -2.77620
H         -2.83240       -6.63000       -1.13740
H         -2.27880       -8.08360       -0.28480
H         -1.18790       -6.72180       -0.49170
H          3.37350      -10.61910       -0.25390
H         -2.42760      -11.52160        1.86930
H         -3.29130      -14.70320        3.62560
H         -3.68550      -12.98040        3.49600
H         -4.08010      -14.07870        2.17800
H         -1.28970      -15.58100        2.60890
H          0.88010      -15.21290        1.54850
