
  xtb     02102221123D
 energy: -262.594205983885 gnorm: 0.000627829189 xtb: 6.4.1 (unknown)
137151  0     0  0            999 V2000
    8.5570    6.1971   -6.6906 C   0  0  0  0  0  0  0  0  0  0  0  0
    8.7214    5.4571   -7.8056 C   0  0  0  0  0  0  0  0  0  0  0  0
    7.8420    4.3014   -8.1769 C   0  0  0  0  0  0  0  0  0  0  0  0
    6.9196    3.8482   -7.5390 O   0  0  0  0  0  0  0  0  0  0  0  0
    8.2667    3.9109   -9.5301 C   0  0  0  0  0  0  0  0  0  0  0  0
    7.7611    2.9007  -10.3241 C   0  0  0  0  0  0  0  0  0  0  0  0
    8.3041    2.7010  -11.5901 C   0  0  0  0  0  0  0  0  0  0  0  0
    7.8082    1.6007  -12.4712 C   0  0  0  0  0  0  0  0  0  0  0  0
    9.3368    3.5350  -12.0214 C   0  0  0  0  0  0  0  0  0  0  0  0
    9.8469    4.5531  -11.2330 C   0  0  0  0  0  0  0  0  0  0  0  0
    9.3106    4.7474   -9.9669 C   0  0  0  0  0  0  0  0  0  0  0  0
    9.6328    5.7041   -8.9183 C   0  0  0  0  0  0  0  0  0  0  0  0
   10.6503    6.6156   -8.9414 C   0  0  0  0  0  0  0  0  0  0  0  0
   10.9838    7.4826   -7.8774 C   0  0  0  0  0  0  0  0  0  0  0  0
   11.3188    8.2067   -7.0528 N   0  0  0  0  0  0  0  0  0  0  0  0
   11.5273    6.7953  -10.0340 C   0  0  0  0  0  0  0  0  0  0  0  0
   12.2661    6.9926  -10.8891 N   0  0  0  0  0  0  0  0  0  0  0  0
    7.6997    5.7929   -5.5885 C   0  0  0  0  0  0  0  0  0  0  0  0
    7.7672    4.5115   -5.0323 C   0  0  0  0  0  0  0  0  0  0  0  0
    8.7027    3.6566   -5.4607 F   0  0  0  0  0  0  0  0  0  0  0  0
    6.9329    4.1347   -3.9967 C   0  0  0  0  0  0  0  0  0  0  0  0
    7.0773    2.9127   -3.4611 F   0  0  0  0  0  0  0  0  0  0  0  0
    5.9651    4.9998   -3.4734 C   0  0  0  0  0  0  0  0  0  0  0  0
    5.9355    6.2961   -3.9975 C   0  0  0  0  0  0  0  0  0  0  0  0
    5.0368    7.1728   -3.5324 F   0  0  0  0  0  0  0  0  0  0  0  0
    6.7883    6.6836   -5.0180 C   0  0  0  0  0  0  0  0  0  0  0  0
    6.7028    7.9240   -5.5165 F   0  0  0  0  0  0  0  0  0  0  0  0
    5.0720    4.5859   -2.4022 C   0  0  0  0  0  0  0  0  0  0  0  0
    5.0650    5.5275   -0.9232 S   0  0  0  0  0  0  0  0  0  0  0  0
    3.9323    4.4296   -0.2639 C   0  0  0  0  0  0  0  0  0  0  0  0
    3.2745    4.2122    0.9530 C   0  0  0  0  0  0  0  0  0  0  0  0
    3.3893    4.9067    2.1745 C   0  0  0  0  0  0  0  0  0  0  0  0
    2.6836    4.4051    3.3122 C   0  0  0  0  0  0  0  0  0  0  0  0
    2.9032    5.1220    4.4038 N   0  0  0  0  0  0  0  0  0  0  0  0
    3.9142    6.3292    4.0247 S   0  0  0  0  0  0  0  0  0  0  0  0
    4.1098    5.9816    2.4554 N   0  0  0  0  0  0  0  0  0  0  0  0
    1.8501    3.2787    3.1488 C   0  0  0  0  0  0  0  0  0  0  0  0
    1.0141    2.6488    4.0798 C   0  0  0  0  0  0  0  0  0  0  0  0
    0.5760    2.7699    5.7489 S   0  0  0  0  0  0  0  0  0  0  0  0
   -0.5404    1.4400    5.5271 C   0  0  0  0  0  0  0  0  0  0  0  0
   -1.4174    0.7837    6.4077 C   0  0  0  0  0  0  0  0  0  0  0  0
   -1.6052    1.2470    7.8177 C   0  0  0  0  0  0  0  0  0  0  0  0
   -0.3531    1.0278    8.6679 C   0  0  0  0  0  0  0  0  0  0  0  0
   -2.1183   -0.2133    5.7532 C   0  0  0  0  0  0  0  0  0  0  0  0
   -1.7384   -0.2977    4.0403 S   0  0  0  0  0  0  0  0  0  0  0  0
   -0.5601    0.9477    4.2179 C   0  0  0  0  0  0  0  0  0  0  0  0
    0.3386    1.6394    3.3953 C   0  0  0  0  0  0  0  0  0  0  0  0
    0.7280    1.6199    2.0837 N   0  0  0  0  0  0  0  0  0  0  0  0
    1.6832    2.6080    1.8970 C   0  0  0  0  0  0  0  0  0  0  0  0
    2.4688    3.0515    0.7887 C   0  0  0  0  0  0  0  0  0  0  0  0
    2.6720    2.5819   -0.5002 N   0  0  0  0  0  0  0  0  0  0  0  0
    3.5576    3.4157   -1.1482 C   0  0  0  0  0  0  0  0  0  0  0  0
    4.2199    3.5005   -2.3992 C   0  0  0  0  0  0  0  0  0  0  0  0
    3.9734    2.7059   -3.6500 C   0  0  0  0  0  0  0  0  0  0  0  0
    3.1443    3.5194   -4.6485 C   0  0  0  0  0  0  0  0  0  0  0  0
    2.2226    1.3464   -1.0900 C   0  0  0  0  0  0  0  0  0  0  0  0
    1.0296    1.5543   -2.0261 C   0  0  0  0  0  0  0  0  0  0  0  0
    0.0392    0.6978    1.2098 C   0  0  0  0  0  0  0  0  0  0  0  0
    0.5869   -0.7245    1.3389 C   0  0  0  0  0  0  0  0  0  0  0  0
   -3.0708   -1.1738    6.2401 C   0  0  0  0  0  0  0  0  0  0  0  0
   -2.9569   -1.8336    7.4587 C   0  0  0  0  0  0  0  0  0  0  0  0
   -1.9175   -1.5934    8.2739 F   0  0  0  0  0  0  0  0  0  0  0  0
   -3.8497   -2.8277    7.8453 C   0  0  0  0  0  0  0  0  0  0  0  0
   -3.6326   -3.4417    9.0175 F   0  0  0  0  0  0  0  0  0  0  0  0
   -4.8923   -3.2714    7.0356 C   0  0  0  0  0  0  0  0  0  0  0  0
   -5.0785   -2.5714    5.8099 C   0  0  0  0  0  0  0  0  0  0  0  0
   -6.1554   -2.8412    5.0425 N   0  0  0  0  0  0  0  0  0  0  0  0
   -6.2810   -2.2205    3.8960 C   0  0  0  0  0  0  0  0  0  0  0  0
   -7.3339   -2.4065    3.1110 O   0  0  0  0  0  0  0  0  0  0  0  0
   -8.3888   -3.2612    3.5501 C   0  0  0  0  0  0  0  0  0  0  0  0
   -8.9345   -4.0096    2.3457 C   0  0  0  0  0  0  0  0  0  0  0  0
   -5.2874   -1.2933    3.4329 C   0  0  0  0  0  0  0  0  0  0  0  0
   -4.2973   -0.9770    4.2109 N   0  0  0  0  0  0  0  0  0  0  0  0
   -4.1618   -1.5705    5.4132 C   0  0  0  0  0  0  0  0  0  0  0  0
   -5.3983   -0.6667    2.0893 C   0  0  0  0  0  0  0  0  0  0  0  0
   -5.7137   -4.3544    7.4822 C   0  0  0  0  0  0  0  0  0  0  0  0
   -6.3854   -5.2966    6.7717 C   0  0  0  0  0  0  0  0  0  0  0  0
   -7.4475   -6.0857    7.4603 C   0  0  0  0  0  0  0  0  0  0  0  0
   -7.6622   -6.1290    8.6490 O   0  0  0  0  0  0  0  0  0  0  0  0
   -8.2021   -6.7499    6.3802 C   0  0  0  0  0  0  0  0  0  0  0  0
   -9.3291   -7.5151    6.4669 C   0  0  0  0  0  0  0  0  0  0  0  0
   -9.8955   -8.0463    5.2865 C   0  0  0  0  0  0  0  0  0  0  0  0
  -11.0625   -8.8368    5.3173 C   0  0  0  0  0  0  0  0  0  0  0  0
  -11.6020   -9.3415    4.1668 C   0  0  0  0  0  0  0  0  0  0  0  0
  -10.9756   -9.0625    2.9444 C   0  0  0  0  0  0  0  0  0  0  0  0
  -11.5228   -9.5638    1.8222 F   0  0  0  0  0  0  0  0  0  0  0  0
   -9.8412   -8.3046    2.8584 C   0  0  0  0  0  0  0  0  0  0  0  0
   -9.2711   -7.7781    4.0339 C   0  0  0  0  0  0  0  0  0  0  0  0
   -8.0952   -6.9952    3.9769 C   0  0  0  0  0  0  0  0  0  0  0  0
   -7.5705   -6.4805    5.1323 C   0  0  0  0  0  0  0  0  0  0  0  0
   -6.3759   -5.6738    5.3762 C   0  0  0  0  0  0  0  0  0  0  0  0
   -5.3657   -5.4725    4.4707 C   0  0  0  0  0  0  0  0  0  0  0  0
   -4.0966   -4.9522    4.7889 C   0  0  0  0  0  0  0  0  0  0  0  0
   -3.0298   -4.5740    4.9825 N   0  0  0  0  0  0  0  0  0  0  0  0
   -5.4693   -5.7708    3.0986 C   0  0  0  0  0  0  0  0  0  0  0  0
   -5.5250   -5.9272    1.9618 N   0  0  0  0  0  0  0  0  0  0  0  0
    9.0459    7.1562   -6.5797 H   0  0  0  0  0  0  0  0  0  0  0  0
    6.9594    2.2795   -9.9540 H   0  0  0  0  0  0  0  0  0  0  0  0
    6.8284    1.2563  -12.1514 H   0  0  0  0  0  0  0  0  0  0  0  0
    7.7512    1.9296  -13.5065 H   0  0  0  0  0  0  0  0  0  0  0  0
    8.4967    0.7562  -12.4286 H   0  0  0  0  0  0  0  0  0  0  0  0
    9.7522    3.3807  -13.0066 H   0  0  0  0  0  0  0  0  0  0  0  0
   10.6409    5.1765  -11.6103 H   0  0  0  0  0  0  0  0  0  0  0  0
   -2.4603    0.7488    8.2728 H   0  0  0  0  0  0  0  0  0  0  0  0
   -1.8193    2.3196    7.7835 H   0  0  0  0  0  0  0  0  0  0  0  0
   -0.5234    1.4025    9.6737 H   0  0  0  0  0  0  0  0  0  0  0  0
   -0.1127   -0.0292    8.7285 H   0  0  0  0  0  0  0  0  0  0  0  0
    0.4940    1.5573    8.2400 H   0  0  0  0  0  0  0  0  0  0  0  0
    3.4561    1.7769   -3.4242 H   0  0  0  0  0  0  0  0  0  0  0  0
    4.9184    2.4382   -4.1195 H   0  0  0  0  0  0  0  0  0  0  0  0
    3.6956    4.3971   -4.9759 H   0  0  0  0  0  0  0  0  0  0  0  0
    2.9141    2.9150   -5.5225 H   0  0  0  0  0  0  0  0  0  0  0  0
    2.2116    3.8548   -4.1986 H   0  0  0  0  0  0  0  0  0  0  0  0
    3.0601    0.9169   -1.6471 H   0  0  0  0  0  0  0  0  0  0  0  0
    1.9863    0.6468   -0.2937 H   0  0  0  0  0  0  0  0  0  0  0  0
    0.2421    2.1244   -1.5370 H   0  0  0  0  0  0  0  0  0  0  0  0
    1.3280    2.1095   -2.9096 H   0  0  0  0  0  0  0  0  0  0  0  0
    0.6297    0.5934   -2.3402 H   0  0  0  0  0  0  0  0  0  0  0  0
   -1.0102    0.6887    1.5239 H   0  0  0  0  0  0  0  0  0  0  0  0
    0.0693    1.0542    0.1859 H   0  0  0  0  0  0  0  0  0  0  0  0
    0.3826   -1.1116    2.3331 H   0  0  0  0  0  0  0  0  0  0  0  0
    1.6630   -0.7582    1.1808 H   0  0  0  0  0  0  0  0  0  0  0  0
    0.1036   -1.3726    0.6133 H   0  0  0  0  0  0  0  0  0  0  0  0
   -8.0077   -3.9469    4.3097 H   0  0  0  0  0  0  0  0  0  0  0  0
   -9.1645   -2.6335    4.0042 H   0  0  0  0  0  0  0  0  0  0  0  0
   -9.3353   -3.3081    1.6192 H   0  0  0  0  0  0  0  0  0  0  0  0
   -9.7238   -4.6856    2.6622 H   0  0  0  0  0  0  0  0  0  0  0  0
   -8.1405   -4.5810    1.8717 H   0  0  0  0  0  0  0  0  0  0  0  0
   -5.3881   -1.4401    1.3232 H   0  0  0  0  0  0  0  0  0  0  0  0
   -4.5683    0.0164    1.9385 H   0  0  0  0  0  0  0  0  0  0  0  0
   -6.3432   -0.1328    2.0048 H   0  0  0  0  0  0  0  0  0  0  0  0
   -5.8458   -4.4249    8.5589 H   0  0  0  0  0  0  0  0  0  0  0  0
   -9.7831   -7.7141    7.4260 H   0  0  0  0  0  0  0  0  0  0  0  0
  -11.5273   -9.0385    6.2705 H   0  0  0  0  0  0  0  0  0  0  0  0
  -12.4941   -9.9473    4.1728 H   0  0  0  0  0  0  0  0  0  0  0  0
   -9.3835   -8.1125    1.9004 H   0  0  0  0  0  0  0  0  0  0  0  0
   -7.6421   -6.8198    3.0150 H   0  0  0  0  0  0  0  0  0  0  0  0
  1  2  2  0  0  0  0
  2  3  1  0  0  0  0
  3  4  2  0  0  0  0
  3  5  1  0  0  0  0
  5  6  2  0  0  0  0
  6  7  1  0  0  0  0
  7  8  1  0  0  0  0
  7  9  2  0  0  0  0
  9 10  1  0  0  0  0
 10 11  2  0  0  0  0
 11 12  1  0  0  0  0
 12 13  2  0  0  0  0
 13 14  1  0  0  0  0
 14 15  3  0  0  0  0
 13 16  1  0  0  0  0
 16 17  3  0  0  0  0
  1 18  1  0  0  0  0
 18 19  2  0  0  0  0
 19 20  1  0  0  0  0
 19 21  1  0  0  0  0
 21 22  1  0  0  0  0
 21 23  2  0  0  0  0
 23 24  1  0  0  0  0
 24 25  1  0  0  0  0
 24 26  2  0  0  0  0
 26 27  1  0  0  0  0
 23 28  1  0  0  0  0
 28 29  1  0  0  0  0
 29 30  1  0  0  0  0
 30 31  1  0  0  0  0
 31 32  1  0  0  0  0
 32 33  1  0  0  0  0
 33 34  2  0  0  0  0
 34 35  1  0  0  0  0
 35 36  1  0  0  0  0
 33 37  1  0  0  0  0
 37 38  1  0  0  0  0
 38 39  1  0  0  0  0
 39 40  1  0  0  0  0
 40 41  1  0  0  0  0
 41 42  1  0  0  0  0
 42 43  1  0  0  0  0
 41 44  2  0  0  0  0
 44 45  1  0  0  0  0
 45 46  1  0  0  0  0
 46 47  1  0  0  0  0
 47 48  1  0  0  0  0
 48 49  1  0  0  0  0
 49 50  1  0  0  0  0
 50 51  1  0  0  0  0
 51 52  1  0  0  0  0
 52 53  1  0  0  0  0
 53 54  1  0  0  0  0
 54 55  1  0  0  0  0
 51 56  1  0  0  0  0
 56 57  1  0  0  0  0
 48 58  1  0  0  0  0
 58 59  1  0  0  0  0
 44 60  1  0  0  0  0
 60 61  2  0  0  0  0
 61 62  1  0  0  0  0
 61 63  1  0  0  0  0
 63 64  1  0  0  0  0
 63 65  2  0  0  0  0
 65 66  1  0  0  0  0
 66 67  2  0  0  0  0
 67 68  1  0  0  0  0
 68 69  1  0  0  0  0
 69 70  1  0  0  0  0
 70 71  1  0  0  0  0
 68 72  2  0  0  0  0
 72 73  1  0  0  0  0
 73 74  2  0  0  0  0
 72 75  1  0  0  0  0
 65 76  1  0  0  0  0
 76 77  2  0  0  0  0
 77 78  1  0  0  0  0
 78 79  2  0  0  0  0
 78 80  1  0  0  0  0
 80 81  2  0  0  0  0
 81 82  1  0  0  0  0
 82 83  2  0  0  0  0
 83 84  1  0  0  0  0
 84 85  2  0  0  0  0
 85 86  1  0  0  0  0
 85 87  1  0  0  0  0
 87 88  2  0  0  0  0
 88 89  1  0  0  0  0
 89 90  2  0  0  0  0
 90 91  1  0  0  0  0
 91 92  2  0  0  0  0
 92 93  1  0  0  0  0
 93 94  3  0  0  0  0
 92 95  1  0  0  0  0
 95 96  3  0  0  0  0
 12  2  1  0  0  0  0
 26 18  1  0  0  0  0
 53 28  2  0  0  0  0
 74 60  1  0  0  0  0
 91 77  1  0  0  0  0
 11  5  1  0  0  0  0
 52 30  2  0  0  0  0
 74 66  1  0  0  0  0
 90 80  1  0  0  0  0
 50 31  2  0  0  0  0
 88 82  1  0  0  0  0
 36 32  2  0  0  0  0
 49 37  2  0  0  0  0
 47 38  2  0  0  0  0
 46 40  2  0  0  0  0
  1 97  1  0  0  0  0
  6 98  1  0  0  0  0
  8 99  1  0  0  0  0
  8100  1  0  0  0  0
  8101  1  0  0  0  0
  9102  1  0  0  0  0
 10103  1  0  0  0  0
 42104  1  0  0  0  0
 42105  1  0  0  0  0
 43106  1  0  0  0  0
 43107  1  0  0  0  0
 43108  1  0  0  0  0
 54109  1  0  0  0  0
 54110  1  0  0  0  0
 55111  1  0  0  0  0
 55112  1  0  0  0  0
 55113  1  0  0  0  0
 56114  1  0  0  0  0
 56115  1  0  0  0  0
 57116  1  0  0  0  0
 57117  1  0  0  0  0
 57118  1  0  0  0  0
 58119  1  0  0  0  0
 58120  1  0  0  0  0
 59121  1  0  0  0  0
 59122  1  0  0  0  0
 59123  1  0  0  0  0
 70124  1  0  0  0  0
 70125  1  0  0  0  0
 71126  1  0  0  0  0
 71127  1  0  0  0  0
 71128  1  0  0  0  0
 75129  1  0  0  0  0
 75130  1  0  0  0  0
 75131  1  0  0  0  0
 76132  1  0  0  0  0
 81133  1  0  0  0  0
 83134  1  0  0  0  0
 84135  1  0  0  0  0
 87136  1  0  0  0  0
 89137  1  0  0  0  0
M  END
