
  xtb     02112204413D
 energy: -265.906887465917 gnorm: 0.000570257668 xtb: 6.4.1 (unknown)
154170  0     0  0            999 V2000
   -0.1483   10.1230    1.7782 C   0  0  0  0  0  0  0  0  0  0  0  0
   -0.2753    9.7503    3.0785 C   0  0  0  0  0  0  0  0  0  0  0  0
   -1.3052   10.3838    3.9479 C   0  0  0  0  0  0  0  0  0  0  0  0
   -1.9106   11.4075    3.7287 O   0  0  0  0  0  0  0  0  0  0  0  0
   -1.4574    9.4568    5.0886 C   0  0  0  0  0  0  0  0  0  0  0  0
   -2.3782    9.4905    6.1158 C   0  0  0  0  0  0  0  0  0  0  0  0
   -2.3542    8.4834    7.0780 C   0  0  0  0  0  0  0  0  0  0  0  0
   -3.3234    8.4905    8.2167 C   0  0  0  0  0  0  0  0  0  0  0  0
   -1.4018    7.4697    6.9762 C   0  0  0  0  0  0  0  0  0  0  0  0
   -0.4662    7.4331    5.9543 C   0  0  0  0  0  0  0  0  0  0  0  0
   -0.4911    8.4370    4.9994 C   0  0  0  0  0  0  0  0  0  0  0  0
    0.3577    8.6946    3.8424 C   0  0  0  0  0  0  0  0  0  0  0  0
    1.6392    8.2379    3.6750 C   0  0  0  0  0  0  0  0  0  0  0  0
    2.2460    7.2827    4.5142 C   0  0  0  0  0  0  0  0  0  0  0  0
    2.7781    6.4948    5.1577 N   0  0  0  0  0  0  0  0  0  0  0  0
    2.5197    8.7450    2.6986 C   0  0  0  0  0  0  0  0  0  0  0  0
    3.2814    9.1706    1.9515 N   0  0  0  0  0  0  0  0  0  0  0  0
    0.4368    9.3906    0.7157 C   0  0  0  0  0  0  0  0  0  0  0  0
    0.8877    9.8983   -0.4834 C   0  0  0  0  0  0  0  0  0  0  0  0
    1.4039    8.9297   -1.3523 C   0  0  0  0  0  0  0  0  0  0  0  0
    1.9627    9.2635   -2.9836 S   0  0  0  0  0  0  0  0  0  0  0  0
    2.7644   10.8980   -2.7396 C   0  0  0  0  0  0  0  0  0  0  0  0
    3.7117   11.1663   -3.8912 C   0  0  0  0  0  0  0  0  0  0  0  0
    1.3191    7.6435   -0.8380 C   0  0  0  0  0  0  0  0  0  0  0  0
    0.5721    7.6512    0.7308 S   0  0  0  0  0  0  0  0  0  0  0  0
    1.7364    6.4023   -1.4029 C   0  0  0  0  0  0  0  0  0  0  0  0
    2.8875    6.1077   -2.1116 C   0  0  0  0  0  0  0  0  0  0  0  0
    4.0084    7.0243   -2.3079 C   0  0  0  0  0  0  0  0  0  0  0  0
    4.6958    7.0429   -3.5181 C   0  0  0  0  0  0  0  0  0  0  0  0
    5.7660    7.9005   -3.6882 C   0  0  0  0  0  0  0  0  0  0  0  0
    6.1608    8.7383   -2.6597 C   0  0  0  0  0  0  0  0  0  0  0  0
    5.4940    8.7233   -1.4392 C   0  0  0  0  0  0  0  0  0  0  0  0
    5.9489    9.5929   -0.3034 C   0  0  0  0  0  0  0  0  0  0  0  0
    7.0905    8.9168    0.4581 C   0  0  0  0  0  0  0  0  0  0  0  0
    4.4261    7.8568   -1.2722 C   0  0  0  0  0  0  0  0  0  0  0  0
    2.9013    4.7545   -2.5104 C   0  0  0  0  0  0  0  0  0  0  0  0
    4.0634    3.7866   -3.3852 S   0  0  0  0  0  0  0  0  0  0  0  0
    3.0631    2.3944   -3.1423 C   0  0  0  0  0  0  0  0  0  0  0  0
    3.0496    1.0193   -3.4449 C   0  0  0  0  0  0  0  0  0  0  0  0
    3.8649    0.1895   -4.2487 C   0  0  0  0  0  0  0  0  0  0  0  0
    3.4906   -1.1888   -4.4479 C   0  0  0  0  0  0  0  0  0  0  0  0
    4.3057   -1.8153   -5.2809 N   0  0  0  0  0  0  0  0  0  0  0  0
    5.4472   -0.7755   -5.7674 S   0  0  0  0  0  0  0  0  0  0  0  0
    4.9464    0.5192   -4.9361 N   0  0  0  0  0  0  0  0  0  0  0  0
    2.4046   -1.7228   -3.7162 C   0  0  0  0  0  0  0  0  0  0  0  0
    1.9016   -3.0260   -3.5449 C   0  0  0  0  0  0  0  0  0  0  0  0
    2.1524   -4.6253   -4.1611 S   0  0  0  0  0  0  0  0  0  0  0  0
    0.9363   -5.2211   -3.0554 C   0  0  0  0  0  0  0  0  0  0  0  0
    0.4383   -6.5070   -2.7831 C   0  0  0  0  0  0  0  0  0  0  0  0
    0.9507   -7.7313   -3.4037 C   0  0  0  0  0  0  0  0  0  0  0  0
    1.0472   -7.8382   -4.7869 C   0  0  0  0  0  0  0  0  0  0  0  0
    1.5398   -9.0006   -5.3519 C   0  0  0  0  0  0  0  0  0  0  0  0
    1.9547  -10.0483   -4.5485 C   0  0  0  0  0  0  0  0  0  0  0  0
    1.8932   -9.9458   -3.1633 C   0  0  0  0  0  0  0  0  0  0  0  0
    2.3398  -11.0769   -2.2809 C   0  0  0  0  0  0  0  0  0  0  0  0
    1.1600  -11.9701   -1.8924 C   0  0  0  0  0  0  0  0  0  0  0  0
    1.3826   -8.7852   -2.6033 C   0  0  0  0  0  0  0  0  0  0  0  0
   -0.5289   -6.4672   -1.7901 C   0  0  0  0  0  0  0  0  0  0  0  0
   -0.7988   -4.8473   -1.1672 S   0  0  0  0  0  0  0  0  0  0  0  0
    0.3784   -4.2158   -2.2582 C   0  0  0  0  0  0  0  0  0  0  0  0
    0.9273   -2.9624   -2.5415 C   0  0  0  0  0  0  0  0  0  0  0  0
    0.7839   -1.6709   -2.0992 N   0  0  0  0  0  0  0  0  0  0  0  0
    1.6639   -0.8972   -2.8315 C   0  0  0  0  0  0  0  0  0  0  0  0
    1.8824    0.4958   -2.8327 C   0  0  0  0  0  0  0  0  0  0  0  0
    1.1643    1.5210   -2.2453 N   0  0  0  0  0  0  0  0  0  0  0  0
    1.8937    2.6698   -2.4248 C   0  0  0  0  0  0  0  0  0  0  0  0
    1.7990    4.0198   -2.0707 C   0  0  0  0  0  0  0  0  0  0  0  0
    0.6992    5.0014   -1.1731 S   0  0  0  0  0  0  0  0  0  0  0  0
   -0.2764    1.5783   -2.0933 C   0  0  0  0  0  0  0  0  0  0  0  0
   -0.9248    2.3386   -3.2498 C   0  0  0  0  0  0  0  0  0  0  0  0
    0.3239   -1.4077   -0.7499 C   0  0  0  0  0  0  0  0  0  0  0  0
    1.2203   -2.0901    0.2831 C   0  0  0  0  0  0  0  0  0  0  0  0
   -1.3446   -7.5211   -1.2994 C   0  0  0  0  0  0  0  0  0  0  0  0
   -1.6632   -8.7143   -1.9114 C   0  0  0  0  0  0  0  0  0  0  0  0
   -2.5182   -9.5149   -1.1476 C   0  0  0  0  0  0  0  0  0  0  0  0
   -3.1262  -11.0825   -1.5938 S   0  0  0  0  0  0  0  0  0  0  0  0
   -2.4259  -11.3254   -3.2715 C   0  0  0  0  0  0  0  0  0  0  0  0
   -2.7805  -12.7195   -3.7514 C   0  0  0  0  0  0  0  0  0  0  0  0
   -2.9080   -8.9205    0.0588 C   0  0  0  0  0  0  0  0  0  0  0  0
   -2.1311   -7.3644    0.2386 S   0  0  0  0  0  0  0  0  0  0  0  0
   -3.7173   -9.4907    1.0511 C   0  0  0  0  0  0  0  0  0  0  0  0
   -4.3115   -8.8737    2.1197 C   0  0  0  0  0  0  0  0  0  0  0  0
   -4.6643   -9.6516    3.3302 C   0  0  0  0  0  0  0  0  0  0  0  0
   -4.7049  -10.8573    3.4411 O   0  0  0  0  0  0  0  0  0  0  0  0
   -4.8873   -8.6392    4.3861 C   0  0  0  0  0  0  0  0  0  0  0  0
   -5.1241   -8.8208    5.7172 C   0  0  0  0  0  0  0  0  0  0  0  0
   -5.2714   -7.6897    6.5527 C   0  0  0  0  0  0  0  0  0  0  0  0
   -5.5151   -7.8218    7.9347 C   0  0  0  0  0  0  0  0  0  0  0  0
   -5.6480   -6.7218    8.7362 C   0  0  0  0  0  0  0  0  0  0  0  0
   -5.5386   -5.4487    8.1620 C   0  0  0  0  0  0  0  0  0  0  0  0
   -5.6707   -4.3760    8.9667 F   0  0  0  0  0  0  0  0  0  0  0  0
   -5.3043   -5.2638    6.8281 C   0  0  0  0  0  0  0  0  0  0  0  0
   -5.1667   -6.3856    5.9878 C   0  0  0  0  0  0  0  0  0  0  0  0
   -4.9323   -6.2271    4.6016 C   0  0  0  0  0  0  0  0  0  0  0  0
   -4.7996   -7.3372    3.8143 C   0  0  0  0  0  0  0  0  0  0  0  0
   -4.5926   -7.4835    2.3761 C   0  0  0  0  0  0  0  0  0  0  0  0
   -4.8915   -6.5296    1.4331 C   0  0  0  0  0  0  0  0  0  0  0  0
   -5.2039   -5.1926    1.7373 C   0  0  0  0  0  0  0  0  0  0  0  0
   -5.4328   -4.0831    1.9290 N   0  0  0  0  0  0  0  0  0  0  0  0
   -5.0016   -6.8175    0.0581 C   0  0  0  0  0  0  0  0  0  0  0  0
   -5.1561   -7.0327   -1.0596 N   0  0  0  0  0  0  0  0  0  0  0  0
   -0.6155   11.0642    1.5058 H   0  0  0  0  0  0  0  0  0  0  0  0
   -3.1024   10.2900    6.1626 H   0  0  0  0  0  0  0  0  0  0  0  0
   -3.6971    7.4874    8.4114 H   0  0  0  0  0  0  0  0  0  0  0  0
   -2.8281    8.8417    9.1223 H   0  0  0  0  0  0  0  0  0  0  0  0
   -4.1628    9.1491    8.0103 H   0  0  0  0  0  0  0  0  0  0  0  0
   -1.3945    6.6862    7.7200 H   0  0  0  0  0  0  0  0  0  0  0  0
    0.2500    6.6284    5.9036 H   0  0  0  0  0  0  0  0  0  0  0  0
    0.8584   10.9491   -0.7067 H   0  0  0  0  0  0  0  0  0  0  0  0
    1.9830   11.6569   -2.6933 H   0  0  0  0  0  0  0  0  0  0  0  0
    3.2991   10.8465   -1.7920 H   0  0  0  0  0  0  0  0  0  0  0  0
    4.4768   10.3948   -3.9357 H   0  0  0  0  0  0  0  0  0  0  0  0
    4.1922   12.1326   -3.7537 H   0  0  0  0  0  0  0  0  0  0  0  0
    3.1716   11.1755   -4.8352 H   0  0  0  0  0  0  0  0  0  0  0  0
    4.3751    6.4059   -4.3279 H   0  0  0  0  0  0  0  0  0  0  0  0
    6.2918    7.9193   -4.6317 H   0  0  0  0  0  0  0  0  0  0  0  0
    6.9950    9.4110   -2.8018 H   0  0  0  0  0  0  0  0  0  0  0  0
    5.1205    9.7670    0.3841 H   0  0  0  0  0  0  0  0  0  0  0  0
    6.2941   10.5555   -0.6889 H   0  0  0  0  0  0  0  0  0  0  0  0
    7.9329    8.7256   -0.2038 H   0  0  0  0  0  0  0  0  0  0  0  0
    7.4261    9.5493    1.2763 H   0  0  0  0  0  0  0  0  0  0  0  0
    6.7551    7.9679    0.8702 H   0  0  0  0  0  0  0  0  0  0  0  0
    3.9180    7.8271   -0.3184 H   0  0  0  0  0  0  0  0  0  0  0  0
    0.7253   -7.0188   -5.4113 H   0  0  0  0  0  0  0  0  0  0  0  0
    1.6049   -9.0874   -6.4262 H   0  0  0  0  0  0  0  0  0  0  0  0
    2.3434  -10.9503   -4.9988 H   0  0  0  0  0  0  0  0  0  0  0  0
    2.7951  -10.6738   -1.3741 H   0  0  0  0  0  0  0  0  0  0  0  0
    3.0883  -11.6770   -2.8013 H   0  0  0  0  0  0  0  0  0  0  0  0
    0.4024  -11.3927   -1.3658 H   0  0  0  0  0  0  0  0  0  0  0  0
    1.4925  -12.7738   -1.2398 H   0  0  0  0  0  0  0  0  0  0  0  0
    0.7116  -12.4130   -2.7797 H   0  0  0  0  0  0  0  0  0  0  0  0
    1.3313   -8.6868   -1.5281 H   0  0  0  0  0  0  0  0  0  0  0  0
   -0.5110    2.0742   -1.1458 H   0  0  0  0  0  0  0  0  0  0  0  0
   -0.6734    0.5646   -2.0850 H   0  0  0  0  0  0  0  0  0  0  0  0
   -0.6018    3.3756   -3.2665 H   0  0  0  0  0  0  0  0  0  0  0  0
   -2.0051    2.3159   -3.1373 H   0  0  0  0  0  0  0  0  0  0  0  0
   -0.6616    1.8748   -4.1980 H   0  0  0  0  0  0  0  0  0  0  0  0
   -0.7025   -1.7756   -0.6535 H   0  0  0  0  0  0  0  0  0  0  0  0
    0.3462   -0.3359   -0.5660 H   0  0  0  0  0  0  0  0  0  0  0  0
    2.2481   -1.7519    0.1692 H   0  0  0  0  0  0  0  0  0  0  0  0
    1.1937   -3.1705    0.1729 H   0  0  0  0  0  0  0  0  0  0  0  0
    0.8774   -1.8377    1.2824 H   0  0  0  0  0  0  0  0  0  0  0  0
   -1.2954   -8.9668   -2.8871 H   0  0  0  0  0  0  0  0  0  0  0  0
   -2.8584  -10.5626   -3.9186 H   0  0  0  0  0  0  0  0  0  0  0  0
   -1.3463  -11.1971   -3.2095 H   0  0  0  0  0  0  0  0  0  0  0  0
   -2.3770  -12.8776   -4.7492 H   0  0  0  0  0  0  0  0  0  0  0  0
   -2.3646  -13.4694   -3.0824 H   0  0  0  0  0  0  0  0  0  0  0  0
   -3.8594  -12.8496   -3.7867 H   0  0  0  0  0  0  0  0  0  0  0  0
   -3.8144  -10.5721    1.0138 H   0  0  0  0  0  0  0  0  0  0  0  0
   -5.1981   -9.8154    6.1310 H   0  0  0  0  0  0  0  0  0  0  0  0
   -5.5949   -8.8134    8.3544 H   0  0  0  0  0  0  0  0  0  0  0  0
   -5.8339   -6.8066    9.7952 H   0  0  0  0  0  0  0  0  0  0  0  0
   -5.2296   -4.2683    6.4190 H   0  0  0  0  0  0  0  0  0  0  0  0
   -4.8525   -5.2300    4.1977 H   0  0  0  0  0  0  0  0  0  0  0  0
  1  2  2  0  0  0  0
  2  3  1  0  0  0  0
  3  4  2  0  0  0  0
  3  5  1  0  0  0  0
  5  6  2  0  0  0  0
  6  7  1  0  0  0  0
  7  8  1  0  0  0  0
  7  9  2  0  0  0  0
  9 10  1  0  0  0  0
 10 11  2  0  0  0  0
 11 12  1  0  0  0  0
 12 13  2  0  0  0  0
 13 14  1  0  0  0  0
 14 15  3  0  0  0  0
 13 16  1  0  0  0  0
 16 17  3  0  0  0  0
  1 18  1  0  0  0  0
 18 19  2  0  0  0  0
 19 20  1  0  0  0  0
 20 21  1  0  0  0  0
 21 22  1  0  0  0  0
 22 23  1  0  0  0  0
 20 24  2  0  0  0  0
 24 25  1  0  0  0  0
 24 26  1  0  0  0  0
 26 27  2  0  0  0  0
 27 28  1  0  0  0  0
 28 29  2  0  0  0  0
 29 30  1  0  0  0  0
 30 31  2  0  0  0  0
 31 32  1  0  0  0  0
 32 33  1  0  0  0  0
 33 34  1  0  0  0  0
 32 35  2  0  0  0  0
 27 36  1  0  0  0  0
 36 37  1  0  0  0  0
 37 38  1  0  0  0  0
 38 39  1  0  0  0  0
 39 40  1  0  0  0  0
 40 41  1  0  0  0  0
 41 42  2  0  0  0  0
 42 43  1  0  0  0  0
 43 44  1  0  0  0  0
 41 45  1  0  0  0  0
 45 46  1  0  0  0  0
 46 47  1  0  0  0  0
 47 48  1  0  0  0  0
 48 49  1  0  0  0  0
 49 50  1  0  0  0  0
 50 51  2  0  0  0  0
 51 52  1  0  0  0  0
 52 53  2  0  0  0  0
 53 54  1  0  0  0  0
 54 55  1  0  0  0  0
 55 56  1  0  0  0  0
 54 57  2  0  0  0  0
 49 58  2  0  0  0  0
 58 59  1  0  0  0  0
 59 60  1  0  0  0  0
 60 61  1  0  0  0  0
 61 62  1  0  0  0  0
 62 63  1  0  0  0  0
 63 64  1  0  0  0  0
 64 65  1  0  0  0  0
 65 66  1  0  0  0  0
 66 67  1  0  0  0  0
 67 68  1  0  0  0  0
 65 69  1  0  0  0  0
 69 70  1  0  0  0  0
 62 71  1  0  0  0  0
 71 72  1  0  0  0  0
 58 73  1  0  0  0  0
 73 74  2  0  0  0  0
 74 75  1  0  0  0  0
 75 76  1  0  0  0  0
 76 77  1  0  0  0  0
 77 78  1  0  0  0  0
 75 79  2  0  0  0  0
 79 80  1  0  0  0  0
 79 81  1  0  0  0  0
 81 82  2  0  0  0  0
 82 83  1  0  0  0  0
 83 84  2  0  0  0  0
 83 85  1  0  0  0  0
 85 86  2  0  0  0  0
 86 87  1  0  0  0  0
 87 88  2  0  0  0  0
 88 89  1  0  0  0  0
 89 90  2  0  0  0  0
 90 91  1  0  0  0  0
 90 92  1  0  0  0  0
 92 93  2  0  0  0  0
 93 94  1  0  0  0  0
 94 95  2  0  0  0  0
 95 96  1  0  0  0  0
 96 97  2  0  0  0  0
 97 98  1  0  0  0  0
 98 99  3  0  0  0  0
 97100  1  0  0  0  0
100101  3  0  0  0  0
 12  2  1  0  0  0  0
 25 18  1  0  0  0  0
 68 26  1  0  0  0  0
 80 73  1  0  0  0  0
 96 82  1  0  0  0  0
 11  5  1  0  0  0  0
 35 28  1  0  0  0  0
 67 36  2  0  0  0  0
 95 85  1  0  0  0  0
 66 38  2  0  0  0  0
 93 87  1  0  0  0  0
 64 39  2  0  0  0  0
 44 40  2  0  0  0  0
 63 45  2  0  0  0  0
 61 46  2  0  0  0  0
 60 48  2  0  0  0  0
 57 50  1  0  0  0  0
  1102  1  0  0  0  0
  6103  1  0  0  0  0
  8104  1  0  0  0  0
  8105  1  0  0  0  0
  8106  1  0  0  0  0
  9107  1  0  0  0  0
 10108  1  0  0  0  0
 19109  1  0  0  0  0
 22110  1  0  0  0  0
 22111  1  0  0  0  0
 23112  1  0  0  0  0
 23113  1  0  0  0  0
 23114  1  0  0  0  0
 29115  1  0  0  0  0
 30116  1  0  0  0  0
 31117  1  0  0  0  0
 33118  1  0  0  0  0
 33119  1  0  0  0  0
 34120  1  0  0  0  0
 34121  1  0  0  0  0
 34122  1  0  0  0  0
 35123  1  0  0  0  0
 51124  1  0  0  0  0
 52125  1  0  0  0  0
 53126  1  0  0  0  0
 55127  1  0  0  0  0
 55128  1  0  0  0  0
 56129  1  0  0  0  0
 56130  1  0  0  0  0
 56131  1  0  0  0  0
 57132  1  0  0  0  0
 69133  1  0  0  0  0
 69134  1  0  0  0  0
 70135  1  0  0  0  0
 70136  1  0  0  0  0
 70137  1  0  0  0  0
 71138  1  0  0  0  0
 71139  1  0  0  0  0
 72140  1  0  0  0  0
 72141  1  0  0  0  0
 72142  1  0  0  0  0
 74143  1  0  0  0  0
 77144  1  0  0  0  0
 77145  1  0  0  0  0
 78146  1  0  0  0  0
 78147  1  0  0  0  0
 78148  1  0  0  0  0
 81149  1  0  0  0  0
 86150  1  0  0  0  0
 88151  1  0  0  0  0
 89152  1  0  0  0  0
 92153  1  0  0  0  0
 94154  1  0  0  0  0
M  END
