
  xtb     02112210203D
 energy: -268.270378472365 gnorm: 0.000724351046 xtb: 6.4.1 (unknown)
148163  0     0  0            999 V2000
   -6.4557    1.4758   -8.3217 C   0  0  0  0  0  0  0  0  0  0  0  0
   -7.5379    2.3100   -8.4554 C   0  0  0  0  0  0  0  0  0  0  0  0
   -7.9614    3.3152   -7.4770 C   0  0  0  0  0  0  0  0  0  0  0  0
   -7.4253    3.5979   -6.4183 O   0  0  0  0  0  0  0  0  0  0  0  0
   -9.1803    3.9340   -8.0267 C   0  0  0  0  0  0  0  0  0  0  0  0
   -9.9704    4.9188   -7.4761 C   0  0  0  0  0  0  0  0  0  0  0  0
  -11.0961    5.3521   -8.1773 C   0  0  0  0  0  0  0  0  0  0  0  0
  -11.9715    6.4160   -7.5956 C   0  0  0  0  0  0  0  0  0  0  0  0
  -11.3816    4.7784   -9.4121 C   0  0  0  0  0  0  0  0  0  0  0  0
  -10.5875    3.7864   -9.9728 C   0  0  0  0  0  0  0  0  0  0  0  0
   -9.4723    3.3537   -9.2744 C   0  0  0  0  0  0  0  0  0  0  0  0
   -8.4593    2.3433   -9.5734 C   0  0  0  0  0  0  0  0  0  0  0  0
   -8.4176    1.5798  -10.7129 C   0  0  0  0  0  0  0  0  0  0  0  0
   -9.3538    1.6765  -11.7633 C   0  0  0  0  0  0  0  0  0  0  0  0
  -10.0763    1.7010  -12.6554 N   0  0  0  0  0  0  0  0  0  0  0  0
   -7.4524    0.5976  -11.0128 C   0  0  0  0  0  0  0  0  0  0  0  0
   -6.7099   -0.2193  -11.3336 N   0  0  0  0  0  0  0  0  0  0  0  0
   -5.5385    1.3537   -7.2692 C   0  0  0  0  0  0  0  0  0  0  0  0
   -4.5072    0.4163   -7.2939 C   0  0  0  0  0  0  0  0  0  0  0  0
   -3.7083    0.4191   -6.1608 C   0  0  0  0  0  0  0  0  0  0  0  0
   -2.3368   -0.6416   -5.8954 S   0  0  0  0  0  0  0  0  0  0  0  0
   -2.0979   -1.4119   -7.5440 C   0  0  0  0  0  0  0  0  0  0  0  0
   -0.8229   -2.2319   -7.5138 C   0  0  0  0  0  0  0  0  0  0  0  0
   -4.1196    1.3777   -5.2208 C   0  0  0  0  0  0  0  0  0  0  0  0
   -5.5036    2.2673   -5.7832 S   0  0  0  0  0  0  0  0  0  0  0  0
   -3.5555    1.6676   -3.9574 C   0  0  0  0  0  0  0  0  0  0  0  0
   -3.9497    2.6695   -3.0768 C   0  0  0  0  0  0  0  0  0  0  0  0
   -5.0594    3.6109   -3.3031 C   0  0  0  0  0  0  0  0  0  0  0  0
   -4.8262    4.8406   -3.9065 C   0  0  0  0  0  0  0  0  0  0  0  0
   -5.8786    5.7136   -4.1051 C   0  0  0  0  0  0  0  0  0  0  0  0
   -7.1561    5.3680   -3.7044 C   0  0  0  0  0  0  0  0  0  0  0  0
   -7.4009    4.1501   -3.0857 C   0  0  0  0  0  0  0  0  0  0  0  0
   -8.7923    3.7475   -2.6900 C   0  0  0  0  0  0  0  0  0  0  0  0
   -9.3957    2.8312   -3.7560 C   0  0  0  0  0  0  0  0  0  0  0  0
   -6.3410    3.2791   -2.8844 C   0  0  0  0  0  0  0  0  0  0  0  0
   -3.1671    2.6776   -1.9178 C   0  0  0  0  0  0  0  0  0  0  0  0
   -3.1859    3.6846   -0.4892 S   0  0  0  0  0  0  0  0  0  0  0  0
   -1.8695    2.7568    0.1493 C   0  0  0  0  0  0  0  0  0  0  0  0
   -1.0872    2.6798    1.3148 C   0  0  0  0  0  0  0  0  0  0  0  0
   -1.1488    3.3394    2.5641 C   0  0  0  0  0  0  0  0  0  0  0  0
   -0.2936    2.8976    3.6358 C   0  0  0  0  0  0  0  0  0  0  0  0
   -0.5211    3.5521    4.7634 N   0  0  0  0  0  0  0  0  0  0  0  0
   -1.6960    4.6351    4.5034 S   0  0  0  0  0  0  0  0  0  0  0  0
   -1.9660    4.3092    2.9419 N   0  0  0  0  0  0  0  0  0  0  0  0
    0.6871    1.9137    3.3745 C   0  0  0  0  0  0  0  0  0  0  0  0
    1.7228    1.3584    4.1457 C   0  0  0  0  0  0  0  0  0  0  0  0
    2.3094    1.4000    5.7723 S   0  0  0  0  0  0  0  0  0  0  0  0
    3.5707    0.2756    5.3227 C   0  0  0  0  0  0  0  0  0  0  0  0
    4.6174   -0.3152    6.0496 C   0  0  0  0  0  0  0  0  0  0  0  0
    4.8881    0.0311    7.4458 C   0  0  0  0  0  0  0  0  0  0  0  0
    6.1662    0.4082    7.8532 C   0  0  0  0  0  0  0  0  0  0  0  0
    6.3845    0.7904    9.1625 C   0  0  0  0  0  0  0  0  0  0  0  0
    5.3386    0.8071   10.0702 C   0  0  0  0  0  0  0  0  0  0  0  0
    4.0570    0.4418    9.6789 C   0  0  0  0  0  0  0  0  0  0  0  0
    2.9024    0.5162   10.6350 C   0  0  0  0  0  0  0  0  0  0  0  0
    2.1591    1.8423   10.4602 C   0  0  0  0  0  0  0  0  0  0  0  0
    3.8434    0.0586    8.3629 C   0  0  0  0  0  0  0  0  0  0  0  0
    5.3593   -1.1764    5.2479 C   0  0  0  0  0  0  0  0  0  0  0  0
    4.7869   -1.2044    3.5825 S   0  0  0  0  0  0  0  0  0  0  0  0
    3.5285   -0.0899    3.9722 C   0  0  0  0  0  0  0  0  0  0  0  0
    2.4723    0.5304    3.2997 C   0  0  0  0  0  0  0  0  0  0  0  0
    1.9371    0.5403    2.0344 N   0  0  0  0  0  0  0  0  0  0  0  0
    0.8195    1.3536    2.0768 C   0  0  0  0  0  0  0  0  0  0  0  0
   -0.1658    1.6201    1.1038 C   0  0  0  0  0  0  0  0  0  0  0  0
   -0.4126    1.0302   -0.1225 N   0  0  0  0  0  0  0  0  0  0  0  0
   -1.4421    1.7292   -0.7021 C   0  0  0  0  0  0  0  0  0  0  0  0
   -2.1831    1.6823   -1.8861 C   0  0  0  0  0  0  0  0  0  0  0  0
   -2.2049    0.7294   -3.3257 S   0  0  0  0  0  0  0  0  0  0  0  0
   -0.1935   -0.3595   -0.4721 C   0  0  0  0  0  0  0  0  0  0  0  0
   -1.4507   -1.1949   -0.2320 C   0  0  0  0  0  0  0  0  0  0  0  0
    2.7767    0.3002    0.8766 C   0  0  0  0  0  0  0  0  0  0  0  0
    3.9919    1.2270    0.8693 C   0  0  0  0  0  0  0  0  0  0  0  0
    6.4064   -2.0630    5.5982 C   0  0  0  0  0  0  0  0  0  0  0  0
    6.7964   -2.4743    6.8678 C   0  0  0  0  0  0  0  0  0  0  0  0
    7.8169   -3.4051    6.8353 C   0  0  0  0  0  0  0  0  0  0  0  0
    8.4965   -4.1131    8.3087 S   0  0  0  0  0  0  0  0  0  0  0  0
    7.6263   -5.7275    8.3017 C   0  0  0  0  0  0  0  0  0  0  0  0
    6.1389   -5.5650    8.5346 C   0  0  0  0  0  0  0  0  0  0  0  0
    8.2677   -3.7273    5.5421 C   0  0  0  0  0  0  0  0  0  0  0  0
    7.3363   -2.8442    4.3565 S   0  0  0  0  0  0  0  0  0  0  0  0
    9.3147   -4.6173    5.2981 C   0  0  0  0  0  0  0  0  0  0  0  0
    9.9124   -4.9773    4.1134 C   0  0  0  0  0  0  0  0  0  0  0  0
    9.6218   -4.4130    2.7979 C   0  0  0  0  0  0  0  0  0  0  0  0
    8.6968   -3.6880    2.4846 O   0  0  0  0  0  0  0  0  0  0  0  0
   10.7136   -4.8792    1.9107 C   0  0  0  0  0  0  0  0  0  0  0  0
   10.9710   -4.5284    0.5980 C   0  0  0  0  0  0  0  0  0  0  0  0
    9.8925   -3.5492   -0.2901 Cl  0  0  0  0  0  0  0  0  0  0  0  0
   12.1560   -4.9921    0.0085 C   0  0  0  0  0  0  0  0  0  0  0  0
   12.5032   -4.6105   -1.6217 Cl  0  0  0  0  0  0  0  0  0  0  0  0
   13.0706   -5.7259    0.7612 C   0  0  0  0  0  0  0  0  0  0  0  0
   14.5539   -6.1955    0.0506 Cl  0  0  0  0  0  0  0  0  0  0  0  0
   12.8051   -6.0751    2.0962 C   0  0  0  0  0  0  0  0  0  0  0  0
   14.0494   -6.8271    3.0056 Cl  0  0  0  0  0  0  0  0  0  0  0  0
   11.5858   -5.7064    2.6479 C   0  0  0  0  0  0  0  0  0  0  0  0
   10.9860   -5.9395    3.9610 C   0  0  0  0  0  0  0  0  0  0  0  0
   11.2085   -7.0113    4.7856 C   0  0  0  0  0  0  0  0  0  0  0  0
   10.5041   -7.2350    5.9889 C   0  0  0  0  0  0  0  0  0  0  0  0
    9.9598   -7.4988    6.9650 N   0  0  0  0  0  0  0  0  0  0  0  0
   11.9920   -8.1469    4.4873 C   0  0  0  0  0  0  0  0  0  0  0  0
   12.5165   -9.1521    4.3093 N   0  0  0  0  0  0  0  0  0  0  0  0
   -6.2652    0.7865   -9.1353 H   0  0  0  0  0  0  0  0  0  0  0  0
   -9.7141    5.3436   -6.5167 H   0  0  0  0  0  0  0  0  0  0  0  0
  -12.8002    6.6499   -8.2583 H   0  0  0  0  0  0  0  0  0  0  0  0
  -11.3955    7.3240   -7.4213 H   0  0  0  0  0  0  0  0  0  0  0  0
  -12.3719    6.0904   -6.6362 H   0  0  0  0  0  0  0  0  0  0  0  0
  -12.2521    5.1140   -9.9568 H   0  0  0  0  0  0  0  0  0  0  0  0
  -10.8504    3.3728  -10.9324 H   0  0  0  0  0  0  0  0  0  0  0  0
   -4.3763   -0.2433   -8.1321 H   0  0  0  0  0  0  0  0  0  0  0  0
   -2.9620   -2.0428   -7.7516 H   0  0  0  0  0  0  0  0  0  0  0  0
   -2.0317   -0.6080   -8.2766 H   0  0  0  0  0  0  0  0  0  0  0  0
   -0.6606   -2.6951   -8.4846 H   0  0  0  0  0  0  0  0  0  0  0  0
   -0.8907   -3.0133   -6.7604 H   0  0  0  0  0  0  0  0  0  0  0  0
    0.0309   -1.6002   -7.2800 H   0  0  0  0  0  0  0  0  0  0  0  0
   -3.8270    5.1004   -4.2237 H   0  0  0  0  0  0  0  0  0  0  0  0
   -5.7008    6.6675   -4.5795 H   0  0  0  0  0  0  0  0  0  0  0  0
   -7.9741    6.0541   -3.8715 H   0  0  0  0  0  0  0  0  0  0  0  0
   -9.4177    4.6354   -2.5786 H   0  0  0  0  0  0  0  0  0  0  0  0
   -8.7706    3.2230   -1.7320 H   0  0  0  0  0  0  0  0  0  0  0  0
  -10.4254    2.5799   -3.5101 H   0  0  0  0  0  0  0  0  0  0  0  0
   -9.3727    3.3216   -4.7256 H   0  0  0  0  0  0  0  0  0  0  0  0
   -8.8200    1.9119   -3.8340 H   0  0  0  0  0  0  0  0  0  0  0  0
   -6.5112    2.3245   -2.4062 H   0  0  0  0  0  0  0  0  0  0  0  0
    6.9767    0.4106    7.1397 H   0  0  0  0  0  0  0  0  0  0  0  0
    7.3758    1.0815    9.4765 H   0  0  0  0  0  0  0  0  0  0  0  0
    5.5188    1.1095   11.0915 H   0  0  0  0  0  0  0  0  0  0  0  0
    2.2125   -0.3092   10.4473 H   0  0  0  0  0  0  0  0  0  0  0  0
    3.2631    0.4350   11.6619 H   0  0  0  0  0  0  0  0  0  0  0  0
    1.7876    1.9374    9.4424 H   0  0  0  0  0  0  0  0  0  0  0  0
    1.3169    1.8986   11.1457 H   0  0  0  0  0  0  0  0  0  0  0  0
    2.8260    2.6780   10.6596 H   0  0  0  0  0  0  0  0  0  0  0  0
    2.8530   -0.2370    8.0484 H   0  0  0  0  0  0  0  0  0  0  0  0
    0.6079   -0.7630    0.1429 H   0  0  0  0  0  0  0  0  0  0  0  0
    0.0895   -0.4114   -1.5281 H   0  0  0  0  0  0  0  0  0  0  0  0
   -2.2639   -0.8692   -0.8738 H   0  0  0  0  0  0  0  0  0  0  0  0
   -1.7659   -1.1084    0.8057 H   0  0  0  0  0  0  0  0  0  0  0  0
   -1.2385   -2.2382   -0.4478 H   0  0  0  0  0  0  0  0  0  0  0  0
    3.1075   -0.7434    0.8898 H   0  0  0  0  0  0  0  0  0  0  0  0
    2.1970    0.4912   -0.0248 H   0  0  0  0  0  0  0  0  0  0  0  0
    3.6719    2.2664    0.9004 H   0  0  0  0  0  0  0  0  0  0  0  0
    4.5642    1.0643   -0.0397 H   0  0  0  0  0  0  0  0  0  0  0  0
    4.6384    1.0339    1.7204 H   0  0  0  0  0  0  0  0  0  0  0  0
    6.3393   -2.1351    7.7787 H   0  0  0  0  0  0  0  0  0  0  0  0
    7.8414   -6.2252    7.3575 H   0  0  0  0  0  0  0  0  0  0  0  0
    8.0999   -6.2837    9.1087 H   0  0  0  0  0  0  0  0  0  0  0  0
    5.9541   -5.0452    9.4721 H   0  0  0  0  0  0  0  0  0  0  0  0
    5.6801   -4.9964    7.7271 H   0  0  0  0  0  0  0  0  0  0  0  0
    5.6673   -6.5445    8.5792 H   0  0  0  0  0  0  0  0  0  0  0  0
    9.7384   -5.0351    6.2054 H   0  0  0  0  0  0  0  0  0  0  0  0
  1  2  2  0  0  0  0
  2  3  1  0  0  0  0
  3  4  2  0  0  0  0
  3  5  1  0  0  0  0
  5  6  2  0  0  0  0
  6  7  1  0  0  0  0
  7  8  1  0  0  0  0
  7  9  2  0  0  0  0
  9 10  1  0  0  0  0
 10 11  2  0  0  0  0
 11 12  1  0  0  0  0
 12 13  2  0  0  0  0
 13 14  1  0  0  0  0
 14 15  3  0  0  0  0
 13 16  1  0  0  0  0
 16 17  3  0  0  0  0
  1 18  1  0  0  0  0
 18 19  2  0  0  0  0
 19 20  1  0  0  0  0
 20 21  1  0  0  0  0
 21 22  1  0  0  0  0
 22 23  1  0  0  0  0
 20 24  2  0  0  0  0
 24 25  1  0  0  0  0
 24 26  1  0  0  0  0
 26 27  2  0  0  0  0
 27 28  1  0  0  0  0
 28 29  2  0  0  0  0
 29 30  1  0  0  0  0
 30 31  2  0  0  0  0
 31 32  1  0  0  0  0
 32 33  1  0  0  0  0
 33 34  1  0  0  0  0
 32 35  2  0  0  0  0
 27 36  1  0  0  0  0
 36 37  1  0  0  0  0
 37 38  1  0  0  0  0
 38 39  1  0  0  0  0
 39 40  1  0  0  0  0
 40 41  1  0  0  0  0
 41 42  2  0  0  0  0
 42 43  1  0  0  0  0
 43 44  1  0  0  0  0
 41 45  1  0  0  0  0
 45 46  1  0  0  0  0
 46 47  1  0  0  0  0
 47 48  1  0  0  0  0
 48 49  1  0  0  0  0
 49 50  1  0  0  0  0
 50 51  2  0  0  0  0
 51 52  1  0  0  0  0
 52 53  2  0  0  0  0
 53 54  1  0  0  0  0
 54 55  1  0  0  0  0
 55 56  1  0  0  0  0
 54 57  2  0  0  0  0
 49 58  2  0  0  0  0
 58 59  1  0  0  0  0
 59 60  1  0  0  0  0
 60 61  1  0  0  0  0
 61 62  1  0  0  0  0
 62 63  1  0  0  0  0
 63 64  1  0  0  0  0
 64 65  1  0  0  0  0
 65 66  1  0  0  0  0
 66 67  1  0  0  0  0
 67 68  1  0  0  0  0
 65 69  1  0  0  0  0
 69 70  1  0  0  0  0
 62 71  1  0  0  0  0
 71 72  1  0  0  0  0
 58 73  1  0  0  0  0
 73 74  2  0  0  0  0
 74 75  1  0  0  0  0
 75 76  1  0  0  0  0
 76 77  1  0  0  0  0
 77 78  1  0  0  0  0
 75 79  2  0  0  0  0
 79 80  1  0  0  0  0
 79 81  1  0  0  0  0
 81 82  2  0  0  0  0
 82 83  1  0  0  0  0
 83 84  2  0  0  0  0
 83 85  1  0  0  0  0
 85 86  2  0  0  0  0
 86 87  1  0  0  0  0
 86 88  1  0  0  0  0
 88 89  1  0  0  0  0
 88 90  2  0  0  0  0
 90 91  1  0  0  0  0
 90 92  1  0  0  0  0
 92 93  1  0  0  0  0
 92 94  2  0  0  0  0
 94 95  1  0  0  0  0
 95 96  2  0  0  0  0
 96 97  1  0  0  0  0
 97 98  3  0  0  0  0
 96 99  1  0  0  0  0
 99100  3  0  0  0  0
 12  2  1  0  0  0  0
 25 18  1  0  0  0  0
 68 26  1  0  0  0  0
 80 73  1  0  0  0  0
 95 82  1  0  0  0  0
 11  5  1  0  0  0  0
 35 28  1  0  0  0  0
 67 36  2  0  0  0  0
 94 85  1  0  0  0  0
 66 38  2  0  0  0  0
 64 39  2  0  0  0  0
 44 40  2  0  0  0  0
 63 45  2  0  0  0  0
 61 46  2  0  0  0  0
 60 48  2  0  0  0  0
 57 50  1  0  0  0  0
  1101  1  0  0  0  0
  6102  1  0  0  0  0
  8103  1  0  0  0  0
  8104  1  0  0  0  0
  8105  1  0  0  0  0
  9106  1  0  0  0  0
 10107  1  0  0  0  0
 19108  1  0  0  0  0
 22109  1  0  0  0  0
 22110  1  0  0  0  0
 23111  1  0  0  0  0
 23112  1  0  0  0  0
 23113  1  0  0  0  0
 29114  1  0  0  0  0
 30115  1  0  0  0  0
 31116  1  0  0  0  0
 33117  1  0  0  0  0
 33118  1  0  0  0  0
 34119  1  0  0  0  0
 34120  1  0  0  0  0
 34121  1  0  0  0  0
 35122  1  0  0  0  0
 51123  1  0  0  0  0
 52124  1  0  0  0  0
 53125  1  0  0  0  0
 55126  1  0  0  0  0
 55127  1  0  0  0  0
 56128  1  0  0  0  0
 56129  1  0  0  0  0
 56130  1  0  0  0  0
 57131  1  0  0  0  0
 69132  1  0  0  0  0
 69133  1  0  0  0  0
 70134  1  0  0  0  0
 70135  1  0  0  0  0
 70136  1  0  0  0  0
 71137  1  0  0  0  0
 71138  1  0  0  0  0
 72139  1  0  0  0  0
 72140  1  0  0  0  0
 72141  1  0  0  0  0
 74142  1  0  0  0  0
 77143  1  0  0  0  0
 77144  1  0  0  0  0
 78145  1  0  0  0  0
 78146  1  0  0  0  0
 78147  1  0  0  0  0
 81148  1  0  0  0  0
M  END
