148

C         -6.45570        1.47580       -8.32170
C         -7.53790        2.31000       -8.45540
C         -7.96140        3.31520       -7.47700
O         -7.42530        3.59790       -6.41830
C         -9.18030        3.93400       -8.02670
C         -9.97040        4.91880       -7.47610
C        -11.09610        5.35210       -8.17730
C        -11.97150        6.41600       -7.59560
C        -11.38160        4.77840       -9.41210
C        -10.58750        3.78640       -9.97280
C         -9.47230        3.35370       -9.27440
C         -8.45930        2.34330       -9.57340
C         -8.41760        1.57980      -10.71290
C         -9.35380        1.67650      -11.76330
N        -10.07630        1.70100      -12.65540
C         -7.45240        0.59760      -11.01280
N         -6.70990       -0.21930      -11.33360
C         -5.53850        1.35370       -7.26920
C         -4.50720        0.41630       -7.29390
C         -3.70830        0.41910       -6.16080
S         -2.33680       -0.64160       -5.89540
C         -2.09790       -1.41190       -7.54400
C         -0.82290       -2.23190       -7.51380
C         -4.11960        1.37770       -5.22080
S         -5.50360        2.26730       -5.78320
C         -3.55550        1.66760       -3.95740
C         -3.94970        2.66950       -3.07680
C         -5.05940        3.61090       -3.30310
C         -4.82620        4.84060       -3.90650
C         -5.87860        5.71360       -4.10510
C         -7.15610        5.36800       -3.70440
C         -7.40090        4.15010       -3.08570
C         -8.79230        3.74750       -2.69000
C         -9.39570        2.83120       -3.75600
C         -6.34100        3.27910       -2.88440
C         -3.16710        2.67760       -1.91780
S         -3.18590        3.68460       -0.48920
C         -1.86950        2.75680        0.14930
C         -1.08720        2.67980        1.31480
C         -1.14880        3.33940        2.56410
C         -0.29360        2.89760        3.63580
N         -0.52110        3.55210        4.76340
S         -1.69600        4.63510        4.50340
N         -1.96600        4.30920        2.94190
C          0.68710        1.91370        3.37450
C          1.72280        1.35840        4.14570
S          2.30940        1.40000        5.77230
C          3.57070        0.27560        5.32270
C          4.61740       -0.31520        6.04960
C          4.88810        0.03110        7.44580
C          6.16620        0.40820        7.85320
C          6.38450        0.79040        9.16250
C          5.33860        0.80710       10.07020
C          4.05700        0.44180        9.67890
C          2.90240        0.51620       10.63500
C          2.15910        1.84230       10.46020
C          3.84340        0.05860        8.36290
C          5.35930       -1.17640        5.24790
S          4.78690       -1.20440        3.58250
C          3.52850       -0.08990        3.97220
C          2.47230        0.53040        3.29970
N          1.93710        0.54030        2.03440
C          0.81950        1.35360        2.07680
C         -0.16580        1.62010        1.10380
N         -0.41260        1.03020       -0.12250
C         -1.44210        1.72920       -0.70210
C         -2.18310        1.68230       -1.88610
S         -2.20490        0.72940       -3.32570
C         -0.19350       -0.35950       -0.47210
C         -1.45070       -1.19490       -0.23200
C          2.77670        0.30020        0.87660
C          3.99190        1.22700        0.86930
C          6.40640       -2.06300        5.59820
C          6.79640       -2.47430        6.86780
C          7.81690       -3.40510        6.83530
S          8.49650       -4.11310        8.30870
C          7.62630       -5.72750        8.30170
C          6.13890       -5.56500        8.53460
C          8.26770       -3.72730        5.54210
S          7.33630       -2.84420        4.35650
C          9.31470       -4.61730        5.29810
C          9.91240       -4.97730        4.11340
C          9.62180       -4.41300        2.79790
O          8.69680       -3.68800        2.48460
C         10.71360       -4.87920        1.91070
C         10.97100       -4.52840        0.59800
Cl         9.89250       -3.54920       -0.29010
C         12.15600       -4.99210        0.00850
Cl        12.50320       -4.61050       -1.62170
C         13.07060       -5.72590        0.76120
Cl        14.55390       -6.19550        0.05060
C         12.80510       -6.07510        2.09620
Cl        14.04940       -6.82710        3.00560
C         11.58580       -5.70640        2.64790
C         10.98600       -5.93950        3.96100
C         11.20850       -7.01130        4.78560
C         10.50410       -7.23500        5.98890
N          9.95980       -7.49880        6.96500
C         11.99200       -8.14690        4.48730
N         12.51650       -9.15210        4.30930
H         -6.26520        0.78650       -9.13530
H         -9.71410        5.34360       -6.51670
H        -12.80020        6.64990       -8.25830
H        -11.39550        7.32400       -7.42130
H        -12.37190        6.09040       -6.63620
H        -12.25210        5.11400       -9.95680
H        -10.85040        3.37280      -10.93240
H         -4.37630       -0.24330       -8.13210
H         -2.96200       -2.04280       -7.75160
H         -2.03170       -0.60800       -8.27660
H         -0.66060       -2.69510       -8.48460
H         -0.89070       -3.01330       -6.76040
H          0.03090       -1.60020       -7.28000
H         -3.82700        5.10040       -4.22370
H         -5.70080        6.66750       -4.57950
H         -7.97410        6.05410       -3.87150
H         -9.41770        4.63540       -2.57860
H         -8.77060        3.22300       -1.73200
H        -10.42540        2.57990       -3.51010
H         -9.37270        3.32160       -4.72560
H         -8.82000        1.91190       -3.83400
H         -6.51120        2.32450       -2.40620
H          6.97670        0.41060        7.13970
H          7.37580        1.08150        9.47650
H          5.51880        1.10950       11.09150
H          2.21250       -0.30920       10.44730
H          3.26310        0.43500       11.66190
H          1.78760        1.93740        9.44240
H          1.31690        1.89860       11.14570
H          2.82600        2.67800       10.65960
H          2.85300       -0.23700        8.04840
H          0.60790       -0.76300        0.14290
H          0.08950       -0.41140       -1.52810
H         -2.26390       -0.86920       -0.87380
H         -1.76590       -1.10840        0.80570
H         -1.23850       -2.23820       -0.44780
H          3.10750       -0.74340        0.88980
H          2.19700        0.49120       -0.02480
H          3.67190        2.26640        0.90040
H          4.56420        1.06430       -0.03970
H          4.63840        1.03390        1.72040
H          6.33930       -2.13510        7.77870
H          7.84140       -6.22520        7.35750
H          8.09990       -6.28370        9.10870
H          5.95410       -5.04520        9.47210
H          5.68010       -4.99640        7.72710
H          5.66730       -6.54450        8.57920
H          9.73840       -5.03510        6.20540
