
  xtb     02112212173D
 energy: -256.176539095001 gnorm: 0.000834191190 xtb: 6.4.1 (unknown)
147162  0     0  0            999 V2000
    6.7504    4.7177   -7.9562 C   0  0  0  0  0  0  0  0  0  0  0  0
    7.0588    5.7347   -7.0977 C   0  0  0  0  0  0  0  0  0  0  0  0
    6.3042    6.0926   -5.8870 C   0  0  0  0  0  0  0  0  0  0  0  0
    5.2624    5.6013   -5.4915 O   0  0  0  0  0  0  0  0  0  0  0  0
    7.0632    7.1741   -5.2376 C   0  0  0  0  0  0  0  0  0  0  0  0
    6.7872    7.8300   -4.0559 C   0  0  0  0  0  0  0  0  0  0  0  0
    7.6594    8.8235   -3.6170 C   0  0  0  0  0  0  0  0  0  0  0  0
    7.3878    9.5709   -2.3510 C   0  0  0  0  0  0  0  0  0  0  0  0
    8.7814    9.1243   -4.3874 C   0  0  0  0  0  0  0  0  0  0  0  0
    9.0627    8.4706   -5.5776 C   0  0  0  0  0  0  0  0  0  0  0  0
    8.1950    7.4803   -6.0139 C   0  0  0  0  0  0  0  0  0  0  0  0
    8.2112    6.6179   -7.1918 C   0  0  0  0  0  0  0  0  0  0  0  0
    9.1454    6.6614   -8.1917 C   0  0  0  0  0  0  0  0  0  0  0  0
    9.1643    5.8463   -9.3435 C   0  0  0  0  0  0  0  0  0  0  0  0
    9.2583    5.2245  -10.3048 N   0  0  0  0  0  0  0  0  0  0  0  0
   10.2381    7.5550   -8.2137 C   0  0  0  0  0  0  0  0  0  0  0  0
   11.1468    8.2512   -8.2989 N   0  0  0  0  0  0  0  0  0  0  0  0
    5.6902    3.7896   -7.9183 C   0  0  0  0  0  0  0  0  0  0  0  0
    5.5849    2.7468   -8.8256 C   0  0  0  0  0  0  0  0  0  0  0  0
    4.4931    1.9029   -8.6043 C   0  0  0  0  0  0  0  0  0  0  0  0
    4.2384    0.5229   -9.6716 S   0  0  0  0  0  0  0  0  0  0  0  0
    3.4113   -0.7087   -8.5918 C   0  0  0  0  0  0  0  0  0  0  0  0
    3.4951   -2.0714   -9.2511 C   0  0  0  0  0  0  0  0  0  0  0  0
    3.7188    2.3205   -7.5362 C   0  0  0  0  0  0  0  0  0  0  0  0
    4.3845    3.7243   -6.7652 S   0  0  0  0  0  0  0  0  0  0  0  0
    2.5256    1.7450   -6.9533 C   0  0  0  0  0  0  0  0  0  0  0  0
    1.2084    1.9306   -7.2951 C   0  0  0  0  0  0  0  0  0  0  0  0
    0.7292    2.7544   -8.4076 C   0  0  0  0  0  0  0  0  0  0  0  0
    1.3318    2.7304   -9.6609 C   0  0  0  0  0  0  0  0  0  0  0  0
    0.8494    3.5375  -10.6742 C   0  0  0  0  0  0  0  0  0  0  0  0
   -0.2311    4.3718  -10.4515 C   0  0  0  0  0  0  0  0  0  0  0  0
   -0.8498    4.4048   -9.2079 C   0  0  0  0  0  0  0  0  0  0  0  0
   -1.9959    5.3384   -8.9433 C   0  0  0  0  0  0  0  0  0  0  0  0
   -1.4786    6.6928   -8.4547 C   0  0  0  0  0  0  0  0  0  0  0  0
   -0.3606    3.5948   -8.1958 C   0  0  0  0  0  0  0  0  0  0  0  0
    0.3483    1.2785   -6.3743 C   0  0  0  0  0  0  0  0  0  0  0  0
   -1.3874    1.0952   -6.2915 S   0  0  0  0  0  0  0  0  0  0  0  0
   -1.2050    0.1733   -4.8368 C   0  0  0  0  0  0  0  0  0  0  0  0
   -2.0023   -0.4759   -3.8724 C   0  0  0  0  0  0  0  0  0  0  0  0
   -3.3802   -0.7795   -3.7880 C   0  0  0  0  0  0  0  0  0  0  0  0
   -3.8603   -1.5796   -2.6881 C   0  0  0  0  0  0  0  0  0  0  0  0
   -5.1538   -1.8409   -2.7850 N   0  0  0  0  0  0  0  0  0  0  0  0
   -5.7244   -1.1413   -4.1283 S   0  0  0  0  0  0  0  0  0  0  0  0
   -4.3423   -0.4756   -4.6444 N   0  0  0  0  0  0  0  0  0  0  0  0
   -2.9763   -1.9061   -1.6340 C   0  0  0  0  0  0  0  0  0  0  0  0
   -3.1650   -2.4616   -0.3532 C   0  0  0  0  0  0  0  0  0  0  0  0
   -4.4271   -3.1650    0.6006 S   0  0  0  0  0  0  0  0  0  0  0  0
   -3.3263   -3.2548    1.9551 C   0  0  0  0  0  0  0  0  0  0  0  0
   -3.4997   -3.6436    3.3010 C   0  0  0  0  0  0  0  0  0  0  0  0
   -4.8027   -4.0546    3.8263 C   0  0  0  0  0  0  0  0  0  0  0  0
   -5.5682   -4.9744    3.1172 C   0  0  0  0  0  0  0  0  0  0  0  0
   -6.8233   -5.3238    3.5772 C   0  0  0  0  0  0  0  0  0  0  0  0
   -7.3280   -4.7469    4.7275 C   0  0  0  0  0  0  0  0  0  0  0  0
   -6.5806   -3.8184    5.4440 C   0  0  0  0  0  0  0  0  0  0  0  0
   -7.1442   -3.2038    6.6929 C   0  0  0  0  0  0  0  0  0  0  0  0
   -7.0950   -4.1874    7.8627 C   0  0  0  0  0  0  0  0  0  0  0  0
   -5.3151   -3.4858    4.9890 C   0  0  0  0  0  0  0  0  0  0  0  0
   -2.3376   -3.4624    4.0252 C   0  0  0  0  0  0  0  0  0  0  0  0
   -1.0310   -2.7993    3.0479 S   0  0  0  0  0  0  0  0  0  0  0  0
   -2.0523   -2.7688    1.6590 C   0  0  0  0  0  0  0  0  0  0  0  0
   -1.9551   -2.3263    0.3354 C   0  0  0  0  0  0  0  0  0  0  0  0
   -1.0072   -1.7493   -0.4746 N   0  0  0  0  0  0  0  0  0  0  0  0
   -1.6186   -1.5038   -1.6908 C   0  0  0  0  0  0  0  0  0  0  0  0
   -1.1064   -0.9510   -2.8831 C   0  0  0  0  0  0  0  0  0  0  0  0
    0.1957   -0.6810   -3.2637 N   0  0  0  0  0  0  0  0  0  0  0  0
    0.1267    0.0138   -4.4458 C   0  0  0  0  0  0  0  0  0  0  0  0
    1.0134    0.6325   -5.3368 C   0  0  0  0  0  0  0  0  0  0  0  0
    2.7247    0.8183   -5.4684 S   0  0  0  0  0  0  0  0  0  0  0  0
    1.3590   -1.4817   -2.9404 C   0  0  0  0  0  0  0  0  0  0  0  0
    1.6787   -2.4710   -4.0611 C   0  0  0  0  0  0  0  0  0  0  0  0
    0.0688   -0.9766    0.1128 C   0  0  0  0  0  0  0  0  0  0  0  0
   -0.4754    0.2094    0.9088 C   0  0  0  0  0  0  0  0  0  0  0  0
   -2.0552   -3.7163    5.4157 C   0  0  0  0  0  0  0  0  0  0  0  0
   -2.6119   -4.7795    6.1437 C   0  0  0  0  0  0  0  0  0  0  0  0
   -3.3776   -5.6868    5.5115 F   0  0  0  0  0  0  0  0  0  0  0  0
   -2.3590   -4.9765    7.4815 C   0  0  0  0  0  0  0  0  0  0  0  0
   -1.4923   -4.1267    8.1757 C   0  0  0  0  0  0  0  0  0  0  0  0
   -0.8706   -3.1170    7.4265 C   0  0  0  0  0  0  0  0  0  0  0  0
   -0.0058   -2.2896    8.0447 F   0  0  0  0  0  0  0  0  0  0  0  0
   -1.1478   -2.8982    6.1000 C   0  0  0  0  0  0  0  0  0  0  0  0
   -1.1690   -4.2637    9.5736 C   0  0  0  0  0  0  0  0  0  0  0  0
   -2.0177   -4.5933   10.5761 C   0  0  0  0  0  0  0  0  0  0  0  0
   -3.5053   -4.6015   10.4833 C   0  0  0  0  0  0  0  0  0  0  0  0
   -4.1920   -4.5889    9.4865 O   0  0  0  0  0  0  0  0  0  0  0  0
   -3.9794   -4.5517   11.8783 C   0  0  0  0  0  0  0  0  0  0  0  0
   -5.2785   -4.4504   12.3347 C   0  0  0  0  0  0  0  0  0  0  0  0
   -5.5086   -4.4015   13.7066 C   0  0  0  0  0  0  0  0  0  0  0  0
   -6.8978   -4.3049   14.2500 C   0  0  0  0  0  0  0  0  0  0  0  0
   -4.4197   -4.4544   14.5779 C   0  0  0  0  0  0  0  0  0  0  0  0
   -3.1136   -4.5591   14.1280 C   0  0  0  0  0  0  0  0  0  0  0  0
   -2.8855   -4.6099   12.7600 C   0  0  0  0  0  0  0  0  0  0  0  0
   -1.6584   -4.7125   11.9841 C   0  0  0  0  0  0  0  0  0  0  0  0
   -0.4070   -4.9592   12.4759 C   0  0  0  0  0  0  0  0  0  0  0  0
    0.7403   -5.1636   11.6781 C   0  0  0  0  0  0  0  0  0  0  0  0
    1.7035   -5.3694   11.0890 N   0  0  0  0  0  0  0  0  0  0  0  0
   -0.1122   -5.0909   13.8498 C   0  0  0  0  0  0  0  0  0  0  0  0
    0.1887   -5.1980   14.9520 N   0  0  0  0  0  0  0  0  0  0  0  0
    7.4174    4.5565   -8.7946 H   0  0  0  0  0  0  0  0  0  0  0  0
    5.9080    7.5657   -3.4875 H   0  0  0  0  0  0  0  0  0  0  0  0
    6.7639    8.9859   -1.6802 H   0  0  0  0  0  0  0  0  0  0  0  0
    6.8626   10.4995   -2.5774 H   0  0  0  0  0  0  0  0  0  0  0  0
    8.3151    9.8276   -1.8443 H   0  0  0  0  0  0  0  0  0  0  0  0
    9.4579    9.8934   -4.0442 H   0  0  0  0  0  0  0  0  0  0  0  0
    9.9447    8.7362   -6.1368 H   0  0  0  0  0  0  0  0  0  0  0  0
    6.2907    2.5878   -9.6215 H   0  0  0  0  0  0  0  0  0  0  0  0
    2.3742   -0.4029   -8.4551 H   0  0  0  0  0  0  0  0  0  0  0  0
    3.9337   -0.6989   -7.6359 H   0  0  0  0  0  0  0  0  0  0  0  0
    3.0075   -2.8143   -8.6234 H   0  0  0  0  0  0  0  0  0  0  0  0
    3.0018   -2.0555  -10.2202 H   0  0  0  0  0  0  0  0  0  0  0  0
    4.5329   -2.3615   -9.3971 H   0  0  0  0  0  0  0  0  0  0  0  0
    2.1589    2.0681   -9.8562 H   0  0  0  0  0  0  0  0  0  0  0  0
    1.3202    3.5103  -11.6458 H   0  0  0  0  0  0  0  0  0  0  0  0
   -0.6022    4.9989  -11.2494 H   0  0  0  0  0  0  0  0  0  0  0  0
   -2.5741    5.4825   -9.8581 H   0  0  0  0  0  0  0  0  0  0  0  0
   -2.6544    4.9089   -8.1859 H   0  0  0  0  0  0  0  0  0  0  0  0
   -0.8290    7.1424   -9.2026 H   0  0  0  0  0  0  0  0  0  0  0  0
   -0.9082    6.5711   -7.5365 H   0  0  0  0  0  0  0  0  0  0  0  0
   -2.3075    7.3701   -8.2620 H   0  0  0  0  0  0  0  0  0  0  0  0
   -0.8260    3.6275   -7.2215 H   0  0  0  0  0  0  0  0  0  0  0  0
   -5.1713   -5.4250    2.2203 H   0  0  0  0  0  0  0  0  0  0  0  0
   -7.4129   -6.0443    3.0299 H   0  0  0  0  0  0  0  0  0  0  0  0
   -8.3170   -5.0118    5.0729 H   0  0  0  0  0  0  0  0  0  0  0  0
   -6.5791   -2.3067    6.9530 H   0  0  0  0  0  0  0  0  0  0  0  0
   -8.1823   -2.9122    6.5122 H   0  0  0  0  0  0  0  0  0  0  0  0
   -7.5680   -3.7493    8.7394 H   0  0  0  0  0  0  0  0  0  0  0  0
   -6.0663   -4.4323    8.1106 H   0  0  0  0  0  0  0  0  0  0  0  0
   -7.6187   -5.1065    7.6096 H   0  0  0  0  0  0  0  0  0  0  0  0
   -4.7251   -2.7587    5.5307 H   0  0  0  0  0  0  0  0  0  0  0  0
    1.1579   -2.0466   -2.0310 H   0  0  0  0  0  0  0  0  0  0  0  0
    2.2136   -0.8158   -2.7803 H   0  0  0  0  0  0  0  0  0  0  0  0
    0.8198   -3.1108   -4.2525 H   0  0  0  0  0  0  0  0  0  0  0  0
    2.5202   -3.0926   -3.7682 H   0  0  0  0  0  0  0  0  0  0  0  0
    1.9372   -1.9497   -4.9786 H   0  0  0  0  0  0  0  0  0  0  0  0
    0.7157   -0.5954   -0.6740 H   0  0  0  0  0  0  0  0  0  0  0  0
    0.6439   -1.6358    0.7704 H   0  0  0  0  0  0  0  0  0  0  0  0
   -1.1007   -0.1277    1.7308 H   0  0  0  0  0  0  0  0  0  0  0  0
   -1.0672    0.8537    0.2620 H   0  0  0  0  0  0  0  0  0  0  0  0
    0.3508    0.7853    1.3160 H   0  0  0  0  0  0  0  0  0  0  0  0
   -2.8101   -5.8208    7.9747 H   0  0  0  0  0  0  0  0  0  0  0  0
   -0.6655   -2.0795    5.5885 H   0  0  0  0  0  0  0  0  0  0  0  0
   -0.1504   -3.9940    9.8293 H   0  0  0  0  0  0  0  0  0  0  0  0
   -6.0931   -4.4104   11.6269 H   0  0  0  0  0  0  0  0  0  0  0  0
   -6.9542   -3.5434   15.0256 H   0  0  0  0  0  0  0  0  0  0  0  0
   -7.1887   -5.2550   14.6981 H   0  0  0  0  0  0  0  0  0  0  0  0
   -7.6087   -4.0642   13.4642 H   0  0  0  0  0  0  0  0  0  0  0  0
   -4.6033   -4.4097   15.6416 H   0  0  0  0  0  0  0  0  0  0  0  0
   -2.3011   -4.5892   14.8356 H   0  0  0  0  0  0  0  0  0  0  0  0
  1  2  2  0  0  0  0
  2  3  1  0  0  0  0
  3  4  2  0  0  0  0
  3  5  1  0  0  0  0
  5  6  2  0  0  0  0
  6  7  1  0  0  0  0
  7  8  1  0  0  0  0
  7  9  2  0  0  0  0
  9 10  1  0  0  0  0
 10 11  2  0  0  0  0
 11 12  1  0  0  0  0
 12 13  2  0  0  0  0
 13 14  1  0  0  0  0
 14 15  3  0  0  0  0
 13 16  1  0  0  0  0
 16 17  3  0  0  0  0
  1 18  1  0  0  0  0
 18 19  2  0  0  0  0
 19 20  1  0  0  0  0
 20 21  1  0  0  0  0
 21 22  1  0  0  0  0
 22 23  1  0  0  0  0
 20 24  2  0  0  0  0
 24 25  1  0  0  0  0
 24 26  1  0  0  0  0
 26 27  2  0  0  0  0
 27 28  1  0  0  0  0
 28 29  2  0  0  0  0
 29 30  1  0  0  0  0
 30 31  2  0  0  0  0
 31 32  1  0  0  0  0
 32 33  1  0  0  0  0
 33 34  1  0  0  0  0
 32 35  2  0  0  0  0
 27 36  1  0  0  0  0
 36 37  1  0  0  0  0
 37 38  1  0  0  0  0
 38 39  1  0  0  0  0
 39 40  1  0  0  0  0
 40 41  1  0  0  0  0
 41 42  2  0  0  0  0
 42 43  1  0  0  0  0
 43 44  1  0  0  0  0
 41 45  1  0  0  0  0
 45 46  1  0  0  0  0
 46 47  1  0  0  0  0
 47 48  1  0  0  0  0
 48 49  1  0  0  0  0
 49 50  1  0  0  0  0
 50 51  2  0  0  0  0
 51 52  1  0  0  0  0
 52 53  2  0  0  0  0
 53 54  1  0  0  0  0
 54 55  1  0  0  0  0
 55 56  1  0  0  0  0
 54 57  2  0  0  0  0
 49 58  2  0  0  0  0
 58 59  1  0  0  0  0
 59 60  1  0  0  0  0
 60 61  1  0  0  0  0
 61 62  1  0  0  0  0
 62 63  1  0  0  0  0
 63 64  1  0  0  0  0
 64 65  1  0  0  0  0
 65 66  1  0  0  0  0
 66 67  1  0  0  0  0
 67 68  1  0  0  0  0
 65 69  1  0  0  0  0
 69 70  1  0  0  0  0
 62 71  1  0  0  0  0
 71 72  1  0  0  0  0
 58 73  1  0  0  0  0
 73 74  2  0  0  0  0
 74 75  1  0  0  0  0
 74 76  1  0  0  0  0
 76 77  2  0  0  0  0
 77 78  1  0  0  0  0
 78 79  1  0  0  0  0
 78 80  2  0  0  0  0
 77 81  1  0  0  0  0
 81 82  2  0  0  0  0
 82 83  1  0  0  0  0
 83 84  2  0  0  0  0
 83 85  1  0  0  0  0
 85 86  2  0  0  0  0
 86 87  1  0  0  0  0
 87 88  1  0  0  0  0
 87 89  2  0  0  0  0
 89 90  1  0  0  0  0
 90 91  2  0  0  0  0
 91 92  1  0  0  0  0
 92 93  2  0  0  0  0
 93 94  1  0  0  0  0
 94 95  3  0  0  0  0
 93 96  1  0  0  0  0
 96 97  3  0  0  0  0
 12  2  1  0  0  0  0
 25 18  1  0  0  0  0
 68 26  1  0  0  0  0
 80 73  1  0  0  0  0
 92 82  1  0  0  0  0
 11  5  1  0  0  0  0
 35 28  1  0  0  0  0
 67 36  2  0  0  0  0
 91 85  1  0  0  0  0
 66 38  2  0  0  0  0
 64 39  2  0  0  0  0
 44 40  2  0  0  0  0
 63 45  2  0  0  0  0
 61 46  2  0  0  0  0
 60 48  2  0  0  0  0
 57 50  1  0  0  0  0
  1 98  1  0  0  0  0
  6 99  1  0  0  0  0
  8100  1  0  0  0  0
  8101  1  0  0  0  0
  8102  1  0  0  0  0
  9103  1  0  0  0  0
 10104  1  0  0  0  0
 19105  1  0  0  0  0
 22106  1  0  0  0  0
 22107  1  0  0  0  0
 23108  1  0  0  0  0
 23109  1  0  0  0  0
 23110  1  0  0  0  0
 29111  1  0  0  0  0
 30112  1  0  0  0  0
 31113  1  0  0  0  0
 33114  1  0  0  0  0
 33115  1  0  0  0  0
 34116  1  0  0  0  0
 34117  1  0  0  0  0
 34118  1  0  0  0  0
 35119  1  0  0  0  0
 51120  1  0  0  0  0
 52121  1  0  0  0  0
 53122  1  0  0  0  0
 55123  1  0  0  0  0
 55124  1  0  0  0  0
 56125  1  0  0  0  0
 56126  1  0  0  0  0
 56127  1  0  0  0  0
 57128  1  0  0  0  0
 69129  1  0  0  0  0
 69130  1  0  0  0  0
 70131  1  0  0  0  0
 70132  1  0  0  0  0
 70133  1  0  0  0  0
 71134  1  0  0  0  0
 71135  1  0  0  0  0
 72136  1  0  0  0  0
 72137  1  0  0  0  0
 72138  1  0  0  0  0
 76139  1  0  0  0  0
 80140  1  0  0  0  0
 81141  1  0  0  0  0
 86142  1  0  0  0  0
 88143  1  0  0  0  0
 88144  1  0  0  0  0
 88145  1  0  0  0  0
 89146  1  0  0  0  0
 90147  1  0  0  0  0
M  END
