
  xtb     02112220443D
 energy: -299.314248559971 gnorm: 0.000840021643 xtb: 6.4.1 (unknown)
173192  0     0  0            999 V2000
    2.4738  -11.1839   -6.1564 C   0  0  0  0  0  0  0  0  0  0  0  0
    2.4842  -11.4989   -7.4912 C   0  0  0  0  0  0  0  0  0  0  0  0
    2.7266  -10.6080   -8.6469 C   0  0  0  0  0  0  0  0  0  0  0  0
    3.1173   -9.4562   -8.6589 O   0  0  0  0  0  0  0  0  0  0  0  0
    2.3692  -11.3980   -9.8409 C   0  0  0  0  0  0  0  0  0  0  0  0
    2.3762  -11.0002  -11.1610 C   0  0  0  0  0  0  0  0  0  0  0  0
    1.9920  -11.9116  -12.1429 C   0  0  0  0  0  0  0  0  0  0  0  0
    1.9695  -11.5049  -13.5820 C   0  0  0  0  0  0  0  0  0  0  0  0
    1.6100  -13.1943  -11.7584 C   0  0  0  0  0  0  0  0  0  0  0  0
    1.6044  -13.6014  -10.4321 C   0  0  0  0  0  0  0  0  0  0  0  0
    1.9909  -12.6951   -9.4571 C   0  0  0  0  0  0  0  0  0  0  0  0
    2.1041  -12.8042   -8.0065 C   0  0  0  0  0  0  0  0  0  0  0  0
    1.9403  -13.9624   -7.2904 C   0  0  0  0  0  0  0  0  0  0  0  0
    2.1390  -14.1210   -5.9027 C   0  0  0  0  0  0  0  0  0  0  0  0
    2.3024  -14.3531   -4.7891 N   0  0  0  0  0  0  0  0  0  0  0  0
    1.5762  -15.1977   -7.8661 C   0  0  0  0  0  0  0  0  0  0  0  0
    1.2777  -16.2323   -8.2652 N   0  0  0  0  0  0  0  0  0  0  0  0
    2.8244  -10.0006   -5.4839 C   0  0  0  0  0  0  0  0  0  0  0  0
    3.4732   -8.8498   -5.8911 C   0  0  0  0  0  0  0  0  0  0  0  0
    3.6235   -7.9046   -4.8811 C   0  0  0  0  0  0  0  0  0  0  0  0
    4.4282   -6.3581   -5.0982 S   0  0  0  0  0  0  0  0  0  0  0  0
    4.0543   -5.9705   -6.8475 C   0  0  0  0  0  0  0  0  0  0  0  0
    2.5670   -5.8369   -7.1003 C   0  0  0  0  0  0  0  0  0  0  0  0
    3.1136   -8.3175   -3.6456 C   0  0  0  0  0  0  0  0  0  0  0  0
    2.4431   -9.9137   -3.7720 S   0  0  0  0  0  0  0  0  0  0  0  0
    3.0110   -7.5780   -2.4420 C   0  0  0  0  0  0  0  0  0  0  0  0
    2.6517   -8.0515   -1.1853 C   0  0  0  0  0  0  0  0  0  0  0  0
    2.5629   -9.4593   -0.7911 C   0  0  0  0  0  0  0  0  0  0  0  0
    3.6293  -10.3273   -1.0148 C   0  0  0  0  0  0  0  0  0  0  0  0
    3.5445  -11.6402   -0.5952 C   0  0  0  0  0  0  0  0  0  0  0  0
    2.4091  -12.0935    0.0546 C   0  0  0  0  0  0  0  0  0  0  0  0
    1.3438  -11.2370    0.2991 C   0  0  0  0  0  0  0  0  0  0  0  0
    0.1389  -11.7006    1.0647 C   0  0  0  0  0  0  0  0  0  0  0  0
    0.3064  -11.3813    2.5518 C   0  0  0  0  0  0  0  0  0  0  0  0
    1.4334   -9.9196   -0.1255 C   0  0  0  0  0  0  0  0  0  0  0  0
    2.4341   -6.9995   -0.2829 C   0  0  0  0  0  0  0  0  0  0  0  0
    1.9385   -6.9658    1.3929 S   0  0  0  0  0  0  0  0  0  0  0  0
    2.0062   -5.2368    1.3509 C   0  0  0  0  0  0  0  0  0  0  0  0
    1.7515   -4.1419    2.1948 C   0  0  0  0  0  0  0  0  0  0  0  0
    1.4124   -4.0470    3.5625 C   0  0  0  0  0  0  0  0  0  0  0  0
    1.2691   -2.7447    4.1550 C   0  0  0  0  0  0  0  0  0  0  0  0
    1.0013   -2.8068    5.4499 N   0  0  0  0  0  0  0  0  0  0  0  0
    0.9307   -4.3640    5.8868 S   0  0  0  0  0  0  0  0  0  0  0  0
    1.2373   -5.0222    4.4401 N   0  0  0  0  0  0  0  0  0  0  0  0
    1.3346   -1.6014    3.3271 C   0  0  0  0  0  0  0  0  0  0  0  0
    1.0225   -0.2534    3.5685 C   0  0  0  0  0  0  0  0  0  0  0  0
    0.5392    0.7628    4.8839 S   0  0  0  0  0  0  0  0  0  0  0  0
    0.3672    2.0894    3.7608 C   0  0  0  0  0  0  0  0  0  0  0  0
   -0.0215    3.4318    3.9308 C   0  0  0  0  0  0  0  0  0  0  0  0
   -0.3339    4.0143    5.2397 C   0  0  0  0  0  0  0  0  0  0  0  0
    0.3054    5.1727    5.6748 C   0  0  0  0  0  0  0  0  0  0  0  0
    0.0085    5.6947    6.9187 C   0  0  0  0  0  0  0  0  0  0  0  0
   -0.9193    5.0700    7.7362 C   0  0  0  0  0  0  0  0  0  0  0  0
   -1.5570    3.9088    7.3216 C   0  0  0  0  0  0  0  0  0  0  0  0
   -2.5178    3.1877    8.2215 C   0  0  0  0  0  0  0  0  0  0  0  0
   -1.7989    2.0584    8.9624 C   0  0  0  0  0  0  0  0  0  0  0  0
   -1.2515    3.3867    6.0725 C   0  0  0  0  0  0  0  0  0  0  0  0
   -0.0212    4.1081    2.7249 C   0  0  0  0  0  0  0  0  0  0  0  0
    0.4994    3.1010    1.3853 S   0  0  0  0  0  0  0  0  0  0  0  0
    0.6854    1.7480    2.4449 C   0  0  0  0  0  0  0  0  0  0  0  0
    1.0641    0.4033    2.3355 C   0  0  0  0  0  0  0  0  0  0  0  0
    1.4273   -0.4708    1.3437 N   0  0  0  0  0  0  0  0  0  0  0  0
    1.6110   -1.7107    1.9375 C   0  0  0  0  0  0  0  0  0  0  0  0
    1.9669   -2.9757    1.4125 C   0  0  0  0  0  0  0  0  0  0  0  0
    2.4142   -3.3483    0.1575 N   0  0  0  0  0  0  0  0  0  0  0  0
    2.4123   -4.7207    0.1148 C   0  0  0  0  0  0  0  0  0  0  0  0
    2.6569   -5.7294   -0.8219 C   0  0  0  0  0  0  0  0  0  0  0  0
    3.1403   -5.8197   -2.4782 S   0  0  0  0  0  0  0  0  0  0  0  0
    3.2855   -2.5802   -0.7054 C   0  0  0  0  0  0  0  0  0  0  0  0
    4.7262   -3.0857   -0.6452 C   0  0  0  0  0  0  0  0  0  0  0  0
    1.1048   -0.1591   -0.0353 C   0  0  0  0  0  0  0  0  0  0  0  0
   -0.0055   -1.0524   -0.5786 C   0  0  0  0  0  0  0  0  0  0  0  0
   -0.4759    5.4356    2.4718 C   0  0  0  0  0  0  0  0  0  0  0  0
   -1.3435    6.1637    3.2350 C   0  0  0  0  0  0  0  0  0  0  0  0
   -1.6017    7.4565    2.7289 C   0  0  0  0  0  0  0  0  0  0  0  0
   -2.5131    8.4088    3.2354 C   0  0  0  0  0  0  0  0  0  0  0  0
   -3.3518    8.1298    4.3835 C   0  0  0  0  0  0  0  0  0  0  0  0
   -3.0118    7.5229    5.5561 C   0  0  0  0  0  0  0  0  0  0  0  0
   -4.0780    7.3015    6.4579 C   0  0  0  0  0  0  0  0  0  0  0  0
   -5.3042    7.7098    6.0362 C   0  0  0  0  0  0  0  0  0  0  0  0
   -6.5973    7.6165    6.7795 C   0  0  0  0  0  0  0  0  0  0  0  0
   -7.7572    7.2334    5.8659 C   0  0  0  0  0  0  0  0  0  0  0  0
   -5.2061    8.4922    4.3309 Se  0  0  0  0  0  2  0  0  0  0  0  0
   -2.6257    9.5841    2.5093 C   0  0  0  0  0  0  0  0  0  0  0  0
   -1.9263    9.8367    1.3069 C   0  0  0  0  0  0  0  0  0  0  0  0
   -1.1272    8.8278    0.7302 C   0  0  0  0  0  0  0  0  0  0  0  0
   -0.7301    8.9055   -0.6551 C   0  0  0  0  0  0  0  0  0  0  0  0
    0.4198    8.4694   -1.2500 C   0  0  0  0  0  0  0  0  0  0  0  0
    0.4393    8.5647   -2.6564 C   0  0  0  0  0  0  0  0  0  0  0  0
   -0.6993    9.0454   -3.2316 C   0  0  0  0  0  0  0  0  0  0  0  0
   -0.9245    9.2586   -4.6939 C   0  0  0  0  0  0  0  0  0  0  0  0
   -2.4034    9.3110   -5.0530 C   0  0  0  0  0  0  0  0  0  0  0  0
   -1.9937    9.4572   -1.9432 Se  0  0  0  0  0  2  0  0  0  0  0  0
   -0.9292    7.6895    1.5041 C   0  0  0  0  0  0  0  0  0  0  0  0
    0.0334    6.3120    1.0433 S   0  0  0  0  0  0  0  0  0  0  0  0
   -2.2146   11.1147    0.7779 C   0  0  0  0  0  0  0  0  0  0  0  0
   -3.1968   11.7779    1.4593 C   0  0  0  0  0  0  0  0  0  0  0  0
   -3.6939   10.8989    2.9006 S   0  0  0  0  0  0  0  0  0  0  0  0
   -3.8728   12.9737    1.0817 C   0  0  0  0  0  0  0  0  0  0  0  0
   -5.2099   13.1686    1.2175 C   0  0  0  0  0  0  0  0  0  0  0  0
   -5.8125   14.5357    1.2176 C   0  0  0  0  0  0  0  0  0  0  0  0
   -5.2941   15.5667    0.8613 O   0  0  0  0  0  0  0  0  0  0  0  0
   -7.1362   14.3164    1.8035 C   0  0  0  0  0  0  0  0  0  0  0  0
   -8.4547   15.3037    2.2675 S   0  0  0  0  0  0  0  0  0  0  0  0
   -9.3209   13.8814    2.7728 C   0  0  0  0  0  0  0  0  0  0  0  0
  -11.0403   14.0494    3.4944 Br  0  0  0  0  0  0  0  0  0  0  0  0
   -8.6410   12.7093    2.5864 C   0  0  0  0  0  0  0  0  0  0  0  0
   -7.3755   12.9653    2.0323 C   0  0  0  0  0  0  0  0  0  0  0  0
   -6.2441   12.2027    1.5468 C   0  0  0  0  0  0  0  0  0  0  0  0
   -6.2561   10.8624    1.2516 C   0  0  0  0  0  0  0  0  0  0  0  0
   -7.2654   10.0071    1.7355 C   0  0  0  0  0  0  0  0  0  0  0  0
   -8.0457    9.2951    2.1849 N   0  0  0  0  0  0  0  0  0  0  0  0
   -5.2992   10.2427    0.4219 C   0  0  0  0  0  0  0  0  0  0  0  0
   -4.5773    9.7388   -0.3167 N   0  0  0  0  0  0  0  0  0  0  0  0
    2.1063  -11.9535   -5.4877 H   0  0  0  0  0  0  0  0  0  0  0  0
    2.6778   -9.9958  -11.4189 H   0  0  0  0  0  0  0  0  0  0  0  0
    2.0346  -12.3714  -14.2350 H   0  0  0  0  0  0  0  0  0  0  0  0
    2.7911  -10.8279  -13.8044 H   0  0  0  0  0  0  0  0  0  0  0  0
    1.0379  -10.9828  -13.8031 H   0  0  0  0  0  0  0  0  0  0  0  0
    1.3078  -13.8994  -12.5192 H   0  0  0  0  0  0  0  0  0  0  0  0
    1.2986  -14.6042  -10.1833 H   0  0  0  0  0  0  0  0  0  0  0  0
    3.8201   -8.7213   -6.8982 H   0  0  0  0  0  0  0  0  0  0  0  0
    4.5062   -6.7329   -7.4794 H   0  0  0  0  0  0  0  0  0  0  0  0
    4.5701   -5.0239   -7.0083 H   0  0  0  0  0  0  0  0  0  0  0  0
    2.0644   -6.7904   -6.9532 H   0  0  0  0  0  0  0  0  0  0  0  0
    2.3995   -5.5187   -8.1269 H   0  0  0  0  0  0  0  0  0  0  0  0
    2.1295   -5.1019   -6.4279 H   0  0  0  0  0  0  0  0  0  0  0  0
    4.5205   -9.9649   -1.5067 H   0  0  0  0  0  0  0  0  0  0  0  0
    4.3694  -12.3139   -0.7720 H   0  0  0  0  0  0  0  0  0  0  0  0
    2.3507  -13.1228    0.3769 H   0  0  0  0  0  0  0  0  0  0  0  0
   -0.7549  -11.1996    0.6880 H   0  0  0  0  0  0  0  0  0  0  0  0
    0.0084  -12.7764    0.9369 H   0  0  0  0  0  0  0  0  0  0  0  0
    0.4345  -10.3110    2.6970 H   0  0  0  0  0  0  0  0  0  0  0  0
    1.1833  -11.8869    2.9499 H   0  0  0  0  0  0  0  0  0  0  0  0
   -0.5669  -11.7073    3.1117 H   0  0  0  0  0  0  0  0  0  0  0  0
    0.6091   -9.2434    0.0502 H   0  0  0  0  0  0  0  0  0  0  0  0
    1.0314    5.6548    5.0368 H   0  0  0  0  0  0  0  0  0  0  0  0
    0.5053    6.5930    7.2560 H   0  0  0  0  0  0  0  0  0  0  0  0
   -1.1471    5.4880    8.7064 H   0  0  0  0  0  0  0  0  0  0  0  0
   -3.3340    2.7675    7.6300 H   0  0  0  0  0  0  0  0  0  0  0  0
   -2.9437    3.8836    8.9471 H   0  0  0  0  0  0  0  0  0  0  0  0
   -0.9936    2.4605    9.5732 H   0  0  0  0  0  0  0  0  0  0  0  0
   -1.3701    1.3535    8.2538 H   0  0  0  0  0  0  0  0  0  0  0  0
   -2.4925    1.5255    9.6085 H   0  0  0  0  0  0  0  0  0  0  0  0
   -1.7450    2.4869    5.7345 H   0  0  0  0  0  0  0  0  0  0  0  0
    3.2762   -1.5488   -0.3620 H   0  0  0  0  0  0  0  0  0  0  0  0
    2.9143   -2.6349   -1.7339 H   0  0  0  0  0  0  0  0  0  0  0  0
    4.8089   -4.0902   -1.0489 H   0  0  0  0  0  0  0  0  0  0  0  0
    5.3633   -2.4289   -1.2311 H   0  0  0  0  0  0  0  0  0  0  0  0
    5.0802   -3.0899    0.3836 H   0  0  0  0  0  0  0  0  0  0  0  0
    0.7705    0.8812   -0.0432 H   0  0  0  0  0  0  0  0  0  0  0  0
    1.9865   -0.2172   -0.6771 H   0  0  0  0  0  0  0  0  0  0  0  0
   -0.8888   -0.9771    0.0516 H   0  0  0  0  0  0  0  0  0  0  0  0
   -0.2677   -0.7352   -1.5841 H   0  0  0  0  0  0  0  0  0  0  0  0
    0.3077   -2.0922   -0.6116 H   0  0  0  0  0  0  0  0  0  0  0  0
   -1.8176    5.7669    4.1117 H   0  0  0  0  0  0  0  0  0  0  0  0
   -1.9955    7.2617    5.8017 H   0  0  0  0  0  0  0  0  0  0  0  0
   -3.9204    6.8324    7.4153 H   0  0  0  0  0  0  0  0  0  0  0  0
   -6.4875    6.8812    7.5805 H   0  0  0  0  0  0  0  0  0  0  0  0
   -6.8136    8.5835    7.2463 H   0  0  0  0  0  0  0  0  0  0  0  0
   -7.8638    7.9701    5.0674 H   0  0  0  0  0  0  0  0  0  0  0  0
   -8.6884    7.1904    6.4253 H   0  0  0  0  0  0  0  0  0  0  0  0
   -7.5762    6.2618    5.4113 H   0  0  0  0  0  0  0  0  0  0  0  0
    1.2656    8.1159   -0.6835 H   0  0  0  0  0  0  0  0  0  0  0  0
    1.2989    8.2715   -3.2368 H   0  0  0  0  0  0  0  0  0  0  0  0
   -0.4321    8.4543   -5.2475 H   0  0  0  0  0  0  0  0  0  0  0  0
   -0.4460   10.1971   -4.9946 H   0  0  0  0  0  0  0  0  0  0  0  0
   -2.8953    8.3832   -4.7660 H   0  0  0  0  0  0  0  0  0  0  0  0
   -2.5362    9.4615   -6.1217 H   0  0  0  0  0  0  0  0  0  0  0  0
   -2.8888   10.1330   -4.5236 H   0  0  0  0  0  0  0  0  0  0  0  0
   -1.7589   11.5162   -0.1111 H   0  0  0  0  0  0  0  0  0  0  0  0
   -3.2832   13.7962    0.6932 H   0  0  0  0  0  0  0  0  0  0  0  0
   -9.0297   11.7413    2.8444 H   0  0  0  0  0  0  0  0  0  0  0  0
  1  2  2  0  0  0  0
  2  3  1  0  0  0  0
  3  4  2  0  0  0  0
  3  5  1  0  0  0  0
  5  6  2  0  0  0  0
  6  7  1  0  0  0  0
  7  8  1  0  0  0  0
  7  9  2  0  0  0  0
  9 10  1  0  0  0  0
 10 11  2  0  0  0  0
 11 12  1  0  0  0  0
 12 13  2  0  0  0  0
 13 14  1  0  0  0  0
 14 15  3  0  0  0  0
 13 16  1  0  0  0  0
 16 17  3  0  0  0  0
  1 18  1  0  0  0  0
 18 19  2  0  0  0  0
 19 20  1  0  0  0  0
 20 21  1  0  0  0  0
 21 22  1  0  0  0  0
 22 23  1  0  0  0  0
 20 24  2  0  0  0  0
 24 25  1  0  0  0  0
 24 26  1  0  0  0  0
 26 27  2  0  0  0  0
 27 28  1  0  0  0  0
 28 29  2  0  0  0  0
 29 30  1  0  0  0  0
 30 31  2  0  0  0  0
 31 32  1  0  0  0  0
 32 33  1  0  0  0  0
 33 34  1  0  0  0  0
 32 35  2  0  0  0  0
 27 36  1  0  0  0  0
 36 37  1  0  0  0  0
 37 38  1  0  0  0  0
 38 39  1  0  0  0  0
 39 40  1  0  0  0  0
 40 41  1  0  0  0  0
 41 42  2  0  0  0  0
 42 43  1  0  0  0  0
 43 44  1  0  0  0  0
 41 45  1  0  0  0  0
 45 46  1  0  0  0  0
 46 47  1  0  0  0  0
 47 48  1  0  0  0  0
 48 49  1  0  0  0  0
 49 50  1  0  0  0  0
 50 51  2  0  0  0  0
 51 52  1  0  0  0  0
 52 53  2  0  0  0  0
 53 54  1  0  0  0  0
 54 55  1  0  0  0  0
 55 56  1  0  0  0  0
 54 57  2  0  0  0  0
 49 58  2  0  0  0  0
 58 59  1  0  0  0  0
 59 60  1  0  0  0  0
 60 61  1  0  0  0  0
 61 62  1  0  0  0  0
 62 63  1  0  0  0  0
 63 64  1  0  0  0  0
 64 65  1  0  0  0  0
 65 66  1  0  0  0  0
 66 67  1  0  0  0  0
 67 68  1  0  0  0  0
 65 69  1  0  0  0  0
 69 70  1  0  0  0  0
 62 71  1  0  0  0  0
 71 72  1  0  0  0  0
 58 73  1  0  0  0  0
 73 74  2  0  0  0  0
 74 75  1  0  0  0  0
 75 76  2  0  0  0  0
 76 77  1  0  0  0  0
 77 78  2  0  0  0  0
 78 79  1  0  0  0  0
 79 80  2  0  0  0  0
 80 81  1  0  0  0  0
 81 82  1  0  0  0  0
 80 83  1  0  0  0  0
 76 84  1  0  0  0  0
 84 85  2  0  0  0  0
 85 86  1  0  0  0  0
 86 87  1  0  0  0  0
 87 88  2  0  0  0  0
 88 89  1  0  0  0  0
 89 90  2  0  0  0  0
 90 91  1  0  0  0  0
 91 92  1  0  0  0  0
 90 93  1  0  0  0  0
 86 94  2  0  0  0  0
 94 95  1  0  0  0  0
 85 96  1  0  0  0  0
 96 97  2  0  0  0  0
 97 98  1  0  0  0  0
 97 99  1  0  0  0  0
 99100  2  0  0  0  0
100101  1  0  0  0  0
101102  2  0  0  0  0
101103  1  0  0  0  0
103104  1  0  0  0  0
104105  1  0  0  0  0
105106  1  0  0  0  0
105107  2  0  0  0  0
107108  1  0  0  0  0
108109  1  0  0  0  0
109110  2  0  0  0  0
110111  1  0  0  0  0
111112  3  0  0  0  0
110113  1  0  0  0  0
113114  3  0  0  0  0
 12  2  1  0  0  0  0
 25 18  1  0  0  0  0
 68 26  1  0  0  0  0
 95 73  1  0  0  0  0
109100  1  0  0  0  0
 11  5  1  0  0  0  0
 35 28  1  0  0  0  0
 67 36  2  0  0  0  0
 94 75  1  0  0  0  0
108103  2  0  0  0  0
 66 38  2  0  0  0  0
 83 77  1  0  0  0  0
 98 84  1  0  0  0  0
 64 39  2  0  0  0  0
 93 87  1  0  0  0  0
 44 40  2  0  0  0  0
 63 45  2  0  0  0  0
 61 46  2  0  0  0  0
 60 48  2  0  0  0  0
 57 50  1  0  0  0  0
  1115  1  0  0  0  0
  6116  1  0  0  0  0
  8117  1  0  0  0  0
  8118  1  0  0  0  0
  8119  1  0  0  0  0
  9120  1  0  0  0  0
 10121  1  0  0  0  0
 19122  1  0  0  0  0
 22123  1  0  0  0  0
 22124  1  0  0  0  0
 23125  1  0  0  0  0
 23126  1  0  0  0  0
 23127  1  0  0  0  0
 29128  1  0  0  0  0
 30129  1  0  0  0  0
 31130  1  0  0  0  0
 33131  1  0  0  0  0
 33132  1  0  0  0  0
 34133  1  0  0  0  0
 34134  1  0  0  0  0
 34135  1  0  0  0  0
 35136  1  0  0  0  0
 51137  1  0  0  0  0
 52138  1  0  0  0  0
 53139  1  0  0  0  0
 55140  1  0  0  0  0
 55141  1  0  0  0  0
 56142  1  0  0  0  0
 56143  1  0  0  0  0
 56144  1  0  0  0  0
 57145  1  0  0  0  0
 69146  1  0  0  0  0
 69147  1  0  0  0  0
 70148  1  0  0  0  0
 70149  1  0  0  0  0
 70150  1  0  0  0  0
 71151  1  0  0  0  0
 71152  1  0  0  0  0
 72153  1  0  0  0  0
 72154  1  0  0  0  0
 72155  1  0  0  0  0
 74156  1  0  0  0  0
 78157  1  0  0  0  0
 79158  1  0  0  0  0
 81159  1  0  0  0  0
 81160  1  0  0  0  0
 82161  1  0  0  0  0
 82162  1  0  0  0  0
 82163  1  0  0  0  0
 88164  1  0  0  0  0
 89165  1  0  0  0  0
 91166  1  0  0  0  0
 91167  1  0  0  0  0
 92168  1  0  0  0  0
 92169  1  0  0  0  0
 92170  1  0  0  0  0
 96171  1  0  0  0  0
 99172  1  0  0  0  0
107173  1  0  0  0  0
M  END
