
  xtb     02042215193D
 energy: -277.661332227842 gnorm: 0.000498018702 xtb: 6.4.1 (unknown)
160176  0     0  0            999 V2000
   -6.8419    5.1741    6.7199 C   0  0  0  0  0  0  0  0  0  0  0  0
   -7.3656    5.5060    5.5091 C   0  0  0  0  0  0  0  0  0  0  0  0
   -8.8060    5.8618    5.3942 C   0  0  0  0  0  0  0  0  0  0  0  0
   -9.5591    6.1450    6.2976 O   0  0  0  0  0  0  0  0  0  0  0  0
   -9.1163    5.7308    3.9551 C   0  0  0  0  0  0  0  0  0  0  0  0
  -10.3350    5.8316    3.3192 C   0  0  0  0  0  0  0  0  0  0  0  0
  -10.3956    5.6479    1.9377 C   0  0  0  0  0  0  0  0  0  0  0  0
  -11.7094    5.7439    1.2298 C   0  0  0  0  0  0  0  0  0  0  0  0
   -9.2244    5.3629    1.2406 C   0  0  0  0  0  0  0  0  0  0  0  0
   -7.9918    5.2688    1.8709 C   0  0  0  0  0  0  0  0  0  0  0  0
   -7.9332    5.4573    3.2416 C   0  0  0  0  0  0  0  0  0  0  0  0
   -6.8097    5.4711    4.1719 C   0  0  0  0  0  0  0  0  0  0  0  0
   -5.5000    5.6894    3.8308 C   0  0  0  0  0  0  0  0  0  0  0  0
   -4.4938    6.0185    4.7625 C   0  0  0  0  0  0  0  0  0  0  0  0
   -3.6518    6.3463    5.4716 N   0  0  0  0  0  0  0  0  0  0  0  0
   -5.0201    5.6883    2.5068 C   0  0  0  0  0  0  0  0  0  0  0  0
   -4.5669    5.6627    1.4518 N   0  0  0  0  0  0  0  0  0  0  0  0
   -5.6593    4.4485    6.9986 C   0  0  0  0  0  0  0  0  0  0  0  0
   -4.9306    4.4650    8.1673 C   0  0  0  0  0  0  0  0  0  0  0  0
   -3.7712    3.6808    8.1329 C   0  0  0  0  0  0  0  0  0  0  0  0
   -2.6255    3.7290    9.4717 S   0  0  0  0  0  0  0  0  0  0  0  0
   -1.0777    4.1642    8.5977 C   0  0  0  0  0  0  0  0  0  0  0  0
   -1.1836    5.4931    7.8777 C   0  0  0  0  0  0  0  0  0  0  0  0
   -3.6319    2.9701    6.9495 C   0  0  0  0  0  0  0  0  0  0  0  0
   -4.9332    3.3478    5.8547 S   0  0  0  0  0  0  0  0  0  0  0  0
   -2.6227    2.0838    6.4780 C   0  0  0  0  0  0  0  0  0  0  0  0
   -1.8631    1.1370    7.1458 C   0  0  0  0  0  0  0  0  0  0  0  0
   -2.0388    0.7519    8.5445 C   0  0  0  0  0  0  0  0  0  0  0  0
   -0.9279    0.5165    9.3497 C   0  0  0  0  0  0  0  0  0  0  0  0
   -1.1021    0.1548   10.6715 C   0  0  0  0  0  0  0  0  0  0  0  0
   -2.3746    0.0177   11.1963 C   0  0  0  0  0  0  0  0  0  0  0  0
   -3.4945    0.2365   10.4033 C   0  0  0  0  0  0  0  0  0  0  0  0
   -4.8772    0.0425   10.9546 C   0  0  0  0  0  0  0  0  0  0  0  0
   -5.3415   -1.3991   10.7380 C   0  0  0  0  0  0  0  0  0  0  0  0
   -3.3146    0.5970    9.0782 C   0  0  0  0  0  0  0  0  0  0  0  0
   -0.9415    0.5212    6.2746 C   0  0  0  0  0  0  0  0  0  0  0  0
    0.2313   -0.7551    6.5052 S   0  0  0  0  0  0  0  0  0  0  0  0
    0.6165   -0.6746    4.8194 C   0  0  0  0  0  0  0  0  0  0  0  0
    1.4340   -1.3231    3.8807 C   0  0  0  0  0  0  0  0  0  0  0  0
    2.2626   -2.4594    4.0044 C   0  0  0  0  0  0  0  0  0  0  0  0
    2.8549   -3.0158    2.8222 C   0  0  0  0  0  0  0  0  0  0  0  0
    3.5521   -4.1127    3.0738 N   0  0  0  0  0  0  0  0  0  0  0  0
    3.4749   -4.4159    4.6628 S   0  0  0  0  0  0  0  0  0  0  0  0
    2.5460   -3.1602    5.0911 N   0  0  0  0  0  0  0  0  0  0  0  0
    2.6859   -2.3428    1.5929 C   0  0  0  0  0  0  0  0  0  0  0  0
    3.2182   -2.6000    0.3195 C   0  0  0  0  0  0  0  0  0  0  0  0
    4.1749   -3.7945   -0.4894 S   0  0  0  0  0  0  0  0  0  0  0  0
    4.0721   -2.8496   -1.9569 C   0  0  0  0  0  0  0  0  0  0  0  0
    4.5490   -3.0634   -3.2697 C   0  0  0  0  0  0  0  0  0  0  0  0
    5.2086   -4.2997   -3.6973 C   0  0  0  0  0  0  0  0  0  0  0  0
    4.8674   -4.9125   -4.9002 C   0  0  0  0  0  0  0  0  0  0  0  0
    5.4833   -6.0920   -5.2691 C   0  0  0  0  0  0  0  0  0  0  0  0
    6.4295   -6.6770   -4.4452 C   0  0  0  0  0  0  0  0  0  0  0  0
    6.7707   -6.0880   -3.2353 C   0  0  0  0  0  0  0  0  0  0  0  0
    7.7452   -6.7419   -2.2988 C   0  0  0  0  0  0  0  0  0  0  0  0
    6.9963   -7.5353   -1.2261 C   0  0  0  0  0  0  0  0  0  0  0  0
    6.1536   -4.9007   -2.8727 C   0  0  0  0  0  0  0  0  0  0  0  0
    4.2152   -2.0083   -4.0949 C   0  0  0  0  0  0  0  0  0  0  0  0
    3.2547   -0.7865   -3.2874 S   0  0  0  0  0  0  0  0  0  0  0  0
    3.3421   -1.6715   -1.8047 C   0  0  0  0  0  0  0  0  0  0  0  0
    2.8400   -1.5372   -0.5018 C   0  0  0  0  0  0  0  0  0  0  0  0
    2.0651   -0.6533    0.1984 N   0  0  0  0  0  0  0  0  0  0  0  0
    1.9383   -1.1356    1.4922 C   0  0  0  0  0  0  0  0  0  0  0  0
    1.2078   -0.6892    2.6258 C   0  0  0  0  0  0  0  0  0  0  0  0
    0.2512    0.2967    2.8036 N   0  0  0  0  0  0  0  0  0  0  0  0
   -0.1111    0.2931    4.1235 C   0  0  0  0  0  0  0  0  0  0  0  0
   -1.0123    0.9702    4.9534 C   0  0  0  0  0  0  0  0  0  0  0  0
   -2.2245    2.1844    4.7638 S   0  0  0  0  0  0  0  0  0  0  0  0
   -0.5849    0.9703    1.8357 C   0  0  0  0  0  0  0  0  0  0  0  0
   -1.3680   -0.0228    0.9811 C   0  0  0  0  0  0  0  0  0  0  0  0
    1.8566    0.6789   -0.3237 C   0  0  0  0  0  0  0  0  0  0  0  0
    2.6204    1.7247    0.4845 C   0  0  0  0  0  0  0  0  0  0  0  0
    4.4977   -1.8440   -5.5015 C   0  0  0  0  0  0  0  0  0  0  0  0
    3.4612   -1.3839   -6.3482 C   0  0  0  0  0  0  0  0  0  0  0  0
    2.2513   -0.8909   -6.0576 N   0  0  0  0  0  0  0  0  0  0  0  0
    1.7318   -0.6137   -7.2220 N   0  0  0  0  0  0  0  0  0  0  0  0
    0.4047   -0.0856   -7.3524 C   0  0  0  0  0  0  0  0  0  0  0  0
   -0.5248   -1.1343   -7.9537 C   0  0  0  0  0  0  0  0  0  0  0  0
    2.4682   -0.8790   -8.2678 N   0  0  0  0  0  0  0  0  0  0  0  0
    3.5923   -1.3948   -7.7578 C   0  0  0  0  0  0  0  0  0  0  0  0
    4.7720   -1.8453   -8.4065 C   0  0  0  0  0  0  0  0  0  0  0  0
    5.8226   -2.2030   -7.5630 C   0  0  0  0  0  0  0  0  0  0  0  0
    5.6927   -2.1630   -6.1282 C   0  0  0  0  0  0  0  0  0  0  0  0
    6.8466   -2.4824   -5.4803 O   0  0  0  0  0  0  0  0  0  0  0  0
    7.1923   -1.7587   -4.3182 C   0  0  0  0  0  0  0  0  0  0  0  0
    7.0242   -2.6910   -7.9256 O   0  0  0  0  0  0  0  0  0  0  0  0
    7.3544   -2.9964   -9.2588 C   0  0  0  0  0  0  0  0  0  0  0  0
    4.7933   -1.7886   -9.8441 C   0  0  0  0  0  0  0  0  0  0  0  0
    3.7308   -2.1198  -10.6253 C   0  0  0  0  0  0  0  0  0  0  0  0
    2.5322   -2.8690  -10.1659 C   0  0  0  0  0  0  0  0  0  0  0  0
    2.3969   -3.5054   -9.1449 O   0  0  0  0  0  0  0  0  0  0  0  0
    1.5707   -2.7826  -11.2852 C   0  0  0  0  0  0  0  0  0  0  0  0
    0.2617   -3.2222  -11.3427 C   0  0  0  0  0  0  0  0  0  0  0  0
   -0.4575   -3.0186  -12.5094 C   0  0  0  0  0  0  0  0  0  0  0  0
    0.1475   -2.3929  -13.5939 C   0  0  0  0  0  0  0  0  0  0  0  0
   -0.7651   -2.1452  -15.0345 Cl  0  0  0  0  0  0  0  0  0  0  0  0
    1.4694   -1.9608  -13.5563 C   0  0  0  0  0  0  0  0  0  0  0  0
    2.1840   -2.1609  -12.3867 C   0  0  0  0  0  0  0  0  0  0  0  0
    3.5642   -1.8266  -12.0358 C   0  0  0  0  0  0  0  0  0  0  0  0
    4.5163   -1.3587  -12.9023 C   0  0  0  0  0  0  0  0  0  0  0  0
    5.8653   -1.1264  -12.5625 C   0  0  0  0  0  0  0  0  0  0  0  0
    6.9796   -0.9409  -12.3529 N   0  0  0  0  0  0  0  0  0  0  0  0
    4.2870   -1.0952  -14.2693 C   0  0  0  0  0  0  0  0  0  0  0  0
    4.1662   -0.8580  -15.3858 N   0  0  0  0  0  0  0  0  0  0  0  0
   -7.4430    5.4453    7.5824 H   0  0  0  0  0  0  0  0  0  0  0  0
  -11.2247    6.0529    3.8897 H   0  0  0  0  0  0  0  0  0  0  0  0
  -12.2415    6.6429    1.5348 H   0  0  0  0  0  0  0  0  0  0  0  0
  -11.5751    5.7611    0.1515 H   0  0  0  0  0  0  0  0  0  0  0  0
  -12.3336    4.8879    1.4866 H   0  0  0  0  0  0  0  0  0  0  0  0
   -9.2751    5.2119    0.1720 H   0  0  0  0  0  0  0  0  0  0  0  0
   -7.1075    5.0418    1.2971 H   0  0  0  0  0  0  0  0  0  0  0  0
   -5.1822    5.0851    9.0085 H   0  0  0  0  0  0  0  0  0  0  0  0
   -0.3376    4.2008    9.3967 H   0  0  0  0  0  0  0  0  0  0  0  0
   -0.8268    3.3496    7.9201 H   0  0  0  0  0  0  0  0  0  0  0  0
   -1.4494    6.2826    8.5766 H   0  0  0  0  0  0  0  0  0  0  0  0
   -0.2264    5.7386    7.4219 H   0  0  0  0  0  0  0  0  0  0  0  0
   -1.9386    5.4617    7.0946 H   0  0  0  0  0  0  0  0  0  0  0  0
    0.0655    0.6397    8.9454 H   0  0  0  0  0  0  0  0  0  0  0  0
   -0.2387   -0.0167   11.2971 H   0  0  0  0  0  0  0  0  0  0  0  0
   -2.5026   -0.2593   12.2327 H   0  0  0  0  0  0  0  0  0  0  0  0
   -5.5706    0.7247   10.4587 H   0  0  0  0  0  0  0  0  0  0  0  0
   -4.8828    0.2672   12.0227 H   0  0  0  0  0  0  0  0  0  0  0  0
   -4.6668   -2.0924   11.2354 H   0  0  0  0  0  0  0  0  0  0  0  0
   -6.3428   -1.5410   11.1377 H   0  0  0  0  0  0  0  0  0  0  0  0
   -5.3537   -1.6373    9.6767 H   0  0  0  0  0  0  0  0  0  0  0  0
   -4.1774    0.7572    8.4470 H   0  0  0  0  0  0  0  0  0  0  0  0
    4.1117   -4.4745   -5.5350 H   0  0  0  0  0  0  0  0  0  0  0  0
    5.2175   -6.5621   -6.2045 H   0  0  0  0  0  0  0  0  0  0  0  0
    6.9044   -7.6012   -4.7421 H   0  0  0  0  0  0  0  0  0  0  0  0
    8.3623   -5.9810   -1.8162 H   0  0  0  0  0  0  0  0  0  0  0  0
    8.4023   -7.4133   -2.8547 H   0  0  0  0  0  0  0  0  0  0  0  0
    6.3432   -6.8784   -0.6560 H   0  0  0  0  0  0  0  0  0  0  0  0
    6.3852   -8.3085   -1.6866 H   0  0  0  0  0  0  0  0  0  0  0  0
    7.6978   -8.0080   -0.5427 H   0  0  0  0  0  0  0  0  0  0  0  0
    6.4224   -4.4307   -1.9369 H   0  0  0  0  0  0  0  0  0  0  0  0
    0.0073    1.6497    1.2222 H   0  0  0  0  0  0  0  0  0  0  0  0
   -1.2865    1.5853    2.4047 H   0  0  0  0  0  0  0  0  0  0  0  0
   -0.7014   -0.6930    0.4436 H   0  0  0  0  0  0  0  0  0  0  0  0
   -2.0164   -0.6251    1.6135 H   0  0  0  0  0  0  0  0  0  0  0  0
   -1.9844    0.5130    0.2644 H   0  0  0  0  0  0  0  0  0  0  0  0
    0.7925    0.9121   -0.3772 H   0  0  0  0  0  0  0  0  0  0  0  0
    2.2342    0.6700   -1.3492 H   0  0  0  0  0  0  0  0  0  0  0  0
    2.4381    2.7147    0.0752 H   0  0  0  0  0  0  0  0  0  0  0  0
    2.3185    1.7146    1.5291 H   0  0  0  0  0  0  0  0  0  0  0  0
    3.6879    1.5215    0.4389 H   0  0  0  0  0  0  0  0  0  0  0  0
    0.0817    0.2037   -6.3511 H   0  0  0  0  0  0  0  0  0  0  0  0
    0.4466    0.7946   -7.9997 H   0  0  0  0  0  0  0  0  0  0  0  0
   -1.5256   -0.7259   -8.0618 H   0  0  0  0  0  0  0  0  0  0  0  0
   -0.5675   -2.0115   -7.3129 H   0  0  0  0  0  0  0  0  0  0  0  0
   -0.1554   -1.4343   -8.9312 H   0  0  0  0  0  0  0  0  0  0  0  0
    8.2804   -1.6858   -4.3252 H   0  0  0  0  0  0  0  0  0  0  0  0
    6.8768   -2.2774   -3.4099 H   0  0  0  0  0  0  0  0  0  0  0  0
    6.7601   -0.7547   -4.3267 H   0  0  0  0  0  0  0  0  0  0  0  0
    6.5203   -3.4743   -9.7817 H   0  0  0  0  0  0  0  0  0  0  0  0
    7.6782   -2.1120   -9.8142 H   0  0  0  0  0  0  0  0  0  0  0  0
    8.1900   -3.6942   -9.1942 H   0  0  0  0  0  0  0  0  0  0  0  0
    5.6594   -1.3460  -10.3120 H   0  0  0  0  0  0  0  0  0  0  0  0
   -0.1842   -3.7101  -10.4895 H   0  0  0  0  0  0  0  0  0  0  0  0
   -1.4839   -3.3407  -12.5862 H   0  0  0  0  0  0  0  0  0  0  0  0
    1.9024   -1.4838  -14.4200 H   0  0  0  0  0  0  0  0  0  0  0  0
  1  2  2  0  0  0  0
  2  3  1  0  0  0  0
  3  4  2  0  0  0  0
  3  5  1  0  0  0  0
  5  6  2  0  0  0  0
  6  7  1  0  0  0  0
  7  8  1  0  0  0  0
  7  9  2  0  0  0  0
  9 10  1  0  0  0  0
 10 11  2  0  0  0  0
 11 12  1  0  0  0  0
 12 13  2  0  0  0  0
 13 14  1  0  0  0  0
 14 15  3  0  0  0  0
 13 16  1  0  0  0  0
 16 17  3  0  0  0  0
  1 18  1  0  0  0  0
 18 19  2  0  0  0  0
 19 20  1  0  0  0  0
 20 21  1  0  0  0  0
 21 22  1  0  0  0  0
 22 23  1  0  0  0  0
 20 24  2  0  0  0  0
 24 25  1  0  0  0  0
 24 26  1  0  0  0  0
 26 27  2  0  0  0  0
 27 28  1  0  0  0  0
 28 29  2  0  0  0  0
 29 30  1  0  0  0  0
 30 31  2  0  0  0  0
 31 32  1  0  0  0  0
 32 33  1  0  0  0  0
 33 34  1  0  0  0  0
 32 35  2  0  0  0  0
 27 36  1  0  0  0  0
 36 37  1  0  0  0  0
 37 38  1  0  0  0  0
 38 39  1  0  0  0  0
 39 40  1  0  0  0  0
 40 41  1  0  0  0  0
 41 42  2  0  0  0  0
 42 43  1  0  0  0  0
 43 44  1  0  0  0  0
 41 45  1  0  0  0  0
 45 46  1  0  0  0  0
 46 47  1  0  0  0  0
 47 48  1  0  0  0  0
 48 49  1  0  0  0  0
 49 50  1  0  0  0  0
 50 51  2  0  0  0  0
 51 52  1  0  0  0  0
 52 53  2  0  0  0  0
 53 54  1  0  0  0  0
 54 55  1  0  0  0  0
 55 56  1  0  0  0  0
 54 57  2  0  0  0  0
 49 58  2  0  0  0  0
 58 59  1  0  0  0  0
 59 60  1  0  0  0  0
 60 61  1  0  0  0  0
 61 62  1  0  0  0  0
 62 63  1  0  0  0  0
 63 64  1  0  0  0  0
 64 65  1  0  0  0  0
 65 66  1  0  0  0  0
 66 67  1  0  0  0  0
 67 68  1  0  0  0  0
 65 69  1  0  0  0  0
 69 70  1  0  0  0  0
 62 71  1  0  0  0  0
 71 72  1  0  0  0  0
 58 73  1  0  0  0  0
 73 74  1  0  0  0  0
 74 75  2  0  0  0  0
 75 76  1  0  0  0  0
 76 77  1  0  0  0  0
 77 78  1  0  0  0  0
 76 79  1  0  0  0  0
 79 80  2  0  0  0  0
 80 81  1  0  0  0  0
 81 82  2  0  0  0  0
 82 83  1  0  0  0  0
 83 84  1  0  0  0  0
 84 85  1  0  0  0  0
 82 86  1  0  0  0  0
 86 87  1  0  0  0  0
 81 88  1  0  0  0  0
 88 89  2  0  0  0  0
 89 90  1  0  0  0  0
 90 91  2  0  0  0  0
 90 92  1  0  0  0  0
 92 93  2  0  0  0  0
 93 94  1  0  0  0  0
 94 95  2  0  0  0  0
 95 96  1  0  0  0  0
 95 97  1  0  0  0  0
 97 98  2  0  0  0  0
 98 99  1  0  0  0  0
 99100  2  0  0  0  0
100101  1  0  0  0  0
101102  3  0  0  0  0
100103  1  0  0  0  0
103104  3  0  0  0  0
 12  2  1  0  0  0  0
 25 18  1  0  0  0  0
 68 26  1  0  0  0  0
 83 73  2  0  0  0  0
 99 89  1  0  0  0  0
 11  5  1  0  0  0  0
 35 28  1  0  0  0  0
 67 36  2  0  0  0  0
 80 74  1  0  0  0  0
 98 92  1  0  0  0  0
 66 38  2  0  0  0  0
 64 39  2  0  0  0  0
 44 40  2  0  0  0  0
 63 45  2  0  0  0  0
 61 46  2  0  0  0  0
 60 48  2  0  0  0  0
 57 50  1  0  0  0  0
  1105  1  0  0  0  0
  6106  1  0  0  0  0
  8107  1  0  0  0  0
  8108  1  0  0  0  0
  8109  1  0  0  0  0
  9110  1  0  0  0  0
 10111  1  0  0  0  0
 19112  1  0  0  0  0
 22113  1  0  0  0  0
 22114  1  0  0  0  0
 23115  1  0  0  0  0
 23116  1  0  0  0  0
 23117  1  0  0  0  0
 29118  1  0  0  0  0
 30119  1  0  0  0  0
 31120  1  0  0  0  0
 33121  1  0  0  0  0
 33122  1  0  0  0  0
 34123  1  0  0  0  0
 34124  1  0  0  0  0
 34125  1  0  0  0  0
 35126  1  0  0  0  0
 51127  1  0  0  0  0
 52128  1  0  0  0  0
 53129  1  0  0  0  0
 55130  1  0  0  0  0
 55131  1  0  0  0  0
 56132  1  0  0  0  0
 56133  1  0  0  0  0
 56134  1  0  0  0  0
 57135  1  0  0  0  0
 69136  1  0  0  0  0
 69137  1  0  0  0  0
 70138  1  0  0  0  0
 70139  1  0  0  0  0
 70140  1  0  0  0  0
 71141  1  0  0  0  0
 71142  1  0  0  0  0
 72143  1  0  0  0  0
 72144  1  0  0  0  0
 72145  1  0  0  0  0
 77146  1  0  0  0  0
 77147  1  0  0  0  0
 78148  1  0  0  0  0
 78149  1  0  0  0  0
 78150  1  0  0  0  0
 85151  1  0  0  0  0
 85152  1  0  0  0  0
 85153  1  0  0  0  0
 87154  1  0  0  0  0
 87155  1  0  0  0  0
 87156  1  0  0  0  0
 88157  1  0  0  0  0
 93158  1  0  0  0  0
 94159  1  0  0  0  0
 97160  1  0  0  0  0
M  END
