
  xtb     02112212133D
 energy: -249.715979617135 gnorm: 0.002080069493 xtb: 6.4.1 (unknown)
128145  0     0  0            999 V2000
    3.1381   13.2939   -6.5698 C   0  0  0  0  0  0  0  0  0  0  0  0
    2.9516   14.5449   -6.0370 C   0  0  0  0  0  0  0  0  0  0  0  0
    2.2070   14.9330   -4.8200 C   0  0  0  0  0  0  0  0  0  0  0  0
    1.4557   14.2668   -4.1332 O   0  0  0  0  0  0  0  0  0  0  0  0
    2.5643   16.3425   -4.5660 C   0  0  0  0  0  0  0  0  0  0  0  0
    2.1843   17.1438   -3.5099 C   0  0  0  0  0  0  0  0  0  0  0  0
    2.6488   18.4564   -3.4574 C   0  0  0  0  0  0  0  0  0  0  0  0
    2.2789   19.3458   -2.3131 C   0  0  0  0  0  0  0  0  0  0  0  0
    3.4829   18.9173   -4.4732 C   0  0  0  0  0  0  0  0  0  0  0  0
    3.8650   18.1176   -5.5403 C   0  0  0  0  0  0  0  0  0  0  0  0
    3.4003   16.8124   -5.5916 C   0  0  0  0  0  0  0  0  0  0  0  0
    3.6093   15.7349   -6.5530 C   0  0  0  0  0  0  0  0  0  0  0  0
    4.2546   15.8715   -7.7550 C   0  0  0  0  0  0  0  0  0  0  0  0
    4.4012   14.8750   -8.7434 C   0  0  0  0  0  0  0  0  0  0  0  0
    4.5607   14.1425   -9.6145 N   0  0  0  0  0  0  0  0  0  0  0  0
    4.8396   17.0750   -8.2017 C   0  0  0  0  0  0  0  0  0  0  0  0
    5.3359   18.0175   -8.6297 N   0  0  0  0  0  0  0  0  0  0  0  0
    2.5891   12.0470   -6.2305 C   0  0  0  0  0  0  0  0  0  0  0  0
    3.2862   10.6411   -7.0649 S   0  0  0  0  0  0  0  0  0  0  0  0
    2.2346    9.5919   -6.2065 C   0  0  0  0  0  0  0  0  0  0  0  0
    1.9284    8.2455   -6.0329 C   0  0  0  0  0  0  0  0  0  0  0  0
    0.8928    8.1814   -5.0709 C   0  0  0  0  0  0  0  0  0  0  0  0
    0.5450    9.4424   -4.6764 N   0  0  0  0  0  0  0  0  0  0  0  0
   -0.3936    9.7943   -3.6419 C   0  0  0  0  0  0  0  0  0  0  0  0
    0.2815    9.8698   -2.2740 C   0  0  0  0  0  0  0  0  0  0  0  0
    1.3717   10.3151   -5.3384 C   0  0  0  0  0  0  0  0  0  0  0  0
    1.5729   11.6861   -5.3556 C   0  0  0  0  0  0  0  0  0  0  0  0
    0.5050    6.8758   -4.7623 C   0  0  0  0  0  0  0  0  0  0  0  0
    1.2308    5.9438   -5.4744 C   0  0  0  0  0  0  0  0  0  0  0  0
    2.4056    6.6725   -6.5624 S   0  0  0  0  0  0  0  0  0  0  0  0
    1.1434    4.5323   -5.3632 C   0  0  0  0  0  0  0  0  0  0  0  0
    1.8756    3.5880   -6.0396 C   0  0  0  0  0  0  0  0  0  0  0  0
    1.6114    2.2668   -5.6574 C   0  0  0  0  0  0  0  0  0  0  0  0
    2.3168    0.7660   -6.2082 S   0  0  0  0  0  0  0  0  0  0  0  0
    1.3390   -0.0884   -5.0674 C   0  0  0  0  0  0  0  0  0  0  0  0
    1.0904   -1.4070   -4.6544 C   0  0  0  0  0  0  0  0  0  0  0  0
    1.5650   -2.6390   -5.1534 C   0  0  0  0  0  0  0  0  0  0  0  0
    1.0736   -3.8559   -4.5748 C   0  0  0  0  0  0  0  0  0  0  0  0
    1.5642   -4.9331   -5.1680 N   0  0  0  0  0  0  0  0  0  0  0  0
    2.5619   -4.4561   -6.3511 S   0  0  0  0  0  0  0  0  0  0  0  0
    2.4070   -2.8578   -6.1514 N   0  0  0  0  0  0  0  0  0  0  0  0
    0.2211   -3.7806   -3.4520 C   0  0  0  0  0  0  0  0  0  0  0  0
   -0.2491   -4.7854   -2.5915 C   0  0  0  0  0  0  0  0  0  0  0  0
   -0.9145   -4.1440   -1.5454 C   0  0  0  0  0  0  0  0  0  0  0  0
   -0.9192   -2.7888   -1.7488 N   0  0  0  0  0  0  0  0  0  0  0  0
   -1.2254   -1.9474   -0.6163 C   0  0  0  0  0  0  0  0  0  0  0  0
   -0.0014   -1.7558    0.2764 C   0  0  0  0  0  0  0  0  0  0  0  0
   -0.2126   -2.5334   -2.9149 C   0  0  0  0  0  0  0  0  0  0  0  0
    0.1358   -1.3388   -3.5996 C   0  0  0  0  0  0  0  0  0  0  0  0
   -0.2237   -0.0109   -3.4294 N   0  0  0  0  0  0  0  0  0  0  0  0
    0.5138    0.7422   -4.3057 C   0  0  0  0  0  0  0  0  0  0  0  0
    0.6578    2.0934   -4.6463 C   0  0  0  0  0  0  0  0  0  0  0  0
   -0.0380    3.7419   -4.1063 Se  0  0  0  0  0  2  0  0  0  0  0  0
   -1.3902    0.5734   -2.8104 C   0  0  0  0  0  0  0  0  0  0  0  0
   -1.0436    1.3841   -1.5616 C   0  0  0  0  0  0  0  0  0  0  0  0
   -1.3397   -5.0333   -0.5509 C   0  0  0  0  0  0  0  0  0  0  0  0
   -1.0042   -6.3559   -0.8725 C   0  0  0  0  0  0  0  0  0  0  0  0
   -0.1687   -6.5031   -2.4035 S   0  0  0  0  0  0  0  0  0  0  0  0
   -1.3321   -7.3226    0.0842 C   0  0  0  0  0  0  0  0  0  0  0  0
   -1.9345   -6.8180    1.2151 C   0  0  0  0  0  0  0  0  0  0  0  0
   -2.1676   -4.9403    1.1206 Se  0  0  0  0  0  2  0  0  0  0  0  0
   -2.3193   -7.5177    2.3892 C   0  0  0  0  0  0  0  0  0  0  0  0
   -3.0569   -6.6144    3.7030 S   0  0  0  0  0  0  0  0  0  0  0  0
   -3.1078   -8.0395    4.6716 C   0  0  0  0  0  0  0  0  0  0  0  0
   -3.4607   -8.4804    5.9403 C   0  0  0  0  0  0  0  0  0  0  0  0
   -3.1457   -9.8669    5.9858 C   0  0  0  0  0  0  0  0  0  0  0  0
   -2.6452  -10.2670    4.7730 N   0  0  0  0  0  0  0  0  0  0  0  0
   -2.0291  -11.5429    4.5095 C   0  0  0  0  0  0  0  0  0  0  0  0
   -0.5713  -11.5582    4.9635 C   0  0  0  0  0  0  0  0  0  0  0  0
   -2.5872   -9.1568    3.9756 C   0  0  0  0  0  0  0  0  0  0  0  0
   -2.1460   -8.8556    2.6848 C   0  0  0  0  0  0  0  0  0  0  0  0
   -3.3856  -10.4499    7.2182 C   0  0  0  0  0  0  0  0  0  0  0  0
   -3.8761   -9.5288    8.1406 C   0  0  0  0  0  0  0  0  0  0  0  0
   -4.0935   -7.9236    7.4332 S   0  0  0  0  0  0  0  0  0  0  0  0
   -4.2220   -9.7037    9.4863 C   0  0  0  0  0  0  0  0  0  0  0  0
   -3.9539  -10.7492   10.3301 C   0  0  0  0  0  0  0  0  0  0  0  0
   -4.7298  -10.8696   11.5854 C   0  0  0  0  0  0  0  0  0  0  0  0
   -5.4728  -10.0433   12.0599 O   0  0  0  0  0  0  0  0  0  0  0  0
   -4.4441  -12.2360   12.0930 C   0  0  0  0  0  0  0  0  0  0  0  0
   -5.0211  -12.9151   13.1515 C   0  0  0  0  0  0  0  0  0  0  0  0
   -6.1198  -12.1477   14.2065 Cl  0  0  0  0  0  0  0  0  0  0  0  0
   -4.6832  -14.2644   13.3366 C   0  0  0  0  0  0  0  0  0  0  0  0
   -5.3468  -15.1351   14.6506 Cl  0  0  0  0  0  0  0  0  0  0  0  0
   -3.8421  -14.9088   12.4311 C   0  0  0  0  0  0  0  0  0  0  0  0
   -3.5301  -16.5801   12.6167 Cl  0  0  0  0  0  0  0  0  0  0  0  0
   -3.2573  -14.2116   11.3620 C   0  0  0  0  0  0  0  0  0  0  0  0
   -2.3642  -15.0942   10.1918 Cl  0  0  0  0  0  0  0  0  0  0  0  0
   -3.5111  -12.8544   11.2378 C   0  0  0  0  0  0  0  0  0  0  0  0
   -3.0212  -11.8497   10.2905 C   0  0  0  0  0  0  0  0  0  0  0  0
   -1.7493  -11.8184    9.7759 C   0  0  0  0  0  0  0  0  0  0  0  0
   -0.7187  -12.7282   10.0971 C   0  0  0  0  0  0  0  0  0  0  0  0
    0.1992  -13.3678   10.3536 N   0  0  0  0  0  0  0  0  0  0  0  0
   -1.2264  -10.7636    9.0018 C   0  0  0  0  0  0  0  0  0  0  0  0
   -0.7206   -9.9590    8.3568 N   0  0  0  0  0  0  0  0  0  0  0  0
    3.8570   13.2297   -7.3788 H   0  0  0  0  0  0  0  0  0  0  0  0
    1.5369   16.7493   -2.7407 H   0  0  0  0  0  0  0  0  0  0  0  0
    2.3012   20.3919   -2.6083 H   0  0  0  0  0  0  0  0  0  0  0  0
    1.2882   19.1017   -1.9371 H   0  0  0  0  0  0  0  0  0  0  0  0
    2.9898   19.2105   -1.4970 H   0  0  0  0  0  0  0  0  0  0  0  0
    3.8458   19.9340   -4.4298 H   0  0  0  0  0  0  0  0  0  0  0  0
    4.5148   18.5174   -6.3013 H   0  0  0  0  0  0  0  0  0  0  0  0
   -0.8305   10.7637   -3.8960 H   0  0  0  0  0  0  0  0  0  0  0  0
   -1.1882    9.0432   -3.6326 H   0  0  0  0  0  0  0  0  0  0  0  0
    0.7465    8.9175   -2.0281 H   0  0  0  0  0  0  0  0  0  0  0  0
   -0.4527   10.1089   -1.5100 H   0  0  0  0  0  0  0  0  0  0  0  0
    1.0470   10.6420   -2.2759 H   0  0  0  0  0  0  0  0  0  0  0  0
    1.0399   12.4089   -4.7671 H   0  0  0  0  0  0  0  0  0  0  0  0
   -0.2537    6.5958   -4.0491 H   0  0  0  0  0  0  0  0  0  0  0  0
    2.6006    3.8511   -6.7903 H   0  0  0  0  0  0  0  0  0  0  0  0
   -1.6158   -0.9882   -0.9344 H   0  0  0  0  0  0  0  0  0  0  0  0
   -2.0143   -2.4579   -0.0483 H   0  0  0  0  0  0  0  0  0  0  0  0
    0.8149   -1.3071   -0.2861 H   0  0  0  0  0  0  0  0  0  0  0  0
    0.3345   -2.7154    0.6642 H   0  0  0  0  0  0  0  0  0  0  0  0
   -0.2512   -1.1131    1.1160 H   0  0  0  0  0  0  0  0  0  0  0  0
   -2.1172   -0.2148   -2.6066 H   0  0  0  0  0  0  0  0  0  0  0  0
   -1.8454    1.2517   -3.5449 H   0  0  0  0  0  0  0  0  0  0  0  0
   -0.4738    2.2696   -1.8423 H   0  0  0  0  0  0  0  0  0  0  0  0
   -1.9551    1.7079   -1.0662 H   0  0  0  0  0  0  0  0  0  0  0  0
   -0.4419    0.8100   -0.8632 H   0  0  0  0  0  0  0  0  0  0  0  0
   -1.1165   -8.3678   -0.0490 H   0  0  0  0  0  0  0  0  0  0  0  0
   -2.5989  -12.3097    5.0410 H   0  0  0  0  0  0  0  0  0  0  0  0
   -2.0977  -11.7408    3.4368 H   0  0  0  0  0  0  0  0  0  0  0  0
    0.0104  -10.8401    4.3907 H   0  0  0  0  0  0  0  0  0  0  0  0
   -0.5010  -11.2923    6.0162 H   0  0  0  0  0  0  0  0  0  0  0  0
   -0.1459  -12.5472    4.8208 H   0  0  0  0  0  0  0  0  0  0  0  0
   -1.7077   -9.5572    2.0001 H   0  0  0  0  0  0  0  0  0  0  0  0
   -3.2530  -11.4911    7.4489 H   0  0  0  0  0  0  0  0  0  0  0  0
   -4.8459   -8.9288    9.9213 H   0  0  0  0  0  0  0  0  0  0  0  0
  1  2  2  0  0  0  0
  2  3  1  0  0  0  0
  3  4  2  0  0  0  0
  3  5  1  0  0  0  0
  5  6  2  0  0  0  0
  6  7  1  0  0  0  0
  7  8  1  0  0  0  0
  7  9  2  0  0  0  0
  9 10  1  0  0  0  0
 10 11  2  0  0  0  0
 11 12  1  0  0  0  0
 12 13  2  0  0  0  0
 13 14  1  0  0  0  0
 14 15  3  0  0  0  0
 13 16  1  0  0  0  0
 16 17  3  0  0  0  0
  1 18  1  0  0  0  0
 18 19  1  0  0  0  0
 19 20  1  0  0  0  0
 20 21  1  0  0  0  0
 21 22  2  0  0  0  0
 22 23  1  0  0  0  0
 23 24  1  0  0  0  0
 24 25  1  0  0  0  0
 23 26  1  0  0  0  0
 26 27  1  0  0  0  0
 22 28  1  0  0  0  0
 28 29  2  0  0  0  0
 29 30  1  0  0  0  0
 29 31  1  0  0  0  0
 31 32  2  0  0  0  0
 32 33  1  0  0  0  0
 33 34  1  0  0  0  0
 34 35  1  0  0  0  0
 35 36  1  0  0  0  0
 36 37  1  0  0  0  0
 37 38  1  0  0  0  0
 38 39  2  0  0  0  0
 39 40  1  0  0  0  0
 40 41  1  0  0  0  0
 38 42  1  0  0  0  0
 42 43  1  0  0  0  0
 43 44  2  0  0  0  0
 44 45  1  0  0  0  0
 45 46  1  0  0  0  0
 46 47  1  0  0  0  0
 45 48  1  0  0  0  0
 48 49  1  0  0  0  0
 49 50  1  0  0  0  0
 50 51  1  0  0  0  0
 51 52  1  0  0  0  0
 52 53  1  0  0  0  0
 50 54  1  0  0  0  0
 54 55  1  0  0  0  0
 44 56  1  0  0  0  0
 56 57  2  0  0  0  0
 57 58  1  0  0  0  0
 57 59  1  0  0  0  0
 59 60  2  0  0  0  0
 60 61  1  0  0  0  0
 60 62  1  0  0  0  0
 62 63  1  0  0  0  0
 63 64  1  0  0  0  0
 64 65  1  0  0  0  0
 65 66  2  0  0  0  0
 66 67  1  0  0  0  0
 67 68  1  0  0  0  0
 68 69  1  0  0  0  0
 67 70  1  0  0  0  0
 70 71  1  0  0  0  0
 66 72  1  0  0  0  0
 72 73  2  0  0  0  0
 73 74  1  0  0  0  0
 73 75  1  0  0  0  0
 75 76  2  0  0  0  0
 76 77  1  0  0  0  0
 77 78  2  0  0  0  0
 77 79  1  0  0  0  0
 79 80  2  0  0  0  0
 80 81  1  0  0  0  0
 80 82  1  0  0  0  0
 82 83  1  0  0  0  0
 82 84  2  0  0  0  0
 84 85  1  0  0  0  0
 84 86  1  0  0  0  0
 86 87  1  0  0  0  0
 86 88  2  0  0  0  0
 88 89  1  0  0  0  0
 89 90  2  0  0  0  0
 90 91  1  0  0  0  0
 91 92  3  0  0  0  0
 90 93  1  0  0  0  0
 93 94  3  0  0  0  0
 12  2  1  0  0  0  0
 27 18  2  0  0  0  0
 53 31  1  0  0  0  0
 61 56  1  0  0  0  0
 71 62  2  0  0  0  0
 89 76  1  0  0  0  0
 11  5  1  0  0  0  0
 26 20  2  0  0  0  0
 52 33  2  0  0  0  0
 70 64  2  0  0  0  0
 88 79  1  0  0  0  0
 30 21  1  0  0  0  0
 51 35  2  0  0  0  0
 74 65  1  0  0  0  0
 49 36  2  0  0  0  0
 41 37  2  0  0  0  0
 48 42  2  0  0  0  0
 58 43  1  0  0  0  0
  1 95  1  0  0  0  0
  6 96  1  0  0  0  0
  8 97  1  0  0  0  0
  8 98  1  0  0  0  0
  8 99  1  0  0  0  0
  9100  1  0  0  0  0
 10101  1  0  0  0  0
 24102  1  0  0  0  0
 24103  1  0  0  0  0
 25104  1  0  0  0  0
 25105  1  0  0  0  0
 25106  1  0  0  0  0
 27107  1  0  0  0  0
 28108  1  0  0  0  0
 32109  1  0  0  0  0
 46110  1  0  0  0  0
 46111  1  0  0  0  0
 47112  1  0  0  0  0
 47113  1  0  0  0  0
 47114  1  0  0  0  0
 54115  1  0  0  0  0
 54116  1  0  0  0  0
 55117  1  0  0  0  0
 55118  1  0  0  0  0
 55119  1  0  0  0  0
 59120  1  0  0  0  0
 68121  1  0  0  0  0
 68122  1  0  0  0  0
 69123  1  0  0  0  0
 69124  1  0  0  0  0
 69125  1  0  0  0  0
 71126  1  0  0  0  0
 72127  1  0  0  0  0
 75128  1  0  0  0  0
M  END
