161

C          6.28520      -10.14280       -7.04930
C          7.44550      -10.58550       -6.46380
C          7.93880      -10.20110       -5.13710
O          7.43670       -9.41160       -4.35680
C          9.18140      -10.96880       -4.92770
C         10.01760      -10.97650       -3.83270
C         11.14730      -11.79410       -3.85140
C         12.06170      -11.83920       -2.66840
C         11.39450      -12.57670       -4.97530
C         10.55660      -12.57220       -6.08180
C          9.43480      -11.75930       -6.06290
C          8.37490      -11.53310       -7.04310
C          8.30410      -12.12640       -8.27930
C          9.25640      -13.04160       -8.77310
N          9.98590      -13.79660       -9.23880
C          7.29440      -11.92080       -9.24070
N          6.51900      -11.81070      -10.08250
C          5.29830       -9.26640       -6.58360
S          5.29460       -8.40710       -5.04060
C          3.76730       -7.71480       -5.43050
C          2.78270       -6.87520       -4.91190
C          1.74180       -6.81530       -5.86580
N          2.05250       -7.59510       -6.94490
C          1.27510       -7.73430       -8.14860
C          1.63550       -6.66460       -9.17760
C          3.28870       -8.14020       -6.70160
C          4.15370       -9.00120       -7.34490
C          0.66140       -6.02330       -5.47350
C          0.85840       -5.48580       -4.21930
S          2.41060       -5.92390       -3.51890
C         -0.06400       -4.67530       -3.49300
C         -1.44410       -4.68440       -3.58580
C         -2.23640       -5.64300       -4.36040
C         -3.28350       -5.19800       -5.16090
C         -4.02740       -6.10730       -5.89050
C         -3.73700       -7.45830       -5.82690
C         -2.70330       -7.92150       -5.02030
C         -2.41530       -9.39130       -4.90770
C         -3.23800      -10.01110       -3.77680
C         -1.96730       -7.00660       -4.28520
C         -2.01580       -3.68130       -2.77980
S         -3.67490       -3.23180       -2.47120
C         -3.10880       -2.00230       -1.39470
C         -3.63300       -1.01340       -0.55070
C         -4.97220       -0.72220       -0.21710
C         -5.23240        0.29610        0.75550
N         -6.52420        0.44050        1.00660
S         -7.34280       -0.61690        0.09230
N         -6.07930       -1.29830       -0.65900
C         -4.14550        1.03370        1.26970
C         -4.13700        2.16170        2.10320
S         -5.25780        3.17560        2.94570
C         -3.93250        4.22120        3.39670
C         -3.86740        5.41830        4.14030
C         -5.00680        6.06270        4.79120
C         -6.23540        6.14840        4.14230
C         -7.29030        6.80270        4.74890
C         -7.13380        7.37730        5.99880
C         -5.92210        7.28120        6.67090
C         -5.71980        7.92920        8.01130
C         -4.93810        9.23620        7.86320
C         -4.87120        6.61290        6.06180
C         -2.57370        5.89040        4.20990
S         -1.42590        4.85270        3.39780
C         -2.69480        3.78010        2.92700
C         -2.81360        2.59140        2.19050
N         -2.00550        1.76060        1.46420
C         -2.79440        0.77700        0.89240
C         -2.52770       -0.33070        0.03570
N         -1.36880       -0.94170       -0.41480
C         -1.71960       -1.94080       -1.28280
C         -1.08860       -2.91830       -2.06660
S          0.52730       -3.44750       -2.38660
C          0.01230       -0.82260       -0.01080
C          0.86030       -0.12140       -1.07290
C         -0.61150        2.10500        1.31980
C          0.19990        1.71490        2.55570
C         -2.12540        7.14510        4.79070
C         -2.81710        8.33880        4.48300
O         -3.82750        8.21350        3.59540
C         -4.68240        9.29830        3.30690
C         -2.36710        9.50290        5.08700
F         -3.02870       10.67280        4.88980
C         -1.25820        9.54620        5.93920
C         -0.56440        8.35440        6.23720
O          0.49440        8.49690        7.06050
C          1.37830        7.41780        7.29300
C         -1.02200        7.18430        5.63940
F         -0.42740        5.99770        5.91620
C         -0.81960       10.76970        6.56970
C         -0.78930       12.02390        6.07130
C         -0.63620       13.18580        6.99940
O         -0.29480       13.14390        8.15750
C         -1.04140       14.36290        6.20780
C         -1.19620       15.67090        6.62040
C         -1.61770       16.62560        5.69800
C         -1.77100       18.05750        6.09990
C         -1.87730       16.23130        4.38570
C         -1.71680       14.92240        3.96010
C         -1.28910       13.97440        4.87740
C         -0.99400       12.55490        4.73360
C         -0.74620       11.90590        3.55540
C         -0.21860       10.60170        3.46470
N          0.25600        9.56540        3.32700
C         -0.91950       12.49140        2.28380
N         -1.06970       12.90880        1.22520
H          6.06270      -10.53760       -8.03330
H          9.79230      -10.35580       -2.97830
H         13.03240      -12.24710       -2.93840
H         12.19710      -10.84460       -2.24900
H         11.62990      -12.47160       -1.89190
H         12.26920      -13.21080       -4.98950
H         10.78960      -13.19560       -6.92940
H          1.46040       -8.72960       -8.56110
H          0.21740       -7.65880       -7.88060
H          2.68720       -6.73730       -9.44440
H          1.44840       -5.67310       -8.77180
H          1.03720       -6.79410      -10.07510
H          3.99880       -9.44200       -8.31350
H         -0.21810       -5.83410       -6.05970
H         -3.50160       -4.14250       -5.22080
H         -4.83640       -5.75820       -6.51490
H         -4.31760       -8.16250       -6.40540
H         -2.66170       -9.89030       -5.84740
H         -1.35270       -9.54510       -4.70650
H         -3.02560      -11.07410       -3.69000
H         -3.00080       -9.53020       -2.83060
H         -4.30100       -9.88260       -3.96800
H         -1.17080       -7.35450       -3.64300
H         -6.35280        5.72160        3.15830
H         -8.24090        6.87250        4.24070
H         -7.96080        7.89780        6.46030
H         -6.68630        8.13650        8.47390
H         -5.16510        7.25420        8.66700
H         -5.47080        9.92630        7.21170
H         -3.95690        9.04640        7.43160
H         -4.80260        9.71220        8.83150
H         -3.93220        6.51200        6.58770
H          0.40090       -1.83800        0.12640
H          0.06730       -0.31750        0.94950
H          1.86240        0.05020       -0.69000
H          0.93430       -0.74250       -1.96140
H          0.42550        0.83170       -1.36700
H         -0.21480        1.65280        0.41600
H         -0.55650        3.19250        1.19900
H          0.06510        0.66440        2.80610
H          1.25510        1.90320        2.37880
H         -0.11620        2.30690        3.41040
H         -5.43170        8.89080        2.63040
H         -5.17650        9.67030        4.20740
H         -4.15190       10.11520        2.81110
H          0.89690        6.61060        7.84980
H          1.78430        7.02660        6.35780
H          2.18460        7.83900        7.89130
H         -0.49720       10.66600        7.60070
H         -0.99030       15.93860        7.64600
H         -2.60230       18.52190        5.57430
H         -0.86550       18.60980        5.84610
H         -1.93110       18.14640        7.17120
H         -2.21500       16.97290        3.67640
H         -1.93640       14.65660        2.93860
