128

C          3.13810       13.29390       -6.56980
C          2.95160       14.54490       -6.03700
C          2.20700       14.93300       -4.82000
O          1.45570       14.26680       -4.13320
C          2.56430       16.34250       -4.56600
C          2.18430       17.14380       -3.50990
C          2.64880       18.45640       -3.45740
C          2.27890       19.34580       -2.31310
C          3.48290       18.91730       -4.47320
C          3.86500       18.11760       -5.54030
C          3.40030       16.81240       -5.59160
C          3.60930       15.73490       -6.55300
C          4.25460       15.87150       -7.75500
C          4.40120       14.87500       -8.74340
N          4.56070       14.14250       -9.61450
C          4.83960       17.07500       -8.20170
N          5.33590       18.01750       -8.62970
C          2.58910       12.04700       -6.23050
S          3.28620       10.64110       -7.06490
C          2.23460        9.59190       -6.20650
C          1.92840        8.24550       -6.03290
C          0.89280        8.18140       -5.07090
N          0.54500        9.44240       -4.67640
C         -0.39360        9.79430       -3.64190
C          0.28150        9.86980       -2.27400
C          1.37170       10.31510       -5.33840
C          1.57290       11.68610       -5.35560
C          0.50500        6.87580       -4.76230
C          1.23080        5.94380       -5.47440
S          2.40560        6.67250       -6.56240
C          1.14340        4.53230       -5.36320
C          1.87560        3.58800       -6.03960
C          1.61140        2.26680       -5.65740
S          2.31680        0.76600       -6.20820
C          1.33900       -0.08840       -5.06740
C          1.09040       -1.40700       -4.65440
C          1.56500       -2.63900       -5.15340
C          1.07360       -3.85590       -4.57480
N          1.56420       -4.93310       -5.16800
S          2.56190       -4.45610       -6.35110
N          2.40700       -2.85780       -6.15140
C          0.22110       -3.78060       -3.45200
C         -0.24910       -4.78540       -2.59150
C         -0.91450       -4.14400       -1.54540
N         -0.91920       -2.78880       -1.74880
C         -1.22540       -1.94740       -0.61630
C         -0.00140       -1.75580        0.27640
C         -0.21260       -2.53340       -2.91490
C          0.13580       -1.33880       -3.59960
N         -0.22370       -0.01090       -3.42940
C          0.51380        0.74220       -4.30570
C          0.65780        2.09340       -4.64630
Se        -0.03800        3.74190       -4.10630
C         -1.39020        0.57340       -2.81040
C         -1.04360        1.38410       -1.56160
C         -1.33970       -5.03330       -0.55090
C         -1.00420       -6.35590       -0.87250
S         -0.16870       -6.50310       -2.40350
C         -1.33210       -7.32260        0.08420
C         -1.93450       -6.81800        1.21510
Se        -2.16760       -4.94030        1.12060
C         -2.31930       -7.51770        2.38920
S         -3.05690       -6.61440        3.70300
C         -3.10780       -8.03950        4.67160
C         -3.46070       -8.48040        5.94030
C         -3.14570       -9.86690        5.98580
N         -2.64520      -10.26700        4.77300
C         -2.02910      -11.54290        4.50950
C         -0.57130      -11.55820        4.96350
C         -2.58720       -9.15680        3.97560
C         -2.14600       -8.85560        2.68480
C         -3.38560      -10.44990        7.21820
C         -3.87610       -9.52880        8.14060
S         -4.09350       -7.92360        7.43320
C         -4.22200       -9.70370        9.48630
C         -3.95390      -10.74920       10.33010
C         -4.72980      -10.86960       11.58540
O         -5.47280      -10.04330       12.05990
C         -4.44410      -12.23600       12.09300
C         -5.02110      -12.91510       13.15150
Cl        -6.11980      -12.14770       14.20650
C         -4.68320      -14.26440       13.33660
Cl        -5.34680      -15.13510       14.65060
C         -3.84210      -14.90880       12.43110
Cl        -3.53010      -16.58010       12.61670
C         -3.25730      -14.21160       11.36200
Cl        -2.36420      -15.09420       10.19180
C         -3.51110      -12.85440       11.23780
C         -3.02120      -11.84970       10.29050
C         -1.74930      -11.81840        9.77590
C         -0.71870      -12.72820       10.09710
N          0.19920      -13.36780       10.35360
C         -1.22640      -10.76360        9.00180
N         -0.72060       -9.95900        8.35680
H          3.85700       13.22970       -7.37880
H          1.53690       16.74930       -2.74070
H          2.30120       20.39190       -2.60830
H          1.28820       19.10170       -1.93710
H          2.98980       19.21050       -1.49700
H          3.84580       19.93400       -4.42980
H          4.51480       18.51740       -6.30130
H         -0.83050       10.76370       -3.89600
H         -1.18820        9.04320       -3.63260
H          0.74650        8.91750       -2.02810
H         -0.45270       10.10890       -1.51000
H          1.04700       10.64200       -2.27590
H          1.03990       12.40890       -4.76710
H         -0.25370        6.59580       -4.04910
H          2.60060        3.85110       -6.79030
H         -1.61580       -0.98820       -0.93440
H         -2.01430       -2.45790       -0.04830
H          0.81490       -1.30710       -0.28610
H          0.33450       -2.71540        0.66420
H         -0.25120       -1.11310        1.11600
H         -2.11720       -0.21480       -2.60660
H         -1.84540        1.25170       -3.54490
H         -0.47380        2.26960       -1.84230
H         -1.95510        1.70790       -1.06620
H         -0.44190        0.81000       -0.86320
H         -1.11650       -8.36780       -0.04900
H         -2.59890      -12.30970        5.04100
H         -2.09770      -11.74080        3.43680
H          0.01040      -10.84010        4.39070
H         -0.50100      -11.29230        6.01620
H         -0.14590      -12.54720        4.82080
H         -1.70770       -9.55720        2.00010
H         -3.25300      -11.49110        7.44890
H         -4.84590       -8.92880        9.92130
