
  xtb     02112212053D
 energy: -289.942760846080 gnorm: 0.000493707286 xtb: 6.4.1 (unknown)
166186  0     0  0            999 V2000
    4.5735    7.6633   -0.1682 C   0  0  0  0  0  0  0  0  0  0  0  0
    3.6161    8.6487   -0.1648 C   0  0  0  0  0  0  0  0  0  0  0  0
    2.1683    8.5202   -0.4271 C   0  0  0  0  0  0  0  0  0  0  0  0
    1.5377    7.5438   -0.7948 O   0  0  0  0  0  0  0  0  0  0  0  0
    1.5811    9.8286   -0.0815 C   0  0  0  0  0  0  0  0  0  0  0  0
    0.2596   10.2173   -0.1449 C   0  0  0  0  0  0  0  0  0  0  0  0
   -0.0844   11.5108    0.2406 C   0  0  0  0  0  0  0  0  0  0  0  0
   -1.5117   11.9539    0.2034 C   0  0  0  0  0  0  0  0  0  0  0  0
    0.9184   12.3725    0.6791 C   0  0  0  0  0  0  0  0  0  0  0  0
    2.2507   11.9905    0.7377 C   0  0  0  0  0  0  0  0  0  0  0  0
    2.5912   10.7031    0.3520 C   0  0  0  0  0  0  0  0  0  0  0  0
    3.8720   10.0093    0.2747 C   0  0  0  0  0  0  0  0  0  0  0  0
    5.0945   10.5878    0.5050 C   0  0  0  0  0  0  0  0  0  0  0  0
    6.3524    9.9773    0.3194 C   0  0  0  0  0  0  0  0  0  0  0  0
    7.4194    9.5768    0.1716 N   0  0  0  0  0  0  0  0  0  0  0  0
    5.2675   11.9202    0.9337 C   0  0  0  0  0  0  0  0  0  0  0  0
    5.4841   12.9905    1.2893 N   0  0  0  0  0  0  0  0  0  0  0  0
    4.5307    6.3465   -0.6490 C   0  0  0  0  0  0  0  0  0  0  0  0
    5.8992    5.3015   -0.2102 S   0  0  0  0  0  0  0  0  0  0  0  0
    5.2058    3.9984   -1.0856 C   0  0  0  0  0  0  0  0  0  0  0  0
    5.3944    2.6519   -1.3819 C   0  0  0  0  0  0  0  0  0  0  0  0
    4.3031    2.2570   -2.1901 C   0  0  0  0  0  0  0  0  0  0  0  0
    3.4562    3.3117   -2.3823 N   0  0  0  0  0  0  0  0  0  0  0  0
    2.2596    3.3226   -3.1829 C   0  0  0  0  0  0  0  0  0  0  0  0
    2.5612    3.6828   -4.6361 C   0  0  0  0  0  0  0  0  0  0  0  0
    3.9891    4.3844   -1.7137 C   0  0  0  0  0  0  0  0  0  0  0  0
    3.6136    5.6937   -1.4631 C   0  0  0  0  0  0  0  0  0  0  0  0
    4.3134    0.8998   -2.5101 C   0  0  0  0  0  0  0  0  0  0  0  0
    5.3859    0.2405   -1.9385 C   0  0  0  0  0  0  0  0  0  0  0  0
    6.4441    1.3197   -1.0363 S   0  0  0  0  0  0  0  0  0  0  0  0
    5.5228   -1.1738   -1.8830 C   0  0  0  0  0  0  0  0  0  0  0  0
    6.4210   -1.9627   -1.1821 C   0  0  0  0  0  0  0  0  0  0  0  0
    7.6817   -1.4845   -0.6138 C   0  0  0  0  0  0  0  0  0  0  0  0
    8.0229   -1.7807    0.7021 C   0  0  0  0  0  0  0  0  0  0  0  0
    9.2243   -1.3319    1.2165 C   0  0  0  0  0  0  0  0  0  0  0  0
   10.0895   -0.5923    0.4296 C   0  0  0  0  0  0  0  0  0  0  0  0
    9.7705   -0.2988   -0.8904 C   0  0  0  0  0  0  0  0  0  0  0  0
   10.6787    0.5489   -1.7327 C   0  0  0  0  0  0  0  0  0  0  0  0
   10.2873    2.0225   -1.6026 C   0  0  0  0  0  0  0  0  0  0  0  0
    8.5658   -0.7541   -1.4027 C   0  0  0  0  0  0  0  0  0  0  0  0
    5.9570   -3.2897   -1.0617 C   0  0  0  0  0  0  0  0  0  0  0  0
    6.4946   -4.6561   -0.1053 S   0  0  0  0  0  0  0  0  0  0  0  0
    5.0252   -5.4908   -0.5017 C   0  0  0  0  0  0  0  0  0  0  0  0
    4.2516   -6.5655   -0.0262 C   0  0  0  0  0  0  0  0  0  0  0  0
    4.4383   -7.4170    1.0872 C   0  0  0  0  0  0  0  0  0  0  0  0
    3.2881   -8.0572    1.6681 C   0  0  0  0  0  0  0  0  0  0  0  0
    3.5841   -8.7115    2.7792 N   0  0  0  0  0  0  0  0  0  0  0  0
    5.1705   -8.5536    3.0643 S   0  0  0  0  0  0  0  0  0  0  0  0
    5.5399   -7.6282    1.7876 N   0  0  0  0  0  0  0  0  0  0  0  0
    2.0324   -7.9201    1.0357 C   0  0  0  0  0  0  0  0  0  0  0  0
    0.7205   -8.2217    1.4530 C   0  0  0  0  0  0  0  0  0  0  0  0
   -0.1371   -8.5789    2.9191 S   0  0  0  0  0  0  0  0  0  0  0  0
   -1.6376   -8.0931    2.1531 C   0  0  0  0  0  0  0  0  0  0  0  0
   -2.9130   -7.7207    2.6482 C   0  0  0  0  0  0  0  0  0  0  0  0
   -3.3719   -7.7821    4.0327 C   0  0  0  0  0  0  0  0  0  0  0  0
   -2.4819   -7.6809    5.0994 C   0  0  0  0  0  0  0  0  0  0  0  0
   -2.9573   -7.6796    6.3966 C   0  0  0  0  0  0  0  0  0  0  0  0
   -4.3156   -7.7660    6.6487 C   0  0  0  0  0  0  0  0  0  0  0  0
   -5.2182   -7.8793    5.5992 C   0  0  0  0  0  0  0  0  0  0  0  0
   -6.7000   -7.9128    5.8407 C   0  0  0  0  0  0  0  0  0  0  0  0
   -7.3031   -6.5288    5.5902 C   0  0  0  0  0  0  0  0  0  0  0  0
   -4.7339   -7.9000    4.3017 C   0  0  0  0  0  0  0  0  0  0  0  0
   -3.7006   -7.1918    1.6457 C   0  0  0  0  0  0  0  0  0  0  0  0
   -2.9176   -7.2235    0.0677 S   0  0  0  0  0  0  0  0  0  0  0  0
   -1.4710   -7.8199    0.7964 C   0  0  0  0  0  0  0  0  0  0  0  0
   -0.1274   -7.8613    0.4065 C   0  0  0  0  0  0  0  0  0  0  0  0
    0.5922   -7.3552   -0.6437 N   0  0  0  0  0  0  0  0  0  0  0  0
    1.9184   -7.2963   -0.2374 C   0  0  0  0  0  0  0  0  0  0  0  0
    2.9987   -6.5005   -0.6976 C   0  0  0  0  0  0  0  0  0  0  0  0
    3.0305   -5.4353   -1.5790 N   0  0  0  0  0  0  0  0  0  0  0  0
    4.2238   -4.7910   -1.4072 C   0  0  0  0  0  0  0  0  0  0  0  0
    4.7480   -3.5309   -1.7136 C   0  0  0  0  0  0  0  0  0  0  0  0
    4.1670   -2.1145   -2.5106 S   0  0  0  0  0  0  0  0  0  0  0  0
    1.9692   -4.7877   -2.3108 C   0  0  0  0  0  0  0  0  0  0  0  0
    0.9893   -4.0768   -1.3799 C   0  0  0  0  0  0  0  0  0  0  0  0
    0.0322   -7.3898   -1.9795 C   0  0  0  0  0  0  0  0  0  0  0  0
    0.9091   -8.1883   -2.9383 C   0  0  0  0  0  0  0  0  0  0  0  0
   -4.7914   -6.2585    1.7641 C   0  0  0  0  0  0  0  0  0  0  0  0
   -4.4391   -4.8118    2.7140 S   0  0  0  0  0  0  0  0  0  0  0  0
   -5.8070   -4.0273    2.0179 C   0  0  0  0  0  0  0  0  0  0  0  0
   -6.3710   -2.7582    1.9010 C   0  0  0  0  0  0  0  0  0  0  0  0
   -7.4732   -2.8968    1.0130 C   0  0  0  0  0  0  0  0  0  0  0  0
   -7.5713   -4.2026    0.5947 N   0  0  0  0  0  0  0  0  0  0  0  0
   -8.5962   -4.7518   -0.2541 C   0  0  0  0  0  0  0  0  0  0  0  0
   -9.7950   -5.2388    0.5577 C   0  0  0  0  0  0  0  0  0  0  0  0
   -6.5406   -4.8910    1.1794 C   0  0  0  0  0  0  0  0  0  0  0  0
   -5.9404   -6.1520    1.0235 C   0  0  0  0  0  0  0  0  0  0  0  0
   -8.0642   -1.6862    0.7018 C   0  0  0  0  0  0  0  0  0  0  0  0
   -7.3740   -0.6049    1.2638 C   0  0  0  0  0  0  0  0  0  0  0  0
   -6.0184   -1.1204    2.2697 S   0  0  0  0  0  0  0  0  0  0  0  0
   -7.6996    0.7219    0.9502 C   0  0  0  0  0  0  0  0  0  0  0  0
   -6.9575    1.8695    1.0914 C   0  0  0  0  0  0  0  0  0  0  0  0
   -5.5730    1.9388    1.5771 C   0  0  0  0  0  0  0  0  0  0  0  0
   -4.9680    1.1071    2.2284 O   0  0  0  0  0  0  0  0  0  0  0  0
   -5.0439    3.2306    1.1017 C   0  0  0  0  0  0  0  0  0  0  0  0
   -3.7618    3.6956    1.1368 C   0  0  0  0  0  0  0  0  0  0  0  0
   -3.4663    4.9462    0.5474 C   0  0  0  0  0  0  0  0  0  0  0  0
   -2.1490    5.4459    0.4938 C   0  0  0  0  0  0  0  0  0  0  0  0
   -1.8686    6.6472   -0.0983 C   0  0  0  0  0  0  0  0  0  0  0  0
   -2.9281    7.3891   -0.6367 C   0  0  0  0  0  0  0  0  0  0  0  0
   -2.6503    8.5832   -1.2008 F   0  0  0  0  0  0  0  0  0  0  0  0
   -4.2234    6.9525   -0.6148 C   0  0  0  0  0  0  0  0  0  0  0  0
   -4.5235    5.7068   -0.0308 C   0  0  0  0  0  0  0  0  0  0  0  0
   -5.8467    5.2041   -0.0388 C   0  0  0  0  0  0  0  0  0  0  0  0
   -6.1010    3.9732    0.5037 C   0  0  0  0  0  0  0  0  0  0  0  0
   -7.3195    3.1684    0.5624 C   0  0  0  0  0  0  0  0  0  0  0  0
   -8.5727    3.5919    0.1990 C   0  0  0  0  0  0  0  0  0  0  0  0
   -9.7470    2.8189    0.3013 C   0  0  0  0  0  0  0  0  0  0  0  0
  -10.7429    2.2488    0.3599 N   0  0  0  0  0  0  0  0  0  0  0  0
   -8.8537    4.8794   -0.3009 C   0  0  0  0  0  0  0  0  0  0  0  0
   -9.1436    5.9086   -0.7198 N   0  0  0  0  0  0  0  0  0  0  0  0
    5.5228    7.9207    0.2870 H   0  0  0  0  0  0  0  0  0  0  0  0
   -0.4923    9.5321   -0.5019 H   0  0  0  0  0  0  0  0  0  0  0  0
   -1.5875   13.0017   -0.0770 H   0  0  0  0  0  0  0  0  0  0  0  0
   -2.0840   11.3513   -0.4972 H   0  0  0  0  0  0  0  0  0  0  0  0
   -1.9584   11.8395    1.1917 H   0  0  0  0  0  0  0  0  0  0  0  0
    0.6507   13.3749    0.9805 H   0  0  0  0  0  0  0  0  0  0  0  0
    2.9926   12.6922    1.0816 H   0  0  0  0  0  0  0  0  0  0  0  0
    1.5697    4.0520   -2.7508 H   0  0  0  0  0  0  0  0  0  0  0  0
    1.8012    2.3314   -3.1275 H   0  0  0  0  0  0  0  0  0  0  0  0
    3.2480    2.9599   -5.0704 H   0  0  0  0  0  0  0  0  0  0  0  0
    3.0147    4.6693   -4.6925 H   0  0  0  0  0  0  0  0  0  0  0  0
    1.6432    3.6870   -5.2169 H   0  0  0  0  0  0  0  0  0  0  0  0
    2.7247    6.1719   -1.8277 H   0  0  0  0  0  0  0  0  0  0  0  0
    3.5665    0.3945   -3.0959 H   0  0  0  0  0  0  0  0  0  0  0  0
    7.3418   -2.3455    1.3202 H   0  0  0  0  0  0  0  0  0  0  0  0
    9.4860   -1.5588    2.2393 H   0  0  0  0  0  0  0  0  0  0  0  0
   11.0250   -0.2420    0.8413 H   0  0  0  0  0  0  0  0  0  0  0  0
   10.6041    0.2469   -2.7794 H   0  0  0  0  0  0  0  0  0  0  0  0
   11.7139    0.4197   -1.4116 H   0  0  0  0  0  0  0  0  0  0  0  0
    9.2566    2.1692   -1.9175 H   0  0  0  0  0  0  0  0  0  0  0  0
   10.9329    2.6444   -2.2180 H   0  0  0  0  0  0  0  0  0  0  0  0
   10.3741    2.3469   -0.5683 H   0  0  0  0  0  0  0  0  0  0  0  0
    8.3117   -0.5509   -2.4338 H   0  0  0  0  0  0  0  0  0  0  0  0
   -1.4242   -7.5826    4.9141 H   0  0  0  0  0  0  0  0  0  0  0  0
   -2.2618   -7.5984    7.2188 H   0  0  0  0  0  0  0  0  0  0  0  0
   -4.6778   -7.7487    7.6664 H   0  0  0  0  0  0  0  0  0  0  0  0
   -6.9054   -8.2174    6.8682 H   0  0  0  0  0  0  0  0  0  0  0  0
   -7.1684   -8.6362    5.1693 H   0  0  0  0  0  0  0  0  0  0  0  0
   -6.8576   -5.7966    6.2597 H   0  0  0  0  0  0  0  0  0  0  0  0
   -7.1137   -6.2112    4.5668 H   0  0  0  0  0  0  0  0  0  0  0  0
   -8.3778   -6.5440    5.7570 H   0  0  0  0  0  0  0  0  0  0  0  0
   -5.4283   -8.0151    3.4815 H   0  0  0  0  0  0  0  0  0  0  0  0
    1.4655   -5.5074   -2.9544 H   0  0  0  0  0  0  0  0  0  0  0  0
    2.4452   -4.0489   -2.9611 H   0  0  0  0  0  0  0  0  0  0  0  0
    0.5476   -4.7703   -0.6689 H   0  0  0  0  0  0  0  0  0  0  0  0
    0.1958   -3.6125   -1.9592 H   0  0  0  0  0  0  0  0  0  0  0  0
    1.5088   -3.3014   -0.8221 H   0  0  0  0  0  0  0  0  0  0  0  0
   -0.1550   -6.3811   -2.3555 H   0  0  0  0  0  0  0  0  0  0  0  0
   -0.9424   -7.8778   -1.8906 H   0  0  0  0  0  0  0  0  0  0  0  0
    1.0104   -9.2126   -2.5869 H   0  0  0  0  0  0  0  0  0  0  0  0
    1.9049   -7.7581   -3.0155 H   0  0  0  0  0  0  0  0  0  0  0  0
    0.4561   -8.2032   -3.9262 H   0  0  0  0  0  0  0  0  0  0  0  0
   -8.1636   -5.5806   -0.8209 H   0  0  0  0  0  0  0  0  0  0  0  0
   -8.9098   -3.9759   -0.9576 H   0  0  0  0  0  0  0  0  0  0  0  0
  -10.5536   -5.6458   -0.1048 H   0  0  0  0  0  0  0  0  0  0  0  0
   -9.4881   -6.0133    1.2567 H   0  0  0  0  0  0  0  0  0  0  0  0
  -10.2275   -4.4156    1.1212 H   0  0  0  0  0  0  0  0  0  0  0  0
   -6.2994   -6.9402    0.3863 H   0  0  0  0  0  0  0  0  0  0  0  0
   -8.9181   -1.5474    0.0632 H   0  0  0  0  0  0  0  0  0  0  0  0
   -8.6392    0.8175    0.4172 H   0  0  0  0  0  0  0  0  0  0  0  0
   -2.9773    3.1086    1.5906 H   0  0  0  0  0  0  0  0  0  0  0  0
   -1.3528    4.8565    0.9231 H   0  0  0  0  0  0  0  0  0  0  0  0
   -0.8586    7.0226   -0.1681 H   0  0  0  0  0  0  0  0  0  0  0  0
   -5.0095    7.5515   -1.0478 H   0  0  0  0  0  0  0  0  0  0  0  0
   -6.6207    5.7980   -0.4980 H   0  0  0  0  0  0  0  0  0  0  0  0
  1  2  2  0  0  0  0
  2  3  1  0  0  0  0
  3  4  2  0  0  0  0
  3  5  1  0  0  0  0
  5  6  2  0  0  0  0
  6  7  1  0  0  0  0
  7  8  1  0  0  0  0
  7  9  2  0  0  0  0
  9 10  1  0  0  0  0
 10 11  2  0  0  0  0
 11 12  1  0  0  0  0
 12 13  2  0  0  0  0
 13 14  1  0  0  0  0
 14 15  3  0  0  0  0
 13 16  1  0  0  0  0
 16 17  3  0  0  0  0
  1 18  1  0  0  0  0
 18 19  1  0  0  0  0
 19 20  1  0  0  0  0
 20 21  1  0  0  0  0
 21 22  2  0  0  0  0
 22 23  1  0  0  0  0
 23 24  1  0  0  0  0
 24 25  1  0  0  0  0
 23 26  1  0  0  0  0
 26 27  1  0  0  0  0
 22 28  1  0  0  0  0
 28 29  2  0  0  0  0
 29 30  1  0  0  0  0
 29 31  1  0  0  0  0
 31 32  2  0  0  0  0
 32 33  1  0  0  0  0
 33 34  2  0  0  0  0
 34 35  1  0  0  0  0
 35 36  2  0  0  0  0
 36 37  1  0  0  0  0
 37 38  1  0  0  0  0
 38 39  1  0  0  0  0
 37 40  2  0  0  0  0
 32 41  1  0  0  0  0
 41 42  1  0  0  0  0
 42 43  1  0  0  0  0
 43 44  1  0  0  0  0
 44 45  1  0  0  0  0
 45 46  1  0  0  0  0
 46 47  2  0  0  0  0
 47 48  1  0  0  0  0
 48 49  1  0  0  0  0
 46 50  1  0  0  0  0
 50 51  1  0  0  0  0
 51 52  1  0  0  0  0
 52 53  1  0  0  0  0
 53 54  1  0  0  0  0
 54 55  1  0  0  0  0
 55 56  2  0  0  0  0
 56 57  1  0  0  0  0
 57 58  2  0  0  0  0
 58 59  1  0  0  0  0
 59 60  1  0  0  0  0
 60 61  1  0  0  0  0
 59 62  2  0  0  0  0
 54 63  2  0  0  0  0
 63 64  1  0  0  0  0
 64 65  1  0  0  0  0
 65 66  1  0  0  0  0
 66 67  1  0  0  0  0
 67 68  1  0  0  0  0
 68 69  1  0  0  0  0
 69 70  1  0  0  0  0
 70 71  1  0  0  0  0
 71 72  1  0  0  0  0
 72 73  1  0  0  0  0
 70 74  1  0  0  0  0
 74 75  1  0  0  0  0
 67 76  1  0  0  0  0
 76 77  1  0  0  0  0
 63 78  1  0  0  0  0
 78 79  1  0  0  0  0
 79 80  1  0  0  0  0
 80 81  1  0  0  0  0
 81 82  2  0  0  0  0
 82 83  1  0  0  0  0
 83 84  1  0  0  0  0
 84 85  1  0  0  0  0
 83 86  1  0  0  0  0
 86 87  1  0  0  0  0
 82 88  1  0  0  0  0
 88 89  2  0  0  0  0
 89 90  1  0  0  0  0
 89 91  1  0  0  0  0
 91 92  2  0  0  0  0
 92 93  1  0  0  0  0
 93 94  2  0  0  0  0
 93 95  1  0  0  0  0
 95 96  2  0  0  0  0
 96 97  1  0  0  0  0
 97 98  2  0  0  0  0
 98 99  1  0  0  0  0
 99100  2  0  0  0  0
100101  1  0  0  0  0
100102  1  0  0  0  0
102103  2  0  0  0  0
103104  1  0  0  0  0
104105  2  0  0  0  0
105106  1  0  0  0  0
106107  2  0  0  0  0
107108  1  0  0  0  0
108109  3  0  0  0  0
107110  1  0  0  0  0
110111  3  0  0  0  0
 12  2  1  0  0  0  0
 27 18  2  0  0  0  0
 73 31  1  0  0  0  0
 87 78  2  0  0  0  0
106 92  1  0  0  0  0
 11  5  1  0  0  0  0
 26 20  2  0  0  0  0
 40 33  1  0  0  0  0
 72 41  2  0  0  0  0
 86 80  2  0  0  0  0
105 95  1  0  0  0  0
 30 21  1  0  0  0  0
 71 43  2  0  0  0  0
 90 81  1  0  0  0  0
103 97  1  0  0  0  0
 69 44  2  0  0  0  0
 49 45  2  0  0  0  0
 68 50  2  0  0  0  0
 66 51  2  0  0  0  0
 65 53  2  0  0  0  0
 62 55  1  0  0  0  0
  1112  1  0  0  0  0
  6113  1  0  0  0  0
  8114  1  0  0  0  0
  8115  1  0  0  0  0
  8116  1  0  0  0  0
  9117  1  0  0  0  0
 10118  1  0  0  0  0
 24119  1  0  0  0  0
 24120  1  0  0  0  0
 25121  1  0  0  0  0
 25122  1  0  0  0  0
 25123  1  0  0  0  0
 27124  1  0  0  0  0
 28125  1  0  0  0  0
 34126  1  0  0  0  0
 35127  1  0  0  0  0
 36128  1  0  0  0  0
 38129  1  0  0  0  0
 38130  1  0  0  0  0
 39131  1  0  0  0  0
 39132  1  0  0  0  0
 39133  1  0  0  0  0
 40134  1  0  0  0  0
 56135  1  0  0  0  0
 57136  1  0  0  0  0
 58137  1  0  0  0  0
 60138  1  0  0  0  0
 60139  1  0  0  0  0
 61140  1  0  0  0  0
 61141  1  0  0  0  0
 61142  1  0  0  0  0
 62143  1  0  0  0  0
 74144  1  0  0  0  0
 74145  1  0  0  0  0
 75146  1  0  0  0  0
 75147  1  0  0  0  0
 75148  1  0  0  0  0
 76149  1  0  0  0  0
 76150  1  0  0  0  0
 77151  1  0  0  0  0
 77152  1  0  0  0  0
 77153  1  0  0  0  0
 84154  1  0  0  0  0
 84155  1  0  0  0  0
 85156  1  0  0  0  0
 85157  1  0  0  0  0
 85158  1  0  0  0  0
 87159  1  0  0  0  0
 88160  1  0  0  0  0
 91161  1  0  0  0  0
 96162  1  0  0  0  0
 98163  1  0  0  0  0
 99164  1  0  0  0  0
102165  1  0  0  0  0
104166  1  0  0  0  0
M  END
