164

C         -7.34900       -3.56660       12.51330
C         -8.45930       -2.75910       12.48250
C         -8.80890       -1.81900       11.41220
O         -8.19910       -1.60560       10.37910
C        -10.06380       -1.16910       11.83440
C        -10.79740       -0.20420       11.18000
C        -11.96530        0.27490       11.77420
C        -12.78330        1.31560       11.07790
C        -12.35160       -0.23720       13.00870
C        -11.61630       -1.21020       13.67250
C        -10.45690       -1.68580       13.08200
C         -9.47880       -2.68420       13.50910
C         -9.54710       -3.40570       14.67510
C         -8.62090       -4.37730       15.10410
N         -7.92090       -5.18460       15.52870
C        -10.57890       -3.27350       15.62710
N        -11.38380       -3.22250       16.44490
C         -6.30260       -3.72050       11.59610
S         -6.12950       -2.87750       10.05450
C         -4.65740       -3.71790        9.76410
C         -3.64080       -3.83640        8.82000
C         -2.71440       -4.77890        9.31950
N         -3.12470       -5.23020       10.54460
C         -2.49990       -6.28410       11.30140
C         -2.83170       -7.65960       10.72590
C         -4.31730       -4.60770       10.82170
C         -5.24560       -4.60560       11.84320
C         -1.62970       -5.00870        8.47150
C         -1.72630       -4.26160        7.31530
S         -3.15660       -3.23710        7.27710
C         -0.82140       -4.22770        6.21740
C          0.16950       -5.13030        5.87020
C          0.40880       -6.44340        6.47420
C         -0.63790       -7.34110        6.67470
C         -0.37830       -8.59480        7.19300
C          0.91860       -8.96950        7.50410
C          1.97450       -8.09180        7.29940
C          3.39330       -8.50410        7.56430
C          4.07170       -8.92410        6.25870
C          1.70650       -6.83130        6.78440
C          0.91010       -4.67000        4.76330
S          2.25640       -5.35460        3.88390
C          2.21650       -3.99470        2.81420
C          2.93440       -3.48000        1.72310
C          4.12870       -3.91210        1.10730
C          4.72170       -3.08800        0.09250
N          5.86800       -3.57880       -0.35210
S          6.17320       -4.96090        0.43480
N          4.85440       -4.98650        1.37470
C          4.02510       -1.94210       -0.34840
C          4.28050       -1.05830       -1.40990
S          5.48470       -0.77700       -2.62030
C          4.47960        0.48600       -3.29130
C          4.65030        1.35470       -4.38800
C          5.88390        1.38390       -5.17710
C          6.53830        2.58550       -5.44100
C          7.72780        2.58080       -6.14300
C          8.28130        1.38680       -6.57590
C          7.64890        0.17970       -6.31080
C          8.26890       -1.12840       -6.70770
C          9.01230       -1.73880       -5.51760
C          6.45010        0.19160       -5.61200
C          3.55190        2.18310       -4.54360
S          2.33170        1.92110       -3.30600
C          3.28560        0.67010       -2.59250
C          3.17720       -0.20940       -1.50740
N          2.26840       -0.49650       -0.52100
C          2.77350       -1.56260        0.21060
C          2.29490       -2.26510        1.34730
N          1.25770       -2.02760        2.23040
C          1.20890       -3.07430        3.11220
C          0.46850       -3.45370        4.23960
S         -0.86100       -2.83220        5.15120
C          0.55490       -0.80160        2.53210
C         -0.92890       -0.88120        2.17620
C          0.89050       -0.10460       -0.72660
C          0.11250       -1.20240       -1.44920
C          3.26720        3.10860       -5.58720
S          2.03320        4.33880       -5.33510
C          2.28080        4.92980       -6.93710
C          1.83190        5.90150       -7.82560
C          2.57380        5.72390       -9.02660
N          3.43820        4.66840       -8.88110
C          4.43040        4.23260       -9.83000
C          5.81120        4.78810       -9.48740
C          3.27690        4.18720       -7.61250
C          3.82490        3.15530       -6.84740
C          2.23950        6.61690      -10.03180
C          1.23730        7.49210       -9.63380
S          0.71780        7.19870       -7.95930
C          0.58430        8.54170      -10.29800
C          0.64480        8.97870      -11.59830
C          1.36070        8.38190      -12.74920
O          2.18040        7.48130      -12.75910
C          0.87480        9.10070      -13.93540
C          1.18200        8.88770      -15.26400
C          0.58350        9.68080      -16.22990
C         -0.31840       10.68020      -15.86050
O         -0.95860       11.49470      -16.72720
C         -0.72190       11.35530      -18.10880
C         -0.62360       10.90110      -14.50820
C         -0.02440       10.11190      -13.55080
C         -0.13340       10.10090      -12.09220
C         -0.80380       11.04110      -11.35320
C         -1.53180       12.11360      -11.91060
N         -2.14400       13.01040      -12.28400
C         -0.84380       11.12470       -9.94500
N         -0.91850       11.29130       -8.81040
H         -7.23720       -4.19810       13.38650
H        -10.46510        0.16970       10.22300
H        -13.22640        0.89810       10.17390
H        -12.15680        2.15470       10.78040
H        -13.58230        1.68090       11.71740
H        -13.25540        0.13380       13.47020
H        -11.95580       -1.57480       14.62800
H         -1.41710       -6.12570       11.28620
H         -2.84850       -6.21090       12.33390
H         -2.47570       -7.73400        9.70080
H         -3.90690       -7.82270       10.73460
H         -2.35510       -8.43560       11.31800
H         -5.19930       -5.19920       12.73890
H         -0.80700       -5.66690        8.67820
H         -1.64560       -7.05390        6.41330
H         -1.19070       -9.29050        7.34630
H          1.11180       -9.95490        7.90310
H          3.41470       -9.33700        8.26960
H          3.94510       -7.66960        8.00230
H          5.10290       -9.21560        6.44310
H          3.54620       -9.76670        5.81470
H          4.06320       -8.10310        5.54550
H          2.51900       -6.13640        6.62920
H          6.11580        3.51350       -5.08540
H          8.23430        3.51330       -6.34580
H          9.21550        1.39330       -7.11860
H          8.96690       -0.97610       -7.53320
H          7.49210       -1.82120       -7.03830
H          9.45670       -2.69160       -5.79510
H          9.80280       -1.07050       -5.18350
H          8.32910       -1.90110       -4.68710
H          5.94390       -0.74110       -5.40990
H          1.05810        0.02440        2.02760
H          0.64310       -0.62770        3.61090
H         -1.07670       -1.18050        1.14250
H         -1.39790        0.08580        2.33640
H         -1.42410       -1.60900        2.81310
H          0.40660        0.14580        0.21260
H          0.91030        0.79850       -1.34200
H          0.11030       -2.11900       -0.86260
H          0.56920       -1.41400       -2.41320
H         -0.91320       -0.88420       -1.61420
H          4.12000        4.57300      -10.82000
H          4.45690        3.13850       -9.82590
H          5.79140        5.87530       -9.49370
H          6.53980        4.44760      -10.21750
H          6.12040        4.44950       -8.50090
H          4.57240        2.46230       -7.18470
H          2.67190        6.65620      -11.01420
H         -0.11210        9.07130       -9.65820
H          1.87820        8.11030      -15.53940
H          0.82240        9.51340      -17.26800
H         -1.34280       12.10970      -18.58880
H          0.32790       11.53980      -18.35700
H         -1.01470       10.36380      -18.46820
H         -1.32610       11.68230      -14.27190
