150

C         -4.15900       -2.79160      -13.36820
C         -3.66960       -3.42400      -14.48380
C         -3.29020       -4.84210      -14.65190
O         -3.53060       -5.79210      -13.93060
C         -2.52320       -4.90100      -15.91280
C         -1.87750       -5.98460      -16.47260
C         -1.18600       -5.81270      -17.66820
C         -0.46330       -6.95280      -18.31330
C         -1.17060       -4.55260      -18.26460
C         -1.82300       -3.46220      -17.71120
C         -2.50960       -3.63500      -16.51870
C         -3.27640       -2.71240      -15.68810
C         -3.60140       -1.42620      -16.03600
C         -3.17920       -0.80260      -17.22850
N         -2.86790       -0.23020      -18.17420
C         -4.42700       -0.54940      -15.30120
N         -5.10510        0.22430      -14.78920
C         -4.53550       -3.28260      -12.10900
S         -4.83120       -2.04550      -10.86740
C         -5.12300       -3.26800       -9.70160
C         -5.38890       -3.44660       -8.34990
C         -5.45890       -4.84090       -8.12250
N         -5.23750       -5.51100       -9.29300
C         -5.30250       -6.93580       -9.49390
C         -6.72230       -7.38780       -9.82870
C         -5.03170       -4.56860      -10.26970
C         -4.70460       -4.57080      -11.61690
C         -5.65550       -5.17600       -6.77890
C         -5.72050       -4.05470       -5.97950
S         -5.58170       -2.55170       -6.88810
C         -5.77450       -3.99100       -4.56380
S         -5.84050       -5.46320       -3.59470
C         -5.66170       -4.53290       -2.15220
C         -5.46140       -4.67090       -0.77770
S         -5.23540       -5.94250        0.39160
C         -4.82620       -4.73380        1.56320
C         -4.31790       -4.68440        2.87530
C         -4.04570       -5.68590        3.83350
C         -3.43740       -5.31400        5.08330
N         -3.26760       -6.35000        5.88920
S         -3.82180       -7.67740        5.14490
N         -4.29540       -6.98350        3.76210
C         -3.02240       -3.97660        5.27250
C         -2.17370       -3.38250        6.22240
S         -1.26740       -3.81440        7.63530
C         -0.50670       -2.23610        7.60850
C          0.52720       -1.67070        8.37560
C          1.17760       -2.42730        9.49010
C          2.48690       -3.06950        9.02780
C          0.87450       -0.41760        7.89960
S         -0.13200        0.07770        6.53980
C         -0.97240       -1.42650        6.57190
C         -1.93180       -2.07570        5.78890
N         -2.63920       -1.81840        4.64740
C         -3.30530       -2.97850        4.29870
C         -4.06730       -3.31960        3.15730
N         -4.50760       -2.54280        2.08740
C         -4.91720       -3.41840        1.09850
C         -5.27290       -3.36690       -0.26020
N         -5.35690       -2.45170       -1.28290
C         -5.59050       -3.15490       -2.43490
C         -5.66340       -2.85230       -3.79580
C         -5.16180       -1.02490       -1.25330
C         -6.49120       -0.27090       -1.24190
C         -5.14590       -1.24300        2.21020
C         -5.90350       -1.08720        3.52570
C         -2.35680       -0.64000        3.86180
C         -1.58930       -0.97330        2.58550
C          1.93110        0.47320        8.24440
S          2.21080        1.82760        7.15070
C          3.57550        2.31900        8.07740
C          4.59170        3.26760        8.08800
C          5.39640        2.96860        9.22380
N          4.89430        1.86680        9.87440
C          5.38970        1.30530       11.10430
C          4.75180        1.96750       12.32380
C          3.77770        1.46930        9.18760
C          2.84630        0.43080        9.27910
C          6.47410        3.81970        9.35300
C          6.52640        4.76930        8.32160
S          5.18550        4.60220        7.18340
C          7.56800        5.69750        8.23950
C          7.84330        6.65770        7.29210
C          7.03600        6.94120        6.10320
O          5.97980        6.42650        5.77710
C          7.75390        7.98970        5.35810
C          7.41970        8.57530        4.17250
C          8.27430        9.55980        3.62740
C          7.98220       10.19540        2.40390
C          8.82020       11.14310        1.88470
C          9.98320       11.47780        2.59040
F         10.79710       12.41230        2.06320
C         10.31290       10.89270        3.78130
C          9.46130        9.91490        4.33080
C          9.77740        9.29110        5.56150
C          8.93470        8.33990        6.07050
C          8.99640        7.53150        7.28820
C          9.98660        7.61700        8.23680
C         10.06570        6.85830        9.42120
N         10.20760        6.28590       10.40820
C         11.08240        8.50020        8.15670
N         11.99960        9.19160        8.15680
H         -4.21850       -1.71080      -13.43050
H         -1.91280       -6.94420      -15.97860
H          0.59010       -6.70780      -18.44300
H         -0.87920       -7.15340      -19.30000
H         -0.54130       -7.85480      -17.71240
H         -0.62880       -4.42220      -19.19030
H         -1.77980       -2.50540      -18.20510
H         -4.62410       -7.19370      -10.31100
H         -4.95560       -7.42650       -8.58060
H         -7.06580       -6.90350      -10.73960
H         -7.40230       -7.13010       -9.01990
H         -6.74500       -8.46380       -9.97560
H         -4.57210       -5.43950      -12.23400
H         -5.72320       -6.17240       -6.38160
H          1.35600       -1.76770       10.34060
H          0.49020       -3.21200        9.81240
H          2.28960       -3.77910        8.22830
H          3.17640       -2.31560        8.65470
H          2.95760       -3.59990        9.85190
H         -5.60870       -1.86880       -4.22620
H         -4.59580       -0.74590       -2.14760
H         -4.55920       -0.77000       -0.37980
H         -7.05700       -0.50050       -2.14120
H         -6.31250        0.80010       -1.20550
H         -7.09410       -0.55460       -0.38180
H         -4.41790       -0.43590        2.08170
H         -5.86760       -1.17230        1.39500
H         -6.41680       -0.12880        3.53680
H         -6.64270       -1.87910        3.62460
H         -5.23910       -1.13510        4.38370
H         -1.74520        0.01300        4.48930
H         -3.27960       -0.10250        3.63920
H         -2.15700       -1.64840        1.95030
H         -0.64530       -1.45160        2.83530
H         -1.37880       -0.06090        2.03400
H          5.17450        0.23320       11.10180
H          6.47410        1.44130       11.12800
H          4.96930        3.03280       12.33060
H          3.67250        1.83480       12.30480
H          5.14320        1.52500       13.23540
H          2.83970       -0.30820       10.05600
H          7.21540        3.78610       10.13150
H          8.27550        5.61080        9.05530
H          6.51620        8.28910        3.65510
H          7.08000        9.91950        1.87880
H          8.61190       11.63850        0.94960
H         11.21720       11.17590        4.29710
H         10.68400        9.58390        6.06580
