
  xtb     02112208453D
 energy: -282.672363844352 gnorm: 0.000955909022 xtb: 6.4.1 (unknown)
161178  0     0  0            999 V2000
    6.2852  -10.1428   -7.0493 C   0  0  0  0  0  0  0  0  0  0  0  0
    7.4455  -10.5855   -6.4638 C   0  0  0  0  0  0  0  0  0  0  0  0
    7.9388  -10.2011   -5.1371 C   0  0  0  0  0  0  0  0  0  0  0  0
    7.4367   -9.4116   -4.3568 O   0  0  0  0  0  0  0  0  0  0  0  0
    9.1814  -10.9688   -4.9277 C   0  0  0  0  0  0  0  0  0  0  0  0
   10.0176  -10.9765   -3.8327 C   0  0  0  0  0  0  0  0  0  0  0  0
   11.1473  -11.7941   -3.8514 C   0  0  0  0  0  0  0  0  0  0  0  0
   12.0617  -11.8392   -2.6684 C   0  0  0  0  0  0  0  0  0  0  0  0
   11.3945  -12.5767   -4.9753 C   0  0  0  0  0  0  0  0  0  0  0  0
   10.5566  -12.5722   -6.0818 C   0  0  0  0  0  0  0  0  0  0  0  0
    9.4348  -11.7593   -6.0629 C   0  0  0  0  0  0  0  0  0  0  0  0
    8.3749  -11.5331   -7.0431 C   0  0  0  0  0  0  0  0  0  0  0  0
    8.3041  -12.1264   -8.2793 C   0  0  0  0  0  0  0  0  0  0  0  0
    9.2564  -13.0416   -8.7731 C   0  0  0  0  0  0  0  0  0  0  0  0
    9.9859  -13.7966   -9.2388 N   0  0  0  0  0  0  0  0  0  0  0  0
    7.2944  -11.9208   -9.2407 C   0  0  0  0  0  0  0  0  0  0  0  0
    6.5190  -11.8107  -10.0825 N   0  0  0  0  0  0  0  0  0  0  0  0
    5.2983   -9.2664   -6.5836 C   0  0  0  0  0  0  0  0  0  0  0  0
    5.2946   -8.4071   -5.0406 S   0  0  0  0  0  0  0  0  0  0  0  0
    3.7673   -7.7148   -5.4305 C   0  0  0  0  0  0  0  0  0  0  0  0
    2.7827   -6.8752   -4.9119 C   0  0  0  0  0  0  0  0  0  0  0  0
    1.7418   -6.8153   -5.8658 C   0  0  0  0  0  0  0  0  0  0  0  0
    2.0525   -7.5951   -6.9449 N   0  0  0  0  0  0  0  0  0  0  0  0
    1.2751   -7.7343   -8.1486 C   0  0  0  0  0  0  0  0  0  0  0  0
    1.6355   -6.6646   -9.1776 C   0  0  0  0  0  0  0  0  0  0  0  0
    3.2887   -8.1402   -6.7016 C   0  0  0  0  0  0  0  0  0  0  0  0
    4.1537   -9.0012   -7.3449 C   0  0  0  0  0  0  0  0  0  0  0  0
    0.6614   -6.0233   -5.4735 C   0  0  0  0  0  0  0  0  0  0  0  0
    0.8584   -5.4858   -4.2193 C   0  0  0  0  0  0  0  0  0  0  0  0
    2.4106   -5.9239   -3.5189 S   0  0  0  0  0  0  0  0  0  0  0  0
   -0.0640   -4.6753   -3.4930 C   0  0  0  0  0  0  0  0  0  0  0  0
   -1.4441   -4.6844   -3.5858 C   0  0  0  0  0  0  0  0  0  0  0  0
   -2.2364   -5.6430   -4.3604 C   0  0  0  0  0  0  0  0  0  0  0  0
   -3.2835   -5.1980   -5.1609 C   0  0  0  0  0  0  0  0  0  0  0  0
   -4.0274   -6.1073   -5.8905 C   0  0  0  0  0  0  0  0  0  0  0  0
   -3.7370   -7.4583   -5.8269 C   0  0  0  0  0  0  0  0  0  0  0  0
   -2.7033   -7.9215   -5.0203 C   0  0  0  0  0  0  0  0  0  0  0  0
   -2.4153   -9.3913   -4.9077 C   0  0  0  0  0  0  0  0  0  0  0  0
   -3.2380  -10.0111   -3.7768 C   0  0  0  0  0  0  0  0  0  0  0  0
   -1.9673   -7.0066   -4.2852 C   0  0  0  0  0  0  0  0  0  0  0  0
   -2.0158   -3.6813   -2.7798 C   0  0  0  0  0  0  0  0  0  0  0  0
   -3.6749   -3.2318   -2.4712 S   0  0  0  0  0  0  0  0  0  0  0  0
   -3.1088   -2.0023   -1.3947 C   0  0  0  0  0  0  0  0  0  0  0  0
   -3.6330   -1.0134   -0.5507 C   0  0  0  0  0  0  0  0  0  0  0  0
   -4.9722   -0.7222   -0.2171 C   0  0  0  0  0  0  0  0  0  0  0  0
   -5.2324    0.2961    0.7555 C   0  0  0  0  0  0  0  0  0  0  0  0
   -6.5242    0.4405    1.0066 N   0  0  0  0  0  0  0  0  0  0  0  0
   -7.3428   -0.6169    0.0923 S   0  0  0  0  0  0  0  0  0  0  0  0
   -6.0793   -1.2983   -0.6590 N   0  0  0  0  0  0  0  0  0  0  0  0
   -4.1455    1.0337    1.2697 C   0  0  0  0  0  0  0  0  0  0  0  0
   -4.1370    2.1617    2.1032 C   0  0  0  0  0  0  0  0  0  0  0  0
   -5.2578    3.1756    2.9457 S   0  0  0  0  0  0  0  0  0  0  0  0
   -3.9325    4.2212    3.3967 C   0  0  0  0  0  0  0  0  0  0  0  0
   -3.8674    5.4183    4.1403 C   0  0  0  0  0  0  0  0  0  0  0  0
   -5.0068    6.0627    4.7912 C   0  0  0  0  0  0  0  0  0  0  0  0
   -6.2354    6.1484    4.1423 C   0  0  0  0  0  0  0  0  0  0  0  0
   -7.2903    6.8027    4.7489 C   0  0  0  0  0  0  0  0  0  0  0  0
   -7.1338    7.3773    5.9988 C   0  0  0  0  0  0  0  0  0  0  0  0
   -5.9221    7.2812    6.6709 C   0  0  0  0  0  0  0  0  0  0  0  0
   -5.7198    7.9292    8.0113 C   0  0  0  0  0  0  0  0  0  0  0  0
   -4.9381    9.2362    7.8632 C   0  0  0  0  0  0  0  0  0  0  0  0
   -4.8712    6.6129    6.0618 C   0  0  0  0  0  0  0  0  0  0  0  0
   -2.5737    5.8904    4.2099 C   0  0  0  0  0  0  0  0  0  0  0  0
   -1.4259    4.8527    3.3978 S   0  0  0  0  0  0  0  0  0  0  0  0
   -2.6948    3.7801    2.9270 C   0  0  0  0  0  0  0  0  0  0  0  0
   -2.8136    2.5914    2.1905 C   0  0  0  0  0  0  0  0  0  0  0  0
   -2.0055    1.7606    1.4642 N   0  0  0  0  0  0  0  0  0  0  0  0
   -2.7944    0.7770    0.8924 C   0  0  0  0  0  0  0  0  0  0  0  0
   -2.5277   -0.3307    0.0357 C   0  0  0  0  0  0  0  0  0  0  0  0
   -1.3688   -0.9417   -0.4148 N   0  0  0  0  0  0  0  0  0  0  0  0
   -1.7196   -1.9408   -1.2828 C   0  0  0  0  0  0  0  0  0  0  0  0
   -1.0886   -2.9183   -2.0666 C   0  0  0  0  0  0  0  0  0  0  0  0
    0.5273   -3.4475   -2.3866 S   0  0  0  0  0  0  0  0  0  0  0  0
    0.0123   -0.8226   -0.0108 C   0  0  0  0  0  0  0  0  0  0  0  0
    0.8603   -0.1214   -1.0729 C   0  0  0  0  0  0  0  0  0  0  0  0
   -0.6115    2.1050    1.3198 C   0  0  0  0  0  0  0  0  0  0  0  0
    0.1999    1.7149    2.5557 C   0  0  0  0  0  0  0  0  0  0  0  0
   -2.1254    7.1451    4.7907 C   0  0  0  0  0  0  0  0  0  0  0  0
   -2.8171    8.3388    4.4830 C   0  0  0  0  0  0  0  0  0  0  0  0
   -3.8275    8.2135    3.5954 O   0  0  0  0  0  0  0  0  0  0  0  0
   -4.6824    9.2983    3.3069 C   0  0  0  0  0  0  0  0  0  0  0  0
   -2.3671    9.5029    5.0870 C   0  0  0  0  0  0  0  0  0  0  0  0
   -3.0287   10.6728    4.8898 F   0  0  0  0  0  0  0  0  0  0  0  0
   -1.2582    9.5462    5.9392 C   0  0  0  0  0  0  0  0  0  0  0  0
   -0.5644    8.3544    6.2372 C   0  0  0  0  0  0  0  0  0  0  0  0
    0.4944    8.4969    7.0605 O   0  0  0  0  0  0  0  0  0  0  0  0
    1.3783    7.4178    7.2930 C   0  0  0  0  0  0  0  0  0  0  0  0
   -1.0220    7.1843    5.6394 C   0  0  0  0  0  0  0  0  0  0  0  0
   -0.4274    5.9977    5.9162 F   0  0  0  0  0  0  0  0  0  0  0  0
   -0.8196   10.7697    6.5697 C   0  0  0  0  0  0  0  0  0  0  0  0
   -0.7893   12.0239    6.0713 C   0  0  0  0  0  0  0  0  0  0  0  0
   -0.6362   13.1858    6.9994 C   0  0  0  0  0  0  0  0  0  0  0  0
   -0.2948   13.1439    8.1575 O   0  0  0  0  0  0  0  0  0  0  0  0
   -1.0414   14.3629    6.2078 C   0  0  0  0  0  0  0  0  0  0  0  0
   -1.1962   15.6709    6.6204 C   0  0  0  0  0  0  0  0  0  0  0  0
   -1.6177   16.6256    5.6980 C   0  0  0  0  0  0  0  0  0  0  0  0
   -1.7710   18.0575    6.0999 C   0  0  0  0  0  0  0  0  0  0  0  0
   -1.8773   16.2313    4.3857 C   0  0  0  0  0  0  0  0  0  0  0  0
   -1.7168   14.9224    3.9601 C   0  0  0  0  0  0  0  0  0  0  0  0
   -1.2891   13.9744    4.8774 C   0  0  0  0  0  0  0  0  0  0  0  0
   -0.9940   12.5549    4.7336 C   0  0  0  0  0  0  0  0  0  0  0  0
   -0.7462   11.9059    3.5554 C   0  0  0  0  0  0  0  0  0  0  0  0
   -0.2186   10.6017    3.4647 C   0  0  0  0  0  0  0  0  0  0  0  0
    0.2560    9.5654    3.3270 N   0  0  0  0  0  0  0  0  0  0  0  0
   -0.9195   12.4914    2.2838 C   0  0  0  0  0  0  0  0  0  0  0  0
   -1.0697   12.9088    1.2252 N   0  0  0  0  0  0  0  0  0  0  0  0
    6.0627  -10.5376   -8.0333 H   0  0  0  0  0  0  0  0  0  0  0  0
    9.7923  -10.3558   -2.9783 H   0  0  0  0  0  0  0  0  0  0  0  0
   13.0324  -12.2471   -2.9384 H   0  0  0  0  0  0  0  0  0  0  0  0
   12.1971  -10.8446   -2.2490 H   0  0  0  0  0  0  0  0  0  0  0  0
   11.6299  -12.4716   -1.8919 H   0  0  0  0  0  0  0  0  0  0  0  0
   12.2692  -13.2108   -4.9895 H   0  0  0  0  0  0  0  0  0  0  0  0
   10.7896  -13.1956   -6.9294 H   0  0  0  0  0  0  0  0  0  0  0  0
    1.4604   -8.7296   -8.5611 H   0  0  0  0  0  0  0  0  0  0  0  0
    0.2174   -7.6588   -7.8806 H   0  0  0  0  0  0  0  0  0  0  0  0
    2.6872   -6.7373   -9.4444 H   0  0  0  0  0  0  0  0  0  0  0  0
    1.4484   -5.6731   -8.7718 H   0  0  0  0  0  0  0  0  0  0  0  0
    1.0372   -6.7941  -10.0751 H   0  0  0  0  0  0  0  0  0  0  0  0
    3.9988   -9.4420   -8.3135 H   0  0  0  0  0  0  0  0  0  0  0  0
   -0.2181   -5.8341   -6.0597 H   0  0  0  0  0  0  0  0  0  0  0  0
   -3.5016   -4.1425   -5.2208 H   0  0  0  0  0  0  0  0  0  0  0  0
   -4.8364   -5.7582   -6.5149 H   0  0  0  0  0  0  0  0  0  0  0  0
   -4.3176   -8.1625   -6.4054 H   0  0  0  0  0  0  0  0  0  0  0  0
   -2.6617   -9.8903   -5.8474 H   0  0  0  0  0  0  0  0  0  0  0  0
   -1.3527   -9.5451   -4.7065 H   0  0  0  0  0  0  0  0  0  0  0  0
   -3.0256  -11.0741   -3.6900 H   0  0  0  0  0  0  0  0  0  0  0  0
   -3.0008   -9.5302   -2.8306 H   0  0  0  0  0  0  0  0  0  0  0  0
   -4.3010   -9.8826   -3.9680 H   0  0  0  0  0  0  0  0  0  0  0  0
   -1.1708   -7.3545   -3.6430 H   0  0  0  0  0  0  0  0  0  0  0  0
   -6.3528    5.7216    3.1583 H   0  0  0  0  0  0  0  0  0  0  0  0
   -8.2409    6.8725    4.2407 H   0  0  0  0  0  0  0  0  0  0  0  0
   -7.9608    7.8978    6.4603 H   0  0  0  0  0  0  0  0  0  0  0  0
   -6.6863    8.1365    8.4739 H   0  0  0  0  0  0  0  0  0  0  0  0
   -5.1651    7.2542    8.6670 H   0  0  0  0  0  0  0  0  0  0  0  0
   -5.4708    9.9263    7.2117 H   0  0  0  0  0  0  0  0  0  0  0  0
   -3.9569    9.0464    7.4316 H   0  0  0  0  0  0  0  0  0  0  0  0
   -4.8026    9.7122    8.8315 H   0  0  0  0  0  0  0  0  0  0  0  0
   -3.9322    6.5120    6.5877 H   0  0  0  0  0  0  0  0  0  0  0  0
    0.4009   -1.8380    0.1264 H   0  0  0  0  0  0  0  0  0  0  0  0
    0.0673   -0.3175    0.9495 H   0  0  0  0  0  0  0  0  0  0  0  0
    1.8624    0.0502   -0.6900 H   0  0  0  0  0  0  0  0  0  0  0  0
    0.9343   -0.7425   -1.9614 H   0  0  0  0  0  0  0  0  0  0  0  0
    0.4255    0.8317   -1.3670 H   0  0  0  0  0  0  0  0  0  0  0  0
   -0.2148    1.6528    0.4160 H   0  0  0  0  0  0  0  0  0  0  0  0
   -0.5565    3.1925    1.1990 H   0  0  0  0  0  0  0  0  0  0  0  0
    0.0651    0.6644    2.8061 H   0  0  0  0  0  0  0  0  0  0  0  0
    1.2551    1.9032    2.3788 H   0  0  0  0  0  0  0  0  0  0  0  0
   -0.1162    2.3069    3.4104 H   0  0  0  0  0  0  0  0  0  0  0  0
   -5.4317    8.8908    2.6304 H   0  0  0  0  0  0  0  0  0  0  0  0
   -5.1765    9.6703    4.2074 H   0  0  0  0  0  0  0  0  0  0  0  0
   -4.1519   10.1152    2.8111 H   0  0  0  0  0  0  0  0  0  0  0  0
    0.8969    6.6106    7.8498 H   0  0  0  0  0  0  0  0  0  0  0  0
    1.7843    7.0266    6.3578 H   0  0  0  0  0  0  0  0  0  0  0  0
    2.1846    7.8390    7.8913 H   0  0  0  0  0  0  0  0  0  0  0  0
   -0.4972   10.6660    7.6007 H   0  0  0  0  0  0  0  0  0  0  0  0
   -0.9903   15.9386    7.6460 H   0  0  0  0  0  0  0  0  0  0  0  0
   -2.6023   18.5219    5.5743 H   0  0  0  0  0  0  0  0  0  0  0  0
   -0.8655   18.6098    5.8461 H   0  0  0  0  0  0  0  0  0  0  0  0
   -1.9311   18.1464    7.1712 H   0  0  0  0  0  0  0  0  0  0  0  0
   -2.2150   16.9729    3.6764 H   0  0  0  0  0  0  0  0  0  0  0  0
   -1.9364   14.6566    2.9386 H   0  0  0  0  0  0  0  0  0  0  0  0
  1  2  2  0  0  0  0
  2  3  1  0  0  0  0
  3  4  2  0  0  0  0
  3  5  1  0  0  0  0
  5  6  2  0  0  0  0
  6  7  1  0  0  0  0
  7  8  1  0  0  0  0
  7  9  2  0  0  0  0
  9 10  1  0  0  0  0
 10 11  2  0  0  0  0
 11 12  1  0  0  0  0
 12 13  2  0  0  0  0
 13 14  1  0  0  0  0
 14 15  3  0  0  0  0
 13 16  1  0  0  0  0
 16 17  3  0  0  0  0
  1 18  1  0  0  0  0
 18 19  1  0  0  0  0
 19 20  1  0  0  0  0
 20 21  1  0  0  0  0
 21 22  2  0  0  0  0
 22 23  1  0  0  0  0
 23 24  1  0  0  0  0
 24 25  1  0  0  0  0
 23 26  1  0  0  0  0
 26 27  1  0  0  0  0
 22 28  1  0  0  0  0
 28 29  2  0  0  0  0
 29 30  1  0  0  0  0
 29 31  1  0  0  0  0
 31 32  2  0  0  0  0
 32 33  1  0  0  0  0
 33 34  2  0  0  0  0
 34 35  1  0  0  0  0
 35 36  2  0  0  0  0
 36 37  1  0  0  0  0
 37 38  1  0  0  0  0
 38 39  1  0  0  0  0
 37 40  2  0  0  0  0
 32 41  1  0  0  0  0
 41 42  1  0  0  0  0
 42 43  1  0  0  0  0
 43 44  1  0  0  0  0
 44 45  1  0  0  0  0
 45 46  1  0  0  0  0
 46 47  2  0  0  0  0
 47 48  1  0  0  0  0
 48 49  1  0  0  0  0
 46 50  1  0  0  0  0
 50 51  1  0  0  0  0
 51 52  1  0  0  0  0
 52 53  1  0  0  0  0
 53 54  1  0  0  0  0
 54 55  1  0  0  0  0
 55 56  2  0  0  0  0
 56 57  1  0  0  0  0
 57 58  2  0  0  0  0
 58 59  1  0  0  0  0
 59 60  1  0  0  0  0
 60 61  1  0  0  0  0
 59 62  2  0  0  0  0
 54 63  2  0  0  0  0
 63 64  1  0  0  0  0
 64 65  1  0  0  0  0
 65 66  1  0  0  0  0
 66 67  1  0  0  0  0
 67 68  1  0  0  0  0
 68 69  1  0  0  0  0
 69 70  1  0  0  0  0
 70 71  1  0  0  0  0
 71 72  1  0  0  0  0
 72 73  1  0  0  0  0
 70 74  1  0  0  0  0
 74 75  1  0  0  0  0
 67 76  1  0  0  0  0
 76 77  1  0  0  0  0
 63 78  1  0  0  0  0
 78 79  2  0  0  0  0
 79 80  1  0  0  0  0
 80 81  1  0  0  0  0
 79 82  1  0  0  0  0
 82 83  1  0  0  0  0
 82 84  2  0  0  0  0
 84 85  1  0  0  0  0
 85 86  1  0  0  0  0
 86 87  1  0  0  0  0
 85 88  2  0  0  0  0
 88 89  1  0  0  0  0
 84 90  1  0  0  0  0
 90 91  2  0  0  0  0
 91 92  1  0  0  0  0
 92 93  2  0  0  0  0
 92 94  1  0  0  0  0
 94 95  2  0  0  0  0
 95 96  1  0  0  0  0
 96 97  1  0  0  0  0
 96 98  2  0  0  0  0
 98 99  1  0  0  0  0
 99100  2  0  0  0  0
100101  1  0  0  0  0
101102  2  0  0  0  0
102103  1  0  0  0  0
103104  3  0  0  0  0
102105  1  0  0  0  0
105106  3  0  0  0  0
 12  2  1  0  0  0  0
 27 18  2  0  0  0  0
 73 31  1  0  0  0  0
 88 78  1  0  0  0  0
101 91  1  0  0  0  0
 11  5  1  0  0  0  0
 26 20  2  0  0  0  0
 40 33  1  0  0  0  0
 72 41  2  0  0  0  0
100 94  1  0  0  0  0
 30 21  1  0  0  0  0
 71 43  2  0  0  0  0
 69 44  2  0  0  0  0
 49 45  2  0  0  0  0
 68 50  2  0  0  0  0
 66 51  2  0  0  0  0
 65 53  2  0  0  0  0
 62 55  1  0  0  0  0
  1107  1  0  0  0  0
  6108  1  0  0  0  0
  8109  1  0  0  0  0
  8110  1  0  0  0  0
  8111  1  0  0  0  0
  9112  1  0  0  0  0
 10113  1  0  0  0  0
 24114  1  0  0  0  0
 24115  1  0  0  0  0
 25116  1  0  0  0  0
 25117  1  0  0  0  0
 25118  1  0  0  0  0
 27119  1  0  0  0  0
 28120  1  0  0  0  0
 34121  1  0  0  0  0
 35122  1  0  0  0  0
 36123  1  0  0  0  0
 38124  1  0  0  0  0
 38125  1  0  0  0  0
 39126  1  0  0  0  0
 39127  1  0  0  0  0
 39128  1  0  0  0  0
 40129  1  0  0  0  0
 56130  1  0  0  0  0
 57131  1  0  0  0  0
 58132  1  0  0  0  0
 60133  1  0  0  0  0
 60134  1  0  0  0  0
 61135  1  0  0  0  0
 61136  1  0  0  0  0
 61137  1  0  0  0  0
 62138  1  0  0  0  0
 74139  1  0  0  0  0
 74140  1  0  0  0  0
 75141  1  0  0  0  0
 75142  1  0  0  0  0
 75143  1  0  0  0  0
 76144  1  0  0  0  0
 76145  1  0  0  0  0
 77146  1  0  0  0  0
 77147  1  0  0  0  0
 77148  1  0  0  0  0
 81149  1  0  0  0  0
 81150  1  0  0  0  0
 81151  1  0  0  0  0
 87152  1  0  0  0  0
 87153  1  0  0  0  0
 87154  1  0  0  0  0
 90155  1  0  0  0  0
 95156  1  0  0  0  0
 97157  1  0  0  0  0
 97158  1  0  0  0  0
 97159  1  0  0  0  0
 98160  1  0  0  0  0
 99161  1  0  0  0  0
M  END
