
  xtb     02112208313D
 energy: -368.249430129321 gnorm: 0.000403180956 xtb: 6.4.1 (unknown)
223246  0     0  0            999 V2000
  -13.9944    0.0742    5.0087 C   0  0  0  0  0  0  0  0  0  0  0  0
  -14.7543   -0.9839    4.5959 C   0  0  0  0  0  0  0  0  0  0  0  0
  -14.2569   -2.2231    3.9744 C   0  0  0  0  0  0  0  0  0  0  0  0
  -13.1009   -2.5647    3.8115 O   0  0  0  0  0  0  0  0  0  0  0  0
  -15.4526   -2.9810    3.5668 C   0  0  0  0  0  0  0  0  0  0  0  0
  -15.5196   -4.1912    2.9079 C   0  0  0  0  0  0  0  0  0  0  0  0
  -16.7698   -4.7284    2.6114 C   0  0  0  0  0  0  0  0  0  0  0  0
  -16.8895   -6.0464    1.9156 C   0  0  0  0  0  0  0  0  0  0  0  0
  -17.9126   -4.0257    2.9903 C   0  0  0  0  0  0  0  0  0  0  0  0
  -17.8518   -2.8097    3.6533 C   0  0  0  0  0  0  0  0  0  0  0  0
  -16.6065   -2.2749    3.9486 C   0  0  0  0  0  0  0  0  0  0  0  0
  -16.2070   -1.0414    4.6191 C   0  0  0  0  0  0  0  0  0  0  0  0
  -17.0643   -0.1370    5.1888 C   0  0  0  0  0  0  0  0  0  0  0  0
  -16.6930    1.0325    5.8851 C   0  0  0  0  0  0  0  0  0  0  0  0
  -16.4836    1.9947    6.4769 N   0  0  0  0  0  0  0  0  0  0  0  0
  -18.4695   -0.2666    5.1775 C   0  0  0  0  0  0  0  0  0  0  0  0
  -19.6164   -0.3071    5.2045 N   0  0  0  0  0  0  0  0  0  0  0  0
  -12.5954    0.2513    5.0262 C   0  0  0  0  0  0  0  0  0  0  0  0
  -12.0241    1.4564    5.3915 C   0  0  0  0  0  0  0  0  0  0  0  0
  -10.6222    1.4684    5.3356 C   0  0  0  0  0  0  0  0  0  0  0  0
   -9.7504    2.5372    5.6348 C   0  0  0  0  0  0  0  0  0  0  0  0
  -10.2471    3.8704    5.9960 C   0  0  0  0  0  0  0  0  0  0  0  0
   -9.7511    4.5330    7.1180 C   0  0  0  0  0  0  0  0  0  0  0  0
  -10.2193    5.7927    7.4356 C   0  0  0  0  0  0  0  0  0  0  0  0
  -11.1758    6.4152    6.6524 C   0  0  0  0  0  0  0  0  0  0  0  0
  -11.6609    5.7700    5.5229 C   0  0  0  0  0  0  0  0  0  0  0  0
  -12.8944    6.4328    4.4437 S   0  0  0  0  0  0  0  0  0  0  0  0
  -12.9019    8.2254    4.7909 C   0  0  0  0  0  0  0  0  0  0  0  0
  -11.6219    8.9023    4.3398 C   0  0  0  0  0  0  0  0  0  0  0  0
  -11.1953    4.5000    5.2015 C   0  0  0  0  0  0  0  0  0  0  0  0
   -8.3996    2.2712    5.5374 C   0  0  0  0  0  0  0  0  0  0  0  0
   -7.8738    1.0034    5.1711 C   0  0  0  0  0  0  0  0  0  0  0  0
   -8.7416   -0.0668    4.8957 C   0  0  0  0  0  0  0  0  0  0  0  0
   -8.2289   -1.4090    4.5905 C   0  0  0  0  0  0  0  0  0  0  0  0
   -7.2413   -1.9835    5.3900 C   0  0  0  0  0  0  0  0  0  0  0  0
   -6.7631   -3.2499    5.1086 C   0  0  0  0  0  0  0  0  0  0  0  0
   -7.2805   -3.9741    4.0494 C   0  0  0  0  0  0  0  0  0  0  0  0
   -8.2828   -3.4178    3.2678 C   0  0  0  0  0  0  0  0  0  0  0  0
   -8.9710   -4.3700    1.9327 S   0  0  0  0  0  0  0  0  0  0  0  0
  -10.7411   -4.3214    2.3936 C   0  0  0  0  0  0  0  0  0  0  0  0
  -10.9965   -5.0468    3.6983 C   0  0  0  0  0  0  0  0  0  0  0  0
   -8.7383   -2.1347    3.5200 C   0  0  0  0  0  0  0  0  0  0  0  0
  -10.1037    0.1995    4.9569 C   0  0  0  0  0  0  0  0  0  0  0  0
  -11.3770   -0.9408    4.6182 S   0  0  0  0  0  0  0  0  0  0  0  0
   -6.4625    1.0356    5.0777 C   0  0  0  0  0  0  0  0  0  0  0  0
   -5.9127    2.2522    5.3757 C   0  0  0  0  0  0  0  0  0  0  0  0
   -7.1306    3.4445    5.7869 S   0  0  0  0  0  0  0  0  0  0  0  0
   -4.5342    2.5995    5.2961 C   0  0  0  0  0  0  0  0  0  0  0  0
   -3.8963    3.7686    5.6653 C   0  0  0  0  0  0  0  0  0  0  0  0
   -4.5167    4.8804    6.3929 C   0  0  0  0  0  0  0  0  0  0  0  0
   -4.4633    6.1676    5.8707 C   0  0  0  0  0  0  0  0  0  0  0  0
   -5.0599    7.2104    6.5543 C   0  0  0  0  0  0  0  0  0  0  0  0
   -5.7034    6.9790    7.7565 C   0  0  0  0  0  0  0  0  0  0  0  0
   -5.7469    5.7022    8.3029 C   0  0  0  0  0  0  0  0  0  0  0  0
   -6.3988    5.4617    9.6341 C   0  0  0  0  0  0  0  0  0  0  0  0
   -5.4021    5.6998   10.7697 C   0  0  0  0  0  0  0  0  0  0  0  0
   -5.1411    4.6616    7.6169 C   0  0  0  0  0  0  0  0  0  0  0  0
   -2.5470    3.7672    5.2627 C   0  0  0  0  0  0  0  0  0  0  0  0
   -1.2743    4.9550    5.4097 S   0  0  0  0  0  0  0  0  0  0  0  0
   -0.2114    3.8784    4.5678 C   0  0  0  0  0  0  0  0  0  0  0  0
    1.1110    3.8388    4.0986 C   0  0  0  0  0  0  0  0  0  0  0  0
    2.1684    4.7616    4.2465 C   0  0  0  0  0  0  0  0  0  0  0  0
    3.4502    4.4404    3.6910 C   0  0  0  0  0  0  0  0  0  0  0  0
    4.3562    5.3749    3.9335 N   0  0  0  0  0  0  0  0  0  0  0  0
    3.6541    6.5591    4.7858 S   0  0  0  0  0  0  0  0  0  0  0  0
    2.1669    5.9256    4.8774 N   0  0  0  0  0  0  0  0  0  0  0  0
    3.5873    3.2550    2.9375 C   0  0  0  0  0  0  0  0  0  0  0  0
    4.6611    2.7831    2.1659 C   0  0  0  0  0  0  0  0  0  0  0  0
    6.2736    3.2457    1.7305 S   0  0  0  0  0  0  0  0  0  0  0  0
    6.3466    1.8746    0.6487 C   0  0  0  0  0  0  0  0  0  0  0  0
    7.3249    1.4357   -0.2660 C   0  0  0  0  0  0  0  0  0  0  0  0
    8.6184    2.1111   -0.4373 C   0  0  0  0  0  0  0  0  0  0  0  0
    9.5040    2.1768    0.6328 C   0  0  0  0  0  0  0  0  0  0  0  0
   10.7305    2.7922    0.4696 C   0  0  0  0  0  0  0  0  0  0  0  0
   11.0815    3.3366   -0.7538 C   0  0  0  0  0  0  0  0  0  0  0  0
   10.2008    3.2955   -1.8260 C   0  0  0  0  0  0  0  0  0  0  0  0
   10.5575    3.9092   -3.1489 C   0  0  0  0  0  0  0  0  0  0  0  0
    9.9789    5.3204   -3.2645 C   0  0  0  0  0  0  0  0  0  0  0  0
    8.9613    2.6969   -1.6491 C   0  0  0  0  0  0  0  0  0  0  0  0
    6.9157    0.3010   -0.9373 C   0  0  0  0  0  0  0  0  0  0  0  0
    5.3047   -0.2194   -0.4421 S   0  0  0  0  0  0  0  0  0  0  0  0
    5.1826    1.1052    0.6561 C   0  0  0  0  0  0  0  0  0  0  0  0
    4.2165    1.6261    1.5242 C   0  0  0  0  0  0  0  0  0  0  0  0
    2.9280    1.3462    1.8899 N   0  0  0  0  0  0  0  0  0  0  0  0
    2.5080    2.3422    2.7582 C   0  0  0  0  0  0  0  0  0  0  0  0
    1.2784    2.5953    3.4251 C   0  0  0  0  0  0  0  0  0  0  0  0
    0.0890    1.8871    3.5252 N   0  0  0  0  0  0  0  0  0  0  0  0
   -0.8044    2.6664    4.2102 C   0  0  0  0  0  0  0  0  0  0  0  0
   -2.1445    2.5995    4.6125 C   0  0  0  0  0  0  0  0  0  0  0  0
   -3.4486    1.4721    4.4875 S   0  0  0  0  0  0  0  0  0  0  0  0
   -0.1725    0.4711    3.3922 C   0  0  0  0  0  0  0  0  0  0  0  0
    0.7384   -0.3534    4.2987 C   0  0  0  0  0  0  0  0  0  0  0  0
    2.1758    0.3776    1.1259 C   0  0  0  0  0  0  0  0  0  0  0  0
    1.1915    1.0534    0.1740 C   0  0  0  0  0  0  0  0  0  0  0  0
    7.5574   -0.4970   -1.9278 C   0  0  0  0  0  0  0  0  0  0  0  0
    7.1375   -1.7355   -2.3301 C   0  0  0  0  0  0  0  0  0  0  0  0
    7.8771   -2.2790   -3.4048 C   0  0  0  0  0  0  0  0  0  0  0  0
    7.6590   -3.4875   -4.0895 C   0  0  0  0  0  0  0  0  0  0  0  0
    6.5337   -4.3681   -3.7456 C   0  0  0  0  0  0  0  0  0  0  0  0
    6.7183   -5.7389   -3.5902 C   0  0  0  0  0  0  0  0  0  0  0  0
    5.6429   -6.5545   -3.2849 C   0  0  0  0  0  0  0  0  0  0  0  0
    4.3839   -6.0161   -3.1022 C   0  0  0  0  0  0  0  0  0  0  0  0
    4.1948   -4.6452   -3.2405 C   0  0  0  0  0  0  0  0  0  0  0  0
    2.5593   -4.0125   -2.9754 S   0  0  0  0  0  0  0  0  0  0  0  0
    2.8671   -2.3817   -2.1941 C   0  0  0  0  0  0  0  0  0  0  0  0
    2.7398   -1.2174   -3.1579 C   0  0  0  0  0  0  0  0  0  0  0  0
    5.2588   -3.8297   -3.5867 C   0  0  0  0  0  0  0  0  0  0  0  0
    8.5378   -3.7790   -5.1228 C   0  0  0  0  0  0  0  0  0  0  0  0
    9.5835   -2.9019   -5.5252 C   0  0  0  0  0  0  0  0  0  0  0  0
    9.7814   -1.6795   -4.8520 C   0  0  0  0  0  0  0  0  0  0  0  0
   10.7837   -0.7016   -5.2926 C   0  0  0  0  0  0  0  0  0  0  0  0
   11.6601   -0.1132   -4.3836 C   0  0  0  0  0  0  0  0  0  0  0  0
   12.5751    0.8308   -4.8130 C   0  0  0  0  0  0  0  0  0  0  0  0
   12.6347    1.2001   -6.1444 C   0  0  0  0  0  0  0  0  0  0  0  0
   11.7719    0.6072   -7.0563 C   0  0  0  0  0  0  0  0  0  0  0  0
   11.7870    1.0304   -8.7785 S   0  0  0  0  0  0  0  0  0  0  0  0
   13.5754    0.9473   -9.1603 C   0  0  0  0  0  0  0  0  0  0  0  0
   14.1808   -0.3815   -8.7530 C   0  0  0  0  0  0  0  0  0  0  0  0
   10.8444   -0.3302   -6.6316 C   0  0  0  0  0  0  0  0  0  0  0  0
    8.9350   -1.4167   -3.7917 C   0  0  0  0  0  0  0  0  0  0  0  0
    8.9561    0.0419   -2.8315 S   0  0  0  0  0  0  0  0  0  0  0  0
   10.3201   -3.4072   -6.6148 C   0  0  0  0  0  0  0  0  0  0  0  0
    9.8568   -4.6108   -7.0854 C   0  0  0  0  0  0  0  0  0  0  0  0
    8.4844   -5.1896   -6.1366 S   0  0  0  0  0  0  0  0  0  0  0  0
   10.2810   -5.4482   -8.1424 C   0  0  0  0  0  0  0  0  0  0  0  0
   11.1522   -5.2255   -9.1702 C   0  0  0  0  0  0  0  0  0  0  0  0
   11.8216   -3.9623   -9.5635 C   0  0  0  0  0  0  0  0  0  0  0  0
   11.9638   -2.9413   -8.9226 O   0  0  0  0  0  0  0  0  0  0  0  0
   12.3125   -4.1867  -10.9367 C   0  0  0  0  0  0  0  0  0  0  0  0
   12.9111   -3.2827  -11.7894 C   0  0  0  0  0  0  0  0  0  0  0  0
   13.2910   -3.7051  -13.0616 C   0  0  0  0  0  0  0  0  0  0  0  0
   13.9561   -2.7558  -14.0061 C   0  0  0  0  0  0  0  0  0  0  0  0
   13.0572   -5.0280  -13.4316 C   0  0  0  0  0  0  0  0  0  0  0  0
   12.4596   -5.9430  -12.5778 C   0  0  0  0  0  0  0  0  0  0  0  0
   12.0806   -5.5205  -11.3128 C   0  0  0  0  0  0  0  0  0  0  0  0
   11.4385   -6.2134  -10.2029 C   0  0  0  0  0  0  0  0  0  0  0  0
   11.2242   -7.5636  -10.1293 C   0  0  0  0  0  0  0  0  0  0  0  0
   10.7097   -8.2564   -9.0120 C   0  0  0  0  0  0  0  0  0  0  0  0
   10.3251   -8.9004   -8.1423 N   0  0  0  0  0  0  0  0  0  0  0  0
   11.5488   -8.4680  -11.1629 C   0  0  0  0  0  0  0  0  0  0  0  0
   11.7851   -9.2551  -11.9644 N   0  0  0  0  0  0  0  0  0  0  0  0
  -14.5269    0.9471    5.3681 H   0  0  0  0  0  0  0  0  0  0  0  0
  -14.6105   -4.7027    2.6279 H   0  0  0  0  0  0  0  0  0  0  0  0
  -15.9750   -6.2889    1.3806 H   0  0  0  0  0  0  0  0  0  0  0  0
  -17.0745   -6.8341    2.6466 H   0  0  0  0  0  0  0  0  0  0  0  0
  -17.7219   -6.0407    1.2155 H   0  0  0  0  0  0  0  0  0  0  0  0
  -18.8813   -4.4431    2.7568 H   0  0  0  0  0  0  0  0  0  0  0  0
  -18.7633   -2.3015    3.9217 H   0  0  0  0  0  0  0  0  0  0  0  0
  -12.6151    2.3021    5.6968 H   0  0  0  0  0  0  0  0  0  0  0  0
   -9.0187    4.0528    7.7481 H   0  0  0  0  0  0  0  0  0  0  0  0
   -9.8416    6.2998    8.3110 H   0  0  0  0  0  0  0  0  0  0  0  0
  -11.5350    7.3915    6.9358 H   0  0  0  0  0  0  0  0  0  0  0  0
  -13.1001    8.3733    5.8518 H   0  0  0  0  0  0  0  0  0  0  0  0
  -13.7578    8.5928    4.2246 H   0  0  0  0  0  0  0  0  0  0  0  0
  -11.4751    8.7532    3.2726 H   0  0  0  0  0  0  0  0  0  0  0  0
  -11.6781    9.9709    4.5384 H   0  0  0  0  0  0  0  0  0  0  0  0
  -10.7596    8.4950    4.8639 H   0  0  0  0  0  0  0  0  0  0  0  0
  -11.5639    4.0179    4.3085 H   0  0  0  0  0  0  0  0  0  0  0  0
   -6.8672   -1.4418    6.2461 H   0  0  0  0  0  0  0  0  0  0  0  0
   -5.9941   -3.6844    5.7305 H   0  0  0  0  0  0  0  0  0  0  0  0
   -6.9252   -4.9689    3.8297 H   0  0  0  0  0  0  0  0  0  0  0  0
  -11.0620   -3.2840    2.4589 H   0  0  0  0  0  0  0  0  0  0  0  0
  -11.2495   -4.8057    1.5604 H   0  0  0  0  0  0  0  0  0  0  0  0
  -10.4221   -4.5900    4.5021 H   0  0  0  0  0  0  0  0  0  0  0  0
  -12.0508   -4.9696    3.9529 H   0  0  0  0  0  0  0  0  0  0  0  0
  -10.7195   -6.0960    3.6203 H   0  0  0  0  0  0  0  0  0  0  0  0
   -9.4779   -1.6892    2.8729 H   0  0  0  0  0  0  0  0  0  0  0  0
   -5.8689    0.1922    4.7710 H   0  0  0  0  0  0  0  0  0  0  0  0
   -3.9715    6.3424    4.9256 H   0  0  0  0  0  0  0  0  0  0  0  0
   -5.0258    8.2086    6.1436 H   0  0  0  0  0  0  0  0  0  0  0  0
   -6.1761    7.7977    8.2800 H   0  0  0  0  0  0  0  0  0  0  0  0
   -6.7670    4.4352    9.6868 H   0  0  0  0  0  0  0  0  0  0  0  0
   -7.2489    6.1364    9.7545 H   0  0  0  0  0  0  0  0  0  0  0  0
   -5.0278    6.7205   10.7367 H   0  0  0  0  0  0  0  0  0  0  0  0
   -5.8764    5.5341   11.7342 H   0  0  0  0  0  0  0  0  0  0  0  0
   -4.5554    5.0234   10.6773 H   0  0  0  0  0  0  0  0  0  0  0  0
   -5.1530    3.6643    8.0345 H   0  0  0  0  0  0  0  0  0  0  0  0
    9.2333    1.7349    1.5803 H   0  0  0  0  0  0  0  0  0  0  0  0
   11.4203    2.8401    1.2993 H   0  0  0  0  0  0  0  0  0  0  0  0
   12.0496    3.8007   -0.8769 H   0  0  0  0  0  0  0  0  0  0  0  0
   10.1660    3.2874   -3.9572 H   0  0  0  0  0  0  0  0  0  0  0  0
   11.6431    3.9548   -3.2528 H   0  0  0  0  0  0  0  0  0  0  0  0
    8.8957    5.2952   -3.1714 H   0  0  0  0  0  0  0  0  0  0  0  0
   10.2346    5.7581   -4.2265 H   0  0  0  0  0  0  0  0  0  0  0  0
   10.3742    5.9569   -2.4759 H   0  0  0  0  0  0  0  0  0  0  0  0
    8.2525    2.6884   -2.4648 H   0  0  0  0  0  0  0  0  0  0  0  0
   -1.2118    0.3195    3.6942 H   0  0  0  0  0  0  0  0  0  0  0  0
   -0.0964    0.1579    2.3509 H   0  0  0  0  0  0  0  0  0  0  0  0
    1.7871   -0.1706    4.0760 H   0  0  0  0  0  0  0  0  0  0  0  0
    0.5635   -0.0886    5.3390 H   0  0  0  0  0  0  0  0  0  0  0  0
    0.5292   -1.4122    4.1711 H   0  0  0  0  0  0  0  0  0  0  0  0
    1.6766   -0.3295    1.7876 H   0  0  0  0  0  0  0  0  0  0  0  0
    2.9053   -0.1907    0.5430 H   0  0  0  0  0  0  0  0  0  0  0  0
    1.7316    1.6712   -0.5398 H   0  0  0  0  0  0  0  0  0  0  0  0
    0.4970    1.6918    0.7150 H   0  0  0  0  0  0  0  0  0  0  0  0
    0.6283    0.3030   -0.3743 H   0  0  0  0  0  0  0  0  0  0  0  0
    6.3257   -2.2508   -1.8488 H   0  0  0  0  0  0  0  0  0  0  0  0
    7.7052   -6.1634   -3.6913 H   0  0  0  0  0  0  0  0  0  0  0  0
    5.7918   -7.6177   -3.1726 H   0  0  0  0  0  0  0  0  0  0  0  0
    3.5429   -6.6424   -2.8485 H   0  0  0  0  0  0  0  0  0  0  0  0
    2.1159   -2.3080   -1.4073 H   0  0  0  0  0  0  0  0  0  0  0  0
    3.8530   -2.4243   -1.7351 H   0  0  0  0  0  0  0  0  0  0  0  0
    2.9430   -0.2854   -2.6333 H   0  0  0  0  0  0  0  0  0  0  0  0
    1.7349   -1.1775   -3.5712 H   0  0  0  0  0  0  0  0  0  0  0  0
    3.4419   -1.3084   -3.9830 H   0  0  0  0  0  0  0  0  0  0  0  0
    5.1084   -2.7761   -3.7611 H   0  0  0  0  0  0  0  0  0  0  0  0
   11.6386   -0.4084   -3.3455 H   0  0  0  0  0  0  0  0  0  0  0  0
   13.2481    1.2855   -4.1012 H   0  0  0  0  0  0  0  0  0  0  0  0
   13.3438    1.9467   -6.4687 H   0  0  0  0  0  0  0  0  0  0  0  0
   14.0782    1.7895   -8.6846 H   0  0  0  0  0  0  0  0  0  0  0  0
   13.6105    1.0852  -10.2410 H   0  0  0  0  0  0  0  0  0  0  0  0
   13.5615   -1.2047   -9.1021 H   0  0  0  0  0  0  0  0  0  0  0  0
   14.2542   -0.4547   -7.6695 H   0  0  0  0  0  0  0  0  0  0  0  0
   15.1792   -0.4808   -9.1753 H   0  0  0  0  0  0  0  0  0  0  0  0
   10.1621   -0.7567   -7.3503 H   0  0  0  0  0  0  0  0  0  0  0  0
   11.1722   -2.9079   -7.0361 H   0  0  0  0  0  0  0  0  0  0  0  0
    9.7771   -6.4084   -8.1450 H   0  0  0  0  0  0  0  0  0  0  0  0
   13.0714   -2.2635  -11.4707 H   0  0  0  0  0  0  0  0  0  0  0  0
   13.5955   -1.7415  -13.8525 H   0  0  0  0  0  0  0  0  0  0  0  0
   13.7798   -3.0449  -15.0392 H   0  0  0  0  0  0  0  0  0  0  0  0
   15.0332   -2.7588  -13.8344 H   0  0  0  0  0  0  0  0  0  0  0  0
   13.3482   -5.3527  -14.4200 H   0  0  0  0  0  0  0  0  0  0  0  0
   12.2906   -6.9542  -12.9100 H   0  0  0  0  0  0  0  0  0  0  0  0
  1  2  2  0  0  0  0
  2  3  1  0  0  0  0
  3  4  2  0  0  0  0
  3  5  1  0  0  0  0
  5  6  2  0  0  0  0
  6  7  1  0  0  0  0
  7  8  1  0  0  0  0
  7  9  2  0  0  0  0
  9 10  1  0  0  0  0
 10 11  2  0  0  0  0
 11 12  1  0  0  0  0
 12 13  2  0  0  0  0
 13 14  1  0  0  0  0
 14 15  3  0  0  0  0
 13 16  1  0  0  0  0
 16 17  3  0  0  0  0
  1 18  1  0  0  0  0
 18 19  2  0  0  0  0
 19 20  1  0  0  0  0
 20 21  2  0  0  0  0
 21 22  1  0  0  0  0
 22 23  2  0  0  0  0
 23 24  1  0  0  0  0
 24 25  2  0  0  0  0
 25 26  1  0  0  0  0
 26 27  1  0  0  0  0
 27 28  1  0  0  0  0
 28 29  1  0  0  0  0
 26 30  2  0  0  0  0
 21 31  1  0  0  0  0
 31 32  2  0  0  0  0
 32 33  1  0  0  0  0
 33 34  1  0  0  0  0
 34 35  2  0  0  0  0
 35 36  1  0  0  0  0
 36 37  2  0  0  0  0
 37 38  1  0  0  0  0
 38 39  1  0  0  0  0
 39 40  1  0  0  0  0
 40 41  1  0  0  0  0
 38 42  2  0  0  0  0
 33 43  2  0  0  0  0
 43 44  1  0  0  0  0
 32 45  1  0  0  0  0
 45 46  2  0  0  0  0
 46 47  1  0  0  0  0
 46 48  1  0  0  0  0
 48 49  2  0  0  0  0
 49 50  1  0  0  0  0
 50 51  2  0  0  0  0
 51 52  1  0  0  0  0
 52 53  2  0  0  0  0
 53 54  1  0  0  0  0
 54 55  1  0  0  0  0
 55 56  1  0  0  0  0
 54 57  2  0  0  0  0
 49 58  1  0  0  0  0
 58 59  1  0  0  0  0
 59 60  1  0  0  0  0
 60 61  1  0  0  0  0
 61 62  1  0  0  0  0
 62 63  1  0  0  0  0
 63 64  2  0  0  0  0
 64 65  1  0  0  0  0
 65 66  1  0  0  0  0
 63 67  1  0  0  0  0
 67 68  1  0  0  0  0
 68 69  1  0  0  0  0
 69 70  1  0  0  0  0
 70 71  1  0  0  0  0
 71 72  1  0  0  0  0
 72 73  2  0  0  0  0
 73 74  1  0  0  0  0
 74 75  2  0  0  0  0
 75 76  1  0  0  0  0
 76 77  1  0  0  0  0
 77 78  1  0  0  0  0
 76 79  2  0  0  0  0
 71 80  2  0  0  0  0
 80 81  1  0  0  0  0
 81 82  1  0  0  0  0
 82 83  1  0  0  0  0
 83 84  1  0  0  0  0
 84 85  1  0  0  0  0
 85 86  1  0  0  0  0
 86 87  1  0  0  0  0
 87 88  1  0  0  0  0
 88 89  1  0  0  0  0
 89 90  1  0  0  0  0
 87 91  1  0  0  0  0
 91 92  1  0  0  0  0
 84 93  1  0  0  0  0
 93 94  1  0  0  0  0
 80 95  1  0  0  0  0
 95 96  2  0  0  0  0
 96 97  1  0  0  0  0
 97 98  2  0  0  0  0
 98 99  1  0  0  0  0
 99100  2  0  0  0  0
100101  1  0  0  0  0
101102  2  0  0  0  0
102103  1  0  0  0  0
103104  1  0  0  0  0
104105  1  0  0  0  0
105106  1  0  0  0  0
103107  2  0  0  0  0
 98108  1  0  0  0  0
108109  2  0  0  0  0
109110  1  0  0  0  0
110111  1  0  0  0  0
111112  2  0  0  0  0
112113  1  0  0  0  0
113114  2  0  0  0  0
114115  1  0  0  0  0
115116  1  0  0  0  0
116117  1  0  0  0  0
117118  1  0  0  0  0
115119  2  0  0  0  0
110120  2  0  0  0  0
120121  1  0  0  0  0
109122  1  0  0  0  0
122123  2  0  0  0  0
123124  1  0  0  0  0
123125  1  0  0  0  0
125126  2  0  0  0  0
126127  1  0  0  0  0
127128  2  0  0  0  0
127129  1  0  0  0  0
129130  2  0  0  0  0
130131  1  0  0  0  0
131132  1  0  0  0  0
131133  2  0  0  0  0
133134  1  0  0  0  0
134135  2  0  0  0  0
135136  1  0  0  0  0
136137  2  0  0  0  0
137138  1  0  0  0  0
138139  3  0  0  0  0
137140  1  0  0  0  0
140141  3  0  0  0  0
 12  2  1  0  0  0  0
 44 18  1  0  0  0  0
 90 48  1  0  0  0  0
121 95  1  0  0  0  0
136126  1  0  0  0  0
 11  5  1  0  0  0  0
 43 20  1  0  0  0  0
 57 50  1  0  0  0  0
 89 58  2  0  0  0  0
120 97  1  0  0  0  0
135129  1  0  0  0  0
 30 22  1  0  0  0  0
 47 31  1  0  0  0  0
 88 60  2  0  0  0  0
107 99  1  0  0  0  0
124108  1  0  0  0  0
 42 34  1  0  0  0  0
 86 61  2  0  0  0  0
119111  1  0  0  0  0
 66 62  2  0  0  0  0
 85 67  2  0  0  0  0
 83 68  2  0  0  0  0
 82 70  2  0  0  0  0
 79 72  1  0  0  0  0
  1142  1  0  0  0  0
  6143  1  0  0  0  0
  8144  1  0  0  0  0
  8145  1  0  0  0  0
  8146  1  0  0  0  0
  9147  1  0  0  0  0
 10148  1  0  0  0  0
 19149  1  0  0  0  0
 23150  1  0  0  0  0
 24151  1  0  0  0  0
 25152  1  0  0  0  0
 28153  1  0  0  0  0
 28154  1  0  0  0  0
 29155  1  0  0  0  0
 29156  1  0  0  0  0
 29157  1  0  0  0  0
 30158  1  0  0  0  0
 35159  1  0  0  0  0
 36160  1  0  0  0  0
 37161  1  0  0  0  0
 40162  1  0  0  0  0
 40163  1  0  0  0  0
 41164  1  0  0  0  0
 41165  1  0  0  0  0
 41166  1  0  0  0  0
 42167  1  0  0  0  0
 45168  1  0  0  0  0
 51169  1  0  0  0  0
 52170  1  0  0  0  0
 53171  1  0  0  0  0
 55172  1  0  0  0  0
 55173  1  0  0  0  0
 56174  1  0  0  0  0
 56175  1  0  0  0  0
 56176  1  0  0  0  0
 57177  1  0  0  0  0
 73178  1  0  0  0  0
 74179  1  0  0  0  0
 75180  1  0  0  0  0
 77181  1  0  0  0  0
 77182  1  0  0  0  0
 78183  1  0  0  0  0
 78184  1  0  0  0  0
 78185  1  0  0  0  0
 79186  1  0  0  0  0
 91187  1  0  0  0  0
 91188  1  0  0  0  0
 92189  1  0  0  0  0
 92190  1  0  0  0  0
 92191  1  0  0  0  0
 93192  1  0  0  0  0
 93193  1  0  0  0  0
 94194  1  0  0  0  0
 94195  1  0  0  0  0
 94196  1  0  0  0  0
 96197  1  0  0  0  0
100198  1  0  0  0  0
101199  1  0  0  0  0
102200  1  0  0  0  0
105201  1  0  0  0  0
105202  1  0  0  0  0
106203  1  0  0  0  0
106204  1  0  0  0  0
106205  1  0  0  0  0
107206  1  0  0  0  0
112207  1  0  0  0  0
113208  1  0  0  0  0
114209  1  0  0  0  0
117210  1  0  0  0  0
117211  1  0  0  0  0
118212  1  0  0  0  0
118213  1  0  0  0  0
118214  1  0  0  0  0
119215  1  0  0  0  0
122216  1  0  0  0  0
125217  1  0  0  0  0
130218  1  0  0  0  0
132219  1  0  0  0  0
132220  1  0  0  0  0
132221  1  0  0  0  0
133222  1  0  0  0  0
134223  1  0  0  0  0
M  END
