
  xtb     02112201203D
 energy: -247.830222689634 gnorm: 0.000432111185 xtb: 6.4.1 (unknown)
136152  0     0  0            999 V2000
  -10.3212    5.4923   -0.3433 C   0  0  0  0  0  0  0  0  0  0  0  0
  -11.0089    4.4823    0.2592 C   0  0  0  0  0  0  0  0  0  0  0  0
  -10.4236    3.2610    0.8538 C   0  0  0  0  0  0  0  0  0  0  0  0
   -9.2470    2.9915    0.9971 O   0  0  0  0  0  0  0  0  0  0  0  0
  -11.5617    2.4157    1.2469 C   0  0  0  0  0  0  0  0  0  0  0  0
  -11.5372    1.1560    1.8113 C   0  0  0  0  0  0  0  0  0  0  0  0
  -12.7433    0.5256    2.1012 C   0  0  0  0  0  0  0  0  0  0  0  0
  -12.7741   -0.8406    2.7072 C   0  0  0  0  0  0  0  0  0  0  0  0
  -13.9369    1.1888    1.8134 C   0  0  0  0  0  0  0  0  0  0  0  0
  -13.9678    2.4537    1.2490 C   0  0  0  0  0  0  0  0  0  0  0  0
  -12.7647    3.0825    0.9585 C   0  0  0  0  0  0  0  0  0  0  0  0
  -12.4593    4.3828    0.3708 C   0  0  0  0  0  0  0  0  0  0  0  0
  -13.3831    5.3270    0.0153 C   0  0  0  0  0  0  0  0  0  0  0  0
  -14.7777    5.1575    0.1602 C   0  0  0  0  0  0  0  0  0  0  0  0
  -15.9197    5.0859    0.2484 N   0  0  0  0  0  0  0  0  0  0  0  0
  -13.1077    6.6020   -0.5263 C   0  0  0  0  0  0  0  0  0  0  0  0
  -12.9879    7.6572   -0.9621 N   0  0  0  0  0  0  0  0  0  0  0  0
   -8.9287    5.6394   -0.5354 C   0  0  0  0  0  0  0  0  0  0  0  0
   -8.4739    6.6666   -1.2175 N   0  0  0  0  0  0  0  0  0  0  0  0
   -7.1943    6.7042   -1.3786 N   0  0  0  0  0  0  0  0  0  0  0  0
   -6.5589    5.6975   -0.8165 C   0  0  0  0  0  0  0  0  0  0  0  0
   -7.6298    4.5834    0.0069 S   0  0  0  0  0  0  0  0  0  0  0  0
   -5.1607    5.4814   -0.8636 C   0  0  0  0  0  0  0  0  0  0  0  0
   -4.1846    6.1194   -1.6191 C   0  0  0  0  0  0  0  0  0  0  0  0
   -4.4090    7.1606   -2.6205 C   0  0  0  0  0  0  0  0  0  0  0  0
   -5.3902    7.0213   -3.5972 C   0  0  0  0  0  0  0  0  0  0  0  0
   -5.5473    8.0031   -4.5556 C   0  0  0  0  0  0  0  0  0  0  0  0
   -4.7341    9.1229   -4.5502 C   0  0  0  0  0  0  0  0  0  0  0  0
   -3.7401    9.2709   -3.5911 C   0  0  0  0  0  0  0  0  0  0  0  0
   -2.8808   10.5019   -3.5610 C   0  0  0  0  0  0  0  0  0  0  0  0
   -3.5463   11.5947   -2.7221 C   0  0  0  0  0  0  0  0  0  0  0  0
   -3.5840    8.2811   -2.6333 C   0  0  0  0  0  0  0  0  0  0  0  0
   -2.9123    5.5885   -1.3379 C   0  0  0  0  0  0  0  0  0  0  0  0
   -1.3264    5.8897   -2.0136 S   0  0  0  0  0  0  0  0  0  0  0  0
   -0.6893    4.6029   -1.0452 C   0  0  0  0  0  0  0  0  0  0  0  0
    0.5214    3.9193   -0.8314 C   0  0  0  0  0  0  0  0  0  0  0  0
    1.8298    4.1167   -1.3271 C   0  0  0  0  0  0  0  0  0  0  0  0
    2.8741    3.2144   -0.9241 C   0  0  0  0  0  0  0  0  0  0  0  0
    4.0489    3.5424   -1.4374 N   0  0  0  0  0  0  0  0  0  0  0  0
    3.8617    4.8670   -2.3486 S   0  0  0  0  0  0  0  0  0  0  0  0
    2.2719    5.0732   -2.1278 N   0  0  0  0  0  0  0  0  0  0  0  0
    2.5428    2.0851   -0.1406 C   0  0  0  0  0  0  0  0  0  0  0  0
    3.2671    0.9278    0.1851 C   0  0  0  0  0  0  0  0  0  0  0  0
    4.8402    0.2503   -0.0673 S   0  0  0  0  0  0  0  0  0  0  0  0
    4.2808   -1.2535    0.6320 C   0  0  0  0  0  0  0  0  0  0  0  0
    4.9042   -2.4960    0.8389 C   0  0  0  0  0  0  0  0  0  0  0  0
    6.2922   -2.7729    0.4690 C   0  0  0  0  0  0  0  0  0  0  0  0
    6.7617   -2.3787   -0.7806 C   0  0  0  0  0  0  0  0  0  0  0  0
    8.0775   -2.6199   -1.1277 C   0  0  0  0  0  0  0  0  0  0  0  0
    8.9288   -3.2501   -0.2390 C   0  0  0  0  0  0  0  0  0  0  0  0
    8.4791   -3.6451    1.0163 C   0  0  0  0  0  0  0  0  0  0  0  0
    9.3988   -4.3670    1.9579 C   0  0  0  0  0  0  0  0  0  0  0  0
    9.6428   -5.7970    1.4726 C   0  0  0  0  0  0  0  0  0  0  0  0
    7.1607   -3.3951    1.3613 C   0  0  0  0  0  0  0  0  0  0  0  0
    4.0213   -3.3942    1.4242 C   0  0  0  0  0  0  0  0  0  0  0  0
    2.4395   -2.7011    1.7445 S   0  0  0  0  0  0  0  0  0  0  0  0
    2.9485   -1.2003    1.0636 C   0  0  0  0  0  0  0  0  0  0  0  0
    2.3728    0.0480    0.8073 C   0  0  0  0  0  0  0  0  0  0  0  0
    1.1362    0.6269    0.9032 N   0  0  0  0  0  0  0  0  0  0  0  0
    1.2160    1.8817    0.3345 C   0  0  0  0  0  0  0  0  0  0  0  0
    0.2379    2.8761    0.0926 C   0  0  0  0  0  0  0  0  0  0  0  0
   -1.0859    2.9697    0.4879 N   0  0  0  0  0  0  0  0  0  0  0  0
   -1.6484    3.9961   -0.2274 C   0  0  0  0  0  0  0  0  0  0  0  0
   -2.9175    4.5549   -0.3951 C   0  0  0  0  0  0  0  0  0  0  0  0
   -4.5080    4.2327    0.1843 S   0  0  0  0  0  0  0  0  0  0  0  0
   -1.6507    2.6074    1.7717 C   0  0  0  0  0  0  0  0  0  0  0  0
   -1.7442    3.8194    2.6986 C   0  0  0  0  0  0  0  0  0  0  0  0
   -0.0191   -0.1826    1.2235 C   0  0  0  0  0  0  0  0  0  0  0  0
   -0.1147   -0.4846    2.7185 C   0  0  0  0  0  0  0  0  0  0  0  0
    4.1151   -4.7724    1.7181 C   0  0  0  0  0  0  0  0  0  0  0  0
    3.0988   -5.3646    2.3254 N   0  0  0  0  0  0  0  0  0  0  0  0
    3.2495   -6.6308    2.4924 N   0  0  0  0  0  0  0  0  0  0  0  0
    4.3710   -7.1264    2.0197 C   0  0  0  0  0  0  0  0  0  0  0  0
    5.3915   -5.8779    1.2913 S   0  0  0  0  0  0  0  0  0  0  0  0
    4.6107   -8.5105    2.1465 C   0  0  0  0  0  0  0  0  0  0  0  0
    5.6400   -9.2628    1.6622 C   0  0  0  0  0  0  0  0  0  0  0  0
    6.7462   -8.7716    0.8183 C   0  0  0  0  0  0  0  0  0  0  0  0
    7.0047   -7.6179    0.5294 O   0  0  0  0  0  0  0  0  0  0  0  0
    7.4844   -9.9643    0.3787 C   0  0  0  0  0  0  0  0  0  0  0  0
    8.5602  -10.0394   -0.4588 C   0  0  0  0  0  0  0  0  0  0  0  0
    9.1033  -11.3059   -0.7667 C   0  0  0  0  0  0  0  0  0  0  0  0
   10.2087  -11.4447   -1.6309 C   0  0  0  0  0  0  0  0  0  0  0  0
   10.7198  -12.6775   -1.9275 C   0  0  0  0  0  0  0  0  0  0  0  0
   10.1277  -13.8127   -1.3566 C   0  0  0  0  0  0  0  0  0  0  0  0
   10.6440  -15.0162   -1.6608 F   0  0  0  0  0  0  0  0  0  0  0  0
    9.0556  -13.7341   -0.5116 C   0  0  0  0  0  0  0  0  0  0  0  0
    8.5157  -12.4724   -0.1953 C   0  0  0  0  0  0  0  0  0  0  0  0
    7.4063  -12.3610    0.6750 C   0  0  0  0  0  0  0  0  0  0  0  0
    6.8967  -11.1224    0.9616 C   0  0  0  0  0  0  0  0  0  0  0  0
    5.7805  -10.7039    1.8048 C   0  0  0  0  0  0  0  0  0  0  0  0
    5.0420  -11.5307    2.6075 C   0  0  0  0  0  0  0  0  0  0  0  0
    5.2466  -12.9244    2.7021 C   0  0  0  0  0  0  0  0  0  0  0  0
    5.3573  -14.0604    2.8239 N   0  0  0  0  0  0  0  0  0  0  0  0
    4.0019  -11.1323    3.4756 C   0  0  0  0  0  0  0  0  0  0  0  0
    3.1561  -10.9028    4.2171 N   0  0  0  0  0  0  0  0  0  0  0  0
  -10.8738    6.3141   -0.7820 H   0  0  0  0  0  0  0  0  0  0  0  0
  -10.5905    0.6795    2.0175 H   0  0  0  0  0  0  0  0  0  0  0  0
  -11.7687   -1.2135    2.8822 H   0  0  0  0  0  0  0  0  0  0  0  0
  -13.2943   -1.5338    2.0472 H   0  0  0  0  0  0  0  0  0  0  0  0
  -13.3114   -0.8223    3.6544 H   0  0  0  0  0  0  0  0  0  0  0  0
  -14.8714    0.6958    2.0389 H   0  0  0  0  0  0  0  0  0  0  0  0
  -14.9153    2.9236    1.0433 H   0  0  0  0  0  0  0  0  0  0  0  0
   -6.0102    6.1395   -3.6151 H   0  0  0  0  0  0  0  0  0  0  0  0
   -6.3082    7.8933   -5.3137 H   0  0  0  0  0  0  0  0  0  0  0  0
   -4.8661    9.8875   -5.3022 H   0  0  0  0  0  0  0  0  0  0  0  0
   -2.7288   10.8710   -4.5772 H   0  0  0  0  0  0  0  0  0  0  0  0
   -1.9049   10.2621   -3.1345 H   0  0  0  0  0  0  0  0  0  0  0  0
   -3.6902   11.2519   -1.7001 H   0  0  0  0  0  0  0  0  0  0  0  0
   -2.9301   12.4907   -2.7058 H   0  0  0  0  0  0  0  0  0  0  0  0
   -4.5195   11.8488   -3.1358 H   0  0  0  0  0  0  0  0  0  0  0  0
   -2.8205    8.3884   -1.8759 H   0  0  0  0  0  0  0  0  0  0  0  0
    6.0931   -1.8990   -1.4791 H   0  0  0  0  0  0  0  0  0  0  0  0
    8.4393   -2.3132   -2.0979 H   0  0  0  0  0  0  0  0  0  0  0  0
    9.9567   -3.4326   -0.5168 H   0  0  0  0  0  0  0  0  0  0  0  0
    8.9589   -4.3931    2.9564 H   0  0  0  0  0  0  0  0  0  0  0  0
   10.3536   -3.8389    2.0201 H   0  0  0  0  0  0  0  0  0  0  0  0
    8.6975   -6.3190    1.3454 H   0  0  0  0  0  0  0  0  0  0  0  0
   10.1556   -5.7908    0.5137 H   0  0  0  0  0  0  0  0  0  0  0  0
   10.2535   -6.3426    2.1886 H   0  0  0  0  0  0  0  0  0  0  0  0
    6.8065   -3.6624    2.3469 H   0  0  0  0  0  0  0  0  0  0  0  0
   -1.0119    1.8680    2.2419 H   0  0  0  0  0  0  0  0  0  0  0  0
   -2.6482    2.1862    1.6108 H   0  0  0  0  0  0  0  0  0  0  0  0
   -2.4275    4.5652    2.3030 H   0  0  0  0  0  0  0  0  0  0  0  0
   -2.1080    3.5028    3.6721 H   0  0  0  0  0  0  0  0  0  0  0  0
   -0.7638    4.2749    2.8221 H   0  0  0  0  0  0  0  0  0  0  0  0
    0.0849   -1.1325    0.6873 H   0  0  0  0  0  0  0  0  0  0  0  0
   -0.9152    0.3126    0.8499 H   0  0  0  0  0  0  0  0  0  0  0  0
   -0.0864    0.4225    3.3183 H   0  0  0  0  0  0  0  0  0  0  0  0
   -1.0408   -1.0129    2.9255 H   0  0  0  0  0  0  0  0  0  0  0  0
    0.7150   -1.1148    3.0258 H   0  0  0  0  0  0  0  0  0  0  0  0
    3.8143   -9.0045    2.6899 H   0  0  0  0  0  0  0  0  0  0  0  0
    8.9872   -9.1432   -0.8835 H   0  0  0  0  0  0  0  0  0  0  0  0
   10.6469  -10.5557   -2.0588 H   0  0  0  0  0  0  0  0  0  0  0  0
   11.5636  -12.8017   -2.5874 H   0  0  0  0  0  0  0  0  0  0  0  0
    8.6257  -14.6292   -0.0898 H   0  0  0  0  0  0  0  0  0  0  0  0
    6.9849  -13.2632    1.0876 H   0  0  0  0  0  0  0  0  0  0  0  0
  1  2  2  0  0  0  0
  2  3  1  0  0  0  0
  3  4  2  0  0  0  0
  3  5  1  0  0  0  0
  5  6  2  0  0  0  0
  6  7  1  0  0  0  0
  7  8  1  0  0  0  0
  7  9  2  0  0  0  0
  9 10  1  0  0  0  0
 10 11  2  0  0  0  0
 11 12  1  0  0  0  0
 12 13  2  0  0  0  0
 13 14  1  0  0  0  0
 14 15  3  0  0  0  0
 13 16  1  0  0  0  0
 16 17  3  0  0  0  0
  1 18  1  0  0  0  0
 18 19  2  0  0  0  0
 19 20  1  0  0  0  0
 20 21  2  0  0  0  0
 21 22  1  0  0  0  0
 21 23  1  0  0  0  0
 23 24  2  0  0  0  0
 24 25  1  0  0  0  0
 25 26  2  0  0  0  0
 26 27  1  0  0  0  0
 27 28  2  0  0  0  0
 28 29  1  0  0  0  0
 29 30  1  0  0  0  0
 30 31  1  0  0  0  0
 29 32  2  0  0  0  0
 24 33  1  0  0  0  0
 33 34  1  0  0  0  0
 34 35  1  0  0  0  0
 35 36  1  0  0  0  0
 36 37  1  0  0  0  0
 37 38  1  0  0  0  0
 38 39  2  0  0  0  0
 39 40  1  0  0  0  0
 40 41  1  0  0  0  0
 38 42  1  0  0  0  0
 42 43  1  0  0  0  0
 43 44  1  0  0  0  0
 44 45  1  0  0  0  0
 45 46  1  0  0  0  0
 46 47  1  0  0  0  0
 47 48  2  0  0  0  0
 48 49  1  0  0  0  0
 49 50  2  0  0  0  0
 50 51  1  0  0  0  0
 51 52  1  0  0  0  0
 52 53  1  0  0  0  0
 51 54  2  0  0  0  0
 46 55  2  0  0  0  0
 55 56  1  0  0  0  0
 56 57  1  0  0  0  0
 57 58  1  0  0  0  0
 58 59  1  0  0  0  0
 59 60  1  0  0  0  0
 60 61  1  0  0  0  0
 61 62  1  0  0  0  0
 62 63  1  0  0  0  0
 63 64  1  0  0  0  0
 64 65  1  0  0  0  0
 62 66  1  0  0  0  0
 66 67  1  0  0  0  0
 59 68  1  0  0  0  0
 68 69  1  0  0  0  0
 55 70  1  0  0  0  0
 70 71  2  0  0  0  0
 71 72  1  0  0  0  0
 72 73  2  0  0  0  0
 73 74  1  0  0  0  0
 73 75  1  0  0  0  0
 75 76  2  0  0  0  0
 76 77  1  0  0  0  0
 77 78  2  0  0  0  0
 77 79  1  0  0  0  0
 79 80  2  0  0  0  0
 80 81  1  0  0  0  0
 81 82  2  0  0  0  0
 82 83  1  0  0  0  0
 83 84  2  0  0  0  0
 84 85  1  0  0  0  0
 84 86  1  0  0  0  0
 86 87  2  0  0  0  0
 87 88  1  0  0  0  0
 88 89  2  0  0  0  0
 89 90  1  0  0  0  0
 90 91  2  0  0  0  0
 91 92  1  0  0  0  0
 92 93  3  0  0  0  0
 91 94  1  0  0  0  0
 94 95  3  0  0  0  0
 12  2  1  0  0  0  0
 22 18  1  0  0  0  0
 65 23  1  0  0  0  0
 74 70  1  0  0  0  0
 90 76  1  0  0  0  0
 11  5  1  0  0  0  0
 32 25  1  0  0  0  0
 64 33  2  0  0  0  0
 89 79  1  0  0  0  0
 63 35  2  0  0  0  0
 87 81  1  0  0  0  0
 61 36  2  0  0  0  0
 41 37  2  0  0  0  0
 60 42  2  0  0  0  0
 58 43  2  0  0  0  0
 57 45  2  0  0  0  0
 54 47  1  0  0  0  0
  1 96  1  0  0  0  0
  6 97  1  0  0  0  0
  8 98  1  0  0  0  0
  8 99  1  0  0  0  0
  8100  1  0  0  0  0
  9101  1  0  0  0  0
 10102  1  0  0  0  0
 26103  1  0  0  0  0
 27104  1  0  0  0  0
 28105  1  0  0  0  0
 30106  1  0  0  0  0
 30107  1  0  0  0  0
 31108  1  0  0  0  0
 31109  1  0  0  0  0
 31110  1  0  0  0  0
 32111  1  0  0  0  0
 48112  1  0  0  0  0
 49113  1  0  0  0  0
 50114  1  0  0  0  0
 52115  1  0  0  0  0
 52116  1  0  0  0  0
 53117  1  0  0  0  0
 53118  1  0  0  0  0
 53119  1  0  0  0  0
 54120  1  0  0  0  0
 66121  1  0  0  0  0
 66122  1  0  0  0  0
 67123  1  0  0  0  0
 67124  1  0  0  0  0
 67125  1  0  0  0  0
 68126  1  0  0  0  0
 68127  1  0  0  0  0
 69128  1  0  0  0  0
 69129  1  0  0  0  0
 69130  1  0  0  0  0
 75131  1  0  0  0  0
 80132  1  0  0  0  0
 82133  1  0  0  0  0
 83134  1  0  0  0  0
 86135  1  0  0  0  0
 88136  1  0  0  0  0
M  END
