136

C        -10.32120        5.49230       -0.34330
C        -11.00890        4.48230        0.25920
C        -10.42360        3.26100        0.85380
O         -9.24700        2.99150        0.99710
C        -11.56170        2.41570        1.24690
C        -11.53720        1.15600        1.81130
C        -12.74330        0.52560        2.10120
C        -12.77410       -0.84060        2.70720
C        -13.93690        1.18880        1.81340
C        -13.96780        2.45370        1.24900
C        -12.76470        3.08250        0.95850
C        -12.45930        4.38280        0.37080
C        -13.38310        5.32700        0.01530
C        -14.77770        5.15750        0.16020
N        -15.91970        5.08590        0.24840
C        -13.10770        6.60200       -0.52630
N        -12.98790        7.65720       -0.96210
C         -8.92870        5.63940       -0.53540
N         -8.47390        6.66660       -1.21750
N         -7.19430        6.70420       -1.37860
C         -6.55890        5.69750       -0.81650
S         -7.62980        4.58340        0.00690
C         -5.16070        5.48140       -0.86360
C         -4.18460        6.11940       -1.61910
C         -4.40900        7.16060       -2.62050
C         -5.39020        7.02130       -3.59720
C         -5.54730        8.00310       -4.55560
C         -4.73410        9.12290       -4.55020
C         -3.74010        9.27090       -3.59110
C         -2.88080       10.50190       -3.56100
C         -3.54630       11.59470       -2.72210
C         -3.58400        8.28110       -2.63330
C         -2.91230        5.58850       -1.33790
S         -1.32640        5.88970       -2.01360
C         -0.68930        4.60290       -1.04520
C          0.52140        3.91930       -0.83140
C          1.82980        4.11670       -1.32710
C          2.87410        3.21440       -0.92410
N          4.04890        3.54240       -1.43740
S          3.86170        4.86700       -2.34860
N          2.27190        5.07320       -2.12780
C          2.54280        2.08510       -0.14060
C          3.26710        0.92780        0.18510
S          4.84020        0.25030       -0.06730
C          4.28080       -1.25350        0.63200
C          4.90420       -2.49600        0.83890
C          6.29220       -2.77290        0.46900
C          6.76170       -2.37870       -0.78060
C          8.07750       -2.61990       -1.12770
C          8.92880       -3.25010       -0.23900
C          8.47910       -3.64510        1.01630
C          9.39880       -4.36700        1.95790
C          9.64280       -5.79700        1.47260
C          7.16070       -3.39510        1.36130
C          4.02130       -3.39420        1.42420
S          2.43950       -2.70110        1.74450
C          2.94850       -1.20030        1.06360
C          2.37280        0.04800        0.80730
N          1.13620        0.62690        0.90320
C          1.21600        1.88170        0.33450
C          0.23790        2.87610        0.09260
N         -1.08590        2.96970        0.48790
C         -1.64840        3.99610       -0.22740
C         -2.91750        4.55490       -0.39510
S         -4.50800        4.23270        0.18430
C         -1.65070        2.60740        1.77170
C         -1.74420        3.81940        2.69860
C         -0.01910       -0.18260        1.22350
C         -0.11470       -0.48460        2.71850
C          4.11510       -4.77240        1.71810
N          3.09880       -5.36460        2.32540
N          3.24950       -6.63080        2.49240
C          4.37100       -7.12640        2.01970
S          5.39150       -5.87790        1.29130
C          4.61070       -8.51050        2.14650
C          5.64000       -9.26280        1.66220
C          6.74620       -8.77160        0.81830
O          7.00470       -7.61790        0.52940
C          7.48440       -9.96430        0.37870
C          8.56020      -10.03940       -0.45880
C          9.10330      -11.30590       -0.76670
C         10.20870      -11.44470       -1.63090
C         10.71980      -12.67750       -1.92750
C         10.12770      -13.81270       -1.35660
F         10.64400      -15.01620       -1.66080
C          9.05560      -13.73410       -0.51160
C          8.51570      -12.47240       -0.19530
C          7.40630      -12.36100        0.67500
C          6.89670      -11.12240        0.96160
C          5.78050      -10.70390        1.80480
C          5.04200      -11.53070        2.60750
C          5.24660      -12.92440        2.70210
N          5.35730      -14.06040        2.82390
C          4.00190      -11.13230        3.47560
N          3.15610      -10.90280        4.21710
H        -10.87380        6.31410       -0.78200
H        -10.59050        0.67950        2.01750
H        -11.76870       -1.21350        2.88220
H        -13.29430       -1.53380        2.04720
H        -13.31140       -0.82230        3.65440
H        -14.87140        0.69580        2.03890
H        -14.91530        2.92360        1.04330
H         -6.01020        6.13950       -3.61510
H         -6.30820        7.89330       -5.31370
H         -4.86610        9.88750       -5.30220
H         -2.72880       10.87100       -4.57720
H         -1.90490       10.26210       -3.13450
H         -3.69020       11.25190       -1.70010
H         -2.93010       12.49070       -2.70580
H         -4.51950       11.84880       -3.13580
H         -2.82050        8.38840       -1.87590
H          6.09310       -1.89900       -1.47910
H          8.43930       -2.31320       -2.09790
H          9.95670       -3.43260       -0.51680
H          8.95890       -4.39310        2.95640
H         10.35360       -3.83890        2.02010
H          8.69750       -6.31900        1.34540
H         10.15560       -5.79080        0.51370
H         10.25350       -6.34260        2.18860
H          6.80650       -3.66240        2.34690
H         -1.01190        1.86800        2.24190
H         -2.64820        2.18620        1.61080
H         -2.42750        4.56520        2.30300
H         -2.10800        3.50280        3.67210
H         -0.76380        4.27490        2.82210
H          0.08490       -1.13250        0.68730
H         -0.91520        0.31260        0.84990
H         -0.08640        0.42250        3.31830
H         -1.04080       -1.01290        2.92550
H          0.71500       -1.11480        3.02580
H          3.81430       -9.00450        2.68990
H          8.98720       -9.14320       -0.88350
H         10.64690      -10.55570       -2.05880
H         11.56360      -12.80170       -2.58740
H          8.62570      -14.62920       -0.08980
H          6.98490      -13.26320        1.08760
