
  xtb     02102221213D
 energy: -309.830615906366 gnorm: 0.000263352728 xtb: 6.4.1 (unknown)
171188  0     0  0            999 V2000
   -1.8351  -10.4562    2.9638 C   0  0  0  0  0  0  0  0  0  0  0  0
   -1.3333  -10.2722    4.2057 C   0  0  0  0  0  0  0  0  0  0  0  0
   -0.2071   -9.3373    4.5211 C   0  0  0  0  0  0  0  0  0  0  0  0
    0.6426   -8.9221    3.7640 O   0  0  0  0  0  0  0  0  0  0  0  0
   -0.2364   -9.1818    5.9868 C   0  0  0  0  0  0  0  0  0  0  0  0
    0.4971   -8.3219    6.7767 C   0  0  0  0  0  0  0  0  0  0  0  0
    0.3181   -8.3514    8.1585 C   0  0  0  0  0  0  0  0  0  0  0  0
    1.0733   -7.4062    9.0362 C   0  0  0  0  0  0  0  0  0  0  0  0
   -0.5843   -9.2650    8.7001 C   0  0  0  0  0  0  0  0  0  0  0  0
   -1.3181  -10.1398    7.9135 C   0  0  0  0  0  0  0  0  0  0  0  0
   -1.1511  -10.0988    6.5365 C   0  0  0  0  0  0  0  0  0  0  0  0
   -1.7859  -10.8531    5.4618 C   0  0  0  0  0  0  0  0  0  0  0  0
   -2.6733  -11.8811    5.6171 C   0  0  0  0  0  0  0  0  0  0  0  0
   -3.2658  -12.6028    4.5580 C   0  0  0  0  0  0  0  0  0  0  0  0
   -3.7853  -13.2325    3.7517 N   0  0  0  0  0  0  0  0  0  0  0  0
   -3.1027  -12.3714    6.8690 C   0  0  0  0  0  0  0  0  0  0  0  0
   -3.4919  -12.8063    7.8572 N   0  0  0  0  0  0  0  0  0  0  0  0
   -1.5389   -9.5361    1.8903 C   0  0  0  0  0  0  0  0  0  0  0  0
   -1.3679   -9.9214    0.5729 C   0  0  0  0  0  0  0  0  0  0  0  0
   -1.4407  -11.2210    0.2567 F   0  0  0  0  0  0  0  0  0  0  0  0
   -1.0441   -9.0077   -0.4459 C   0  0  0  0  0  0  0  0  0  0  0  0
   -0.8514   -9.4807   -1.6852 F   0  0  0  0  0  0  0  0  0  0  0  0
   -0.8671   -7.6663   -0.1837 C   0  0  0  0  0  0  0  0  0  0  0  0
   -1.1278   -7.2282    1.1464 C   0  0  0  0  0  0  0  0  0  0  0  0
   -1.1119   -5.9199    1.4074 N   0  0  0  0  0  0  0  0  0  0  0  0
   -1.3650   -5.4699    2.6180 C   0  0  0  0  0  0  0  0  0  0  0  0
   -1.4081   -4.0316    2.6658 C   0  0  0  0  0  0  0  0  0  0  0  0
   -0.7718   -3.2638    1.2390 S   0  0  0  0  0  0  0  0  0  0  0  0
   -1.2152   -1.6964    1.8131 C   0  0  0  0  0  0  0  0  0  0  0  0
   -0.9655   -0.4616    1.0172 C   0  0  0  0  0  0  0  0  0  0  0  0
   -1.6209   -0.5473   -0.3619 C   0  0  0  0  0  0  0  0  0  0  0  0
   -1.8340   -1.8094    3.0277 C   0  0  0  0  0  0  0  0  0  0  0  0
   -1.9525   -3.1182    3.5276 C   0  0  0  0  0  0  0  0  0  0  0  0
   -2.2967   -0.7434    3.7049 F   0  0  0  0  0  0  0  0  0  0  0  0
   -1.6367   -6.3992    3.6731 C   0  0  0  0  0  0  0  0  0  0  0  0
   -1.7305   -7.6832    3.4014 N   0  0  0  0  0  0  0  0  0  0  0  0
   -1.4752   -8.1407    2.1701 C   0  0  0  0  0  0  0  0  0  0  0  0
   -1.8085   -6.0726    5.0678 C   0  0  0  0  0  0  0  0  0  0  0  0
   -1.1707   -5.1470    5.8491 C   0  0  0  0  0  0  0  0  0  0  0  0
   -1.5324   -5.2834    7.1983 C   0  0  0  0  0  0  0  0  0  0  0  0
   -1.0258   -4.4906    8.1629 F   0  0  0  0  0  0  0  0  0  0  0  0
   -2.4282   -6.2818    7.4717 C   0  0  0  0  0  0  0  0  0  0  0  0
   -2.9986   -6.6434    8.8011 C   0  0  0  0  0  0  0  0  0  0  0  0
   -4.0699   -7.7195    8.7070 C   0  0  0  0  0  0  0  0  0  0  0  0
   -2.8296   -7.1120    6.0157 S   0  0  0  0  0  0  0  0  0  0  0  0
   -0.5211   -6.6336   -1.1430 C   0  0  0  0  0  0  0  0  0  0  0  0
   -1.6496   -6.2525   -2.4279 S   0  0  0  0  0  0  0  0  0  0  0  0
   -0.8007   -4.7909   -2.7055 C   0  0  0  0  0  0  0  0  0  0  0  0
   -0.9122   -3.6486   -3.5138 C   0  0  0  0  0  0  0  0  0  0  0  0
   -1.7857   -3.3346   -4.5767 C   0  0  0  0  0  0  0  0  0  0  0  0
   -1.6157   -2.0886   -5.2692 C   0  0  0  0  0  0  0  0  0  0  0  0
   -2.4667   -1.9476   -6.2733 N   0  0  0  0  0  0  0  0  0  0  0  0
   -3.4034   -3.2669   -6.3402 S   0  0  0  0  0  0  0  0  0  0  0  0
   -2.7615   -4.0683   -5.0887 N   0  0  0  0  0  0  0  0  0  0  0  0
   -0.6661   -1.1647   -4.7815 C   0  0  0  0  0  0  0  0  0  0  0  0
   -0.4423    0.1841   -5.1020 C   0  0  0  0  0  0  0  0  0  0  0  0
   -1.0498    1.3924   -6.1832 S   0  0  0  0  0  0  0  0  0  0  0  0
   -0.0811    2.5887   -5.3526 C   0  0  0  0  0  0  0  0  0  0  0  0
    0.0430    3.9826   -5.5142 C   0  0  0  0  0  0  0  0  0  0  0  0
   -0.7914    4.7585   -6.4821 C   0  0  0  0  0  0  0  0  0  0  0  0
   -1.8701    5.5596   -5.7512 C   0  0  0  0  0  0  0  0  0  0  0  0
    0.9038    4.5098   -4.5803 C   0  0  0  0  0  0  0  0  0  0  0  0
    1.5523    3.2995   -3.4902 S   0  0  0  0  0  0  0  0  0  0  0  0
    0.6803    2.0566   -4.3117 C   0  0  0  0  0  0  0  0  0  0  0  0
    0.4792    0.6759   -4.1753 C   0  0  0  0  0  0  0  0  0  0  0  0
    0.8601   -0.3230   -3.3213 N   0  0  0  0  0  0  0  0  0  0  0  0
    0.1745   -1.4709   -3.6736 C   0  0  0  0  0  0  0  0  0  0  0  0
    0.1327   -2.7765   -3.1169 C   0  0  0  0  0  0  0  0  0  0  0  0
    0.9034   -3.4105   -2.1494 N   0  0  0  0  0  0  0  0  0  0  0  0
    0.3210   -4.6378   -1.8863 C   0  0  0  0  0  0  0  0  0  0  0  0
    0.4888   -5.7086   -0.9796 C   0  0  0  0  0  0  0  0  0  0  0  0
    1.6394   -5.9657   -0.0569 C   0  0  0  0  0  0  0  0  0  0  0  0
    2.7360   -6.7595   -0.7727 C   0  0  0  0  0  0  0  0  0  0  0  0
    2.3080   -3.1513   -1.9039 C   0  0  0  0  0  0  0  0  0  0  0  0
    2.6387   -2.6993   -0.4710 C   0  0  0  0  0  0  0  0  0  0  0  0
    1.5571    0.0073   -2.1020 C   0  0  0  0  0  0  0  0  0  0  0  0
    3.0353    0.3075   -2.3440 C   0  0  0  0  0  0  0  0  0  0  0  0
    1.2847    5.8867   -4.3389 C   0  0  0  0  0  0  0  0  0  0  0  0
    1.7139    6.7307   -5.3519 C   0  0  0  0  0  0  0  0  0  0  0  0
    1.7935    6.2363   -6.6201 O   0  0  0  0  0  0  0  0  0  0  0  0
    3.0542    6.3213   -7.2776 C   0  0  0  0  0  0  0  0  0  0  0  0
    4.0849    5.4102   -6.6215 C   0  0  0  0  0  0  0  0  0  0  0  0
    1.9909    8.1049   -5.0914 C   0  0  0  0  0  0  0  0  0  0  0  0
    2.2534    8.8699   -6.1841 O   0  0  0  0  0  0  0  0  0  0  0  0
    1.6632   10.1636   -6.2803 C   0  0  0  0  0  0  0  0  0  0  0  0
    0.1482   10.1203   -6.1348 C   0  0  0  0  0  0  0  0  0  0  0  0
    1.9637    8.6020   -3.7970 C   0  0  0  0  0  0  0  0  0  0  0  0
    1.5682    7.7373   -2.7370 C   0  0  0  0  0  0  0  0  0  0  0  0
    1.2069    6.3922   -3.0106 C   0  0  0  0  0  0  0  0  0  0  0  0
    0.7667    5.5985   -2.0230 N   0  0  0  0  0  0  0  0  0  0  0  0
    0.7130    6.0824   -0.8105 C   0  0  0  0  0  0  0  0  0  0  0  0
    1.1322    7.3915   -0.5257 C   0  0  0  0  0  0  0  0  0  0  0  0
    1.5451    8.1915   -1.4727 N   0  0  0  0  0  0  0  0  0  0  0  0
    2.4166    9.9301   -3.4307 C   0  0  0  0  0  0  0  0  0  0  0  0
    1.7765   10.6625   -2.4942 C   0  0  0  0  0  0  0  0  0  0  0  0
    0.4398   10.2958   -1.9383 C   0  0  0  0  0  0  0  0  0  0  0  0
   -0.4584    9.7161   -2.5102 O   0  0  0  0  0  0  0  0  0  0  0  0
    0.3820   10.9726   -0.6276 C   0  0  0  0  0  0  0  0  0  0  0  0
   -0.5341   10.8347    0.3736 C   0  0  0  0  0  0  0  0  0  0  0  0
   -0.3892   11.6003    1.5524 C   0  0  0  0  0  0  0  0  0  0  0  0
   -1.3015   11.4870    2.6215 C   0  0  0  0  0  0  0  0  0  0  0  0
   -1.1527   12.2333    3.7571 C   0  0  0  0  0  0  0  0  0  0  0  0
   -0.0720   13.1215    3.8484 C   0  0  0  0  0  0  0  0  0  0  0  0
    0.0584   13.8460    4.9745 F   0  0  0  0  0  0  0  0  0  0  0  0
    0.8411   13.2704    2.8423 C   0  0  0  0  0  0  0  0  0  0  0  0
    0.7033   12.5095    1.6644 C   0  0  0  0  0  0  0  0  0  0  0  0
    1.6310   12.6413    0.6061 C   0  0  0  0  0  0  0  0  0  0  0  0
    1.4743   11.8819   -0.5236 C   0  0  0  0  0  0  0  0  0  0  0  0
    2.2743   11.8000   -1.7403 C   0  0  0  0  0  0  0  0  0  0  0  0
    3.2766   12.6489   -2.1191 C   0  0  0  0  0  0  0  0  0  0  0  0
    3.9332   12.5589   -3.3648 C   0  0  0  0  0  0  0  0  0  0  0  0
    4.4701   12.5297   -4.3789 N   0  0  0  0  0  0  0  0  0  0  0  0
    3.7274   13.7376   -1.3441 C   0  0  0  0  0  0  0  0  0  0  0  0
    4.1320   14.6311   -0.7483 N   0  0  0  0  0  0  0  0  0  0  0  0
   -2.5312  -11.2553    2.7472 H   0  0  0  0  0  0  0  0  0  0  0  0
    1.1936   -7.6341    6.3207 H   0  0  0  0  0  0  0  0  0  0  0  0
    2.0983   -7.2962    8.6892 H   0  0  0  0  0  0  0  0  0  0  0  0
    1.0823   -7.7489   10.0677 H   0  0  0  0  0  0  0  0  0  0  0  0
    0.6099   -6.4195    9.0098 H   0  0  0  0  0  0  0  0  0  0  0  0
   -0.7140   -9.2989    9.7724 H   0  0  0  0  0  0  0  0  0  0  0  0
   -1.9987  -10.8339    8.3793 H   0  0  0  0  0  0  0  0  0  0  0  0
    0.1123   -0.3157    0.8985 H   0  0  0  0  0  0  0  0  0  0  0  0
   -1.3639    0.3923    1.5686 H   0  0  0  0  0  0  0  0  0  0  0  0
   -2.6969   -0.6645   -0.2615 H   0  0  0  0  0  0  0  0  0  0  0  0
   -1.4260    0.3582   -0.9304 H   0  0  0  0  0  0  0  0  0  0  0  0
   -1.2356   -1.4006   -0.9159 H   0  0  0  0  0  0  0  0  0  0  0  0
   -2.4427   -3.3512    4.4538 H   0  0  0  0  0  0  0  0  0  0  0  0
   -0.4573   -4.4274    5.4929 H   0  0  0  0  0  0  0  0  0  0  0  0
   -3.4118   -5.7403    9.2611 H   0  0  0  0  0  0  0  0  0  0  0  0
   -2.1856   -6.9875    9.4484 H   0  0  0  0  0  0  0  0  0  0  0  0
   -4.4569   -7.9521    9.6952 H   0  0  0  0  0  0  0  0  0  0  0  0
   -4.8940   -7.3842    8.0820 H   0  0  0  0  0  0  0  0  0  0  0  0
   -3.6573   -8.6280    8.2734 H   0  0  0  0  0  0  0  0  0  0  0  0
   -1.2640    4.0516   -7.1671 H   0  0  0  0  0  0  0  0  0  0  0  0
   -0.1622    5.4363   -7.0574 H   0  0  0  0  0  0  0  0  0  0  0  0
   -1.4188    6.2805   -5.0729 H   0  0  0  0  0  0  0  0  0  0  0  0
   -2.4865    6.0966   -6.4677 H   0  0  0  0  0  0  0  0  0  0  0  0
   -2.5102    4.8961   -5.1735 H   0  0  0  0  0  0  0  0  0  0  0  0
    1.3001   -6.5497    0.7982 H   0  0  0  0  0  0  0  0  0  0  0  0
    2.0356   -5.0265    0.3174 H   0  0  0  0  0  0  0  0  0  0  0  0
    3.1009   -6.2290   -1.6498 H   0  0  0  0  0  0  0  0  0  0  0  0
    2.3486   -7.7217   -1.0989 H   0  0  0  0  0  0  0  0  0  0  0  0
    3.5723   -6.9348   -0.1004 H   0  0  0  0  0  0  0  0  0  0  0  0
    2.6315   -2.4078   -2.6320 H   0  0  0  0  0  0  0  0  0  0  0  0
    2.8532   -4.0736   -2.1250 H   0  0  0  0  0  0  0  0  0  0  0  0
    1.7324   -2.6536    0.1294 H   0  0  0  0  0  0  0  0  0  0  0  0
    3.1171   -1.7244   -0.4602 H   0  0  0  0  0  0  0  0  0  0  0  0
    3.3266   -3.3940    0.0025 H   0  0  0  0  0  0  0  0  0  0  0  0
    1.0925    0.9109   -1.6899 H   0  0  0  0  0  0  0  0  0  0  0  0
    1.4140   -0.8026   -1.3920 H   0  0  0  0  0  0  0  0  0  0  0  0
    3.5113    0.5888   -1.4085 H   0  0  0  0  0  0  0  0  0  0  0  0
    3.5607   -0.5474   -2.7627 H   0  0  0  0  0  0  0  0  0  0  0  0
    3.1345    1.1388   -3.0363 H   0  0  0  0  0  0  0  0  0  0  0  0
    2.8433    5.9903   -8.2969 H   0  0  0  0  0  0  0  0  0  0  0  0
    3.4126    7.3540   -7.3009 H   0  0  0  0  0  0  0  0  0  0  0  0
    3.7110    4.3896   -6.5814 H   0  0  0  0  0  0  0  0  0  0  0  0
    4.2954    5.7431   -5.6065 H   0  0  0  0  0  0  0  0  0  0  0  0
    5.0073    5.4280   -7.1947 H   0  0  0  0  0  0  0  0  0  0  0  0
    1.9462   10.4954   -7.2823 H   0  0  0  0  0  0  0  0  0  0  0  0
    2.0982   10.8534   -5.5496 H   0  0  0  0  0  0  0  0  0  0  0  0
   -0.2622   11.1021   -6.3532 H   0  0  0  0  0  0  0  0  0  0  0  0
   -0.2742    9.3982   -6.8302 H   0  0  0  0  0  0  0  0  0  0  0  0
   -0.1395    9.8402   -5.1231 H   0  0  0  0  0  0  0  0  0  0  0  0
    0.3405    5.4232   -0.0391 H   0  0  0  0  0  0  0  0  0  0  0  0
    1.1295    7.7905    0.4797 H   0  0  0  0  0  0  0  0  0  0  0  0
    3.3825   10.2352   -3.8134 H   0  0  0  0  0  0  0  0  0  0  0  0
   -1.3585   10.1448    0.2714 H   0  0  0  0  0  0  0  0  0  0  0  0
   -2.1269   10.7974    2.5275 H   0  0  0  0  0  0  0  0  0  0  0  0
   -1.8422   12.1590    4.5831 H   0  0  0  0  0  0  0  0  0  0  0  0
    1.6597   13.9654    2.9461 H   0  0  0  0  0  0  0  0  0  0  0  0
    2.4497   13.3347    0.7181 H   0  0  0  0  0  0  0  0  0  0  0  0
  1  2  2  0  0  0  0
  2  3  1  0  0  0  0
  3  4  2  0  0  0  0
  3  5  1  0  0  0  0
  5  6  2  0  0  0  0
  6  7  1  0  0  0  0
  7  8  1  0  0  0  0
  7  9  2  0  0  0  0
  9 10  1  0  0  0  0
 10 11  2  0  0  0  0
 11 12  1  0  0  0  0
 12 13  2  0  0  0  0
 13 14  1  0  0  0  0
 14 15  3  0  0  0  0
 13 16  1  0  0  0  0
 16 17  3  0  0  0  0
  1 18  1  0  0  0  0
 18 19  2  0  0  0  0
 19 20  1  0  0  0  0
 19 21  1  0  0  0  0
 21 22  1  0  0  0  0
 21 23  2  0  0  0  0
 23 24  1  0  0  0  0
 24 25  2  0  0  0  0
 25 26  1  0  0  0  0
 26 27  1  0  0  0  0
 27 28  1  0  0  0  0
 28 29  1  0  0  0  0
 29 30  1  0  0  0  0
 30 31  1  0  0  0  0
 29 32  2  0  0  0  0
 32 33  1  0  0  0  0
 32 34  1  0  0  0  0
 26 35  2  0  0  0  0
 35 36  1  0  0  0  0
 36 37  2  0  0  0  0
 35 38  1  0  0  0  0
 38 39  2  0  0  0  0
 39 40  1  0  0  0  0
 40 41  1  0  0  0  0
 40 42  2  0  0  0  0
 42 43  1  0  0  0  0
 43 44  1  0  0  0  0
 42 45  1  0  0  0  0
 23 46  1  0  0  0  0
 46 47  1  0  0  0  0
 47 48  1  0  0  0  0
 48 49  1  0  0  0  0
 49 50  1  0  0  0  0
 50 51  1  0  0  0  0
 51 52  2  0  0  0  0
 52 53  1  0  0  0  0
 53 54  1  0  0  0  0
 51 55  1  0  0  0  0
 55 56  1  0  0  0  0
 56 57  1  0  0  0  0
 57 58  1  0  0  0  0
 58 59  1  0  0  0  0
 59 60  1  0  0  0  0
 60 61  1  0  0  0  0
 59 62  2  0  0  0  0
 62 63  1  0  0  0  0
 63 64  1  0  0  0  0
 64 65  1  0  0  0  0
 65 66  1  0  0  0  0
 66 67  1  0  0  0  0
 67 68  1  0  0  0  0
 68 69  1  0  0  0  0
 69 70  1  0  0  0  0
 70 71  1  0  0  0  0
 71 72  1  0  0  0  0
 72 73  1  0  0  0  0
 69 74  1  0  0  0  0
 74 75  1  0  0  0  0
 66 76  1  0  0  0  0
 76 77  1  0  0  0  0
 62 78  1  0  0  0  0
 78 79  2  0  0  0  0
 79 80  1  0  0  0  0
 80 81  1  0  0  0  0
 81 82  1  0  0  0  0
 79 83  1  0  0  0  0
 83 84  1  0  0  0  0
 84 85  1  0  0  0  0
 85 86  1  0  0  0  0
 83 87  2  0  0  0  0
 87 88  1  0  0  0  0
 88 89  2  0  0  0  0
 89 90  1  0  0  0  0
 90 91  2  0  0  0  0
 91 92  1  0  0  0  0
 92 93  2  0  0  0  0
 87 94  1  0  0  0  0
 94 95  2  0  0  0  0
 95 96  1  0  0  0  0
 96 97  2  0  0  0  0
 96 98  1  0  0  0  0
 98 99  2  0  0  0  0
 99100  1  0  0  0  0
100101  2  0  0  0  0
101102  1  0  0  0  0
102103  2  0  0  0  0
103104  1  0  0  0  0
103105  1  0  0  0  0
105106  2  0  0  0  0
106107  1  0  0  0  0
107108  2  0  0  0  0
108109  1  0  0  0  0
109110  2  0  0  0  0
110111  1  0  0  0  0
111112  3  0  0  0  0
110113  1  0  0  0  0
113114  3  0  0  0  0
 12  2  1  0  0  0  0
 37 18  1  0  0  0  0
 45 38  1  0  0  0  0
 71 46  2  0  0  0  0
 89 78  1  0  0  0  0
109 95  1  0  0  0  0
 11  5  1  0  0  0  0
 37 24  1  0  0  0  0
 70 48  2  0  0  0  0
 93 88  1  0  0  0  0
108 98  1  0  0  0  0
 33 27  2  0  0  0  0
 68 49  2  0  0  0  0
106100  1  0  0  0  0
 54 50  2  0  0  0  0
 67 55  2  0  0  0  0
 65 56  2  0  0  0  0
 64 58  2  0  0  0  0
  1115  1  0  0  0  0
  6116  1  0  0  0  0
  8117  1  0  0  0  0
  8118  1  0  0  0  0
  8119  1  0  0  0  0
  9120  1  0  0  0  0
 10121  1  0  0  0  0
 30122  1  0  0  0  0
 30123  1  0  0  0  0
 31124  1  0  0  0  0
 31125  1  0  0  0  0
 31126  1  0  0  0  0
 33127  1  0  0  0  0
 39128  1  0  0  0  0
 43129  1  0  0  0  0
 43130  1  0  0  0  0
 44131  1  0  0  0  0
 44132  1  0  0  0  0
 44133  1  0  0  0  0
 60134  1  0  0  0  0
 60135  1  0  0  0  0
 61136  1  0  0  0  0
 61137  1  0  0  0  0
 61138  1  0  0  0  0
 72139  1  0  0  0  0
 72140  1  0  0  0  0
 73141  1  0  0  0  0
 73142  1  0  0  0  0
 73143  1  0  0  0  0
 74144  1  0  0  0  0
 74145  1  0  0  0  0
 75146  1  0  0  0  0
 75147  1  0  0  0  0
 75148  1  0  0  0  0
 76149  1  0  0  0  0
 76150  1  0  0  0  0
 77151  1  0  0  0  0
 77152  1  0  0  0  0
 77153  1  0  0  0  0
 81154  1  0  0  0  0
 81155  1  0  0  0  0
 82156  1  0  0  0  0
 82157  1  0  0  0  0
 82158  1  0  0  0  0
 85159  1  0  0  0  0
 85160  1  0  0  0  0
 86161  1  0  0  0  0
 86162  1  0  0  0  0
 86163  1  0  0  0  0
 91164  1  0  0  0  0
 92165  1  0  0  0  0
 94166  1  0  0  0  0
 99167  1  0  0  0  0
101168  1  0  0  0  0
102169  1  0  0  0  0
105170  1  0  0  0  0
107171  1  0  0  0  0
M  END
