
  xtb     02042221173D
 energy: -269.183852251115 gnorm: 0.000562529076 xtb: 6.4.1 (unknown)
161174  0     0  0            999 V2000
   -1.0857  -11.1707    4.5718 C   0  0  0  0  0  0  0  0  0  0  0  0
   -2.0913  -11.8975    5.1042 C   0  0  0  0  0  0  0  0  0  0  0  0
   -1.8592  -13.2312    5.4968 C   0  0  0  0  0  0  0  0  0  0  0  0
   -1.6555  -14.3229    5.7840 N   0  0  0  0  0  0  0  0  0  0  0  0
   -3.5030  -11.4224    5.2417 C   0  0  0  0  0  0  0  0  0  0  0  0
   -4.2498  -11.7125    6.1378 O   0  0  0  0  0  0  0  0  0  0  0  0
   -3.8731  -10.7558    4.1276 O   0  0  0  0  0  0  0  0  0  0  0  0
   -5.2132  -10.2705    4.0986 C   0  0  0  0  0  0  0  0  0  0  0  0
   -6.1944  -11.3522    3.6705 C   0  0  0  0  0  0  0  0  0  0  0  0
   -1.1325   -9.7599    4.2621 C   0  0  0  0  0  0  0  0  0  0  0  0
   -0.3663   -9.2076    3.2370 C   0  0  0  0  0  0  0  0  0  0  0  0
    0.3388   -9.9861    2.3672 O   0  0  0  0  0  0  0  0  0  0  0  0
   -0.2943  -11.0942    1.7278 C   0  0  0  0  0  0  0  0  0  0  0  0
    0.6640  -12.2729    1.6674 C   0  0  0  0  0  0  0  0  0  0  0  0
   -0.2336   -7.7990    3.1077 C   0  0  0  0  0  0  0  0  0  0  0  0
    0.5805   -7.1875    2.2050 O   0  0  0  0  0  0  0  0  0  0  0  0
    0.6853   -7.6486    0.8660 C   0  0  0  0  0  0  0  0  0  0  0  0
   -0.6616   -7.6613    0.1538 C   0  0  0  0  0  0  0  0  0  0  0  0
   -0.8762   -6.9381    4.0028 C   0  0  0  0  0  0  0  0  0  0  0  0
   -1.7957   -7.4875    4.9375 C   0  0  0  0  0  0  0  0  0  0  0  0
   -1.8738   -8.8926    5.1055 C   0  0  0  0  0  0  0  0  0  0  0  0
   -2.6147   -9.4040    6.1005 N   0  0  0  0  0  0  0  0  0  0  0  0
   -3.3486   -8.5977    6.8176 C   0  0  0  0  0  0  0  0  0  0  0  0
   -3.4138   -7.2250    6.5156 C   0  0  0  0  0  0  0  0  0  0  0  0
   -2.6334   -6.6874    5.6172 N   0  0  0  0  0  0  0  0  0  0  0  0
   -0.6638   -5.5158    3.9572 C   0  0  0  0  0  0  0  0  0  0  0  0
   -0.7254   -4.6169    5.0080 C   0  0  0  0  0  0  0  0  0  0  0  0
   -0.8221   -4.9826    6.4211 C   0  0  0  0  0  0  0  0  0  0  0  0
   -1.6325   -4.2533    7.2855 C   0  0  0  0  0  0  0  0  0  0  0  0
   -1.7294   -4.6217    8.6139 C   0  0  0  0  0  0  0  0  0  0  0  0
   -1.0234   -5.7112    9.0917 C   0  0  0  0  0  0  0  0  0  0  0  0
   -0.1896   -6.4362    8.2483 C   0  0  0  0  0  0  0  0  0  0  0  0
    0.6143   -7.5929    8.7701 C   0  0  0  0  0  0  0  0  0  0  0  0
    1.9740   -7.1149    9.2826 C   0  0  0  0  0  0  0  0  0  0  0  0
   -0.0832   -6.0514    6.9222 C   0  0  0  0  0  0  0  0  0  0  0  0
   -0.5784   -3.2906    4.5557 C   0  0  0  0  0  0  0  0  0  0  0  0
   -0.5496   -1.7520    5.3862 S   0  0  0  0  0  0  0  0  0  0  0  0
   -0.2765   -0.9659    3.8685 C   0  0  0  0  0  0  0  0  0  0  0  0
   -0.0583    0.3245    3.3612 C   0  0  0  0  0  0  0  0  0  0  0  0
    0.0866    1.5623    4.0236 C   0  0  0  0  0  0  0  0  0  0  0  0
    0.4338    2.7216    3.2546 C   0  0  0  0  0  0  0  0  0  0  0  0
    0.5896    3.8006    4.0060 N   0  0  0  0  0  0  0  0  0  0  0  0
    0.3164    3.3923    5.5494 S   0  0  0  0  0  0  0  0  0  0  0  0
   -0.0087    1.8229    5.3181 N   0  0  0  0  0  0  0  0  0  0  0  0
    0.5205    2.6065    1.8509 C   0  0  0  0  0  0  0  0  0  0  0  0
    0.7341    3.5802    0.8629 C   0  0  0  0  0  0  0  0  0  0  0  0
    1.0654    5.2751    0.7414 S   0  0  0  0  0  0  0  0  0  0  0  0
    1.0343    5.1268   -1.0009 C   0  0  0  0  0  0  0  0  0  0  0  0
    1.1901    6.0645   -2.0405 C   0  0  0  0  0  0  0  0  0  0  0  0
    1.3619    7.5040   -1.8258 C   0  0  0  0  0  0  0  0  0  0  0  0
    2.2707    7.9735   -0.8829 C   0  0  0  0  0  0  0  0  0  0  0  0
    2.4433    9.3337   -0.7081 C   0  0  0  0  0  0  0  0  0  0  0  0
    1.7133   10.2332   -1.4634 C   0  0  0  0  0  0  0  0  0  0  0  0
    0.7823    9.7821   -2.3924 C   0  0  0  0  0  0  0  0  0  0  0  0
   -0.0522   10.7552   -3.1761 C   0  0  0  0  0  0  0  0  0  0  0  0
   -1.3321   11.0967   -2.4112 C   0  0  0  0  0  0  0  0  0  0  0  0
    0.6071    8.4174   -2.5559 C   0  0  0  0  0  0  0  0  0  0  0  0
    1.0806    5.4579   -3.2802 C   0  0  0  0  0  0  0  0  0  0  0  0
    0.7010    3.7559   -3.1730 S   0  0  0  0  0  0  0  0  0  0  0  0
    0.7808    3.8281   -1.4460 C   0  0  0  0  0  0  0  0  0  0  0  0
    0.6065    2.9433   -0.3716 C   0  0  0  0  0  0  0  0  0  0  0  0
    0.3490    1.6109   -0.1885 N   0  0  0  0  0  0  0  0  0  0  0  0
    0.2967    1.3723    1.1769 C   0  0  0  0  0  0  0  0  0  0  0  0
    0.1028    0.1970    1.9520 C   0  0  0  0  0  0  0  0  0  0  0  0
    0.0088   -1.1479    1.6274 N   0  0  0  0  0  0  0  0  0  0  0  0
   -0.2114   -1.8444    2.7859 C   0  0  0  0  0  0  0  0  0  0  0  0
   -0.3808   -3.1788    3.1784 C   0  0  0  0  0  0  0  0  0  0  0  0
   -0.3458   -4.7323    2.4240 S   0  0  0  0  0  0  0  0  0  0  0  0
    0.4563   -1.8589    0.4517 C   0  0  0  0  0  0  0  0  0  0  0  0
    1.9379   -1.6116    0.1773 C   0  0  0  0  0  0  0  0  0  0  0  0
   -0.1728    0.8371   -1.2922 C   0  0  0  0  0  0  0  0  0  0  0  0
   -1.6589    0.5366   -1.1119 C   0  0  0  0  0  0  0  0  0  0  0  0
    1.2051    6.0876   -4.5708 C   0  0  0  0  0  0  0  0  0  0  0  0
    2.1063    7.1208   -4.8182 C   0  0  0  0  0  0  0  0  0  0  0  0
    3.1521    7.4063   -3.9885 O   0  0  0  0  0  0  0  0  0  0  0  0
    3.9265    6.3217   -3.4889 C   0  0  0  0  0  0  0  0  0  0  0  0
    5.3865    6.7494   -3.4997 C   0  0  0  0  0  0  0  0  0  0  0  0
    1.9895    7.9084   -5.9985 C   0  0  0  0  0  0  0  0  0  0  0  0
    2.7187    9.0110   -6.2443 O   0  0  0  0  0  0  0  0  0  0  0  0
    3.2907    9.7833   -5.1937 C   0  0  0  0  0  0  0  0  0  0  0  0
    3.3234   11.2300   -5.6646 C   0  0  0  0  0  0  0  0  0  0  0  0
    1.1439    7.5055   -7.0344 C   0  0  0  0  0  0  0  0  0  0  0  0
    0.3366    6.3523   -6.8644 C   0  0  0  0  0  0  0  0  0  0  0  0
    0.3554    5.6535   -5.6288 C   0  0  0  0  0  0  0  0  0  0  0  0
   -0.4117    4.5701   -5.4477 N   0  0  0  0  0  0  0  0  0  0  0  0
   -1.1786    4.1818   -6.4349 C   0  0  0  0  0  0  0  0  0  0  0  0
   -1.2469    4.9086   -7.6331 C   0  0  0  0  0  0  0  0  0  0  0  0
   -0.5076    5.9688   -7.8357 N   0  0  0  0  0  0  0  0  0  0  0  0
    1.0840    8.2844   -8.2462 C   0  0  0  0  0  0  0  0  0  0  0  0
    0.8594    7.7803   -9.4769 C   0  0  0  0  0  0  0  0  0  0  0  0
    0.7054    8.6280  -10.5907 C   0  0  0  0  0  0  0  0  0  0  0  0
    0.5869    9.3107  -11.5057 N   0  0  0  0  0  0  0  0  0  0  0  0
    0.8780    6.3175   -9.7961 C   0  0  0  0  0  0  0  0  0  0  0  0
    1.7022    5.5454   -9.3705 O   0  0  0  0  0  0  0  0  0  0  0  0
   -0.0436    6.0215  -10.7130 O   0  0  0  0  0  0  0  0  0  0  0  0
   -0.0619    4.6826  -11.2024 C   0  0  0  0  0  0  0  0  0  0  0  0
    0.9503    4.4929  -12.3234 C   0  0  0  0  0  0  0  0  0  0  0  0
   -0.1214  -11.6490    4.4390 H   0  0  0  0  0  0  0  0  0  0  0  0
   -5.4748   -9.8957    5.0942 H   0  0  0  0  0  0  0  0  0  0  0  0
   -5.1990   -9.4425    3.3852 H   0  0  0  0  0  0  0  0  0  0  0  0
   -7.1935  -10.9313    3.6034 H   0  0  0  0  0  0  0  0  0  0  0  0
   -5.9114  -11.7562    2.7012 H   0  0  0  0  0  0  0  0  0  0  0  0
   -6.1981  -12.1563    4.4020 H   0  0  0  0  0  0  0  0  0  0  0  0
   -0.5486  -10.7781    0.7058 H   0  0  0  0  0  0  0  0  0  0  0  0
   -1.2183  -11.3666    2.2462 H   0  0  0  0  0  0  0  0  0  0  0  0
    0.2127  -13.0779    1.0947 H   0  0  0  0  0  0  0  0  0  0  0  0
    0.8952  -12.6415    2.6633 H   0  0  0  0  0  0  0  0  0  0  0  0
    1.5912  -11.9713    1.1870 H   0  0  0  0  0  0  0  0  0  0  0  0
    1.3505   -6.9163    0.4007 H   0  0  0  0  0  0  0  0  0  0  0  0
    1.1591   -8.6329    0.8303 H   0  0  0  0  0  0  0  0  0  0  0  0
   -1.1080   -6.6699    0.1875 H   0  0  0  0  0  0  0  0  0  0  0  0
   -1.3443   -8.3617    0.6312 H   0  0  0  0  0  0  0  0  0  0  0  0
   -0.5257   -7.9548   -0.8834 H   0  0  0  0  0  0  0  0  0  0  0  0
   -3.9119   -9.0463    7.6237 H   0  0  0  0  0  0  0  0  0  0  0  0
   -4.1011   -6.5610    7.0201 H   0  0  0  0  0  0  0  0  0  0  0  0
   -2.2057   -3.4207    6.9084 H   0  0  0  0  0  0  0  0  0  0  0  0
   -2.3670   -4.0596    9.2805 H   0  0  0  0  0  0  0  0  0  0  0  0
   -1.1166   -6.0038   10.1278 H   0  0  0  0  0  0  0  0  0  0  0  0
    0.7647   -8.3263    7.9743 H   0  0  0  0  0  0  0  0  0  0  0  0
    0.0732   -8.0808    9.5834 H   0  0  0  0  0  0  0  0  0  0  0  0
    2.5547   -7.9533    9.6599 H   0  0  0  0  0  0  0  0  0  0  0  0
    2.5325   -6.6363    8.4812 H   0  0  0  0  0  0  0  0  0  0  0  0
    1.8421   -6.3929   10.0853 H   0  0  0  0  0  0  0  0  0  0  0  0
    0.5749   -6.5980    6.2602 H   0  0  0  0  0  0  0  0  0  0  0  0
    2.8509    7.2741   -0.2995 H   0  0  0  0  0  0  0  0  0  0  0  0
    3.1564    9.6938    0.0186 H   0  0  0  0  0  0  0  0  0  0  0  0
    1.8620   11.2954   -1.3317 H   0  0  0  0  0  0  0  0  0  0  0  0
   -0.3157   10.3228   -4.1444 H   0  0  0  0  0  0  0  0  0  0  0  0
    0.5163   11.6710   -3.3524 H   0  0  0  0  0  0  0  0  0  0  0  0
   -1.9194   10.1979   -2.2371 H   0  0  0  0  0  0  0  0  0  0  0  0
   -1.0896   11.5379   -1.4470 H   0  0  0  0  0  0  0  0  0  0  0  0
   -1.9363   11.8032   -2.9755 H   0  0  0  0  0  0  0  0  0  0  0  0
   -0.1260    8.0553   -3.2637 H   0  0  0  0  0  0  0  0  0  0  0  0
   -0.1603   -1.6050   -0.4110 H   0  0  0  0  0  0  0  0  0  0  0  0
    0.3011   -2.9210    0.6572 H   0  0  0  0  0  0  0  0  0  0  0  0
    2.1423   -0.5516    0.0467 H   0  0  0  0  0  0  0  0  0  0  0  0
    2.2443   -2.1433   -0.7196 H   0  0  0  0  0  0  0  0  0  0  0  0
    2.5330   -1.9707    1.0137 H   0  0  0  0  0  0  0  0  0  0  0  0
    0.4079   -0.0748   -1.4336 H   0  0  0  0  0  0  0  0  0  0  0  0
   -0.0357    1.4474   -2.1883 H   0  0  0  0  0  0  0  0  0  0  0  0
   -2.2214    1.4665   -1.0735 H   0  0  0  0  0  0  0  0  0  0  0  0
   -2.0228   -0.0539   -1.9485 H   0  0  0  0  0  0  0  0  0  0  0  0
   -1.8418   -0.0081   -0.1885 H   0  0  0  0  0  0  0  0  0  0  0  0
    3.6163    6.0827   -2.4656 H   0  0  0  0  0  0  0  0  0  0  0  0
    3.7771    5.4347   -4.1156 H   0  0  0  0  0  0  0  0  0  0  0  0
    5.7132    6.9577   -4.5151 H   0  0  0  0  0  0  0  0  0  0  0  0
    5.5069    7.6474   -2.9002 H   0  0  0  0  0  0  0  0  0  0  0  0
    6.0029    5.9576   -3.0840 H   0  0  0  0  0  0  0  0  0  0  0  0
    4.3057    9.4262   -4.9903 H   0  0  0  0  0  0  0  0  0  0  0  0
    2.6974    9.6903   -4.2801 H   0  0  0  0  0  0  0  0  0  0  0  0
    3.8867   11.3084   -6.5904 H   0  0  0  0  0  0  0  0  0  0  0  0
    3.7947   11.8489   -4.9068 H   0  0  0  0  0  0  0  0  0  0  0  0
    2.3138   11.5919   -5.8411 H   0  0  0  0  0  0  0  0  0  0  0  0
   -1.7697    3.2917   -6.2709 H   0  0  0  0  0  0  0  0  0  0  0  0
   -1.9237    4.6316   -8.4299 H   0  0  0  0  0  0  0  0  0  0  0  0
    1.2245    9.3521   -8.1307 H   0  0  0  0  0  0  0  0  0  0  0  0
   -1.0810    4.5250  -11.5622 H   0  0  0  0  0  0  0  0  0  0  0  0
    0.1549    3.9981  -10.3750 H   0  0  0  0  0  0  0  0  0  0  0  0
    1.9579    4.6339  -11.9398 H   0  0  0  0  0  0  0  0  0  0  0  0
    0.8644    3.4890  -12.7298 H   0  0  0  0  0  0  0  0  0  0  0  0
    0.7699    5.2165  -13.1146 H   0  0  0  0  0  0  0  0  0  0  0  0
  1  2  2  0  0  0  0
  2  3  1  0  0  0  0
  3  4  3  0  0  0  0
  2  5  1  0  0  0  0
  5  6  2  0  0  0  0
  5  7  1  0  0  0  0
  7  8  1  0  0  0  0
  8  9  1  0  0  0  0
  1 10  1  0  0  0  0
 10 11  2  0  0  0  0
 11 12  1  0  0  0  0
 12 13  1  0  0  0  0
 13 14  1  0  0  0  0
 11 15  1  0  0  0  0
 15 16  1  0  0  0  0
 16 17  1  0  0  0  0
 17 18  1  0  0  0  0
 15 19  2  0  0  0  0
 19 20  1  0  0  0  0
 20 21  2  0  0  0  0
 21 22  1  0  0  0  0
 22 23  2  0  0  0  0
 23 24  1  0  0  0  0
 24 25  2  0  0  0  0
 19 26  1  0  0  0  0
 26 27  2  0  0  0  0
 27 28  1  0  0  0  0
 28 29  2  0  0  0  0
 29 30  1  0  0  0  0
 30 31  2  0  0  0  0
 31 32  1  0  0  0  0
 32 33  1  0  0  0  0
 33 34  1  0  0  0  0
 32 35  2  0  0  0  0
 27 36  1  0  0  0  0
 36 37  1  0  0  0  0
 37 38  1  0  0  0  0
 38 39  1  0  0  0  0
 39 40  1  0  0  0  0
 40 41  1  0  0  0  0
 41 42  2  0  0  0  0
 42 43  1  0  0  0  0
 43 44  1  0  0  0  0
 41 45  1  0  0  0  0
 45 46  1  0  0  0  0
 46 47  1  0  0  0  0
 47 48  1  0  0  0  0
 48 49  1  0  0  0  0
 49 50  1  0  0  0  0
 50 51  2  0  0  0  0
 51 52  1  0  0  0  0
 52 53  2  0  0  0  0
 53 54  1  0  0  0  0
 54 55  1  0  0  0  0
 55 56  1  0  0  0  0
 54 57  2  0  0  0  0
 49 58  2  0  0  0  0
 58 59  1  0  0  0  0
 59 60  1  0  0  0  0
 60 61  1  0  0  0  0
 61 62  1  0  0  0  0
 62 63  1  0  0  0  0
 63 64  1  0  0  0  0
 64 65  1  0  0  0  0
 65 66  1  0  0  0  0
 66 67  1  0  0  0  0
 67 68  1  0  0  0  0
 65 69  1  0  0  0  0
 69 70  1  0  0  0  0
 62 71  1  0  0  0  0
 71 72  1  0  0  0  0
 58 73  1  0  0  0  0
 73 74  2  0  0  0  0
 74 75  1  0  0  0  0
 75 76  1  0  0  0  0
 76 77  1  0  0  0  0
 74 78  1  0  0  0  0
 78 79  1  0  0  0  0
 79 80  1  0  0  0  0
 80 81  1  0  0  0  0
 78 82  2  0  0  0  0
 82 83  1  0  0  0  0
 83 84  2  0  0  0  0
 84 85  1  0  0  0  0
 85 86  2  0  0  0  0
 86 87  1  0  0  0  0
 87 88  2  0  0  0  0
 82 89  1  0  0  0  0
 89 90  2  0  0  0  0
 90 91  1  0  0  0  0
 91 92  3  0  0  0  0
 90 93  1  0  0  0  0
 93 94  2  0  0  0  0
 93 95  1  0  0  0  0
 95 96  1  0  0  0  0
 96 97  1  0  0  0  0
 21 10  1  0  0  0  0
 68 26  1  0  0  0  0
 84 73  1  0  0  0  0
 25 20  1  0  0  0  0
 35 28  1  0  0  0  0
 67 36  2  0  0  0  0
 88 83  1  0  0  0  0
 66 38  2  0  0  0  0
 64 39  2  0  0  0  0
 44 40  2  0  0  0  0
 63 45  2  0  0  0  0
 61 46  2  0  0  0  0
 60 48  2  0  0  0  0
 57 50  1  0  0  0  0
  1 98  1  0  0  0  0
  8 99  1  0  0  0  0
  8100  1  0  0  0  0
  9101  1  0  0  0  0
  9102  1  0  0  0  0
  9103  1  0  0  0  0
 13104  1  0  0  0  0
 13105  1  0  0  0  0
 14106  1  0  0  0  0
 14107  1  0  0  0  0
 14108  1  0  0  0  0
 17109  1  0  0  0  0
 17110  1  0  0  0  0
 18111  1  0  0  0  0
 18112  1  0  0  0  0
 18113  1  0  0  0  0
 23114  1  0  0  0  0
 24115  1  0  0  0  0
 29116  1  0  0  0  0
 30117  1  0  0  0  0
 31118  1  0  0  0  0
 33119  1  0  0  0  0
 33120  1  0  0  0  0
 34121  1  0  0  0  0
 34122  1  0  0  0  0
 34123  1  0  0  0  0
 35124  1  0  0  0  0
 51125  1  0  0  0  0
 52126  1  0  0  0  0
 53127  1  0  0  0  0
 55128  1  0  0  0  0
 55129  1  0  0  0  0
 56130  1  0  0  0  0
 56131  1  0  0  0  0
 56132  1  0  0  0  0
 57133  1  0  0  0  0
 69134  1  0  0  0  0
 69135  1  0  0  0  0
 70136  1  0  0  0  0
 70137  1  0  0  0  0
 70138  1  0  0  0  0
 71139  1  0  0  0  0
 71140  1  0  0  0  0
 72141  1  0  0  0  0
 72142  1  0  0  0  0
 72143  1  0  0  0  0
 76144  1  0  0  0  0
 76145  1  0  0  0  0
 77146  1  0  0  0  0
 77147  1  0  0  0  0
 77148  1  0  0  0  0
 80149  1  0  0  0  0
 80150  1  0  0  0  0
 81151  1  0  0  0  0
 81152  1  0  0  0  0
 81153  1  0  0  0  0
 86154  1  0  0  0  0
 87155  1  0  0  0  0
 89156  1  0  0  0  0
 96157  1  0  0  0  0
 96158  1  0  0  0  0
 97159  1  0  0  0  0
 97160  1  0  0  0  0
 97161  1  0  0  0  0
M  END
