
  xtb     02222213263D
 energy: -291.951703692325 gnorm: 0.000598661173 xtb: 6.4.1 (unknown)
181197  0     0  0            999 V2000
   -2.5327   -5.8933   -6.9246 C   0  0  0  0  0  0  0  0  0  0  0  0
   -2.0470   -7.1630   -7.0751 C   0  0  0  0  0  0  0  0  0  0  0  0
   -0.7296   -7.5494   -6.7716 C   0  0  0  0  0  0  0  0  0  0  0  0
    0.3457   -7.8858   -6.5445 N   0  0  0  0  0  0  0  0  0  0  0  0
   -2.9209   -8.2268   -7.6092 C   0  0  0  0  0  0  0  0  0  0  0  0
   -2.5511   -9.3187   -7.9651 O   0  0  0  0  0  0  0  0  0  0  0  0
   -4.2133   -7.8365   -7.6217 O   0  0  0  0  0  0  0  0  0  0  0  0
   -5.1656   -8.7661   -8.1278 C   0  0  0  0  0  0  0  0  0  0  0  0
   -5.3251   -8.6280   -9.6351 C   0  0  0  0  0  0  0  0  0  0  0  0
   -1.8894   -4.7668   -6.3889 C   0  0  0  0  0  0  0  0  0  0  0  0
   -2.3944   -3.4552   -6.3582 C   0  0  0  0  0  0  0  0  0  0  0  0
   -3.6377   -3.0629   -6.7925 N   0  0  0  0  0  0  0  0  0  0  0  0
   -4.7673   -3.8831   -6.6145 C   0  0  0  0  0  0  0  0  0  0  0  0
   -5.7001   -4.0221   -7.6380 C   0  0  0  0  0  0  0  0  0  0  0  0
   -6.7902   -4.8541   -7.4711 C   0  0  0  0  0  0  0  0  0  0  0  0
   -6.9783   -5.5623   -6.2909 C   0  0  0  0  0  0  0  0  0  0  0  0
   -8.1617   -6.4628   -6.1121 C   0  0  0  0  0  0  0  0  0  0  0  0
   -6.0520   -5.3996   -5.2663 C   0  0  0  0  0  0  0  0  0  0  0  0
   -4.9620   -4.5676   -5.4169 C   0  0  0  0  0  0  0  0  0  0  0  0
   -3.7975   -1.7946   -7.3761 C   0  0  0  0  0  0  0  0  0  0  0  0
   -2.8262   -1.2891   -8.2374 C   0  0  0  0  0  0  0  0  0  0  0  0
   -2.9868   -0.0431   -8.8074 C   0  0  0  0  0  0  0  0  0  0  0  0
   -4.1168    0.7247   -8.5488 C   0  0  0  0  0  0  0  0  0  0  0  0
   -4.2687    2.0816   -9.1637 C   0  0  0  0  0  0  0  0  0  0  0  0
   -5.0859    0.2065   -7.6990 C   0  0  0  0  0  0  0  0  0  0  0  0
   -4.9332   -1.0350   -7.1137 C   0  0  0  0  0  0  0  0  0  0  0  0
   -1.4413   -2.5648   -5.8172 C   0  0  0  0  0  0  0  0  0  0  0  0
   -1.4527   -0.8771   -5.4325 S   0  0  0  0  0  0  0  0  0  0  0  0
    0.1626   -1.0028   -4.7433 C   0  0  0  0  0  0  0  0  0  0  0  0
    0.6565   -2.2991   -4.7746 C   0  0  0  0  0  0  0  0  0  0  0  0
    1.8636   -2.7097   -4.2476 N   0  0  0  0  0  0  0  0  0  0  0  0
    2.3944   -2.0894   -3.0986 C   0  0  0  0  0  0  0  0  0  0  0  0
    3.7193   -1.6640   -3.0831 C   0  0  0  0  0  0  0  0  0  0  0  0
    4.2281   -1.0289   -1.9690 C   0  0  0  0  0  0  0  0  0  0  0  0
    3.4396   -0.8071   -0.8443 C   0  0  0  0  0  0  0  0  0  0  0  0
    4.0093   -0.1160    0.3566 C   0  0  0  0  0  0  0  0  0  0  0  0
    2.1275   -1.2596   -0.8598 C   0  0  0  0  0  0  0  0  0  0  0  0
    1.6062   -1.8985   -1.9695 C   0  0  0  0  0  0  0  0  0  0  0  0
    2.5131   -3.8358   -4.7822 C   0  0  0  0  0  0  0  0  0  0  0  0
    2.5015   -4.0819   -6.1532 C   0  0  0  0  0  0  0  0  0  0  0  0
    3.0773   -5.2290   -6.6601 C   0  0  0  0  0  0  0  0  0  0  0  0
    3.6885   -6.1536   -5.8235 C   0  0  0  0  0  0  0  0  0  0  0  0
    4.2296   -7.4326   -6.3774 C   0  0  0  0  0  0  0  0  0  0  0  0
    3.7413   -5.8749   -4.4634 C   0  0  0  0  0  0  0  0  0  0  0  0
    3.1627   -4.7348   -3.9422 C   0  0  0  0  0  0  0  0  0  0  0  0
   -0.2618   -3.1726   -5.4133 C   0  0  0  0  0  0  0  0  0  0  0  0
   -0.2744   -4.8751   -5.6914 S   0  0  0  0  0  0  0  0  0  0  0  0
    0.6930    0.1070   -3.9929 C   0  0  0  0  0  0  0  0  0  0  0  0
    1.8681    0.8202   -4.0827 C   0  0  0  0  0  0  0  0  0  0  0  0
    2.7910    0.8700   -5.2188 C   0  0  0  0  0  0  0  0  0  0  0  0
    3.4788    2.0605   -5.4623 C   0  0  0  0  0  0  0  0  0  0  0  0
    4.3637    2.1590   -6.5172 C   0  0  0  0  0  0  0  0  0  0  0  0
    4.5803    1.0768   -7.3507 C   0  0  0  0  0  0  0  0  0  0  0  0
    3.8901   -0.1101   -7.1449 C   0  0  0  0  0  0  0  0  0  0  0  0
    4.1460   -1.2996   -8.0263 C   0  0  0  0  0  0  0  0  0  0  0  0
    5.1995   -2.2151   -7.4004 C   0  0  0  0  0  0  0  0  0  0  0  0
    2.9988   -0.1991   -6.0854 C   0  0  0  0  0  0  0  0  0  0  0  0
    2.0563    1.6189   -2.9206 C   0  0  0  0  0  0  0  0  0  0  0  0
    3.4209    2.5374   -2.3270 S   0  0  0  0  0  0  0  0  0  0  0  0
    2.5895    2.7862   -0.8295 C   0  0  0  0  0  0  0  0  0  0  0  0
    2.7975    3.3770    0.4288 C   0  0  0  0  0  0  0  0  0  0  0  0
    3.8655    4.1546    0.9243 C   0  0  0  0  0  0  0  0  0  0  0  0
    3.7735    4.6968    2.2496 C   0  0  0  0  0  0  0  0  0  0  0  0
    4.8222    5.4400    2.5671 N   0  0  0  0  0  0  0  0  0  0  0  0
    5.8409    5.4525    1.3077 S   0  0  0  0  0  0  0  0  0  0  0  0
    4.9832    4.5091    0.3092 N   0  0  0  0  0  0  0  0  0  0  0  0
    2.6675    4.3469    3.0533 C   0  0  0  0  0  0  0  0  0  0  0  0
    2.3929    4.6065    4.4061 C   0  0  0  0  0  0  0  0  0  0  0  0
    3.0773    5.4665    5.7438 S   0  0  0  0  0  0  0  0  0  0  0  0
    1.7951    4.8539    6.7629 C   0  0  0  0  0  0  0  0  0  0  0  0
    1.4868    5.0423    8.1275 C   0  0  0  0  0  0  0  0  0  0  0  0
    2.2592    5.9496    8.9799 C   0  0  0  0  0  0  0  0  0  0  0  0
    1.6222    6.9043    9.7698 C   0  0  0  0  0  0  0  0  0  0  0  0
    2.3742    7.7819   10.5257 C   0  0  0  0  0  0  0  0  0  0  0  0
    3.7578    7.7233   10.4974 C   0  0  0  0  0  0  0  0  0  0  0  0
    4.4085    6.7821    9.7110 C   0  0  0  0  0  0  0  0  0  0  0  0
    5.9067    6.7412    9.6238 C   0  0  0  0  0  0  0  0  0  0  0  0
    6.3838    7.4751    8.3689 C   0  0  0  0  0  0  0  0  0  0  0  0
    3.6480    5.9019    8.9549 C   0  0  0  0  0  0  0  0  0  0  0  0
    0.3505    4.3458    8.4890 C   0  0  0  0  0  0  0  0  0  0  0  0
   -0.3602    3.4834    7.1296 S   0  0  0  0  0  0  0  0  0  0  0  0
    0.8931    4.0378    6.0808 C   0  0  0  0  0  0  0  0  0  0  0  0
    1.2346    3.8987    4.7287 C   0  0  0  0  0  0  0  0  0  0  0  0
    0.7624    3.2401    3.6250 N   0  0  0  0  0  0  0  0  0  0  0  0
    1.6260    3.5041    2.5735 C   0  0  0  0  0  0  0  0  0  0  0  0
    1.6401    3.1048    1.2104 C   0  0  0  0  0  0  0  0  0  0  0  0
    0.7388    2.4033    0.4221 N   0  0  0  0  0  0  0  0  0  0  0  0
    1.3198    2.2144   -0.8029 C   0  0  0  0  0  0  0  0  0  0  0  0
    1.0193    1.5462   -1.9976 C   0  0  0  0  0  0  0  0  0  0  0  0
   -0.2563    0.5384   -2.5653 S   0  0  0  0  0  0  0  0  0  0  0  0
   -0.6930    2.2491    0.5558 C   0  0  0  0  0  0  0  0  0  0  0  0
   -1.3886    3.5954    0.7388 C   0  0  0  0  0  0  0  0  0  0  0  0
   -0.2060    2.1797    3.7878 C   0  0  0  0  0  0  0  0  0  0  0  0
    0.4255    0.8059    3.5756 C   0  0  0  0  0  0  0  0  0  0  0  0
   -0.2616    4.1768    9.7836 C   0  0  0  0  0  0  0  0  0  0  0  0
   -1.6252    3.8714    9.8821 C   0  0  0  0  0  0  0  0  0  0  0  0
   -2.2287    3.6775   11.1011 C   0  0  0  0  0  0  0  0  0  0  0  0
   -1.4900    3.7754   12.2888 C   0  0  0  0  0  0  0  0  0  0  0  0
   -0.1209    4.0734   12.1864 C   0  0  0  0  0  0  0  0  0  0  0  0
    0.4834    4.2624   10.9675 C   0  0  0  0  0  0  0  0  0  0  0  0
   -2.0459    3.5757   13.5960 C   0  0  0  0  0  0  0  0  0  0  0  0
   -3.2962    3.2016   13.9680 C   0  0  0  0  0  0  0  0  0  0  0  0
   -4.3783    2.9061   13.1190 C   0  0  0  0  0  0  0  0  0  0  0  0
   -5.2892    2.6558   12.4653 N   0  0  0  0  0  0  0  0  0  0  0  0
   -3.5704    3.0618   15.4251 C   0  0  0  0  0  0  0  0  0  0  0  0
   -2.7537    3.2812   16.2863 O   0  0  0  0  0  0  0  0  0  0  0  0
   -4.8273    2.6749   15.6483 O   0  0  0  0  0  0  0  0  0  0  0  0
   -5.2183    2.4747   17.0059 C   0  0  0  0  0  0  0  0  0  0  0  0
   -4.7995    1.0995   17.5060 C   0  0  0  0  0  0  0  0  0  0  0  0
   -3.5420   -5.7393   -7.2784 H   0  0  0  0  0  0  0  0  0  0  0  0
   -6.0971   -8.5253   -7.6100 H   0  0  0  0  0  0  0  0  0  0  0  0
   -4.8441   -9.7811   -7.8714 H   0  0  0  0  0  0  0  0  0  0  0  0
   -4.3905   -8.8794  -10.1308 H   0  0  0  0  0  0  0  0  0  0  0  0
   -5.5977   -7.6065   -9.8910 H   0  0  0  0  0  0  0  0  0  0  0  0
   -6.1010   -9.3033   -9.9842 H   0  0  0  0  0  0  0  0  0  0  0  0
   -5.5556   -3.4869   -8.5650 H   0  0  0  0  0  0  0  0  0  0  0  0
   -7.5003   -4.9635   -8.2780 H   0  0  0  0  0  0  0  0  0  0  0  0
   -8.5561   -6.7837   -7.0734 H   0  0  0  0  0  0  0  0  0  0  0  0
   -8.9549   -5.9358   -5.5805 H   0  0  0  0  0  0  0  0  0  0  0  0
   -7.8948   -7.3400   -5.5264 H   0  0  0  0  0  0  0  0  0  0  0  0
   -6.1883   -5.9319   -4.3364 H   0  0  0  0  0  0  0  0  0  0  0  0
   -4.2458   -4.4531   -4.6166 H   0  0  0  0  0  0  0  0  0  0  0  0
   -1.9516   -1.8816   -8.4633 H   0  0  0  0  0  0  0  0  0  0  0  0
   -2.2252    0.3380   -9.4720 H   0  0  0  0  0  0  0  0  0  0  0  0
   -3.6318    2.7985   -8.6451 H   0  0  0  0  0  0  0  0  0  0  0  0
   -5.2969    2.4277   -9.0966 H   0  0  0  0  0  0  0  0  0  0  0  0
   -3.9687    2.0665  -10.2097 H   0  0  0  0  0  0  0  0  0  0  0  0
   -5.9722    0.7856   -7.4841 H   0  0  0  0  0  0  0  0  0  0  0  0
   -5.6907   -1.4211   -6.4477 H   0  0  0  0  0  0  0  0  0  0  0  0
    4.3385   -1.8213   -3.9534 H   0  0  0  0  0  0  0  0  0  0  0  0
    5.2517   -0.6845   -1.9746 H   0  0  0  0  0  0  0  0  0  0  0  0
    4.6463   -0.8017    0.9161 H   0  0  0  0  0  0  0  0  0  0  0  0
    3.2204    0.2331    1.0193 H   0  0  0  0  0  0  0  0  0  0  0  0
    4.6177    0.7355    0.0584 H   0  0  0  0  0  0  0  0  0  0  0  0
    1.4995   -1.1119    0.0078 H   0  0  0  0  0  0  0  0  0  0  0  0
    0.5850   -2.2521   -1.9673 H   0  0  0  0  0  0  0  0  0  0  0  0
    2.0276   -3.3778   -6.8217 H   0  0  0  0  0  0  0  0  0  0  0  0
    3.0398   -5.4156   -7.7230 H   0  0  0  0  0  0  0  0  0  0  0  0
    3.4012   -8.1185   -6.5554 H   0  0  0  0  0  0  0  0  0  0  0  0
    4.7357   -7.2643   -7.3258 H   0  0  0  0  0  0  0  0  0  0  0  0
    4.9221   -7.9010   -5.6825 H   0  0  0  0  0  0  0  0  0  0  0  0
    4.2235   -6.5730   -3.7946 H   0  0  0  0  0  0  0  0  0  0  0  0
    3.1922   -4.5437   -2.8794 H   0  0  0  0  0  0  0  0  0  0  0  0
    3.3053    2.9231   -4.8390 H   0  0  0  0  0  0  0  0  0  0  0  0
    4.8869    3.0879   -6.6896 H   0  0  0  0  0  0  0  0  0  0  0  0
    5.2805    1.1550   -8.1699 H   0  0  0  0  0  0  0  0  0  0  0  0
    3.2227   -1.8627   -8.1722 H   0  0  0  0  0  0  0  0  0  0  0  0
    4.4967   -0.9637   -9.0043 H   0  0  0  0  0  0  0  0  0  0  0  0
    6.1274   -1.6697   -7.2420 H   0  0  0  0  0  0  0  0  0  0  0  0
    4.8528   -2.5957   -6.4423 H   0  0  0  0  0  0  0  0  0  0  0  0
    5.4001   -3.0638   -8.0497 H   0  0  0  0  0  0  0  0  0  0  0  0
    2.4695   -1.1223   -5.9332 H   0  0  0  0  0  0  0  0  0  0  0  0
    0.5435    6.9572    9.7804 H   0  0  0  0  0  0  0  0  0  0  0  0
    1.8789    8.5217   11.1371 H   0  0  0  0  0  0  0  0  0  0  0  0
    4.3372    8.4165   11.0899 H   0  0  0  0  0  0  0  0  0  0  0  0
    6.2459    5.7039    9.5829 H   0  0  0  0  0  0  0  0  0  0  0  0
    6.3442    7.2099   10.5074 H   0  0  0  0  0  0  0  0  0  0  0  0
    5.9582    7.0192    7.4779 H   0  0  0  0  0  0  0  0  0  0  0  0
    7.4682    7.4371    8.2960 H   0  0  0  0  0  0  0  0  0  0  0  0
    6.0738    8.5172    8.4003 H   0  0  0  0  0  0  0  0  0  0  0  0
    4.1434    5.1584    8.3473 H   0  0  0  0  0  0  0  0  0  0  0  0
   -0.9365    1.5593    1.3649 H   0  0  0  0  0  0  0  0  0  0  0  0
   -1.0402    1.7873   -0.3721 H   0  0  0  0  0  0  0  0  0  0  0  0
   -1.2045    4.2281   -0.1265 H   0  0  0  0  0  0  0  0  0  0  0  0
   -1.0199    4.1133    1.6210 H   0  0  0  0  0  0  0  0  0  0  0  0
   -2.4607    3.4481    0.8385 H   0  0  0  0  0  0  0  0  0  0  0  0
   -0.5747    2.2505    4.8141 H   0  0  0  0  0  0  0  0  0  0  0  0
   -1.0615    2.3351    3.1296 H   0  0  0  0  0  0  0  0  0  0  0  0
    1.2136    0.6431    4.3072 H   0  0  0  0  0  0  0  0  0  0  0  0
    0.8622    0.7235    2.5831 H   0  0  0  0  0  0  0  0  0  0  0  0
   -0.3251    0.0294    3.6965 H   0  0  0  0  0  0  0  0  0  0  0  0
   -2.2139    3.7953    8.9790 H   0  0  0  0  0  0  0  0  0  0  0  0
   -3.2815    3.4523   11.1408 H   0  0  0  0  0  0  0  0  0  0  0  0
    0.4713    4.1394   13.0876 H   0  0  0  0  0  0  0  0  0  0  0  0
    1.5423    4.4619   10.9179 H   0  0  0  0  0  0  0  0  0  0  0  0
   -1.3639    3.7366   14.4252 H   0  0  0  0  0  0  0  0  0  0  0  0
   -6.3050    2.5792   17.0021 H   0  0  0  0  0  0  0  0  0  0  0  0
   -4.7675    3.2577   17.6249 H   0  0  0  0  0  0  0  0  0  0  0  0
   -5.1758    0.9487   18.5136 H   0  0  0  0  0  0  0  0  0  0  0  0
   -5.2017    0.3265   16.8554 H   0  0  0  0  0  0  0  0  0  0  0  0
   -3.7149    1.0224   17.5196 H   0  0  0  0  0  0  0  0  0  0  0  0
  1  2  2  0  0  0  0
  2  3  1  0  0  0  0
  3  4  3  0  0  0  0
  2  5  1  0  0  0  0
  5  6  2  0  0  0  0
  5  7  1  0  0  0  0
  7  8  1  0  0  0  0
  8  9  1  0  0  0  0
  1 10  1  0  0  0  0
 10 11  2  0  0  0  0
 11 12  1  0  0  0  0
 12 13  1  0  0  0  0
 13 14  2  0  0  0  0
 14 15  1  0  0  0  0
 15 16  2  0  0  0  0
 16 17  1  0  0  0  0
 16 18  1  0  0  0  0
 18 19  2  0  0  0  0
 12 20  1  0  0  0  0
 20 21  2  0  0  0  0
 21 22  1  0  0  0  0
 22 23  2  0  0  0  0
 23 24  1  0  0  0  0
 23 25  1  0  0  0  0
 25 26  2  0  0  0  0
 11 27  1  0  0  0  0
 27 28  1  0  0  0  0
 28 29  1  0  0  0  0
 29 30  2  0  0  0  0
 30 31  1  0  0  0  0
 31 32  1  0  0  0  0
 32 33  2  0  0  0  0
 33 34  1  0  0  0  0
 34 35  2  0  0  0  0
 35 36  1  0  0  0  0
 35 37  1  0  0  0  0
 37 38  2  0  0  0  0
 31 39  1  0  0  0  0
 39 40  2  0  0  0  0
 40 41  1  0  0  0  0
 41 42  2  0  0  0  0
 42 43  1  0  0  0  0
 42 44  1  0  0  0  0
 44 45  2  0  0  0  0
 30 46  1  0  0  0  0
 46 47  1  0  0  0  0
 29 48  1  0  0  0  0
 48 49  2  0  0  0  0
 49 50  1  0  0  0  0
 50 51  2  0  0  0  0
 51 52  1  0  0  0  0
 52 53  2  0  0  0  0
 53 54  1  0  0  0  0
 54 55  1  0  0  0  0
 55 56  1  0  0  0  0
 54 57  2  0  0  0  0
 49 58  1  0  0  0  0
 58 59  1  0  0  0  0
 59 60  1  0  0  0  0
 60 61  1  0  0  0  0
 61 62  1  0  0  0  0
 62 63  1  0  0  0  0
 63 64  2  0  0  0  0
 64 65  1  0  0  0  0
 65 66  1  0  0  0  0
 63 67  1  0  0  0  0
 67 68  1  0  0  0  0
 68 69  1  0  0  0  0
 69 70  1  0  0  0  0
 70 71  1  0  0  0  0
 71 72  1  0  0  0  0
 72 73  2  0  0  0  0
 73 74  1  0  0  0  0
 74 75  2  0  0  0  0
 75 76  1  0  0  0  0
 76 77  1  0  0  0  0
 77 78  1  0  0  0  0
 76 79  2  0  0  0  0
 71 80  2  0  0  0  0
 80 81  1  0  0  0  0
 81 82  1  0  0  0  0
 82 83  1  0  0  0  0
 83 84  1  0  0  0  0
 84 85  1  0  0  0  0
 85 86  1  0  0  0  0
 86 87  1  0  0  0  0
 87 88  1  0  0  0  0
 88 89  1  0  0  0  0
 89 90  1  0  0  0  0
 87 91  1  0  0  0  0
 91 92  1  0  0  0  0
 84 93  1  0  0  0  0
 93 94  1  0  0  0  0
 80 95  1  0  0  0  0
 95 96  2  0  0  0  0
 96 97  1  0  0  0  0
 97 98  2  0  0  0  0
 98 99  1  0  0  0  0
 99100  2  0  0  0  0
 98101  1  0  0  0  0
101102  2  0  0  0  0
102103  1  0  0  0  0
103104  3  0  0  0  0
102105  1  0  0  0  0
105106  2  0  0  0  0
105107  1  0  0  0  0
107108  1  0  0  0  0
108109  1  0  0  0  0
 47 10  1  0  0  0  0
 90 48  1  0  0  0  0
100 95  1  0  0  0  0
 19 13  1  0  0  0  0
 26 20  1  0  0  0  0
 46 27  2  0  0  0  0
 57 50  1  0  0  0  0
 89 58  2  0  0  0  0
 38 32  1  0  0  0  0
 45 39  1  0  0  0  0
 88 60  2  0  0  0  0
 86 61  2  0  0  0  0
 66 62  2  0  0  0  0
 85 67  2  0  0  0  0
 83 68  2  0  0  0  0
 82 70  2  0  0  0  0
 79 72  1  0  0  0  0
  1110  1  0  0  0  0
  8111  1  0  0  0  0
  8112  1  0  0  0  0
  9113  1  0  0  0  0
  9114  1  0  0  0  0
  9115  1  0  0  0  0
 14116  1  0  0  0  0
 15117  1  0  0  0  0
 17118  1  0  0  0  0
 17119  1  0  0  0  0
 17120  1  0  0  0  0
 18121  1  0  0  0  0
 19122  1  0  0  0  0
 21123  1  0  0  0  0
 22124  1  0  0  0  0
 24125  1  0  0  0  0
 24126  1  0  0  0  0
 24127  1  0  0  0  0
 25128  1  0  0  0  0
 26129  1  0  0  0  0
 33130  1  0  0  0  0
 34131  1  0  0  0  0
 36132  1  0  0  0  0
 36133  1  0  0  0  0
 36134  1  0  0  0  0
 37135  1  0  0  0  0
 38136  1  0  0  0  0
 40137  1  0  0  0  0
 41138  1  0  0  0  0
 43139  1  0  0  0  0
 43140  1  0  0  0  0
 43141  1  0  0  0  0
 44142  1  0  0  0  0
 45143  1  0  0  0  0
 51144  1  0  0  0  0
 52145  1  0  0  0  0
 53146  1  0  0  0  0
 55147  1  0  0  0  0
 55148  1  0  0  0  0
 56149  1  0  0  0  0
 56150  1  0  0  0  0
 56151  1  0  0  0  0
 57152  1  0  0  0  0
 73153  1  0  0  0  0
 74154  1  0  0  0  0
 75155  1  0  0  0  0
 77156  1  0  0  0  0
 77157  1  0  0  0  0
 78158  1  0  0  0  0
 78159  1  0  0  0  0
 78160  1  0  0  0  0
 79161  1  0  0  0  0
 91162  1  0  0  0  0
 91163  1  0  0  0  0
 92164  1  0  0  0  0
 92165  1  0  0  0  0
 92166  1  0  0  0  0
 93167  1  0  0  0  0
 93168  1  0  0  0  0
 94169  1  0  0  0  0
 94170  1  0  0  0  0
 94171  1  0  0  0  0
 96172  1  0  0  0  0
 97173  1  0  0  0  0
 99174  1  0  0  0  0
100175  1  0  0  0  0
101176  1  0  0  0  0
108177  1  0  0  0  0
108178  1  0  0  0  0
109179  1  0  0  0  0
109180  1  0  0  0  0
109181  1  0  0  0  0
M  END
