197

C         -3.78790       12.96460      -10.71380
C         -4.90030       13.25180      -11.43580
C         -6.06290       12.46900      -11.55830
N         -7.03540       11.87200      -11.68970
C         -4.92170       14.54230      -12.17770
O         -4.01160       15.33590      -12.17190
O         -6.06400       14.70040      -12.84830
C         -6.23040       15.91410      -13.57920
C         -6.72900       17.03640      -12.68000
C         -3.47650       11.83310       -9.88770
C         -2.24950       11.85180       -9.20980
C         -1.92680       10.79350       -8.38370
N         -0.81400       10.59340       -7.60250
C          0.31270       11.48090       -7.48560
C          1.40370       11.14700       -8.50130
C         -0.94860        9.39090       -6.95400
C         -2.18880        8.80050       -7.30670
C         -2.81430        9.69460       -8.22670
C         -4.02440        9.67660       -8.91390
C         -4.34590       10.73440       -9.73060
C         -2.55570        7.58090       -6.74610
C         -1.71630        6.99710       -5.82790
C         -0.49410        7.59020       -5.45930
C         -0.08510        8.77710       -6.06400
C          0.31310        6.96870       -4.43050
C          1.18730        7.54810       -3.53560
C          1.45750        8.98350       -3.39860
C          2.76950        9.43840       -3.31880
C          3.02320       10.79270       -3.19920
C          1.97790       11.69770       -3.15730
C          0.66010       11.25810       -3.21740
C         -0.48040       12.23140       -3.12500
C         -0.90050       12.42450       -1.66700
C          0.41190        9.89920       -3.32500
C          1.76160        6.58650       -2.67440
S          2.83990        6.72190       -1.30430
C          2.65890        5.02130       -1.02480
C          3.01720        4.05410       -0.07050
C          3.69010        4.17730        1.16440
C          3.69280        3.06020        2.06660
N          4.28960        3.33920        3.21480
S          4.81030        4.87200        3.16310
N          4.28920        5.24160        1.67450
C          3.12380        1.83920        1.64500
C          2.99560        0.59890        2.29420
S          3.24910       -0.10880        3.85570
C          2.58550       -1.61390        3.26360
C          2.25390       -2.83170        3.90020
C          2.32060       -3.00940        5.34920
C          3.37750       -2.47050        6.07650
C          3.40710       -2.60110        7.45150
C          2.37610       -3.24050        8.11540
C          1.29200       -3.75000        7.41030
C          0.12890       -4.35150        8.14800
C         -0.73830       -3.25240        8.76480
C          1.28030       -3.63700        6.02950
C          1.71120       -3.73000        3.00080
S          1.55660       -3.05310        1.38200
C          2.23450       -1.55900        1.91610
C          2.44840       -0.28800        1.36780
N          2.20590        0.35270        0.18200
C          2.58150        1.67910        0.33930
C          2.42020        2.82890       -0.47840
N          1.71160        3.05940       -1.64650
C          1.83700        4.38650       -1.95610
C          1.31730        5.28550       -2.89850
S          0.19520        5.23020       -4.21010
C          0.67950        2.27350       -2.28100
C         -0.49520        2.02030       -1.33910
C          2.03570       -0.42640       -1.02490
C          3.20730       -0.23890       -1.98500
C          1.29500       -5.08480        3.16790
C          1.83550       -6.11130        3.93480
N          2.98330       -6.05680        4.69750
C          4.09990       -5.30020        4.32710
C          4.98850       -4.86470        5.30830
C          6.07800       -4.08990        4.96870
C          6.31340       -3.71530        3.65080
C          7.45850       -2.81630        3.29820
C          5.44480       -4.18300        2.67370
C          4.36100       -4.97500        2.99840
C          3.09310       -6.97690        5.76470
C          2.05640       -7.09750        6.68380
C          2.11660       -8.05450        7.67730
C          3.20440       -8.91200        7.77970
C          3.21850      -10.01110        8.79160
C          4.25220       -8.75770        6.87900
C          4.20430       -7.80530        5.88120
C          1.06550       -7.29550        3.79150
S          1.19600       -8.88250        4.45940
C         -0.19180       -9.41700        3.51270
C         -0.67700       -8.40410        2.66600
N         -1.68310       -8.55480        1.74200
C         -2.50020       -7.45460        1.42810
C         -2.84250       -7.17980        0.10790
C         -3.64230       -6.09360       -0.18780
C         -4.11500       -5.25540        0.81400
C         -4.95950       -4.06100        0.49270
C         -3.77350       -5.54230        2.13100
C         -2.98130       -6.62850        2.44130
C         -1.81880       -9.73990        0.99520
C         -0.69660      -10.42710        0.53780
C         -0.84650      -11.59100       -0.18760
C         -2.10800      -12.09380       -0.48810
C         -2.25740      -13.34260       -1.30240
C         -3.22130      -11.39390       -0.03950
C         -3.08560      -10.23140        0.69410
C          0.02280       -7.20000        2.87900
S         -0.07420       -5.61650        2.19190
C         -0.76460      -10.68630        3.67460
C         -0.39300      -11.68890        4.52840
C          0.67750      -11.59870        5.43450
N          1.53040      -11.54350        6.20290
C         -1.11870      -12.97330        4.52650
O         -0.77270      -13.96370        5.12360
O         -2.23230      -12.91460        3.76530
C         -2.96660      -14.12370        3.60380
C         -2.44530      -14.91880        2.41520
H         -3.01940       13.72990      -10.76820
H         -5.27330       16.18870      -14.03540
H         -6.96070       15.67660      -14.35510
H         -7.64990       16.73740      -12.18500
H         -6.91670       17.92480      -13.27610
H         -5.98100       17.26940      -11.92580
H         -1.58140       12.69050       -9.33860
H         -0.03790       12.50560       -7.63420
H          0.70870       11.40270       -6.46850
H          1.01630       11.23160       -9.51400
H          2.24140       11.82960       -8.38790
H          1.75840       10.13010       -8.35160
H         -4.70100        8.84340       -8.80320
H         -5.28100       10.72750      -10.26440
H         -3.49000        7.11310       -7.01600
H         -1.99960        6.06550       -5.36000
H          0.87730        9.20210       -5.83170
H          3.58520        8.73270       -3.36600
H          4.04310       11.14350       -3.14320
H          2.18330       12.75540       -3.07430
H         -0.18020       13.19450       -3.54350
H         -1.33150       11.85840       -3.69950
H         -1.21310       11.47630       -1.23570
H         -0.06800       12.80790       -1.08130
H         -1.72740       13.12750       -1.59870
H         -0.60770        9.54270       -3.36370
H          4.18410       -1.97290        5.56130
H          4.23890       -2.19680        8.00900
H          2.40430       -3.33760        9.19110
H         -0.48330       -4.94520        7.46580
H          0.49550       -5.00890        8.93960
H         -1.58170       -3.68660        9.29680
H         -1.11900       -2.59240        7.98820
H         -0.15700       -2.65560        9.46360
H          0.43640       -4.01590        5.46930
H          0.33250        2.85250       -3.14040
H          1.09200        1.34150       -2.66820
H         -1.24960        1.41900       -1.83960
H         -0.94410        2.96660       -1.04630
H         -0.17280        1.50440       -0.43800
H          1.08330       -0.19800       -1.50610
H          1.99030       -1.47260       -0.71170
H          3.31910        0.80360       -2.27320
H          4.13150       -0.55870       -1.50910
H          3.05250       -0.83690       -2.87920
H          4.80830       -5.12800        6.33960
H          6.75010       -3.75550        5.74570
H          7.82120       -3.02320        2.29380
H          8.27830       -2.93760        4.00230
H          7.13680       -1.77430        3.33220
H          5.62050       -3.92960        1.63770
H          3.72310       -5.35310        2.21360
H          1.19940       -6.44800        6.59880
H          1.29590       -8.14930        8.37330
H          2.67120       -9.72800        9.68790
H          2.73330      -10.88540        8.35700
H          4.23520      -10.28400        9.06320
H          5.10880       -9.41230        6.94430
H          5.01520       -7.71100        5.17350
H         -2.47340       -7.81660       -0.68240
H         -3.89550       -5.89000       -1.21820
H         -5.32540       -4.10570       -0.52990
H         -5.81010       -3.99770        1.16870
H         -4.37390       -3.14880        0.60810
H         -4.13920       -4.90770        2.92510
H         -2.73480       -6.84870        3.46980
H          0.28950      -10.04660        0.75960
H          0.03180      -12.11600       -0.53390
H         -2.20080      -13.10200       -2.36480
H         -3.21780      -13.81810       -1.11690
H         -1.46150      -14.05000       -1.07880
H         -4.21080      -11.76720       -0.26050
H         -3.95860       -9.70050        1.04420
H         -1.62800      -10.89560        3.05830
H         -4.00140      -13.81120        3.44450
H         -2.89090      -14.71420        4.52280
H         -3.06740      -15.79520        2.25790
H         -1.42400      -15.24030        2.60520
H         -2.46020      -14.30010        1.52090
