
  xtb     02112208333D
 energy: -253.581890426604 gnorm: 0.000930815631 xtb: 6.4.1 (unknown)
147159  0     0  0            999 V2000
    9.9616    8.7099    0.5004 C   0  0  0  0  0  0  0  0  0  0  0  0
   11.0902    8.6309    1.2617 C   0  0  0  0  0  0  0  0  0  0  0  0
   11.5270    7.4449    1.8838 C   0  0  0  0  0  0  0  0  0  0  0  0
   11.9185    6.4882    2.3842 N   0  0  0  0  0  0  0  0  0  0  0  0
   11.9751    9.8004    1.4668 C   0  0  0  0  0  0  0  0  0  0  0  0
   13.0184    9.7678    2.0711 O   0  0  0  0  0  0  0  0  0  0  0  0
   11.4711   10.9159    0.9095 O   0  0  0  0  0  0  0  0  0  0  0  0
   12.2536   12.1016    1.0443 C   0  0  0  0  0  0  0  0  0  0  0  0
   13.3616   12.1641    0.0028 C   0  0  0  0  0  0  0  0  0  0  0  0
    9.0275    7.6869    0.2336 C   0  0  0  0  0  0  0  0  0  0  0  0
    7.9547    7.7787   -0.6348 C   0  0  0  0  0  0  0  0  0  0  0  0
    7.2049    6.6096   -0.7180 C   0  0  0  0  0  0  0  0  0  0  0  0
    5.7900    6.4695   -1.7685 S   0  0  0  0  0  0  0  0  0  0  0  0
    6.5266    5.4630   -3.1243 C   0  0  0  0  0  0  0  0  0  0  0  0
    5.4220    4.8408   -3.9528 C   0  0  0  0  0  0  0  0  0  0  0  0
    7.6671    5.5870    0.1099 C   0  0  0  0  0  0  0  0  0  0  0  0
    9.0910    6.0999    0.9651 S   0  0  0  0  0  0  0  0  0  0  0  0
    7.0855    4.3153    0.3362 C   0  0  0  0  0  0  0  0  0  0  0  0
    7.5525    3.2992    1.1613 C   0  0  0  0  0  0  0  0  0  0  0  0
    8.8321    3.3069    1.8795 C   0  0  0  0  0  0  0  0  0  0  0  0
    8.8380    3.2757    3.2683 C   0  0  0  0  0  0  0  0  0  0  0  0
   10.0424    3.3069    3.9476 C   0  0  0  0  0  0  0  0  0  0  0  0
   11.2343    3.3613    3.2509 C   0  0  0  0  0  0  0  0  0  0  0  0
   11.2459    3.3649    1.8606 C   0  0  0  0  0  0  0  0  0  0  0  0
   12.5477    3.3929    1.1161 C   0  0  0  0  0  0  0  0  0  0  0  0
   13.2262    2.0226    1.1447 C   0  0  0  0  0  0  0  0  0  0  0  0
   10.0379    3.3268    1.1844 C   0  0  0  0  0  0  0  0  0  0  0  0
    6.6363    2.2423    1.2471 C   0  0  0  0  0  0  0  0  0  0  0  0
    6.6649    0.7245    2.1156 S   0  0  0  0  0  0  0  0  0  0  0  0
    5.1068    0.3526    1.4571 C   0  0  0  0  0  0  0  0  0  0  0  0
    4.1487   -0.6743    1.4973 C   0  0  0  0  0  0  0  0  0  0  0  0
    4.1645   -1.9577    2.0878 C   0  0  0  0  0  0  0  0  0  0  0  0
    3.0422   -2.8320    1.8852 C   0  0  0  0  0  0  0  0  0  0  0  0
    3.2187   -4.0174    2.4461 N   0  0  0  0  0  0  0  0  0  0  0  0
    4.6665   -4.0330    3.1715 S   0  0  0  0  0  0  0  0  0  0  0  0
    5.1259   -2.5262    2.7972 N   0  0  0  0  0  0  0  0  0  0  0  0
    1.8985   -2.3351    1.2201 C   0  0  0  0  0  0  0  0  0  0  0  0
    0.6065   -2.8603    1.0712 C   0  0  0  0  0  0  0  0  0  0  0  0
   -0.2704   -4.3041    1.4529 S   0  0  0  0  0  0  0  0  0  0  0  0
   -1.7282   -3.5285    0.8743 C   0  0  0  0  0  0  0  0  0  0  0  0
   -3.0560   -3.9529    0.8212 C   0  0  0  0  0  0  0  0  0  0  0  0
   -3.4613   -5.2759    1.3223 C   0  0  0  0  0  0  0  0  0  0  0  0
   -4.0482   -5.3972    2.5781 C   0  0  0  0  0  0  0  0  0  0  0  0
   -4.3806   -6.6488    3.0588 C   0  0  0  0  0  0  0  0  0  0  0  0
   -4.1264   -7.7773    2.2996 C   0  0  0  0  0  0  0  0  0  0  0  0
   -3.5288   -7.6723    1.0509 C   0  0  0  0  0  0  0  0  0  0  0  0
   -3.1963   -8.8970    0.2492 C   0  0  0  0  0  0  0  0  0  0  0  0
   -1.7640   -9.3491    0.5407 C   0  0  0  0  0  0  0  0  0  0  0  0
   -3.1916   -6.4139    0.5745 C   0  0  0  0  0  0  0  0  0  0  0  0
   -3.8954   -2.9719    0.2916 C   0  0  0  0  0  0  0  0  0  0  0  0
   -3.0088   -1.5036   -0.1163 S   0  0  0  0  0  0  0  0  0  0  0  0
   -1.5288   -2.2258    0.4006 C   0  0  0  0  0  0  0  0  0  0  0  0
   -0.1849   -1.8509    0.5084 C   0  0  0  0  0  0  0  0  0  0  0  0
    0.5777   -0.7370    0.2756 N   0  0  0  0  0  0  0  0  0  0  0  0
    1.8653   -1.0142    0.6885 C   0  0  0  0  0  0  0  0  0  0  0  0
    3.0509   -0.2386    0.7044 C   0  0  0  0  0  0  0  0  0  0  0  0
    3.3617    0.9910    0.1472 N   0  0  0  0  0  0  0  0  0  0  0  0
    4.6015    1.3478    0.6141 C   0  0  0  0  0  0  0  0  0  0  0  0
    5.4801    2.4262    0.4834 C   0  0  0  0  0  0  0  0  0  0  0  0
    5.5075    3.9348   -0.3556 S   0  0  0  0  0  0  0  0  0  0  0  0
    2.9066    1.5523   -1.1065 C   0  0  0  0  0  0  0  0  0  0  0  0
    3.8302    1.1504   -2.2570 C   0  0  0  0  0  0  0  0  0  0  0  0
   -0.0553    0.5378    0.0172 C   0  0  0  0  0  0  0  0  0  0  0  0
   -0.5543    0.6558   -1.4231 C   0  0  0  0  0  0  0  0  0  0  0  0
   -5.2826   -3.1062    0.0492 C   0  0  0  0  0  0  0  0  0  0  0  0
   -6.2112   -2.1615   -0.4087 C   0  0  0  0  0  0  0  0  0  0  0  0
   -6.0180   -0.7600   -0.7632 C   0  0  0  0  0  0  0  0  0  0  0  0
   -4.9701   -0.1479   -0.7846 O   0  0  0  0  0  0  0  0  0  0  0  0
   -7.1937   -0.2134   -1.0891 O   0  0  0  0  0  0  0  0  0  0  0  0
   -7.2305    1.1483   -1.5133 C   0  0  0  0  0  0  0  0  0  0  0  0
   -8.3592    1.3048   -2.5172 C   0  0  0  0  0  0  0  0  0  0  0  0
   -7.4997   -2.7254   -0.5126 C   0  0  0  0  0  0  0  0  0  0  0  0
   -7.5669   -4.0662   -0.1611 C   0  0  0  0  0  0  0  0  0  0  0  0
   -6.0354   -4.6807    0.3235 S   0  0  0  0  0  0  0  0  0  0  0  0
   -8.8473   -4.6272   -0.2559 C   0  0  0  0  0  0  0  0  0  0  0  0
   -8.9966   -6.0446    0.1101 C   0  0  0  0  0  0  0  0  0  0  0  0
   -8.0419   -6.7022    0.4601 O   0  0  0  0  0  0  0  0  0  0  0  0
  -10.2433   -6.5087    0.0349 O   0  0  0  0  0  0  0  0  0  0  0  0
  -10.4439   -7.8859    0.3630 C   0  0  0  0  0  0  0  0  0  0  0  0
  -10.1204   -8.7889   -0.8179 C   0  0  0  0  0  0  0  0  0  0  0  0
   -9.7808   -3.6824   -0.6982 C   0  0  0  0  0  0  0  0  0  0  0  0
   -9.0309   -2.1150   -0.9809 S   0  0  0  0  0  0  0  0  0  0  0  0
  -11.1593   -3.8894   -0.9073 C   0  0  0  0  0  0  0  0  0  0  0  0
  -12.0865   -2.9812   -1.3265 C   0  0  0  0  0  0  0  0  0  0  0  0
  -11.8182   -1.6386   -1.6411 C   0  0  0  0  0  0  0  0  0  0  0  0
  -11.6251   -0.5376   -1.9088 N   0  0  0  0  0  0  0  0  0  0  0  0
  -13.4935   -3.4328   -1.4683 C   0  0  0  0  0  0  0  0  0  0  0  0
  -13.8604   -4.5646   -1.2632 O   0  0  0  0  0  0  0  0  0  0  0  0
  -14.2920   -2.4275   -1.8356 O   0  0  0  0  0  0  0  0  0  0  0  0
  -15.6730   -2.7299   -2.0284 C   0  0  0  0  0  0  0  0  0  0  0  0
  -15.9276   -3.2910   -3.4199 C   0  0  0  0  0  0  0  0  0  0  0  0
    9.7489    9.6648    0.0367 H   0  0  0  0  0  0  0  0  0  0  0  0
   12.6814   12.1312    2.0519 H   0  0  0  0  0  0  0  0  0  0  0  0
   11.5435   12.9216    0.9163 H   0  0  0  0  0  0  0  0  0  0  0  0
   13.8915   13.1078    0.0931 H   0  0  0  0  0  0  0  0  0  0  0  0
   12.9442   12.0841   -0.9984 H   0  0  0  0  0  0  0  0  0  0  0  0
   14.0640   11.3493    0.1606 H   0  0  0  0  0  0  0  0  0  0  0  0
    7.7207    8.6628   -1.2003 H   0  0  0  0  0  0  0  0  0  0  0  0
    7.1476    6.1312   -3.7206 H   0  0  0  0  0  0  0  0  0  0  0  0
    7.1511    4.7011   -2.6594 H   0  0  0  0  0  0  0  0  0  0  0  0
    5.8517    4.2494   -4.7586 H   0  0  0  0  0  0  0  0  0  0  0  0
    4.8053    4.1963   -3.3310 H   0  0  0  0  0  0  0  0  0  0  0  0
    4.7902    5.6138   -4.3835 H   0  0  0  0  0  0  0  0  0  0  0  0
    7.9023    3.2502    3.8072 H   0  0  0  0  0  0  0  0  0  0  0  0
   10.0465    3.2983    5.0275 H   0  0  0  0  0  0  0  0  0  0  0  0
   12.1694    3.4121    3.7872 H   0  0  0  0  0  0  0  0  0  0  0  0
   12.3743    3.6905    0.0802 H   0  0  0  0  0  0  0  0  0  0  0  0
   13.2005    4.1357    1.5773 H   0  0  0  0  0  0  0  0  0  0  0  0
   13.4203    1.7149    2.1693 H   0  0  0  0  0  0  0  0  0  0  0  0
   14.1714    2.0555    0.6078 H   0  0  0  0  0  0  0  0  0  0  0  0
   12.5884    1.2738    0.6791 H   0  0  0  0  0  0  0  0  0  0  0  0
   10.0249    3.3237    0.1026 H   0  0  0  0  0  0  0  0  0  0  0  0
   -4.2430   -4.5113    3.1646 H   0  0  0  0  0  0  0  0  0  0  0  0
   -4.8394   -6.7450    4.0316 H   0  0  0  0  0  0  0  0  0  0  0  0
   -4.3947   -8.7518    2.6807 H   0  0  0  0  0  0  0  0  0  0  0  0
   -3.8886   -9.7025    0.5003 H   0  0  0  0  0  0  0  0  0  0  0  0
   -3.2964   -8.6796   -0.8159 H   0  0  0  0  0  0  0  0  0  0  0  0
   -1.0598   -8.5580    0.2932 H   0  0  0  0  0  0  0  0  0  0  0  0
   -1.6500   -9.5879    1.5957 H   0  0  0  0  0  0  0  0  0  0  0  0
   -1.5168  -10.2319   -0.0445 H   0  0  0  0  0  0  0  0  0  0  0  0
   -2.7245   -6.3117   -0.3947 H   0  0  0  0  0  0  0  0  0  0  0  0
    1.9063    1.1992   -1.3261 H   0  0  0  0  0  0  0  0  0  0  0  0
    2.8937    2.6422   -1.0046 H   0  0  0  0  0  0  0  0  0  0  0  0
    3.4511    1.5598   -3.1896 H   0  0  0  0  0  0  0  0  0  0  0  0
    4.8371    1.5265   -2.0969 H   0  0  0  0  0  0  0  0  0  0  0  0
    3.8743    0.0666   -2.3425 H   0  0  0  0  0  0  0  0  0  0  0  0
    0.6424    1.3355    0.2756 H   0  0  0  0  0  0  0  0  0  0  0  0
   -0.9188    0.6216    0.6863 H   0  0  0  0  0  0  0  0  0  0  0  0
   -0.8599    1.6791   -1.6218 H   0  0  0  0  0  0  0  0  0  0  0  0
   -1.4139    0.0091   -1.5734 H   0  0  0  0  0  0  0  0  0  0  0  0
    0.2125    0.3697   -2.1402 H   0  0  0  0  0  0  0  0  0  0  0  0
   -6.2587    1.4102   -1.9453 H   0  0  0  0  0  0  0  0  0  0  0  0
   -7.4023    1.7740   -0.6307 H   0  0  0  0  0  0  0  0  0  0  0  0
   -9.2962    0.9635   -2.0841 H   0  0  0  0  0  0  0  0  0  0  0  0
   -8.1578    0.7141   -3.4071 H   0  0  0  0  0  0  0  0  0  0  0  0
   -8.4536    2.3492   -2.7989 H   0  0  0  0  0  0  0  0  0  0  0  0
   -9.8133   -8.1403    1.2209 H   0  0  0  0  0  0  0  0  0  0  0  0
  -11.4984   -7.9556    0.6366 H   0  0  0  0  0  0  0  0  0  0  0  0
   -9.0651   -8.7097   -1.0680 H   0  0  0  0  0  0  0  0  0  0  0  0
  -10.7137   -8.5022   -1.6829 H   0  0  0  0  0  0  0  0  0  0  0  0
  -10.3446   -9.8195   -0.5589 H   0  0  0  0  0  0  0  0  0  0  0  0
  -11.5325   -4.8865   -0.7082 H   0  0  0  0  0  0  0  0  0  0  0  0
  -15.9893   -3.4487   -1.2650 H   0  0  0  0  0  0  0  0  0  0  0  0
  -16.1913   -1.7797   -1.8854 H   0  0  0  0  0  0  0  0  0  0  0  0
  -15.5690   -2.5957   -4.1751 H   0  0  0  0  0  0  0  0  0  0  0  0
  -15.4106   -4.2403   -3.5384 H   0  0  0  0  0  0  0  0  0  0  0  0
  -16.9929   -3.4507   -3.5590 H   0  0  0  0  0  0  0  0  0  0  0  0
  1  2  2  0  0  0  0
  2  3  1  0  0  0  0
  3  4  3  0  0  0  0
  2  5  1  0  0  0  0
  5  6  2  0  0  0  0
  5  7  1  0  0  0  0
  7  8  1  0  0  0  0
  8  9  1  0  0  0  0
  1 10  1  0  0  0  0
 10 11  2  0  0  0  0
 11 12  1  0  0  0  0
 12 13  1  0  0  0  0
 13 14  1  0  0  0  0
 14 15  1  0  0  0  0
 12 16  2  0  0  0  0
 16 17  1  0  0  0  0
 16 18  1  0  0  0  0
 18 19  2  0  0  0  0
 19 20  1  0  0  0  0
 20 21  2  0  0  0  0
 21 22  1  0  0  0  0
 22 23  2  0  0  0  0
 23 24  1  0  0  0  0
 24 25  1  0  0  0  0
 25 26  1  0  0  0  0
 24 27  2  0  0  0  0
 19 28  1  0  0  0  0
 28 29  1  0  0  0  0
 29 30  1  0  0  0  0
 30 31  1  0  0  0  0
 31 32  1  0  0  0  0
 32 33  1  0  0  0  0
 33 34  2  0  0  0  0
 34 35  1  0  0  0  0
 35 36  1  0  0  0  0
 33 37  1  0  0  0  0
 37 38  1  0  0  0  0
 38 39  1  0  0  0  0
 39 40  1  0  0  0  0
 40 41  1  0  0  0  0
 41 42  1  0  0  0  0
 42 43  2  0  0  0  0
 43 44  1  0  0  0  0
 44 45  2  0  0  0  0
 45 46  1  0  0  0  0
 46 47  1  0  0  0  0
 47 48  1  0  0  0  0
 46 49  2  0  0  0  0
 41 50  2  0  0  0  0
 50 51  1  0  0  0  0
 51 52  1  0  0  0  0
 52 53  1  0  0  0  0
 53 54  1  0  0  0  0
 54 55  1  0  0  0  0
 55 56  1  0  0  0  0
 56 57  1  0  0  0  0
 57 58  1  0  0  0  0
 58 59  1  0  0  0  0
 59 60  1  0  0  0  0
 57 61  1  0  0  0  0
 61 62  1  0  0  0  0
 54 63  1  0  0  0  0
 63 64  1  0  0  0  0
 50 65  1  0  0  0  0
 65 66  2  0  0  0  0
 66 67  1  0  0  0  0
 67 68  2  0  0  0  0
 67 69  1  0  0  0  0
 69 70  1  0  0  0  0
 70 71  1  0  0  0  0
 66 72  1  0  0  0  0
 72 73  2  0  0  0  0
 73 74  1  0  0  0  0
 73 75  1  0  0  0  0
 75 76  1  0  0  0  0
 76 77  2  0  0  0  0
 76 78  1  0  0  0  0
 78 79  1  0  0  0  0
 79 80  1  0  0  0  0
 75 81  2  0  0  0  0
 81 82  1  0  0  0  0
 81 83  1  0  0  0  0
 83 84  2  0  0  0  0
 84 85  1  0  0  0  0
 85 86  3  0  0  0  0
 84 87  1  0  0  0  0
 87 88  2  0  0  0  0
 87 89  1  0  0  0  0
 89 90  1  0  0  0  0
 90 91  1  0  0  0  0
 17 10  1  0  0  0  0
 60 18  1  0  0  0  0
 74 65  1  0  0  0  0
 27 20  1  0  0  0  0
 59 28  2  0  0  0  0
 82 72  1  0  0  0  0
 58 30  2  0  0  0  0
 56 31  2  0  0  0  0
 36 32  2  0  0  0  0
 55 37  2  0  0  0  0
 53 38  2  0  0  0  0
 52 40  2  0  0  0  0
 49 42  1  0  0  0  0
  1 92  1  0  0  0  0
  8 93  1  0  0  0  0
  8 94  1  0  0  0  0
  9 95  1  0  0  0  0
  9 96  1  0  0  0  0
  9 97  1  0  0  0  0
 11 98  1  0  0  0  0
 14 99  1  0  0  0  0
 14100  1  0  0  0  0
 15101  1  0  0  0  0
 15102  1  0  0  0  0
 15103  1  0  0  0  0
 21104  1  0  0  0  0
 22105  1  0  0  0  0
 23106  1  0  0  0  0
 25107  1  0  0  0  0
 25108  1  0  0  0  0
 26109  1  0  0  0  0
 26110  1  0  0  0  0
 26111  1  0  0  0  0
 27112  1  0  0  0  0
 43113  1  0  0  0  0
 44114  1  0  0  0  0
 45115  1  0  0  0  0
 47116  1  0  0  0  0
 47117  1  0  0  0  0
 48118  1  0  0  0  0
 48119  1  0  0  0  0
 48120  1  0  0  0  0
 49121  1  0  0  0  0
 61122  1  0  0  0  0
 61123  1  0  0  0  0
 62124  1  0  0  0  0
 62125  1  0  0  0  0
 62126  1  0  0  0  0
 63127  1  0  0  0  0
 63128  1  0  0  0  0
 64129  1  0  0  0  0
 64130  1  0  0  0  0
 64131  1  0  0  0  0
 70132  1  0  0  0  0
 70133  1  0  0  0  0
 71134  1  0  0  0  0
 71135  1  0  0  0  0
 71136  1  0  0  0  0
 79137  1  0  0  0  0
 79138  1  0  0  0  0
 80139  1  0  0  0  0
 80140  1  0  0  0  0
 80141  1  0  0  0  0
 83142  1  0  0  0  0
 90143  1  0  0  0  0
 90144  1  0  0  0  0
 91145  1  0  0  0  0
 91146  1  0  0  0  0
 91147  1  0  0  0  0
M  END
