147

C          9.96160        8.70990        0.50040
C         11.09020        8.63090        1.26170
C         11.52700        7.44490        1.88380
N         11.91850        6.48820        2.38420
C         11.97510        9.80040        1.46680
O         13.01840        9.76780        2.07110
O         11.47110       10.91590        0.90950
C         12.25360       12.10160        1.04430
C         13.36160       12.16410        0.00280
C          9.02750        7.68690        0.23360
C          7.95470        7.77870       -0.63480
C          7.20490        6.60960       -0.71800
S          5.79000        6.46950       -1.76850
C          6.52660        5.46300       -3.12430
C          5.42200        4.84080       -3.95280
C          7.66710        5.58700        0.10990
S          9.09100        6.09990        0.96510
C          7.08550        4.31530        0.33620
C          7.55250        3.29920        1.16130
C          8.83210        3.30690        1.87950
C          8.83800        3.27570        3.26830
C         10.04240        3.30690        3.94760
C         11.23430        3.36130        3.25090
C         11.24590        3.36490        1.86060
C         12.54770        3.39290        1.11610
C         13.22620        2.02260        1.14470
C         10.03790        3.32680        1.18440
C          6.63630        2.24230        1.24710
S          6.66490        0.72450        2.11560
C          5.10680        0.35260        1.45710
C          4.14870       -0.67430        1.49730
C          4.16450       -1.95770        2.08780
C          3.04220       -2.83200        1.88520
N          3.21870       -4.01740        2.44610
S          4.66650       -4.03300        3.17150
N          5.12590       -2.52620        2.79720
C          1.89850       -2.33510        1.22010
C          0.60650       -2.86030        1.07120
S         -0.27040       -4.30410        1.45290
C         -1.72820       -3.52850        0.87430
C         -3.05600       -3.95290        0.82120
C         -3.46130       -5.27590        1.32230
C         -4.04820       -5.39720        2.57810
C         -4.38060       -6.64880        3.05880
C         -4.12640       -7.77730        2.29960
C         -3.52880       -7.67230        1.05090
C         -3.19630       -8.89700        0.24920
C         -1.76400       -9.34910        0.54070
C         -3.19160       -6.41390        0.57450
C         -3.89540       -2.97190        0.29160
S         -3.00880       -1.50360       -0.11630
C         -1.52880       -2.22580        0.40060
C         -0.18490       -1.85090        0.50840
N          0.57770       -0.73700        0.27560
C          1.86530       -1.01420        0.68850
C          3.05090       -0.23860        0.70440
N          3.36170        0.99100        0.14720
C          4.60150        1.34780        0.61410
C          5.48010        2.42620        0.48340
S          5.50750        3.93480       -0.35560
C          2.90660        1.55230       -1.10650
C          3.83020        1.15040       -2.25700
C         -0.05530        0.53780        0.01720
C         -0.55430        0.65580       -1.42310
C         -5.28260       -3.10620        0.04920
C         -6.21120       -2.16150       -0.40870
C         -6.01800       -0.76000       -0.76320
O         -4.97010       -0.14790       -0.78460
O         -7.19370       -0.21340       -1.08910
C         -7.23050        1.14830       -1.51330
C         -8.35920        1.30480       -2.51720
C         -7.49970       -2.72540       -0.51260
C         -7.56690       -4.06620       -0.16110
S         -6.03540       -4.68070        0.32350
C         -8.84730       -4.62720       -0.25590
C         -8.99660       -6.04460        0.11010
O         -8.04190       -6.70220        0.46010
O        -10.24330       -6.50870        0.03490
C        -10.44390       -7.88590        0.36300
C        -10.12040       -8.78890       -0.81790
C         -9.78080       -3.68240       -0.69820
S         -9.03090       -2.11500       -0.98090
C        -11.15930       -3.88940       -0.90730
C        -12.08650       -2.98120       -1.32650
C        -11.81820       -1.63860       -1.64110
N        -11.62510       -0.53760       -1.90880
C        -13.49350       -3.43280       -1.46830
O        -13.86040       -4.56460       -1.26320
O        -14.29200       -2.42750       -1.83560
C        -15.67300       -2.72990       -2.02840
C        -15.92760       -3.29100       -3.41990
H          9.74890        9.66480        0.03670
H         12.68140       12.13120        2.05190
H         11.54350       12.92160        0.91630
H         13.89150       13.10780        0.09310
H         12.94420       12.08410       -0.99840
H         14.06400       11.34930        0.16060
H          7.72070        8.66280       -1.20030
H          7.14760        6.13120       -3.72060
H          7.15110        4.70110       -2.65940
H          5.85170        4.24940       -4.75860
H          4.80530        4.19630       -3.33100
H          4.79020        5.61380       -4.38350
H          7.90230        3.25020        3.80720
H         10.04650        3.29830        5.02750
H         12.16940        3.41210        3.78720
H         12.37430        3.69050        0.08020
H         13.20050        4.13570        1.57730
H         13.42030        1.71490        2.16930
H         14.17140        2.05550        0.60780
H         12.58840        1.27380        0.67910
H         10.02490        3.32370        0.10260
H         -4.24300       -4.51130        3.16460
H         -4.83940       -6.74500        4.03160
H         -4.39470       -8.75180        2.68070
H         -3.88860       -9.70250        0.50030
H         -3.29640       -8.67960       -0.81590
H         -1.05980       -8.55800        0.29320
H         -1.65000       -9.58790        1.59570
H         -1.51680      -10.23190       -0.04450
H         -2.72450       -6.31170       -0.39470
H          1.90630        1.19920       -1.32610
H          2.89370        2.64220       -1.00460
H          3.45110        1.55980       -3.18960
H          4.83710        1.52650       -2.09690
H          3.87430        0.06660       -2.34250
H          0.64240        1.33550        0.27560
H         -0.91880        0.62160        0.68630
H         -0.85990        1.67910       -1.62180
H         -1.41390        0.00910       -1.57340
H          0.21250        0.36970       -2.14020
H         -6.25870        1.41020       -1.94530
H         -7.40230        1.77400       -0.63070
H         -9.29620        0.96350       -2.08410
H         -8.15780        0.71410       -3.40710
H         -8.45360        2.34920       -2.79890
H         -9.81330       -8.14030        1.22090
H        -11.49840       -7.95560        0.63660
H         -9.06510       -8.70970       -1.06800
H        -10.71370       -8.50220       -1.68290
H        -10.34460       -9.81950       -0.55890
H        -11.53250       -4.88650       -0.70820
H        -15.98930       -3.44870       -1.26500
H        -16.19130       -1.77970       -1.88540
H        -15.56900       -2.59570       -4.17510
H        -15.41060       -4.24030       -3.53840
H        -16.99290       -3.45070       -3.55900
