
  xtb     02252208113D
 energy: -326.021660766390 gnorm: 0.000308310271 xtb: 6.4.1 (unknown)
197217  0     0  0            999 V2000
    1.8245   10.0247    2.8704 C   0  0  0  0  0  0  0  0  0  0  0  0
    1.7137   11.2219    2.2141 C   0  0  0  0  0  0  0  0  0  0  0  0
    1.3613   12.4421    2.9753 C   0  0  0  0  0  0  0  0  0  0  0  0
    1.3229   12.5638    4.1815 O   0  0  0  0  0  0  0  0  0  0  0  0
    1.0221   13.4527    1.9491 C   0  0  0  0  0  0  0  0  0  0  0  0
    0.5206   14.7283    2.1116 C   0  0  0  0  0  0  0  0  0  0  0  0
    0.2510   15.4781    0.9742 C   0  0  0  0  0  0  0  0  0  0  0  0
    0.4739   14.9491   -0.2881 C   0  0  0  0  0  0  0  0  0  0  0  0
    0.9866   13.6688   -0.4569 C   0  0  0  0  0  0  0  0  0  0  0  0
    1.2697   12.9189    0.6713 C   0  0  0  0  0  0  0  0  0  0  0  0
    1.8411   11.5803    0.8263 C   0  0  0  0  0  0  0  0  0  0  0  0
    2.6127   10.9425   -0.1159 C   0  0  0  0  0  0  0  0  0  0  0  0
    3.3942    9.8035    0.1562 C   0  0  0  0  0  0  0  0  0  0  0  0
    4.0985    8.9161    0.3518 N   0  0  0  0  0  0  0  0  0  0  0  0
    2.8171   11.4373   -1.4158 C   0  0  0  0  0  0  0  0  0  0  0  0
    3.0235   11.7997   -2.4867 N   0  0  0  0  0  0  0  0  0  0  0  0
    1.7365    8.7328    2.3321 C   0  0  0  0  0  0  0  0  0  0  0  0
    2.2849    7.5457    2.8458 C   0  0  0  0  0  0  0  0  0  0  0  0
    3.0314    7.4250    3.9859 N   0  0  0  0  0  0  0  0  0  0  0  0
    4.1440    6.5603    3.9740 C   0  0  0  0  0  0  0  0  0  0  0  0
    4.4168    5.7476    5.0680 C   0  0  0  0  0  0  0  0  0  0  0  0
    5.5088    4.9009    5.0415 C   0  0  0  0  0  0  0  0  0  0  0  0
    6.3417    4.8400    3.9321 C   0  0  0  0  0  0  0  0  0  0  0  0
    7.5217    3.9187    3.8933 C   0  0  0  0  0  0  0  0  0  0  0  0
    6.0612    5.6637    2.8460 C   0  0  0  0  0  0  0  0  0  0  0  0
    4.9809    6.5211    2.8604 C   0  0  0  0  0  0  0  0  0  0  0  0
    2.7189    8.1400    5.1511 C   0  0  0  0  0  0  0  0  0  0  0  0
    1.3888    8.3151    5.5306 C   0  0  0  0  0  0  0  0  0  0  0  0
    1.0828    9.0280    6.6714 C   0  0  0  0  0  0  0  0  0  0  0  0
    2.0850    9.5745    7.4662 C   0  0  0  0  0  0  0  0  0  0  0  0
    1.7363   10.3778    8.6794 C   0  0  0  0  0  0  0  0  0  0  0  0
    3.4081    9.3778    7.0896 C   0  0  0  0  0  0  0  0  0  0  0  0
    3.7291    8.6716    5.9469 C   0  0  0  0  0  0  0  0  0  0  0  0
    2.0596    6.4670    1.9604 C   0  0  0  0  0  0  0  0  0  0  0  0
    2.4432    4.7809    2.0150 S   0  0  0  0  0  0  0  0  0  0  0  0
    1.6331    4.5350    0.4803 C   0  0  0  0  0  0  0  0  0  0  0  0
    1.0377    5.6892   -0.0092 C   0  0  0  0  0  0  0  0  0  0  0  0
    0.2540    5.7690   -1.1463 N   0  0  0  0  0  0  0  0  0  0  0  0
   -0.5771    4.6984   -1.5018 C   0  0  0  0  0  0  0  0  0  0  0  0
   -1.2393    3.9640   -0.5212 C   0  0  0  0  0  0  0  0  0  0  0  0
   -1.9805    2.8502   -0.8645 C   0  0  0  0  0  0  0  0  0  0  0  0
   -2.0863    2.4352   -2.1849 C   0  0  0  0  0  0  0  0  0  0  0  0
   -2.8142    1.1777   -2.5499 C   0  0  0  0  0  0  0  0  0  0  0  0
   -1.4778    3.2119   -3.1647 C   0  0  0  0  0  0  0  0  0  0  0  0
   -0.7431    4.3321   -2.8357 C   0  0  0  0  0  0  0  0  0  0  0  0
    0.3665    6.8994   -1.9725 C   0  0  0  0  0  0  0  0  0  0  0  0
    1.5914    7.5419   -2.1287 C   0  0  0  0  0  0  0  0  0  0  0  0
    1.6977    8.6437   -2.9526 C   0  0  0  0  0  0  0  0  0  0  0  0
    0.5938    9.1448   -3.6312 C   0  0  0  0  0  0  0  0  0  0  0  0
    0.7288   10.3281   -4.5382 C   0  0  0  0  0  0  0  0  0  0  0  0
   -0.6278    8.5045   -3.4592 C   0  0  0  0  0  0  0  0  0  0  0  0
   -0.7477    7.3983   -2.6415 C   0  0  0  0  0  0  0  0  0  0  0  0
    1.3088    6.7861    0.8413 C   0  0  0  0  0  0  0  0  0  0  0  0
    0.8649    8.4518    0.8187 S   0  0  0  0  0  0  0  0  0  0  0  0
    1.6079    3.2550   -0.1666 C   0  0  0  0  0  0  0  0  0  0  0  0
    1.9051    3.0156   -1.4923 C   0  0  0  0  0  0  0  0  0  0  0  0
    2.6323    3.9643   -2.3344 C   0  0  0  0  0  0  0  0  0  0  0  0
    3.6647    4.7267   -1.7906 C   0  0  0  0  0  0  0  0  0  0  0  0
    4.3596    5.6194   -2.5840 C   0  0  0  0  0  0  0  0  0  0  0  0
    4.0235    5.7738   -3.9171 C   0  0  0  0  0  0  0  0  0  0  0  0
    3.0095    5.0096   -4.4811 C   0  0  0  0  0  0  0  0  0  0  0  0
    2.6137    5.2153   -5.9147 C   0  0  0  0  0  0  0  0  0  0  0  0
    1.7062    6.4410   -6.0411 C   0  0  0  0  0  0  0  0  0  0  0  0
    2.3359    4.0948   -3.6871 C   0  0  0  0  0  0  0  0  0  0  0  0
    1.5020    1.7177   -1.8750 C   0  0  0  0  0  0  0  0  0  0  0  0
    1.5204    0.8700   -3.4006 S   0  0  0  0  0  0  0  0  0  0  0  0
    0.8092   -0.5030   -2.6215 C   0  0  0  0  0  0  0  0  0  0  0  0
    0.3907   -1.8069   -2.9264 C   0  0  0  0  0  0  0  0  0  0  0  0
    0.4469   -2.5102   -4.1475 C   0  0  0  0  0  0  0  0  0  0  0  0
    0.0235   -3.8766   -4.1743 C   0  0  0  0  0  0  0  0  0  0  0  0
    0.1497   -4.4253   -5.3729 N   0  0  0  0  0  0  0  0  0  0  0  0
    0.7502   -3.3097   -6.3825 S   0  0  0  0  0  0  0  0  0  0  0  0
    0.8715   -2.0866   -5.3282 N   0  0  0  0  0  0  0  0  0  0  0  0
   -0.4717   -4.4560   -2.9877 C   0  0  0  0  0  0  0  0  0  0  0  0
   -0.9580   -5.7506   -2.7570 C   0  0  0  0  0  0  0  0  0  0  0  0
   -1.1894   -7.2400   -3.6087 S   0  0  0  0  0  0  0  0  0  0  0  0
   -1.8445   -7.9402   -2.1466 C   0  0  0  0  0  0  0  0  0  0  0  0
   -2.3015   -9.2332   -1.8376 C   0  0  0  0  0  0  0  0  0  0  0  0
   -2.2624  -10.3411   -2.7984 C   0  0  0  0  0  0  0  0  0  0  0  0
   -2.8845  -10.2156   -4.0351 C   0  0  0  0  0  0  0  0  0  0  0  0
   -2.8350  -11.2623   -4.9382 C   0  0  0  0  0  0  0  0  0  0  0  0
   -2.1559  -12.4248   -4.6225 C   0  0  0  0  0  0  0  0  0  0  0  0
   -1.5078  -12.5574   -3.3990 C   0  0  0  0  0  0  0  0  0  0  0  0
   -0.7143  -13.7942   -3.0872 C   0  0  0  0  0  0  0  0  0  0  0  0
    0.6893  -13.6901   -3.6868 C   0  0  0  0  0  0  0  0  0  0  0  0
   -1.5680  -11.5088   -2.4949 C   0  0  0  0  0  0  0  0  0  0  0  0
   -2.7109   -9.3187   -0.5167 C   0  0  0  0  0  0  0  0  0  0  0  0
   -2.5030   -7.8057    0.3508 S   0  0  0  0  0  0  0  0  0  0  0  0
   -1.8759   -7.0493   -1.0695 C   0  0  0  0  0  0  0  0  0  0  0  0
   -1.3637   -5.7955   -1.4233 C   0  0  0  0  0  0  0  0  0  0  0  0
   -1.1550   -4.5817   -0.8288 N   0  0  0  0  0  0  0  0  0  0  0  0
   -0.5769   -3.7345   -1.7599 C   0  0  0  0  0  0  0  0  0  0  0  0
   -0.1000   -2.3912   -1.7198 C   0  0  0  0  0  0  0  0  0  0  0  0
    0.0469   -1.4485   -0.7140 N   0  0  0  0  0  0  0  0  0  0  0  0
    0.5785   -0.3145   -1.2606 C   0  0  0  0  0  0  0  0  0  0  0  0
    0.9658    0.9636   -0.8324 C   0  0  0  0  0  0  0  0  0  0  0  0
    0.9337    1.8543    0.6470 S   0  0  0  0  0  0  0  0  0  0  0  0
   -0.2533   -1.4426    0.6971 C   0  0  0  0  0  0  0  0  0  0  0  0
   -1.6348   -0.8474    0.9688 C   0  0  0  0  0  0  0  0  0  0  0  0
   -1.5582   -4.4264    0.5484 C   0  0  0  0  0  0  0  0  0  0  0  0
   -0.4822   -4.9308    1.5108 C   0  0  0  0  0  0  0  0  0  0  0  0
   -3.3008  -10.4206    0.1619 C   0  0  0  0  0  0  0  0  0  0  0  0
   -3.8840  -11.5389   -0.3904 C   0  0  0  0  0  0  0  0  0  0  0  0
   -4.4024  -12.4372    0.5512 C   0  0  0  0  0  0  0  0  0  0  0  0
   -5.0301  -14.0027    0.1418 S   0  0  0  0  0  0  0  0  0  0  0  0
   -4.1827  -14.3536   -1.4534 C   0  0  0  0  0  0  0  0  0  0  0  0
   -5.0329  -13.9992   -2.6586 C   0  0  0  0  0  0  0  0  0  0  0  0
   -4.2424  -11.9966    1.8730 C   0  0  0  0  0  0  0  0  0  0  0  0
   -3.3865  -10.4646    1.8938 S   0  0  0  0  0  0  0  0  0  0  0  0
   -4.5197  -12.5844    3.1126 C   0  0  0  0  0  0  0  0  0  0  0  0
   -5.4803  -13.5219    3.4098 C   0  0  0  0  0  0  0  0  0  0  0  0
   -6.6835  -13.7737    2.6077 C   0  0  0  0  0  0  0  0  0  0  0  0
   -6.9753  -13.2672    1.5371 O   0  0  0  0  0  0  0  0  0  0  0  0
   -7.5237  -14.6795    3.4155 C   0  0  0  0  0  0  0  0  0  0  0  0
   -8.7610  -15.2123    3.1159 C   0  0  0  0  0  0  0  0  0  0  0  0
   -9.3655  -16.0369    4.0554 C   0  0  0  0  0  0  0  0  0  0  0  0
   -8.7392  -16.3053    5.2632 C   0  0  0  0  0  0  0  0  0  0  0  0
   -7.4952  -15.7679    5.5700 C   0  0  0  0  0  0  0  0  0  0  0  0
   -6.8810  -14.9491    4.6366 C   0  0  0  0  0  0  0  0  0  0  0  0
   -5.5952  -14.2524    4.6524 C   0  0  0  0  0  0  0  0  0  0  0  0
   -4.6449  -14.3478    5.6363 C   0  0  0  0  0  0  0  0  0  0  0  0
   -4.8063  -15.0853    6.8268 C   0  0  0  0  0  0  0  0  0  0  0  0
   -4.8740  -15.6590    7.8194 N   0  0  0  0  0  0  0  0  0  0  0  0
   -3.3691  -13.7487    5.5870 C   0  0  0  0  0  0  0  0  0  0  0  0
   -2.3062  -13.3132    5.6105 N   0  0  0  0  0  0  0  0  0  0  0  0
    1.9306   10.1091    3.9471 H   0  0  0  0  0  0  0  0  0  0  0  0
    0.3481   15.1210    3.1019 H   0  0  0  0  0  0  0  0  0  0  0  0
   -0.1391   16.4802    1.0721 H   0  0  0  0  0  0  0  0  0  0  0  0
    0.2462   15.5426   -1.1610 H   0  0  0  0  0  0  0  0  0  0  0  0
    1.1437   13.2743   -1.4480 H   0  0  0  0  0  0  0  0  0  0  0  0
    3.7699    5.7797    5.9323 H   0  0  0  0  0  0  0  0  0  0  0  0
    5.7097    4.2718    5.8966 H   0  0  0  0  0  0  0  0  0  0  0  0
    8.4422    4.4871    3.7653 H   0  0  0  0  0  0  0  0  0  0  0  0
    7.5959    3.3395    4.8100 H   0  0  0  0  0  0  0  0  0  0  0  0
    7.4375    3.2315    3.0524 H   0  0  0  0  0  0  0  0  0  0  0  0
    6.7060    5.6382    1.9797 H   0  0  0  0  0  0  0  0  0  0  0  0
    4.7852    7.1705    2.0195 H   0  0  0  0  0  0  0  0  0  0  0  0
    0.6023    7.8921    4.9222 H   0  0  0  0  0  0  0  0  0  0  0  0
    0.0485    9.1637    6.9511 H   0  0  0  0  0  0  0  0  0  0  0  0
    0.9043    9.9272    9.2168 H   0  0  0  0  0  0  0  0  0  0  0  0
    1.4358   11.3817    8.3784 H   0  0  0  0  0  0  0  0  0  0  0  0
    2.5875   10.4635    9.3500 H   0  0  0  0  0  0  0  0  0  0  0  0
    4.2014    9.7943    7.6929 H   0  0  0  0  0  0  0  0  0  0  0  0
    4.7606    8.5375    5.6571 H   0  0  0  0  0  0  0  0  0  0  0  0
   -1.1623    4.2627    0.5144 H   0  0  0  0  0  0  0  0  0  0  0  0
   -2.4836    2.2941   -0.0856 H   0  0  0  0  0  0  0  0  0  0  0  0
   -3.4105    1.3225   -3.4483 H   0  0  0  0  0  0  0  0  0  0  0  0
   -2.0983    0.3793   -2.7525 H   0  0  0  0  0  0  0  0  0  0  0  0
   -3.4670    0.8555   -1.7418 H   0  0  0  0  0  0  0  0  0  0  0  0
   -1.5678    2.9227   -4.2018 H   0  0  0  0  0  0  0  0  0  0  0  0
   -0.2717    4.9218   -3.6061 H   0  0  0  0  0  0  0  0  0  0  0  0
    2.4642    7.1690   -1.6156 H   0  0  0  0  0  0  0  0  0  0  0  0
    2.6593    9.1198   -3.0738 H   0  0  0  0  0  0  0  0  0  0  0  0
    1.4993   11.0027   -4.1714 H   0  0  0  0  0  0  0  0  0  0  0  0
   -0.2126   10.8672   -4.6170 H   0  0  0  0  0  0  0  0  0  0  0  0
    1.0151   10.0008   -5.5385 H   0  0  0  0  0  0  0  0  0  0  0  0
   -1.5028    8.8804   -3.9703 H   0  0  0  0  0  0  0  0  0  0  0  0
   -1.7061    6.9158   -2.5147 H   0  0  0  0  0  0  0  0  0  0  0  0
    3.9343    4.6050   -0.7518 H   0  0  0  0  0  0  0  0  0  0  0  0
    5.1601    6.2050   -2.1564 H   0  0  0  0  0  0  0  0  0  0  0  0
    4.5582    6.4858   -4.5285 H   0  0  0  0  0  0  0  0  0  0  0  0
    3.5054    5.3664   -6.5269 H   0  0  0  0  0  0  0  0  0  0  0  0
    2.0894    4.3328   -6.2861 H   0  0  0  0  0  0  0  0  0  0  0  0
    0.8029    6.3128   -5.4482 H   0  0  0  0  0  0  0  0  0  0  0  0
    1.4207    6.5985   -7.0787 H   0  0  0  0  0  0  0  0  0  0  0  0
    2.2173    7.3299   -5.6790 H   0  0  0  0  0  0  0  0  0  0  0  0
    1.5607    3.4809   -4.1204 H   0  0  0  0  0  0  0  0  0  0  0  0
   -3.4150   -9.3074   -4.2776 H   0  0  0  0  0  0  0  0  0  0  0  0
   -3.3285  -11.1685   -5.8940 H   0  0  0  0  0  0  0  0  0  0  0  0
   -2.1206  -13.2383   -5.3329 H   0  0  0  0  0  0  0  0  0  0  0  0
   -0.6324  -13.9244   -2.0059 H   0  0  0  0  0  0  0  0  0  0  0  0
   -1.2178  -14.6712   -3.5005 H   0  0  0  0  0  0  0  0  0  0  0  0
    1.2117  -12.8288   -3.2767 H   0  0  0  0  0  0  0  0  0  0  0  0
    1.2648  -14.5852   -3.4630 H   0  0  0  0  0  0  0  0  0  0  0  0
    0.6331  -13.5731   -4.7665 H   0  0  0  0  0  0  0  0  0  0  0  0
   -1.0680  -11.5920   -1.5397 H   0  0  0  0  0  0  0  0  0  0  0  0
    0.4985   -0.8087    1.1782 H   0  0  0  0  0  0  0  0  0  0  0  0
   -0.1466   -2.4411    1.1096 H   0  0  0  0  0  0  0  0  0  0  0  0
   -1.8681   -0.9122    2.0281 H   0  0  0  0  0  0  0  0  0  0  0  0
   -2.4077   -1.3625    0.4012 H   0  0  0  0  0  0  0  0  0  0  0  0
   -1.6415    0.1990    0.6752 H   0  0  0  0  0  0  0  0  0  0  0  0
   -2.4589   -5.0339    0.6857 H   0  0  0  0  0  0  0  0  0  0  0  0
   -1.8320   -3.3939    0.7440 H   0  0  0  0  0  0  0  0  0  0  0  0
   -0.3574   -6.0044    1.3964 H   0  0  0  0  0  0  0  0  0  0  0  0
    0.4788   -4.4589    1.3150 H   0  0  0  0  0  0  0  0  0  0  0  0
   -0.7757   -4.7273    2.5369 H   0  0  0  0  0  0  0  0  0  0  0  0
   -3.9591  -11.6734   -1.4517 H   0  0  0  0  0  0  0  0  0  0  0  0
   -3.2289  -13.8311   -1.4572 H   0  0  0  0  0  0  0  0  0  0  0  0
   -4.0003  -15.4275   -1.4204 H   0  0  0  0  0  0  0  0  0  0  0  0
   -5.9635  -14.5609   -2.6404 H   0  0  0  0  0  0  0  0  0  0  0  0
   -4.4942  -14.2397   -3.5731 H   0  0  0  0  0  0  0  0  0  0  0  0
   -5.2771  -12.9398   -2.6750 H   0  0  0  0  0  0  0  0  0  0  0  0
   -3.9123  -12.2131    3.9297 H   0  0  0  0  0  0  0  0  0  0  0  0
   -9.2318  -14.9883    2.1710 H   0  0  0  0  0  0  0  0  0  0  0  0
  -10.3313  -16.4722    3.8460 H   0  0  0  0  0  0  0  0  0  0  0  0
   -9.2260  -16.9446    5.9844 H   0  0  0  0  0  0  0  0  0  0  0  0
   -7.0333  -15.9887    6.5185 H   0  0  0  0  0  0  0  0  0  0  0  0
  1  2  2  0  0  0  0
  2  3  1  0  0  0  0
  3  4  2  0  0  0  0
  3  5  1  0  0  0  0
  5  6  2  0  0  0  0
  6  7  1  0  0  0  0
  7  8  2  0  0  0  0
  8  9  1  0  0  0  0
  9 10  2  0  0  0  0
 10 11  1  0  0  0  0
 11 12  2  0  0  0  0
 12 13  1  0  0  0  0
 13 14  3  0  0  0  0
 12 15  1  0  0  0  0
 15 16  3  0  0  0  0
  1 17  1  0  0  0  0
 17 18  2  0  0  0  0
 18 19  1  0  0  0  0
 19 20  1  0  0  0  0
 20 21  2  0  0  0  0
 21 22  1  0  0  0  0
 22 23  2  0  0  0  0
 23 24  1  0  0  0  0
 23 25  1  0  0  0  0
 25 26  2  0  0  0  0
 19 27  1  0  0  0  0
 27 28  2  0  0  0  0
 28 29  1  0  0  0  0
 29 30  2  0  0  0  0
 30 31  1  0  0  0  0
 30 32  1  0  0  0  0
 32 33  2  0  0  0  0
 18 34  1  0  0  0  0
 34 35  1  0  0  0  0
 35 36  1  0  0  0  0
 36 37  2  0  0  0  0
 37 38  1  0  0  0  0
 38 39  1  0  0  0  0
 39 40  2  0  0  0  0
 40 41  1  0  0  0  0
 41 42  2  0  0  0  0
 42 43  1  0  0  0  0
 42 44  1  0  0  0  0
 44 45  2  0  0  0  0
 38 46  1  0  0  0  0
 46 47  2  0  0  0  0
 47 48  1  0  0  0  0
 48 49  2  0  0  0  0
 49 50  1  0  0  0  0
 49 51  1  0  0  0  0
 51 52  2  0  0  0  0
 37 53  1  0  0  0  0
 53 54  1  0  0  0  0
 36 55  1  0  0  0  0
 55 56  2  0  0  0  0
 56 57  1  0  0  0  0
 57 58  2  0  0  0  0
 58 59  1  0  0  0  0
 59 60  2  0  0  0  0
 60 61  1  0  0  0  0
 61 62  1  0  0  0  0
 62 63  1  0  0  0  0
 61 64  2  0  0  0  0
 56 65  1  0  0  0  0
 65 66  1  0  0  0  0
 66 67  1  0  0  0  0
 67 68  1  0  0  0  0
 68 69  1  0  0  0  0
 69 70  1  0  0  0  0
 70 71  2  0  0  0  0
 71 72  1  0  0  0  0
 72 73  1  0  0  0  0
 70 74  1  0  0  0  0
 74 75  1  0  0  0  0
 75 76  1  0  0  0  0
 76 77  1  0  0  0  0
 77 78  1  0  0  0  0
 78 79  1  0  0  0  0
 79 80  2  0  0  0  0
 80 81  1  0  0  0  0
 81 82  2  0  0  0  0
 82 83  1  0  0  0  0
 83 84  1  0  0  0  0
 84 85  1  0  0  0  0
 83 86  2  0  0  0  0
 78 87  2  0  0  0  0
 87 88  1  0  0  0  0
 88 89  1  0  0  0  0
 89 90  1  0  0  0  0
 90 91  1  0  0  0  0
 91 92  1  0  0  0  0
 92 93  1  0  0  0  0
 93 94  1  0  0  0  0
 94 95  1  0  0  0  0
 95 96  1  0  0  0  0
 96 97  1  0  0  0  0
 94 98  1  0  0  0  0
 98 99  1  0  0  0  0
 91100  1  0  0  0  0
100101  1  0  0  0  0
 87102  1  0  0  0  0
102103  2  0  0  0  0
103104  1  0  0  0  0
104105  1  0  0  0  0
105106  1  0  0  0  0
106107  1  0  0  0  0
104108  2  0  0  0  0
108109  1  0  0  0  0
108110  1  0  0  0  0
110111  2  0  0  0  0
111112  1  0  0  0  0
112113  2  0  0  0  0
112114  1  0  0  0  0
114115  2  0  0  0  0
115116  1  0  0  0  0
116117  2  0  0  0  0
117118  1  0  0  0  0
118119  2  0  0  0  0
119120  1  0  0  0  0
120121  2  0  0  0  0
121122  1  0  0  0  0
122123  3  0  0  0  0
121124  1  0  0  0  0
124125  3  0  0  0  0
 11  2  1  0  0  0  0
 54 17  1  0  0  0  0
 97 55  1  0  0  0  0
109102  1  0  0  0  0
120111  1  0  0  0  0
 10  5  1  0  0  0  0
 26 20  1  0  0  0  0
 33 27  1  0  0  0  0
 53 34  2  0  0  0  0
 64 57  1  0  0  0  0
 96 65  2  0  0  0  0
119114  1  0  0  0  0
 45 39  1  0  0  0  0
 52 46  1  0  0  0  0
 95 67  2  0  0  0  0
 93 68  2  0  0  0  0
 73 69  2  0  0  0  0
 92 74  2  0  0  0  0
 90 75  2  0  0  0  0
 89 77  2  0  0  0  0
 86 79  1  0  0  0  0
  1126  1  0  0  0  0
  6127  1  0  0  0  0
  7128  1  0  0  0  0
  8129  1  0  0  0  0
  9130  1  0  0  0  0
 21131  1  0  0  0  0
 22132  1  0  0  0  0
 24133  1  0  0  0  0
 24134  1  0  0  0  0
 24135  1  0  0  0  0
 25136  1  0  0  0  0
 26137  1  0  0  0  0
 28138  1  0  0  0  0
 29139  1  0  0  0  0
 31140  1  0  0  0  0
 31141  1  0  0  0  0
 31142  1  0  0  0  0
 32143  1  0  0  0  0
 33144  1  0  0  0  0
 40145  1  0  0  0  0
 41146  1  0  0  0  0
 43147  1  0  0  0  0
 43148  1  0  0  0  0
 43149  1  0  0  0  0
 44150  1  0  0  0  0
 45151  1  0  0  0  0
 47152  1  0  0  0  0
 48153  1  0  0  0  0
 50154  1  0  0  0  0
 50155  1  0  0  0  0
 50156  1  0  0  0  0
 51157  1  0  0  0  0
 52158  1  0  0  0  0
 58159  1  0  0  0  0
 59160  1  0  0  0  0
 60161  1  0  0  0  0
 62162  1  0  0  0  0
 62163  1  0  0  0  0
 63164  1  0  0  0  0
 63165  1  0  0  0  0
 63166  1  0  0  0  0
 64167  1  0  0  0  0
 80168  1  0  0  0  0
 81169  1  0  0  0  0
 82170  1  0  0  0  0
 84171  1  0  0  0  0
 84172  1  0  0  0  0
 85173  1  0  0  0  0
 85174  1  0  0  0  0
 85175  1  0  0  0  0
 86176  1  0  0  0  0
 98177  1  0  0  0  0
 98178  1  0  0  0  0
 99179  1  0  0  0  0
 99180  1  0  0  0  0
 99181  1  0  0  0  0
100182  1  0  0  0  0
100183  1  0  0  0  0
101184  1  0  0  0  0
101185  1  0  0  0  0
101186  1  0  0  0  0
103187  1  0  0  0  0
106188  1  0  0  0  0
106189  1  0  0  0  0
107190  1  0  0  0  0
107191  1  0  0  0  0
107192  1  0  0  0  0
110193  1  0  0  0  0
115194  1  0  0  0  0
116195  1  0  0  0  0
117196  1  0  0  0  0
118197  1  0  0  0  0
M  END
