197

C          1.82450       10.02470        2.87040
C          1.71370       11.22190        2.21410
C          1.36130       12.44210        2.97530
O          1.32290       12.56380        4.18150
C          1.02210       13.45270        1.94910
C          0.52060       14.72830        2.11160
C          0.25100       15.47810        0.97420
C          0.47390       14.94910       -0.28810
C          0.98660       13.66880       -0.45690
C          1.26970       12.91890        0.67130
C          1.84110       11.58030        0.82630
C          2.61270       10.94250       -0.11590
C          3.39420        9.80350        0.15620
N          4.09850        8.91610        0.35180
C          2.81710       11.43730       -1.41580
N          3.02350       11.79970       -2.48670
C          1.73650        8.73280        2.33210
C          2.28490        7.54570        2.84580
N          3.03140        7.42500        3.98590
C          4.14400        6.56030        3.97400
C          4.41680        5.74760        5.06800
C          5.50880        4.90090        5.04150
C          6.34170        4.84000        3.93210
C          7.52170        3.91870        3.89330
C          6.06120        5.66370        2.84600
C          4.98090        6.52110        2.86040
C          2.71890        8.14000        5.15110
C          1.38880        8.31510        5.53060
C          1.08280        9.02800        6.67140
C          2.08500        9.57450        7.46620
C          1.73630       10.37780        8.67940
C          3.40810        9.37780        7.08960
C          3.72910        8.67160        5.94690
C          2.05960        6.46700        1.96040
S          2.44320        4.78090        2.01500
C          1.63310        4.53500        0.48030
C          1.03770        5.68920       -0.00920
N          0.25400        5.76900       -1.14630
C         -0.57710        4.69840       -1.50180
C         -1.23930        3.96400       -0.52120
C         -1.98050        2.85020       -0.86450
C         -2.08630        2.43520       -2.18490
C         -2.81420        1.17770       -2.54990
C         -1.47780        3.21190       -3.16470
C         -0.74310        4.33210       -2.83570
C          0.36650        6.89940       -1.97250
C          1.59140        7.54190       -2.12870
C          1.69770        8.64370       -2.95260
C          0.59380        9.14480       -3.63120
C          0.72880       10.32810       -4.53820
C         -0.62780        8.50450       -3.45920
C         -0.74770        7.39830       -2.64150
C          1.30880        6.78610        0.84130
S          0.86490        8.45180        0.81870
C          1.60790        3.25500       -0.16660
C          1.90510        3.01560       -1.49230
C          2.63230        3.96430       -2.33440
C          3.66470        4.72670       -1.79060
C          4.35960        5.61940       -2.58400
C          4.02350        5.77380       -3.91710
C          3.00950        5.00960       -4.48110
C          2.61370        5.21530       -5.91470
C          1.70620        6.44100       -6.04110
C          2.33590        4.09480       -3.68710
C          1.50200        1.71770       -1.87500
S          1.52040        0.87000       -3.40060
C          0.80920       -0.50300       -2.62150
C          0.39070       -1.80690       -2.92640
C          0.44690       -2.51020       -4.14750
C          0.02350       -3.87660       -4.17430
N          0.14970       -4.42530       -5.37290
S          0.75020       -3.30970       -6.38250
N          0.87150       -2.08660       -5.32820
C         -0.47170       -4.45600       -2.98770
C         -0.95800       -5.75060       -2.75700
S         -1.18940       -7.24000       -3.60870
C         -1.84450       -7.94020       -2.14660
C         -2.30150       -9.23320       -1.83760
C         -2.26240      -10.34110       -2.79840
C         -2.88450      -10.21560       -4.03510
C         -2.83500      -11.26230       -4.93820
C         -2.15590      -12.42480       -4.62250
C         -1.50780      -12.55740       -3.39900
C         -0.71430      -13.79420       -3.08720
C          0.68930      -13.69010       -3.68680
C         -1.56800      -11.50880       -2.49490
C         -2.71090       -9.31870       -0.51670
S         -2.50300       -7.80570        0.35080
C         -1.87590       -7.04930       -1.06950
C         -1.36370       -5.79550       -1.42330
N         -1.15500       -4.58170       -0.82880
C         -0.57690       -3.73450       -1.75990
C         -0.10000       -2.39120       -1.71980
N          0.04690       -1.44850       -0.71400
C          0.57850       -0.31450       -1.26060
C          0.96580        0.96360       -0.83240
S          0.93370        1.85430        0.64700
C         -0.25330       -1.44260        0.69710
C         -1.63480       -0.84740        0.96880
C         -1.55820       -4.42640        0.54840
C         -0.48220       -4.93080        1.51080
C         -3.30080      -10.42060        0.16190
C         -3.88400      -11.53890       -0.39040
C         -4.40240      -12.43720        0.55120
S         -5.03010      -14.00270        0.14180
C         -4.18270      -14.35360       -1.45340
C         -5.03290      -13.99920       -2.65860
C         -4.24240      -11.99660        1.87300
S         -3.38650      -10.46460        1.89380
C         -4.51970      -12.58440        3.11260
C         -5.48030      -13.52190        3.40980
C         -6.68350      -13.77370        2.60770
O         -6.97530      -13.26720        1.53710
C         -7.52370      -14.67950        3.41550
C         -8.76100      -15.21230        3.11590
C         -9.36550      -16.03690        4.05540
C         -8.73920      -16.30530        5.26320
C         -7.49520      -15.76790        5.57000
C         -6.88100      -14.94910        4.63660
C         -5.59520      -14.25240        4.65240
C         -4.64490      -14.34780        5.63630
C         -4.80630      -15.08530        6.82680
N         -4.87400      -15.65900        7.81940
C         -3.36910      -13.74870        5.58700
N         -2.30620      -13.31320        5.61050
H          1.93060       10.10910        3.94710
H          0.34810       15.12100        3.10190
H         -0.13910       16.48020        1.07210
H          0.24620       15.54260       -1.16100
H          1.14370       13.27430       -1.44800
H          3.76990        5.77970        5.93230
H          5.70970        4.27180        5.89660
H          8.44220        4.48710        3.76530
H          7.59590        3.33950        4.81000
H          7.43750        3.23150        3.05240
H          6.70600        5.63820        1.97970
H          4.78520        7.17050        2.01950
H          0.60230        7.89210        4.92220
H          0.04850        9.16370        6.95110
H          0.90430        9.92720        9.21680
H          1.43580       11.38170        8.37840
H          2.58750       10.46350        9.35000
H          4.20140        9.79430        7.69290
H          4.76060        8.53750        5.65710
H         -1.16230        4.26270        0.51440
H         -2.48360        2.29410       -0.08560
H         -3.41050        1.32250       -3.44830
H         -2.09830        0.37930       -2.75250
H         -3.46700        0.85550       -1.74180
H         -1.56780        2.92270       -4.20180
H         -0.27170        4.92180       -3.60610
H          2.46420        7.16900       -1.61560
H          2.65930        9.11980       -3.07380
H          1.49930       11.00270       -4.17140
H         -0.21260       10.86720       -4.61700
H          1.01510       10.00080       -5.53850
H         -1.50280        8.88040       -3.97030
H         -1.70610        6.91580       -2.51470
H          3.93430        4.60500       -0.75180
H          5.16010        6.20500       -2.15640
H          4.55820        6.48580       -4.52850
H          3.50540        5.36640       -6.52690
H          2.08940        4.33280       -6.28610
H          0.80290        6.31280       -5.44820
H          1.42070        6.59850       -7.07870
H          2.21730        7.32990       -5.67900
H          1.56070        3.48090       -4.12040
H         -3.41500       -9.30740       -4.27760
H         -3.32850      -11.16850       -5.89400
H         -2.12060      -13.23830       -5.33290
H         -0.63240      -13.92440       -2.00590
H         -1.21780      -14.67120       -3.50050
H          1.21170      -12.82880       -3.27670
H          1.26480      -14.58520       -3.46300
H          0.63310      -13.57310       -4.76650
H         -1.06800      -11.59200       -1.53970
H          0.49850       -0.80870        1.17820
H         -0.14660       -2.44110        1.10960
H         -1.86810       -0.91220        2.02810
H         -2.40770       -1.36250        0.40120
H         -1.64150        0.19900        0.67520
H         -2.45890       -5.03390        0.68570
H         -1.83200       -3.39390        0.74400
H         -0.35740       -6.00440        1.39640
H          0.47880       -4.45890        1.31500
H         -0.77570       -4.72730        2.53690
H         -3.95910      -11.67340       -1.45170
H         -3.22890      -13.83110       -1.45720
H         -4.00030      -15.42750       -1.42040
H         -5.96350      -14.56090       -2.64040
H         -4.49420      -14.23970       -3.57310
H         -5.27710      -12.93980       -2.67500
H         -3.91230      -12.21310        3.92970
H         -9.23180      -14.98830        2.17100
H        -10.33130      -16.47220        3.84600
H         -9.22600      -16.94460        5.98440
H         -7.03330      -15.98870        6.51850
