249

C         -4.06370      -10.73200        4.55690
C         -4.84440      -10.65430        5.69140
C         -5.93440       -9.70800        5.93330
O         -6.28160       -8.76680        5.23970
C         -6.56590      -10.13050        7.19970
C         -7.64370       -9.57520        7.85840
C         -8.06020      -10.16330        9.04540
C         -7.40340      -11.27740        9.54480
C         -6.31570      -11.83680        8.88470
C         -5.89240      -11.25800        7.69990
C         -4.78940      -11.58310        6.79310
C         -3.86210      -12.57640        7.00270
C         -2.70680      -12.79460        6.22950
N         -1.72300      -13.02390        5.67900
C         -3.91840      -13.50110        8.06370
N         -3.91100      -14.30160        8.88800
C         -4.00670       -9.90590        3.43920
C         -3.13480      -10.14280        2.34210
N         -2.41260      -11.28520        2.12820
C         -2.89740      -12.56510        2.45910
C         -2.01380      -13.54720        2.90030
C         -2.48450      -14.80450        3.22080
C         -3.83610      -15.11350        3.12150
C         -4.33180      -16.47080        3.51420
C         -4.70630      -14.13150        2.66240
C         -4.24860      -12.87370        2.32390
C         -1.18980      -11.19460        1.43370
C         -0.27470      -10.19560        1.75730
C          0.91310      -10.09570        1.06300
C          1.22370      -10.98560        0.03980
C          2.51090      -10.84990       -0.71330
C          0.31440      -11.99170       -0.25910
C         -0.87980      -12.10130        0.42620
C         -3.09740       -9.02720        1.48940
S         -2.25830       -8.66410        0.01590
C         -3.02900       -7.08890       -0.06010
C         -3.94160       -6.89990        0.96890
N         -4.76960       -5.80030        1.09680
C         -5.17430       -5.42100        2.38970
C         -4.24180       -5.36320        3.42150
C         -4.64650       -5.05270        4.70390
C         -5.97950       -4.78350        4.98830
C         -6.41500       -4.50110        6.39300
C         -6.89720       -4.81370        3.94590
C         -6.50710       -5.13000        2.66020
C         -5.31060       -5.16190       -0.02540
C         -5.55080       -3.78960        0.00750
C         -6.04460       -3.14150       -1.10710
C         -6.30930       -3.83320       -2.28290
C         -6.78600       -3.11770       -3.50950
C         -6.09750       -5.20620       -2.29720
C         -5.60660       -5.86750       -1.18970
C         -3.95770       -8.00120        1.85870
S         -4.85660       -8.36310        3.28760
C         -2.64700       -6.09830       -1.02430
C         -2.55590       -6.15390       -2.39680
C         -2.80880       -7.32180       -3.24630
C         -3.74730       -7.22520       -4.26960
C         -3.98940       -8.31210       -5.08720
C         -3.29970       -9.49650       -4.89530
C         -2.34000       -9.60030       -3.89670
C         -1.62110      -10.89580       -3.65550
C         -2.45110      -11.78350       -2.72680
C         -2.09540       -8.50250       -3.08520
C         -2.22660       -4.89330       -2.94050
S         -1.97060       -4.35720       -4.58170
C         -1.54430       -2.79070       -3.97880
C         -1.10590       -1.54460       -4.46660
C         -0.96030       -1.00610       -5.76470
C         -0.55690        0.36990       -5.91540
N         -0.52680        0.74900       -7.18280
S         -0.95770       -0.50760       -8.10840
N         -1.20280       -1.58860       -6.92820
C         -0.18030        1.10760       -4.77020
C          0.42370        2.36710       -4.59440
S          0.95250        3.71370       -5.54830
C          1.60730        4.44850       -4.10430
C          2.34600        5.62240       -3.88750
C          2.75370        6.52860       -4.96600
C          1.80150        7.12670       -5.78330
C          2.20370        7.98730       -6.78690
C          3.54680        8.25590       -6.98140
C          4.51210        7.64520       -6.19160
C          5.97080        7.95830       -6.36090
C          6.39860        9.01640       -5.34220
C          4.10350        6.77610       -5.19260
C          2.68090        5.77610       -2.55000
S          2.07420        4.45100       -1.56060
C          1.40120        3.68560       -2.95300
C          0.73190        2.49040       -3.23610
N          0.32750        1.36880       -2.55170
C         -0.25210        0.52110       -3.48130
C         -0.86340       -0.74050       -3.32420
N         -1.21700       -1.43820       -2.18340
C         -1.61550       -2.68970       -2.58610
C         -2.02110       -3.89300       -1.99360
S         -2.27920       -4.48820       -0.39500
C         -1.71240       -0.86130       -0.95040
C         -3.23900       -0.89510       -0.90090
C          1.05730        0.96030       -1.36740
C          2.53230        0.71670       -1.68590
C          3.29060        6.90310       -1.93560
C          3.74760        7.03710       -0.62550
N          3.84920        6.02370        0.31820
C          4.48990        4.81900        0.02300
C          4.19600        3.67050        0.75790
C          4.81270        2.47340        0.45780
C          5.72190        2.37260       -0.58770
C          6.36550        1.06530       -0.93680
C          6.00720        3.51940       -1.31940
C          5.41130        4.72720       -1.01930
C          3.50740        6.35680        1.64340
C          4.32120        5.99580        2.71250
C          3.96000        6.33470        4.00150
C          2.79350        7.04440        4.26040
C          2.38640        7.37620        5.66190
C          1.99780        7.41930        3.18330
C          2.34490        7.08290        1.89040
C          4.12390        8.37020       -0.35350
S          4.74800        9.17360        1.03970
C          4.87380       10.69360        0.13980
C          4.49520       10.53500       -1.20530
N          4.50470       11.50730       -2.16600
C          5.52180       12.47430       -2.21830
C          5.21850       13.79570       -2.53330
C          6.22280       14.74230       -2.57580
C          7.54420       14.40220       -2.30740
C          8.61920       15.44300       -2.30550
C          7.83910       13.07630       -2.01110
C          6.84590       12.11860       -1.97020
C          3.52400       11.48190       -3.17620
C          2.19930       11.19170       -2.85670
C          1.25210       11.12660       -3.85760
C          1.59100       11.35550       -5.18710
C          0.54460       11.28520       -6.25560
C          2.90830       11.67450       -5.48810
C          3.86910       11.74090       -4.49790
C          4.01430        9.22770       -1.43530
S          3.40890        8.41090       -2.83370
C          5.29060       11.85920        0.79580
C          5.18510       12.13720        2.13490
C          6.07600       13.13960        2.75880
O          6.82180       13.90950        2.19030
C          5.89300       12.96320        4.21740
C          6.56790       13.56130        5.26210
C          6.22760       13.19710        6.55860
C          5.24040       12.25120        6.78950
C          4.55170       11.65260        5.74140
C          4.87700       12.01760        4.44700
C          4.32770       11.60000        3.15650
C          3.07440       11.06450        2.97140
C          2.45910       10.93410        1.71220
N          1.89540       10.86780        0.71240
C          2.20950       10.72420        4.02480
N          1.45760       10.43980        4.84660
H         -3.37510      -11.56650        4.52240
H         -8.13950       -8.70780        7.44980
H         -8.90080       -9.75160        9.58370
H         -7.74080      -11.72380       10.46850
H         -5.82490      -12.70270        9.29800
H         -0.96550      -13.31590        3.00330
H         -1.79170      -15.55300        3.57420
H         -3.73620      -17.24860        3.03950
H         -4.24640      -16.60080        4.59310
H         -5.37330      -16.60410        3.23280
H         -5.75850      -14.35480        2.55990
H         -4.93640      -12.12370        1.96140
H         -0.49970       -9.50630        2.55780
H          1.61560       -9.31670        1.32100
H          2.53260       -9.90500       -1.25560
H          3.35660      -10.85710       -0.02720
H          2.63370      -11.66090       -1.42640
H          0.53900      -12.69810       -1.04490
H         -1.58060      -12.88550        0.18190
H         -3.20220       -5.56920        3.21010
H         -3.91570       -5.02270        5.49930
H         -6.51150       -5.43990        6.93900
H         -7.37790       -3.99660        6.41030
H         -5.68280       -3.88560        6.91190
H         -7.93820       -4.60450        4.14560
H         -7.23320       -5.16900        1.86150
H         -5.33690       -3.23720        0.91080
H         -6.22040       -2.07600       -1.06520
H         -7.32410       -2.21000       -3.24690
H         -5.93410       -2.83760       -4.13120
H         -7.43710       -3.75570       -4.10280
H         -6.32860       -5.77240       -3.18770
H         -5.45700       -6.93660       -1.22520
H         -4.28330       -6.29970       -4.41380
H         -4.72030       -8.23580       -5.87890
H         -3.49790      -10.34490       -5.53470
H         -1.45790      -11.41400       -4.60270
H         -0.65130      -10.70340       -3.19280
H         -3.42780      -11.98040       -3.16340
H         -1.94870      -12.73250       -2.55680
H         -2.59350      -11.28780       -1.76900
H         -1.31930       -8.55900       -2.33600
H          0.75380        6.92340       -5.61980
H          1.46470        8.45290       -7.42150
H          3.85160        8.93880       -7.76130
H          6.15930        8.32970       -7.36980
H          6.56410        7.05330       -6.21330
H          6.22540        8.65900       -4.32950
H          7.45440        9.25330       -5.45420
H          5.81720        9.92410       -5.48220
H          4.84090        6.28250       -4.57450
H         -1.30360       -1.42590       -0.10550
H         -1.38830        0.17680       -0.89140
H         -3.65250       -0.36480       -1.75630
H         -3.58360       -0.41330        0.01000
H         -3.60670       -1.91710       -0.91240
H          0.96590        1.75100       -0.61650
H          0.63190        0.03740       -0.98000
H          3.03900        0.34470       -0.80050
H          2.62520       -0.02070       -2.48090
H          3.02150        1.63530       -1.99790
H          3.47460        3.72430        1.55900
H          4.57530        1.59790        1.04540
H          6.26400        0.35220       -0.12240
H          5.89550        0.63960       -1.82410
H          7.42300        1.20240       -1.15360
H          6.71640        3.46720       -2.13330
H          5.66200        5.60840       -1.59160
H          5.23740        5.45440        2.52780
H          4.60180        6.04720        4.82210
H          3.24820        7.38680        6.32550
H          1.89290        8.34520        5.69750
H          1.68290        6.62920        6.03100
H          1.09190        7.97950        3.36200
H          1.71560        7.37940        1.06350
H          4.19360       14.07180       -2.73190
H          5.97450       15.76730       -2.80970
H          9.58140       15.01020       -2.56920
H          8.70590       15.87430       -1.30780
H          8.38690       16.24590       -3.00090
H          8.86070       12.78970       -1.80880
H          7.08650       11.09030       -1.74210
H          1.92190       11.02760       -1.82590
H          0.22790       10.89820       -3.60250
H         -0.04600       10.37750       -6.15010
H         -0.13370       12.13470       -6.17360
H          0.99540       11.30150       -7.24440
H          3.19110       11.86790       -6.51280
H          4.89130       11.99210       -4.74200
H          5.81220       12.60980        0.21160
H          7.33720       14.29170        5.06350
H          6.73850       13.65090        7.39480
H          4.99850       11.97200        7.80430
H          3.79330       10.91300        5.94260
