134

N          9.55670       -7.26920       -8.95890
C          8.58120       -7.76100       -8.61270
C          7.35370       -8.37720       -8.26730
C          7.07370       -9.60230       -8.81340
C          5.94920      -10.37580       -8.45060
N          5.09210      -11.06500       -8.12600
C          7.95580      -10.23000       -9.72150
N          8.65410      -10.75410      -10.46360
C          6.42430       -7.68060       -7.40110
C          5.04020       -7.72460       -7.67180
N          4.36960       -8.23750       -8.71140
N          3.12590       -7.93470       -8.46900
C          2.06940       -8.32330       -9.35720
C          1.57090       -7.12140      -10.15170
N          2.88800       -7.26230       -7.38380
C          4.08980       -7.10200       -6.81590
C          4.47200       -6.44190       -5.62370
C          5.84870       -6.34780       -5.42370
C          6.79450       -6.94130       -6.28310
Cl         8.46490       -6.83560       -5.86270
Cl         6.46030       -5.54080       -4.02990
C          3.46600       -5.95820       -4.71990
C          2.22800       -6.53170       -4.47980
C          1.71710       -7.80210       -5.01610
C          0.54490       -7.74310       -5.76770
C         -0.00590       -8.88560       -6.31010
C          0.60360      -10.10960       -6.08570
C          1.74120      -10.17630       -5.30550
C          2.31830       -9.03550       -4.75710
C          3.51890       -9.18670       -3.86110
C          4.71330       -9.82630       -4.56910
C          1.46780       -5.75150       -3.59260
S         -0.12210       -5.97530       -2.90350
C          0.08160       -4.49220       -2.03450
C         -0.61360       -3.70120       -1.10860
C         -1.83690       -3.92690       -0.44070
C         -2.25700       -2.99590        0.56410
N         -3.38970       -3.35620        1.14690
S         -3.88670       -4.74680        0.48360
N         -2.67540       -4.94290       -0.57210
C         -1.49200       -1.82720        0.77060
C         -1.73940       -0.70430        1.57220
S         -2.90960       -0.15170        2.72080
C         -2.05630        1.37130        2.80460
C         -2.30250        2.54580        3.52580
C         -3.43410        2.71380        4.45210
C         -3.24890        2.65740        5.83570
C         -1.89760        2.38860        6.43460
C         -1.62890        0.88350        6.49700
C         -4.35930        2.79820        6.65620
C         -5.62240        2.99350        6.12780
C         -5.79790        3.04020        4.75590
C         -4.70610        2.89580        3.92160
C         -1.35720        3.51570        3.23390
S         -0.13890        2.96700        2.09550
C         -0.92010        1.42840        1.98500
C         -0.73740        0.22920        1.28650
N          0.13830       -0.28970        0.37110
C         -0.29910       -1.56140        0.03760
C          0.20310       -2.56650       -0.83250
N          1.38130       -2.69720       -1.55140
C          1.30710       -3.86130       -2.26760
C          2.10900       -4.58870       -3.15570
S          3.69520       -4.46660       -3.82080
C          2.66640       -2.06200       -1.35970
C          3.17510       -2.24490        0.06780
C          1.05420        0.59300       -0.31620
C          0.62820        0.82480       -1.76370
C         -1.29110        4.85410        3.67370
S         -2.55810        5.56960        4.70440
C         -1.69390        7.05480        4.60240
N         -1.90590        8.26630        5.08370
C         -0.96990        9.09340        4.73170
S          0.33740        8.35060        3.73700
C         -0.52650        6.87950        3.82250
N         -0.33000        5.66380        3.32090
C         -0.85410       10.46230        5.05630
C         -1.84950       11.28740        5.48570
C         -3.31260       11.00480        5.41970
O         -3.87530        9.99060        5.08420
C         -3.96490       12.28830        5.76170
C         -5.31850       12.55150        5.80180
C         -5.72650       13.84380        6.13720
O         -7.01010       14.24920        6.22010
C         -8.03600       13.32110        5.94410
C         -4.75980       14.82300        6.41490
C         -3.40860       14.55020        6.37080
C         -2.99430       13.26330        6.03960
C         -1.67420       12.66790        5.91100
C         -0.48620       13.28390        6.20910
C          0.78620       12.67690        6.16230
N          1.85440       12.25500        6.16820
C         -0.38070       14.62350        6.63890
N         -0.22520       15.70700        6.98520
H          1.26270       -8.73600       -8.74620
H          2.47570       -9.09260      -10.01510
H          0.75680       -7.42440      -10.80330
H          1.21180       -6.35240       -9.47260
H          2.37100       -6.70910      -10.76180
H          0.08350       -6.78280       -5.94100
H         -0.91020       -8.82390       -6.89770
H          0.18410      -11.01220       -6.50470
H          2.19070      -11.13760       -5.10660
H          3.23510       -9.82160       -3.01640
H          3.81460       -8.21710       -3.45860
H          4.47170      -10.82440       -4.92360
H          5.55650       -9.89870       -3.88600
H          5.01760       -9.23220       -5.42690
H         -1.11580        2.86940        5.84380
H         -1.86040        2.80230        7.44390
H         -2.39200        0.38860        7.09310
H         -0.65710        0.69090        6.94540
H         -1.64280        0.45060        5.49950
H         -4.22730        2.75460        7.72780
H         -6.47000        3.10640        6.78700
H         -6.78120        3.18720        4.33570
H         -4.82990        2.93060        2.84900
H          3.35800       -2.54840       -2.05210
H          2.62200       -1.00920       -1.63950
H          2.47710       -1.83180        0.79220
H          3.30040       -3.30340        0.28380
H          4.13660       -1.75240        0.18410
H          1.03050        1.54340        0.22250
H          2.07430        0.21390       -0.25220
H         -0.35260        1.29370       -1.79030
H          0.57110       -0.11160       -2.31370
H          1.33850        1.48180       -2.25800
H          0.13900       10.86900        4.91390
H         -6.01300       11.75770        5.57800
H         -7.96980       12.94590        4.91870
H         -8.96820       13.86900        6.06900
H         -8.01250       12.48010        6.64320
H         -5.10980       15.81170        6.66640
H         -2.70000       15.33310        6.58490
