181

N         -1.05230      -11.22090        8.02070
C          0.01910      -10.83400        7.90390
C          1.34260      -10.34360        7.74630
C          2.27450      -10.75790        8.67150
C          1.90710      -11.64070        9.71160
N          1.62970      -12.35700       10.56230
C          3.62440      -10.36020        8.70380
N          4.72820      -10.05370        8.77850
C          1.56820       -9.46690        6.64350
C          2.74350       -8.89650        6.22370
C          2.59500       -8.08640        5.08210
C          3.59130       -7.31560        4.44350
C          4.97520       -7.38950        4.87310
S          5.89260       -5.96240        5.25130
C          7.30080       -6.88140        5.65360
C          8.53210       -6.22340        6.16860
C          8.45220       -6.03490        7.68580
C          7.06220       -8.21510        5.49430
Cl         8.22570       -9.43870        5.78950
C          5.74590       -8.50730        5.05040
Cl         5.22950      -10.10460        4.69500
C          3.17440       -6.49740        3.40820
C          1.83280       -6.45550        2.94640
C          0.83290       -7.19380        3.60630
C         -0.57530       -7.01890        3.29490
S         -1.65010       -8.36820        3.08190
C         -3.02950       -7.34210        2.89710
C         -4.39570       -7.90580        2.72090
C         -5.05380       -8.16420        4.07880
C         -2.66450       -6.03270        3.00250
C         -1.27510       -5.84330        3.22400
Cl        -0.59380       -4.28580        3.46520
Cl        -3.76180       -4.72090        2.87810
C          1.24660       -8.01640        4.64580
S          0.20690       -8.99860        5.63170
C          1.68780       -5.59070        1.84070
C          2.82950       -4.91100        1.51640
S          4.18540       -5.39950        2.51000
C          2.88100       -3.84030        0.57100
C          3.50550       -2.61460        0.69620
C          4.46740       -2.21870        1.77050
C          3.72640       -1.83690        3.05310
C          2.99710       -1.70720       -0.24740
S          3.11890        0.02510       -0.39190
C          1.85900       -0.00260       -1.58280
C          0.94780        0.96480       -2.11640
C          0.86570        2.33880       -1.91570
C         -0.26620        2.97420       -2.37210
C         -0.65820        4.43080       -2.19020
C         -0.53720        4.79660       -0.72480
C          0.66740        5.27500       -0.22470
C          0.80210        5.56550        1.11920
C         -0.25790        5.38570        1.99860
C         -0.09200        5.66060        3.46520
C          0.44670        4.42100        4.18230
C         -1.45580        4.89710        1.49550
C         -1.59480        4.60140        0.15180
C          0.11760        5.38920       -3.07790
C         -0.04670        6.75680       -2.89160
C          0.59960        7.65840       -3.71370
C          1.42120        7.21990       -4.74520
C          2.16040        8.20200       -5.60700
C          3.51340        8.54740       -4.98150
C          1.57660        5.85310       -4.92880
C          0.92890        4.94440       -4.11070
C         -2.07240        4.40580       -2.70510
C         -2.38050        3.15720       -3.21790
C         -1.29520        2.24920       -3.01560
C         -1.18790        0.88340       -3.26860
C         -0.06110        0.24710       -2.80840
C          0.31160       -1.22500       -2.90800
C         -0.71810       -2.24580       -2.48050
C         -0.75100       -3.49800       -3.08160
C         -1.57830       -4.48770       -2.59180
C         -2.36760       -4.27000       -1.46960
C         -3.18900       -5.39380       -0.90500
C         -2.28740       -6.51920       -0.39610
C         -2.33460       -3.01640       -0.87430
C         -1.52410       -2.01240       -1.37480
C          0.77720       -1.42940       -4.34380
C         -0.16570       -1.46630       -5.36480
C          0.22670       -1.61860       -6.67980
C          1.57020       -1.73740       -7.01470
C          1.99760       -1.85820       -8.44870
C          2.21890       -0.47240       -9.05850
C          2.50760       -1.69740       -5.99270
C          2.11930       -1.54450       -4.67340
C          1.44670       -1.27740       -1.92370
C          2.05780       -2.24840       -1.13340
S          1.76360       -3.91080       -0.79100
S         -3.98520        3.02850       -3.84960
C         -4.27480        4.68420       -3.39630
C         -5.41470        5.49350       -3.45910
C         -6.69460        5.02570       -4.06900
C         -6.81900        5.49550       -5.51990
C         -5.15940        6.74260       -2.90760
S         -3.49520        6.89810       -2.32840
C         -3.14970        5.28210       -2.80920
C         -6.02160        7.84680       -2.71040
C         -5.68480        9.03900       -2.08100
C         -6.73600        9.94200       -1.97670
C         -6.56230       11.27340       -1.31110
O         -6.07030       12.20670       -1.88570
C         -6.94630       11.28630        0.15150
C         -5.81030       10.67480        0.97590
C         -7.91440        9.46900       -2.55070
S         -7.67930        7.86620       -3.21120
C         -9.15740       10.14460       -2.63820
C        -10.31580        9.66380       -3.21890
C        -11.49320       10.44100       -3.23080
N        -12.46420       11.05080       -3.24670
C        -10.44720        8.40290       -3.82600
N        -10.60890        7.38360       -4.33070
C         -9.24510       11.44290       -2.06970
N         -9.36510       12.48210       -1.60330
H          3.68190       -9.03630        6.72540
H          8.65500       -5.25240        5.68590
H          9.39160       -6.84990        5.92340
H          8.33180       -6.99580        8.17890
H          9.36180       -5.56640        8.05140
H          7.60530       -5.40350        7.94380
H         -4.33370       -8.84230        2.16430
H         -4.99920       -7.19650        2.15090
H         -5.13540       -7.23740        4.64110
H         -4.46340       -8.87090        4.65690
H         -6.04990       -8.57430        3.93750
H          0.76170       -5.43900        1.31710
H          5.04260       -1.36010        1.41790
H          5.15980       -3.03610        1.97560
H          3.04740       -1.00820        2.86500
H          3.14820       -2.67900        3.42610
H          4.43650       -1.53880        3.81950
H          1.64120        2.86930       -1.38500
H          1.50090        5.43170       -0.89430
H          1.74490        5.94120        1.49080
H          0.60330        6.48990        3.61000
H         -1.05300        5.93980        3.90160
H         -0.23910        3.58540        4.06050
H          1.41110        4.13380        3.76910
H          0.56860        4.61870        5.24460
H         -2.29240        4.74550        2.16270
H         -2.53550        4.21530       -0.21410
H         -0.68140        7.11410       -2.09300
H          0.46050        8.71810       -3.55550
H          1.57150        9.11470       -5.71650
H          2.32090        7.77670       -6.59970
H          4.12050        7.65120       -4.87460
H          4.05010        9.25860       -5.60480
H          3.37350        8.98550       -3.99580
H          2.20880        5.49060       -5.72690
H          1.05910        3.88530       -4.27960
H         -1.99060        0.35150       -3.75500
H         -0.11870       -3.70540       -3.93190
H         -1.59720       -5.45060       -3.08120
H         -3.85100       -5.78940       -1.67970
H         -3.80790       -5.02560       -0.08550
H         -2.88270       -7.32270        0.03080
H         -1.68530       -6.92730       -1.20380
H         -1.61430       -6.14260        0.37080
H         -2.94020       -2.82420       -0.00010
H         -1.50140       -1.04460       -0.89260
H         -1.21610       -1.39410       -5.12570
H         -0.52160       -1.65040       -7.45880
H          1.23060       -2.38420       -9.02060
H          2.92480       -2.43120       -8.51200
H          2.99090        0.06310       -8.51030
H          2.52710       -0.55900      -10.09770
H          1.30200        0.11110       -9.01500
H          3.55820       -1.79180       -6.22820
H          2.87290       -1.52280       -3.90000
H         -7.54830        5.38840       -3.49330
H         -6.70650        3.93370       -4.04410
H         -6.77470        6.58000       -5.58110
H         -7.76850        5.16790       -5.93270
H         -6.01200        5.08180       -6.12050
H         -4.69400        9.23620       -1.71180
H         -7.10990       12.32070        0.45410
H         -7.86280       10.71540        0.30810
H         -4.88460       11.21910        0.80460
H         -5.65710        9.63030        0.71180
H         -6.05390       10.73100        2.03360
