
  xtb     02032218393D
 energy: -306.002514715355 gnorm: 0.000226420183 xtb: 6.4.1 (unknown)
181197  0     0  0            999 V2000
   -1.0523  -11.2209    8.0207 N   0  0  0  0  0  0  0  0  0  0  0  0
    0.0191  -10.8340    7.9039 C   0  0  0  0  0  0  0  0  0  0  0  0
    1.3426  -10.3436    7.7463 C   0  0  0  0  0  0  0  0  0  0  0  0
    2.2745  -10.7579    8.6715 C   0  0  0  0  0  0  0  0  0  0  0  0
    1.9071  -11.6407    9.7116 C   0  0  0  0  0  0  0  0  0  0  0  0
    1.6297  -12.3570   10.5623 N   0  0  0  0  0  0  0  0  0  0  0  0
    3.6244  -10.3602    8.7038 C   0  0  0  0  0  0  0  0  0  0  0  0
    4.7282  -10.0537    8.7785 N   0  0  0  0  0  0  0  0  0  0  0  0
    1.5682   -9.4669    6.6435 C   0  0  0  0  0  0  0  0  0  0  0  0
    2.7435   -8.8965    6.2237 C   0  0  0  0  0  0  0  0  0  0  0  0
    2.5950   -8.0864    5.0821 C   0  0  0  0  0  0  0  0  0  0  0  0
    3.5913   -7.3156    4.4435 C   0  0  0  0  0  0  0  0  0  0  0  0
    4.9752   -7.3895    4.8731 C   0  0  0  0  0  0  0  0  0  0  0  0
    5.8926   -5.9624    5.2513 S   0  0  0  0  0  0  0  0  0  0  0  0
    7.3008   -6.8814    5.6536 C   0  0  0  0  0  0  0  0  0  0  0  0
    8.5321   -6.2234    6.1686 C   0  0  0  0  0  0  0  0  0  0  0  0
    8.4522   -6.0349    7.6858 C   0  0  0  0  0  0  0  0  0  0  0  0
    7.0622   -8.2151    5.4943 C   0  0  0  0  0  0  0  0  0  0  0  0
    8.2257   -9.4387    5.7895 Cl  0  0  0  0  0  0  0  0  0  0  0  0
    5.7459   -8.5073    5.0504 C   0  0  0  0  0  0  0  0  0  0  0  0
    5.2295  -10.1046    4.6950 Cl  0  0  0  0  0  0  0  0  0  0  0  0
    3.1744   -6.4974    3.4082 C   0  0  0  0  0  0  0  0  0  0  0  0
    1.8328   -6.4555    2.9464 C   0  0  0  0  0  0  0  0  0  0  0  0
    0.8329   -7.1938    3.6063 C   0  0  0  0  0  0  0  0  0  0  0  0
   -0.5753   -7.0189    3.2949 C   0  0  0  0  0  0  0  0  0  0  0  0
   -1.6501   -8.3682    3.0819 S   0  0  0  0  0  0  0  0  0  0  0  0
   -3.0295   -7.3421    2.8971 C   0  0  0  0  0  0  0  0  0  0  0  0
   -4.3957   -7.9058    2.7209 C   0  0  0  0  0  0  0  0  0  0  0  0
   -5.0538   -8.1642    4.0788 C   0  0  0  0  0  0  0  0  0  0  0  0
   -2.6645   -6.0327    3.0025 C   0  0  0  0  0  0  0  0  0  0  0  0
   -1.2751   -5.8433    3.2240 C   0  0  0  0  0  0  0  0  0  0  0  0
   -0.5938   -4.2858    3.4652 Cl  0  0  0  0  0  0  0  0  0  0  0  0
   -3.7618   -4.7209    2.8781 Cl  0  0  0  0  0  0  0  0  0  0  0  0
    1.2466   -8.0164    4.6458 C   0  0  0  0  0  0  0  0  0  0  0  0
    0.2069   -8.9986    5.6317 S   0  0  0  0  0  0  0  0  0  0  0  0
    1.6878   -5.5907    1.8407 C   0  0  0  0  0  0  0  0  0  0  0  0
    2.8295   -4.9110    1.5164 C   0  0  0  0  0  0  0  0  0  0  0  0
    4.1854   -5.3995    2.5100 S   0  0  0  0  0  0  0  0  0  0  0  0
    2.8810   -3.8403    0.5710 C   0  0  0  0  0  0  0  0  0  0  0  0
    3.5055   -2.6146    0.6962 C   0  0  0  0  0  0  0  0  0  0  0  0
    4.4674   -2.2187    1.7705 C   0  0  0  0  0  0  0  0  0  0  0  0
    3.7264   -1.8369    3.0531 C   0  0  0  0  0  0  0  0  0  0  0  0
    2.9971   -1.7072   -0.2474 C   0  0  0  0  0  0  0  0  0  0  0  0
    3.1189    0.0251   -0.3919 S   0  0  0  0  0  0  0  0  0  0  0  0
    1.8590   -0.0026   -1.5828 C   0  0  0  0  0  0  0  0  0  0  0  0
    0.9478    0.9648   -2.1164 C   0  0  0  0  0  0  0  0  0  0  0  0
    0.8657    2.3388   -1.9157 C   0  0  0  0  0  0  0  0  0  0  0  0
   -0.2662    2.9742   -2.3721 C   0  0  0  0  0  0  0  0  0  0  0  0
   -0.6582    4.4308   -2.1902 C   0  0  0  0  0  0  0  0  0  0  0  0
   -0.5372    4.7966   -0.7248 C   0  0  0  0  0  0  0  0  0  0  0  0
    0.6674    5.2750   -0.2247 C   0  0  0  0  0  0  0  0  0  0  0  0
    0.8021    5.5655    1.1192 C   0  0  0  0  0  0  0  0  0  0  0  0
   -0.2579    5.3857    1.9986 C   0  0  0  0  0  0  0  0  0  0  0  0
   -0.0920    5.6606    3.4652 C   0  0  0  0  0  0  0  0  0  0  0  0
    0.4467    4.4210    4.1823 C   0  0  0  0  0  0  0  0  0  0  0  0
   -1.4558    4.8971    1.4955 C   0  0  0  0  0  0  0  0  0  0  0  0
   -1.5948    4.6014    0.1518 C   0  0  0  0  0  0  0  0  0  0  0  0
    0.1176    5.3892   -3.0779 C   0  0  0  0  0  0  0  0  0  0  0  0
   -0.0467    6.7568   -2.8916 C   0  0  0  0  0  0  0  0  0  0  0  0
    0.5996    7.6584   -3.7137 C   0  0  0  0  0  0  0  0  0  0  0  0
    1.4212    7.2199   -4.7452 C   0  0  0  0  0  0  0  0  0  0  0  0
    2.1604    8.2020   -5.6070 C   0  0  0  0  0  0  0  0  0  0  0  0
    3.5134    8.5474   -4.9815 C   0  0  0  0  0  0  0  0  0  0  0  0
    1.5766    5.8531   -4.9288 C   0  0  0  0  0  0  0  0  0  0  0  0
    0.9289    4.9444   -4.1107 C   0  0  0  0  0  0  0  0  0  0  0  0
   -2.0724    4.4058   -2.7051 C   0  0  0  0  0  0  0  0  0  0  0  0
   -2.3805    3.1572   -3.2179 C   0  0  0  0  0  0  0  0  0  0  0  0
   -1.2952    2.2492   -3.0156 C   0  0  0  0  0  0  0  0  0  0  0  0
   -1.1879    0.8834   -3.2686 C   0  0  0  0  0  0  0  0  0  0  0  0
   -0.0611    0.2471   -2.8084 C   0  0  0  0  0  0  0  0  0  0  0  0
    0.3116   -1.2250   -2.9080 C   0  0  0  0  0  0  0  0  0  0  0  0
   -0.7181   -2.2458   -2.4805 C   0  0  0  0  0  0  0  0  0  0  0  0
   -0.7510   -3.4980   -3.0816 C   0  0  0  0  0  0  0  0  0  0  0  0
   -1.5783   -4.4877   -2.5918 C   0  0  0  0  0  0  0  0  0  0  0  0
   -2.3676   -4.2700   -1.4696 C   0  0  0  0  0  0  0  0  0  0  0  0
   -3.1890   -5.3938   -0.9050 C   0  0  0  0  0  0  0  0  0  0  0  0
   -2.2874   -6.5192   -0.3961 C   0  0  0  0  0  0  0  0  0  0  0  0
   -2.3346   -3.0164   -0.8743 C   0  0  0  0  0  0  0  0  0  0  0  0
   -1.5241   -2.0124   -1.3748 C   0  0  0  0  0  0  0  0  0  0  0  0
    0.7772   -1.4294   -4.3438 C   0  0  0  0  0  0  0  0  0  0  0  0
   -0.1657   -1.4663   -5.3648 C   0  0  0  0  0  0  0  0  0  0  0  0
    0.2267   -1.6186   -6.6798 C   0  0  0  0  0  0  0  0  0  0  0  0
    1.5702   -1.7374   -7.0147 C   0  0  0  0  0  0  0  0  0  0  0  0
    1.9976   -1.8582   -8.4487 C   0  0  0  0  0  0  0  0  0  0  0  0
    2.2189   -0.4724   -9.0585 C   0  0  0  0  0  0  0  0  0  0  0  0
    2.5076   -1.6974   -5.9927 C   0  0  0  0  0  0  0  0  0  0  0  0
    2.1193   -1.5445   -4.6734 C   0  0  0  0  0  0  0  0  0  0  0  0
    1.4467   -1.2774   -1.9237 C   0  0  0  0  0  0  0  0  0  0  0  0
    2.0578   -2.2484   -1.1334 C   0  0  0  0  0  0  0  0  0  0  0  0
    1.7636   -3.9108   -0.7910 S   0  0  0  0  0  0  0  0  0  0  0  0
   -3.9852    3.0285   -3.8496 S   0  0  0  0  0  0  0  0  0  0  0  0
   -4.2748    4.6842   -3.3963 C   0  0  0  0  0  0  0  0  0  0  0  0
   -5.4147    5.4935   -3.4591 C   0  0  0  0  0  0  0  0  0  0  0  0
   -6.6946    5.0257   -4.0690 C   0  0  0  0  0  0  0  0  0  0  0  0
   -6.8190    5.4955   -5.5199 C   0  0  0  0  0  0  0  0  0  0  0  0
   -5.1594    6.7426   -2.9076 C   0  0  0  0  0  0  0  0  0  0  0  0
   -3.4952    6.8981   -2.3284 S   0  0  0  0  0  0  0  0  0  0  0  0
   -3.1497    5.2821   -2.8092 C   0  0  0  0  0  0  0  0  0  0  0  0
   -6.0216    7.8468   -2.7104 C   0  0  0  0  0  0  0  0  0  0  0  0
   -5.6848    9.0390   -2.0810 C   0  0  0  0  0  0  0  0  0  0  0  0
   -6.7360    9.9420   -1.9767 C   0  0  0  0  0  0  0  0  0  0  0  0
   -6.5623   11.2734   -1.3111 C   0  0  0  0  0  0  0  0  0  0  0  0
   -6.0703   12.2067   -1.8857 O   0  0  0  0  0  0  0  0  0  0  0  0
   -6.9463   11.2863    0.1515 C   0  0  0  0  0  0  0  0  0  0  0  0
   -5.8103   10.6748    0.9759 C   0  0  0  0  0  0  0  0  0  0  0  0
   -7.9144    9.4690   -2.5507 C   0  0  0  0  0  0  0  0  0  0  0  0
   -7.6793    7.8662   -3.2112 S   0  0  0  0  0  0  0  0  0  0  0  0
   -9.1574   10.1446   -2.6382 C   0  0  0  0  0  0  0  0  0  0  0  0
  -10.3158    9.6638   -3.2189 C   0  0  0  0  0  0  0  0  0  0  0  0
  -11.4932   10.4410   -3.2308 C   0  0  0  0  0  0  0  0  0  0  0  0
  -12.4642   11.0508   -3.2467 N   0  0  0  0  0  0  0  0  0  0  0  0
  -10.4472    8.4029   -3.8260 C   0  0  0  0  0  0  0  0  0  0  0  0
  -10.6089    7.3836   -4.3307 N   0  0  0  0  0  0  0  0  0  0  0  0
   -9.2451   11.4429   -2.0697 C   0  0  0  0  0  0  0  0  0  0  0  0
   -9.3651   12.4821   -1.6033 N   0  0  0  0  0  0  0  0  0  0  0  0
    3.6819   -9.0363    6.7254 H   0  0  0  0  0  0  0  0  0  0  0  0
    8.6550   -5.2524    5.6859 H   0  0  0  0  0  0  0  0  0  0  0  0
    9.3916   -6.8499    5.9234 H   0  0  0  0  0  0  0  0  0  0  0  0
    8.3318   -6.9958    8.1789 H   0  0  0  0  0  0  0  0  0  0  0  0
    9.3618   -5.5664    8.0514 H   0  0  0  0  0  0  0  0  0  0  0  0
    7.6053   -5.4035    7.9438 H   0  0  0  0  0  0  0  0  0  0  0  0
   -4.3337   -8.8423    2.1643 H   0  0  0  0  0  0  0  0  0  0  0  0
   -4.9992   -7.1965    2.1509 H   0  0  0  0  0  0  0  0  0  0  0  0
   -5.1354   -7.2374    4.6411 H   0  0  0  0  0  0  0  0  0  0  0  0
   -4.4634   -8.8709    4.6569 H   0  0  0  0  0  0  0  0  0  0  0  0
   -6.0499   -8.5743    3.9375 H   0  0  0  0  0  0  0  0  0  0  0  0
    0.7617   -5.4390    1.3171 H   0  0  0  0  0  0  0  0  0  0  0  0
    5.0426   -1.3601    1.4179 H   0  0  0  0  0  0  0  0  0  0  0  0
    5.1598   -3.0361    1.9756 H   0  0  0  0  0  0  0  0  0  0  0  0
    3.0474   -1.0082    2.8650 H   0  0  0  0  0  0  0  0  0  0  0  0
    3.1482   -2.6790    3.4261 H   0  0  0  0  0  0  0  0  0  0  0  0
    4.4365   -1.5388    3.8195 H   0  0  0  0  0  0  0  0  0  0  0  0
    1.6412    2.8693   -1.3850 H   0  0  0  0  0  0  0  0  0  0  0  0
    1.5009    5.4317   -0.8943 H   0  0  0  0  0  0  0  0  0  0  0  0
    1.7449    5.9412    1.4908 H   0  0  0  0  0  0  0  0  0  0  0  0
    0.6033    6.4899    3.6100 H   0  0  0  0  0  0  0  0  0  0  0  0
   -1.0530    5.9398    3.9016 H   0  0  0  0  0  0  0  0  0  0  0  0
   -0.2391    3.5854    4.0605 H   0  0  0  0  0  0  0  0  0  0  0  0
    1.4111    4.1338    3.7691 H   0  0  0  0  0  0  0  0  0  0  0  0
    0.5686    4.6187    5.2446 H   0  0  0  0  0  0  0  0  0  0  0  0
   -2.2924    4.7455    2.1627 H   0  0  0  0  0  0  0  0  0  0  0  0
   -2.5355    4.2153   -0.2141 H   0  0  0  0  0  0  0  0  0  0  0  0
   -0.6814    7.1141   -2.0930 H   0  0  0  0  0  0  0  0  0  0  0  0
    0.4605    8.7181   -3.5555 H   0  0  0  0  0  0  0  0  0  0  0  0
    1.5715    9.1147   -5.7165 H   0  0  0  0  0  0  0  0  0  0  0  0
    2.3209    7.7767   -6.5997 H   0  0  0  0  0  0  0  0  0  0  0  0
    4.1205    7.6512   -4.8746 H   0  0  0  0  0  0  0  0  0  0  0  0
    4.0501    9.2586   -5.6048 H   0  0  0  0  0  0  0  0  0  0  0  0
    3.3735    8.9855   -3.9958 H   0  0  0  0  0  0  0  0  0  0  0  0
    2.2088    5.4906   -5.7269 H   0  0  0  0  0  0  0  0  0  0  0  0
    1.0591    3.8853   -4.2796 H   0  0  0  0  0  0  0  0  0  0  0  0
   -1.9906    0.3515   -3.7550 H   0  0  0  0  0  0  0  0  0  0  0  0
   -0.1187   -3.7054   -3.9319 H   0  0  0  0  0  0  0  0  0  0  0  0
   -1.5972   -5.4506   -3.0812 H   0  0  0  0  0  0  0  0  0  0  0  0
   -3.8510   -5.7894   -1.6797 H   0  0  0  0  0  0  0  0  0  0  0  0
   -3.8079   -5.0256   -0.0855 H   0  0  0  0  0  0  0  0  0  0  0  0
   -2.8827   -7.3227    0.0308 H   0  0  0  0  0  0  0  0  0  0  0  0
   -1.6853   -6.9273   -1.2038 H   0  0  0  0  0  0  0  0  0  0  0  0
   -1.6143   -6.1426    0.3708 H   0  0  0  0  0  0  0  0  0  0  0  0
   -2.9402   -2.8242   -0.0001 H   0  0  0  0  0  0  0  0  0  0  0  0
   -1.5014   -1.0446   -0.8926 H   0  0  0  0  0  0  0  0  0  0  0  0
   -1.2161   -1.3941   -5.1257 H   0  0  0  0  0  0  0  0  0  0  0  0
   -0.5216   -1.6504   -7.4588 H   0  0  0  0  0  0  0  0  0  0  0  0
    1.2306   -2.3842   -9.0206 H   0  0  0  0  0  0  0  0  0  0  0  0
    2.9248   -2.4312   -8.5120 H   0  0  0  0  0  0  0  0  0  0  0  0
    2.9909    0.0631   -8.5103 H   0  0  0  0  0  0  0  0  0  0  0  0
    2.5271   -0.5590  -10.0977 H   0  0  0  0  0  0  0  0  0  0  0  0
    1.3020    0.1111   -9.0150 H   0  0  0  0  0  0  0  0  0  0  0  0
    3.5582   -1.7918   -6.2282 H   0  0  0  0  0  0  0  0  0  0  0  0
    2.8729   -1.5228   -3.9000 H   0  0  0  0  0  0  0  0  0  0  0  0
   -7.5483    5.3884   -3.4933 H   0  0  0  0  0  0  0  0  0  0  0  0
   -6.7065    3.9337   -4.0441 H   0  0  0  0  0  0  0  0  0  0  0  0
   -6.7747    6.5800   -5.5811 H   0  0  0  0  0  0  0  0  0  0  0  0
   -7.7685    5.1679   -5.9327 H   0  0  0  0  0  0  0  0  0  0  0  0
   -6.0120    5.0818   -6.1205 H   0  0  0  0  0  0  0  0  0  0  0  0
   -4.6940    9.2362   -1.7118 H   0  0  0  0  0  0  0  0  0  0  0  0
   -7.1099   12.3207    0.4541 H   0  0  0  0  0  0  0  0  0  0  0  0
   -7.8628   10.7154    0.3081 H   0  0  0  0  0  0  0  0  0  0  0  0
   -4.8846   11.2191    0.8046 H   0  0  0  0  0  0  0  0  0  0  0  0
   -5.6571    9.6303    0.7118 H   0  0  0  0  0  0  0  0  0  0  0  0
   -6.0539   10.7310    2.0336 H   0  0  0  0  0  0  0  0  0  0  0  0
  1  2  3  0  0  0  0
  2  3  1  0  0  0  0
  3  4  2  0  0  0  0
  4  5  1  0  0  0  0
  5  6  3  0  0  0  0
  4  7  1  0  0  0  0
  7  8  3  0  0  0  0
  3  9  1  0  0  0  0
  9 10  2  0  0  0  0
 10 11  1  0  0  0  0
 11 12  2  0  0  0  0
 12 13  1  0  0  0  0
 13 14  1  0  0  0  0
 14 15  1  0  0  0  0
 15 16  1  0  0  0  0
 16 17  1  0  0  0  0
 15 18  2  0  0  0  0
 18 19  1  0  0  0  0
 18 20  1  0  0  0  0
 20 21  1  0  0  0  0
 12 22  1  0  0  0  0
 22 23  2  0  0  0  0
 23 24  1  0  0  0  0
 24 25  1  0  0  0  0
 25 26  1  0  0  0  0
 26 27  1  0  0  0  0
 27 28  1  0  0  0  0
 28 29  1  0  0  0  0
 27 30  2  0  0  0  0
 30 31  1  0  0  0  0
 31 32  1  0  0  0  0
 30 33  1  0  0  0  0
 24 34  2  0  0  0  0
 34 35  1  0  0  0  0
 23 36  1  0  0  0  0
 36 37  2  0  0  0  0
 37 38  1  0  0  0  0
 37 39  1  0  0  0  0
 39 40  2  0  0  0  0
 40 41  1  0  0  0  0
 41 42  1  0  0  0  0
 40 43  1  0  0  0  0
 43 44  1  0  0  0  0
 44 45  1  0  0  0  0
 45 46  1  0  0  0  0
 46 47  2  0  0  0  0
 47 48  1  0  0  0  0
 48 49  1  0  0  0  0
 49 50  1  0  0  0  0
 50 51  2  0  0  0  0
 51 52  1  0  0  0  0
 52 53  2  0  0  0  0
 53 54  1  0  0  0  0
 54 55  1  0  0  0  0
 53 56  1  0  0  0  0
 56 57  2  0  0  0  0
 49 58  1  0  0  0  0
 58 59  2  0  0  0  0
 59 60  1  0  0  0  0
 60 61  2  0  0  0  0
 61 62  1  0  0  0  0
 62 63  1  0  0  0  0
 61 64  1  0  0  0  0
 64 65  2  0  0  0  0
 49 66  1  0  0  0  0
 66 67  2  0  0  0  0
 67 68  1  0  0  0  0
 68 69  1  0  0  0  0
 69 70  2  0  0  0  0
 70 71  1  0  0  0  0
 71 72  1  0  0  0  0
 72 73  2  0  0  0  0
 73 74  1  0  0  0  0
 74 75  2  0  0  0  0
 75 76  1  0  0  0  0
 76 77  1  0  0  0  0
 75 78  1  0  0  0  0
 78 79  2  0  0  0  0
 71 80  1  0  0  0  0
 80 81  2  0  0  0  0
 81 82  1  0  0  0  0
 82 83  2  0  0  0  0
 83 84  1  0  0  0  0
 84 85  1  0  0  0  0
 83 86  1  0  0  0  0
 86 87  2  0  0  0  0
 71 88  1  0  0  0  0
 88 89  1  0  0  0  0
 89 90  1  0  0  0  0
 67 91  1  0  0  0  0
 91 92  1  0  0  0  0
 92 93  1  0  0  0  0
 93 94  1  0  0  0  0
 94 95  1  0  0  0  0
 93 96  2  0  0  0  0
 96 97  1  0  0  0  0
 97 98  1  0  0  0  0
 96 99  1  0  0  0  0
 99100  2  0  0  0  0
100101  1  0  0  0  0
101102  1  0  0  0  0
102103  2  0  0  0  0
102104  1  0  0  0  0
104105  1  0  0  0  0
101106  2  0  0  0  0
106107  1  0  0  0  0
106108  1  0  0  0  0
108109  2  0  0  0  0
109110  1  0  0  0  0
110111  3  0  0  0  0
109112  1  0  0  0  0
112113  3  0  0  0  0
108114  1  0  0  0  0
114115  3  0  0  0  0
 35  9  1  0  0  0  0
 90 39  1  0  0  0  0
 98 92  2  0  0  0  0
107 99  1  0  0  0  0
 34 11  1  0  0  0  0
 89 43  2  0  0  0  0
 20 13  2  0  0  0  0
 38 22  1  0  0  0  0
 88 45  2  0  0  0  0
 31 25  2  0  0  0  0
 70 46  1  0  0  0  0
 79 72  1  0  0  0  0
 87 80  1  0  0  0  0
 68 48  2  0  0  0  0
 57 50  1  0  0  0  0
 65 58  1  0  0  0  0
 98 66  1  0  0  0  0
 10116  1  0  0  0  0
 16117  1  0  0  0  0
 16118  1  0  0  0  0
 17119  1  0  0  0  0
 17120  1  0  0  0  0
 17121  1  0  0  0  0
 28122  1  0  0  0  0
 28123  1  0  0  0  0
 29124  1  0  0  0  0
 29125  1  0  0  0  0
 29126  1  0  0  0  0
 36127  1  0  0  0  0
 41128  1  0  0  0  0
 41129  1  0  0  0  0
 42130  1  0  0  0  0
 42131  1  0  0  0  0
 42132  1  0  0  0  0
 47133  1  0  0  0  0
 51134  1  0  0  0  0
 52135  1  0  0  0  0
 54136  1  0  0  0  0
 54137  1  0  0  0  0
 55138  1  0  0  0  0
 55139  1  0  0  0  0
 55140  1  0  0  0  0
 56141  1  0  0  0  0
 57142  1  0  0  0  0
 59143  1  0  0  0  0
 60144  1  0  0  0  0
 62145  1  0  0  0  0
 62146  1  0  0  0  0
 63147  1  0  0  0  0
 63148  1  0  0  0  0
 63149  1  0  0  0  0
 64150  1  0  0  0  0
 65151  1  0  0  0  0
 69152  1  0  0  0  0
 73153  1  0  0  0  0
 74154  1  0  0  0  0
 76155  1  0  0  0  0
 76156  1  0  0  0  0
 77157  1  0  0  0  0
 77158  1  0  0  0  0
 77159  1  0  0  0  0
 78160  1  0  0  0  0
 79161  1  0  0  0  0
 81162  1  0  0  0  0
 82163  1  0  0  0  0
 84164  1  0  0  0  0
 84165  1  0  0  0  0
 85166  1  0  0  0  0
 85167  1  0  0  0  0
 85168  1  0  0  0  0
 86169  1  0  0  0  0
 87170  1  0  0  0  0
 94171  1  0  0  0  0
 94172  1  0  0  0  0
 95173  1  0  0  0  0
 95174  1  0  0  0  0
 95175  1  0  0  0  0
100176  1  0  0  0  0
104177  1  0  0  0  0
104178  1  0  0  0  0
105179  1  0  0  0  0
105180  1  0  0  0  0
105181  1  0  0  0  0
M  END
