
  xtb     02032216063D
 energy: -272.181859123977 gnorm: 0.000432945568 xtb: 6.4.1 (unknown)
143156  0     0  0            999 V2000
   -0.2632   -5.1037   -8.9908 C   0  0  0  0  0  0  0  0  0  0  0  0
    1.0752   -5.7895   -8.7240 C   0  0  0  0  0  0  0  0  0  0  0  0
    0.9233   -7.3151   -8.6602 C   0  0  0  0  0  0  0  0  0  0  0  0
    1.8053   -5.1853   -7.5418 C   0  0  0  0  0  0  0  0  0  0  0  0
    3.0503   -4.8095   -7.9714 C   0  0  0  0  0  0  0  0  0  0  0  0
    4.1362   -4.4012   -7.1735 C   0  0  0  0  0  0  0  0  0  0  0  0
    5.0540   -4.2018   -6.5137 N   0  0  0  0  0  0  0  0  0  0  0  0
    3.1102   -5.0152   -9.4005 C   0  0  0  0  0  0  0  0  0  0  0  0
    4.1305   -4.6844  -10.2510 C   0  0  0  0  0  0  0  0  0  0  0  0
    5.3096   -4.0595   -9.8107 C   0  0  0  0  0  0  0  0  0  0  0  0
    6.2766   -3.5212   -9.5079 N   0  0  0  0  0  0  0  0  0  0  0  0
    4.0264   -4.9145  -11.6383 C   0  0  0  0  0  0  0  0  0  0  0  0
    3.9491   -5.1066  -12.7660 N   0  0  0  0  0  0  0  0  0  0  0  0
    1.9562   -5.5296   -9.8337 O   0  0  0  0  0  0  0  0  0  0  0  0
    1.2689   -4.8501   -6.2479 C   0  0  0  0  0  0  0  0  0  0  0  0
    0.3595   -5.5876   -5.5042 C   0  0  0  0  0  0  0  0  0  0  0  0
   -0.1127   -6.7571   -5.9650 F   0  0  0  0  0  0  0  0  0  0  0  0
   -0.0559   -5.2083   -4.2262 C   0  0  0  0  0  0  0  0  0  0  0  0
   -0.8963   -6.0381   -3.5853 F   0  0  0  0  0  0  0  0  0  0  0  0
    0.3979   -4.0579   -3.5933 C   0  0  0  0  0  0  0  0  0  0  0  0
    1.2458   -3.2112   -4.3760 C   0  0  0  0  0  0  0  0  0  0  0  0
    1.5423   -1.9823   -3.9424 N   0  0  0  0  0  0  0  0  0  0  0  0
    2.3299   -1.1914   -4.6388 C   0  0  0  0  0  0  0  0  0  0  0  0
    2.4513    0.1822   -4.1449 C   0  0  0  0  0  0  0  0  0  0  0  0
    2.3015    0.4300   -2.7849 C   0  0  0  0  0  0  0  0  0  0  0  0
    2.3797    1.7117   -2.2810 C   0  0  0  0  0  0  0  0  0  0  0  0
    2.5962    2.8273   -3.0944 C   0  0  0  0  0  0  0  0  0  0  0  0
    2.6973    4.1170   -2.7458 O   0  0  0  0  0  0  0  0  0  0  0  0
    2.6126    4.5160   -1.3842 C   0  0  0  0  0  0  0  0  0  0  0  0
    2.8040    6.0224   -1.3493 C   0  0  0  0  0  0  0  0  0  0  0  0
    2.7094    2.5403   -4.4691 C   0  0  0  0  0  0  0  0  0  0  0  0
    2.6421    1.2727   -4.9948 C   0  0  0  0  0  0  0  0  0  0  0  0
    2.8841    3.5773   -5.3043 F   0  0  0  0  0  0  0  0  0  0  0  0
    2.2261    1.8458   -0.9363 F   0  0  0  0  0  0  0  0  0  0  0  0
    2.9290   -1.6742   -5.8442 C   0  0  0  0  0  0  0  0  0  0  0  0
    2.5241   -2.8215   -6.3406 N   0  0  0  0  0  0  0  0  0  0  0  0
    1.6906   -3.6147   -5.6613 C   0  0  0  0  0  0  0  0  0  0  0  0
    3.9993   -1.0121   -6.5832 C   0  0  0  0  0  0  0  0  0  0  0  0
    5.0340   -0.3427   -5.9296 C   0  0  0  0  0  0  0  0  0  0  0  0
    6.0667    0.1830   -6.6656 C   0  0  0  0  0  0  0  0  0  0  0  0
    7.0590    0.8175   -6.0175 F   0  0  0  0  0  0  0  0  0  0  0  0
    6.1528    0.1055   -8.0706 C   0  0  0  0  0  0  0  0  0  0  0  0
    7.2034    0.7208   -8.6227 O   0  0  0  0  0  0  0  0  0  0  0  0
    7.5704    0.5158   -9.9837 C   0  0  0  0  0  0  0  0  0  0  0  0
    8.1711   -0.8636  -10.2132 C   0  0  0  0  0  0  0  0  0  0  0  0
    5.0919   -0.5717   -8.6860 C   0  0  0  0  0  0  0  0  0  0  0  0
    5.0293   -0.6924  -10.0301 F   0  0  0  0  0  0  0  0  0  0  0  0
    4.0547   -1.1286   -7.9673 C   0  0  0  0  0  0  0  0  0  0  0  0
    0.0279   -3.6775   -2.2669 C   0  0  0  0  0  0  0  0  0  0  0  0
   -1.5092   -4.1574   -1.5535 S   0  0  0  0  0  0  0  0  0  0  0  0
   -1.1982   -3.1435   -0.2046 C   0  0  0  0  0  0  0  0  0  0  0  0
   -1.7979   -2.7094    0.9839 C   0  0  0  0  0  0  0  0  0  0  0  0
   -2.9963   -3.0723    1.6300 C   0  0  0  0  0  0  0  0  0  0  0  0
   -3.9601   -3.9434    1.3258 N   0  0  0  0  0  0  0  0  0  0  0  0
   -4.7868   -3.8699    2.3388 N   0  0  0  0  0  0  0  0  0  0  0  0
   -5.9511   -4.7031    2.4219 C   0  0  0  0  0  0  0  0  0  0  0  0
   -5.6065   -6.0425    3.0666 C   0  0  0  0  0  0  0  0  0  0  0  0
   -4.4705   -3.0320    3.2946 N   0  0  0  0  0  0  0  0  0  0  0  0
   -3.3222   -2.4903    2.8837 C   0  0  0  0  0  0  0  0  0  0  0  0
   -2.5048   -1.4701    3.4101 C   0  0  0  0  0  0  0  0  0  0  0  0
   -2.6567   -0.6193    4.5104 C   0  0  0  0  0  0  0  0  0  0  0  0
   -3.7243   -0.3411    5.8258 S   0  0  0  0  0  0  0  0  0  0  0  0
   -2.7613    1.0555    6.3076 C   0  0  0  0  0  0  0  0  0  0  0  0
   -1.6725    1.2675    5.4831 C   0  0  0  0  0  0  0  0  0  0  0  0
   -1.6121    0.3148    4.4651 C   0  0  0  0  0  0  0  0  0  0  0  0
   -0.7986    0.0464    3.3955 N   0  0  0  0  0  0  0  0  0  0  0  0
    0.1229    1.0536    2.9168 C   0  0  0  0  0  0  0  0  0  0  0  0
   -0.3289    1.6545    1.5881 C   0  0  0  0  0  0  0  0  0  0  0  0
   -1.3218   -1.0551    2.7292 C   0  0  0  0  0  0  0  0  0  0  0  0
   -0.9060   -1.7650    1.5758 C   0  0  0  0  0  0  0  0  0  0  0  0
    0.2384   -1.6931    0.7912 N   0  0  0  0  0  0  0  0  0  0  0  0
    0.0532   -2.5164   -0.2893 C   0  0  0  0  0  0  0  0  0  0  0  0
    0.7543   -2.8303   -1.4501 C   0  0  0  0  0  0  0  0  0  0  0  0
    1.5738   -1.2656    1.1510 C   0  0  0  0  0  0  0  0  0  0  0  0
    2.0269   -1.8804    2.4727 C   0  0  0  0  0  0  0  0  0  0  0  0
   -3.1391    1.8428    7.4200 C   0  0  0  0  0  0  0  0  0  0  0  0
   -4.2224    1.6363    8.2638 C   0  0  0  0  0  0  0  0  0  0  0  0
   -4.3429    2.5918    9.2578 C   0  0  0  0  0  0  0  0  0  0  0  0
   -5.4674    2.5931   10.2429 C   0  0  0  0  0  0  0  0  0  0  0  0
   -6.5940    3.5218    9.7801 C   0  0  0  0  0  0  0  0  0  0  0  0
   -3.3366    3.5775    9.1890 C   0  0  0  0  0  0  0  0  0  0  0  0
   -2.2442    3.2578    7.8577 S   0  0  0  0  0  0  0  0  0  0  0  0
   -3.2515    4.6547   10.0715 C   0  0  0  0  0  0  0  0  0  0  0  0
   -2.3702    5.7115   10.1325 C   0  0  0  0  0  0  0  0  0  0  0  0
   -1.2374    5.9519    9.2265 C   0  0  0  0  0  0  0  0  0  0  0  0
   -0.8769    5.2673    8.2860 O   0  0  0  0  0  0  0  0  0  0  0  0
   -0.6222    7.1989    9.6982 C   0  0  0  0  0  0  0  0  0  0  0  0
   -1.3447    7.6849   10.8351 C   0  0  0  0  0  0  0  0  0  0  0  0
   -0.8385    8.8417   11.3373 C   0  0  0  0  0  0  0  0  0  0  0  0
    0.5363    9.3677   10.4321 S   0  0  0  0  0  0  0  0  0  0  0  0
    0.4248    7.9957    9.3521 C   0  0  0  0  0  0  0  0  0  0  0  0
    1.5260    7.7878    8.0800 Cl  0  0  0  0  0  0  0  0  0  0  0  0
   -2.4364    6.7705   11.1192 C   0  0  0  0  0  0  0  0  0  0  0  0
   -3.3318    6.9411   12.1468 C   0  0  0  0  0  0  0  0  0  0  0  0
   -4.4066    6.0915   12.4658 C   0  0  0  0  0  0  0  0  0  0  0  0
   -5.3022    5.4434   12.7813 N   0  0  0  0  0  0  0  0  0  0  0  0
   -3.2433    8.0474   13.0156 C   0  0  0  0  0  0  0  0  0  0  0  0
   -3.1902    8.9418   13.7333 N   0  0  0  0  0  0  0  0  0  0  0  0
   -0.1268   -4.0274   -9.0741 H   0  0  0  0  0  0  0  0  0  0  0  0
   -0.6787   -5.4777   -9.9224 H   0  0  0  0  0  0  0  0  0  0  0  0
   -0.9547   -5.3143   -8.1805 H   0  0  0  0  0  0  0  0  0  0  0  0
    0.1078   -7.6079   -8.0112 H   0  0  0  0  0  0  0  0  0  0  0  0
    0.7199   -7.6722   -9.6670 H   0  0  0  0  0  0  0  0  0  0  0  0
    1.8453   -7.7730   -8.3079 H   0  0  0  0  0  0  0  0  0  0  0  0
    2.1143   -0.3817   -2.1037 H   0  0  0  0  0  0  0  0  0  0  0  0
    1.6318    4.2453   -0.9748 H   0  0  0  0  0  0  0  0  0  0  0  0
    3.3930    4.0177   -0.7970 H   0  0  0  0  0  0  0  0  0  0  0  0
    3.7734    6.2830   -1.7644 H   0  0  0  0  0  0  0  0  0  0  0  0
    2.0333    6.5088   -1.9404 H   0  0  0  0  0  0  0  0  0  0  0  0
    2.7464    6.3764   -0.3243 H   0  0  0  0  0  0  0  0  0  0  0  0
    2.7195    1.1516   -6.0625 H   0  0  0  0  0  0  0  0  0  0  0  0
    5.0599   -0.2576   -4.8555 H   0  0  0  0  0  0  0  0  0  0  0  0
    8.3202    1.2921  -10.1596 H   0  0  0  0  0  0  0  0  0  0  0  0
    6.7221    0.6929  -10.6504 H   0  0  0  0  0  0  0  0  0  0  0  0
    8.5080   -0.9412  -11.2429 H   0  0  0  0  0  0  0  0  0  0  0  0
    9.0197   -1.0133   -9.5502 H   0  0  0  0  0  0  0  0  0  0  0  0
    7.4426   -1.6487  -10.0262 H   0  0  0  0  0  0  0  0  0  0  0  0
    3.2704   -1.6407   -8.5009 H   0  0  0  0  0  0  0  0  0  0  0  0
   -6.6922   -4.1692    3.0195 H   0  0  0  0  0  0  0  0  0  0  0  0
   -6.3217   -4.8539    1.4061 H   0  0  0  0  0  0  0  0  0  0  0  0
   -4.8540   -6.5584    2.4754 H   0  0  0  0  0  0  0  0  0  0  0  0
   -5.2207   -5.8865    4.0712 H   0  0  0  0  0  0  0  0  0  0  0  0
   -6.4951   -6.6644    3.1245 H   0  0  0  0  0  0  0  0  0  0  0  0
   -0.9863    2.0784    5.6486 H   0  0  0  0  0  0  0  0  0  0  0  0
    1.1328    0.6485    2.8457 H   0  0  0  0  0  0  0  0  0  0  0  0
    0.1450    1.8381    3.6754 H   0  0  0  0  0  0  0  0  0  0  0  0
   -1.2814    2.1643    1.7139 H   0  0  0  0  0  0  0  0  0  0  0  0
    0.4092    2.3715    1.2391 H   0  0  0  0  0  0  0  0  0  0  0  0
   -0.4521    0.8865    0.8291 H   0  0  0  0  0  0  0  0  0  0  0  0
    1.7397   -2.4990   -1.7122 H   0  0  0  0  0  0  0  0  0  0  0  0
    2.2344   -1.6180    0.3563 H   0  0  0  0  0  0  0  0  0  0  0  0
    1.6444   -0.1766    1.1652 H   0  0  0  0  0  0  0  0  0  0  0  0
    3.0326   -1.5444    2.7110 H   0  0  0  0  0  0  0  0  0  0  0  0
    1.3629   -1.6062    3.2883 H   0  0  0  0  0  0  0  0  0  0  0  0
    2.0337   -2.9654    2.3939 H   0  0  0  0  0  0  0  0  0  0  0  0
   -4.8960    0.8052    8.1441 H   0  0  0  0  0  0  0  0  0  0  0  0
   -5.1256    2.9070   11.2303 H   0  0  0  0  0  0  0  0  0  0  0  0
   -5.8564    1.5771   10.3285 H   0  0  0  0  0  0  0  0  0  0  0  0
   -6.2372    4.5449    9.6895 H   0  0  0  0  0  0  0  0  0  0  0  0
   -6.9756    3.2021    8.8130 H   0  0  0  0  0  0  0  0  0  0  0  0
   -7.4063    3.5051   10.5011 H   0  0  0  0  0  0  0  0  0  0  0  0
   -4.0224    4.6523   10.8305 H   0  0  0  0  0  0  0  0  0  0  0  0
   -1.1694    9.4266   12.1722 H   0  0  0  0  0  0  0  0  0  0  0  0
  1  2  1  0  0  0  0
  2  3  1  0  0  0  0
  2  4  1  0  0  0  0
  4  5  2  0  0  0  0
  5  6  1  0  0  0  0
  6  7  3  0  0  0  0
  5  8  1  0  0  0  0
  8  9  2  0  0  0  0
  9 10  1  0  0  0  0
 10 11  3  0  0  0  0
  9 12  1  0  0  0  0
 12 13  3  0  0  0  0
  8 14  1  0  0  0  0
  4 15  1  0  0  0  0
 15 16  2  0  0  0  0
 16 17  1  0  0  0  0
 16 18  1  0  0  0  0
 18 19  1  0  0  0  0
 18 20  2  0  0  0  0
 20 21  1  0  0  0  0
 21 22  2  0  0  0  0
 22 23  1  0  0  0  0
 23 24  1  0  0  0  0
 24 25  2  0  0  0  0
 25 26  1  0  0  0  0
 26 27  2  0  0  0  0
 27 28  1  0  0  0  0
 28 29  1  0  0  0  0
 29 30  1  0  0  0  0
 27 31  1  0  0  0  0
 31 32  2  0  0  0  0
 31 33  1  0  0  0  0
 26 34  1  0  0  0  0
 23 35  2  0  0  0  0
 35 36  1  0  0  0  0
 36 37  2  0  0  0  0
 35 38  1  0  0  0  0
 38 39  2  0  0  0  0
 39 40  1  0  0  0  0
 40 41  1  0  0  0  0
 40 42  2  0  0  0  0
 42 43  1  0  0  0  0
 43 44  1  0  0  0  0
 44 45  1  0  0  0  0
 42 46  1  0  0  0  0
 46 47  1  0  0  0  0
 46 48  2  0  0  0  0
 20 49  1  0  0  0  0
 49 50  1  0  0  0  0
 50 51  1  0  0  0  0
 51 52  1  0  0  0  0
 52 53  1  0  0  0  0
 53 54  2  0  0  0  0
 54 55  1  0  0  0  0
 55 56  1  0  0  0  0
 56 57  1  0  0  0  0
 55 58  1  0  0  0  0
 58 59  2  0  0  0  0
 59 60  1  0  0  0  0
 60 61  1  0  0  0  0
 61 62  1  0  0  0  0
 62 63  1  0  0  0  0
 63 64  2  0  0  0  0
 64 65  1  0  0  0  0
 65 66  1  0  0  0  0
 66 67  1  0  0  0  0
 67 68  1  0  0  0  0
 66 69  1  0  0  0  0
 69 70  1  0  0  0  0
 70 71  1  0  0  0  0
 71 72  1  0  0  0  0
 72 73  1  0  0  0  0
 71 74  1  0  0  0  0
 74 75  1  0  0  0  0
 63 76  1  0  0  0  0
 76 77  2  0  0  0  0
 77 78  1  0  0  0  0
 78 79  1  0  0  0  0
 79 80  1  0  0  0  0
 78 81  2  0  0  0  0
 81 82  1  0  0  0  0
 81 83  1  0  0  0  0
 83 84  2  0  0  0  0
 84 85  1  0  0  0  0
 85 86  2  0  0  0  0
 85 87  1  0  0  0  0
 87 88  1  0  0  0  0
 88 89  2  0  0  0  0
 89 90  1  0  0  0  0
 90 91  1  0  0  0  0
 91 92  1  0  0  0  0
 88 93  1  0  0  0  0
 93 94  2  0  0  0  0
 94 95  1  0  0  0  0
 95 96  3  0  0  0  0
 94 97  1  0  0  0  0
 97 98  3  0  0  0  0
 14  2  1  0  0  0  0
 37 15  1  0  0  0  0
 48 38  1  0  0  0  0
 73 49  2  0  0  0  0
 82 76  1  0  0  0  0
 93 84  1  0  0  0  0
 37 21  1  0  0  0  0
 72 51  2  0  0  0  0
 91 87  2  0  0  0  0
 32 24  1  0  0  0  0
 70 52  2  0  0  0  0
 59 53  1  0  0  0  0
 69 60  2  0  0  0  0
 65 61  2  0  0  0  0
  1 99  1  0  0  0  0
  1100  1  0  0  0  0
  1101  1  0  0  0  0
  3102  1  0  0  0  0
  3103  1  0  0  0  0
  3104  1  0  0  0  0
 25105  1  0  0  0  0
 29106  1  0  0  0  0
 29107  1  0  0  0  0
 30108  1  0  0  0  0
 30109  1  0  0  0  0
 30110  1  0  0  0  0
 32111  1  0  0  0  0
 39112  1  0  0  0  0
 44113  1  0  0  0  0
 44114  1  0  0  0  0
 45115  1  0  0  0  0
 45116  1  0  0  0  0
 45117  1  0  0  0  0
 48118  1  0  0  0  0
 56119  1  0  0  0  0
 56120  1  0  0  0  0
 57121  1  0  0  0  0
 57122  1  0  0  0  0
 57123  1  0  0  0  0
 64124  1  0  0  0  0
 67125  1  0  0  0  0
 67126  1  0  0  0  0
 68127  1  0  0  0  0
 68128  1  0  0  0  0
 68129  1  0  0  0  0
 73130  1  0  0  0  0
 74131  1  0  0  0  0
 74132  1  0  0  0  0
 75133  1  0  0  0  0
 75134  1  0  0  0  0
 75135  1  0  0  0  0
 77136  1  0  0  0  0
 79137  1  0  0  0  0
 79138  1  0  0  0  0
 80139  1  0  0  0  0
 80140  1  0  0  0  0
 80141  1  0  0  0  0
 83142  1  0  0  0  0
 89143  1  0  0  0  0
M  END
