123

C          4.92690       -2.79660       -8.07410
C          6.22790       -2.43330       -7.35280
C          6.18920       -1.00120       -6.81440
C          6.61960       -3.44630       -6.29060
C          7.77710       -4.06280       -6.71650
C          8.44340       -5.19070       -6.21290
N          8.97740       -6.15450       -5.89180
C          8.17930       -3.43340       -7.95380
C          9.30250       -3.65640       -8.70530
C         10.31950       -4.56250       -8.35680
N         11.20190       -5.25810       -8.12470
C          9.52010       -2.92060       -9.88820
N          9.70130       -2.32260      -10.85020
O          7.28510       -2.50410       -8.31590
C          5.90780       -3.59690       -5.08300
S          4.28850       -2.99200       -4.87700
C          4.25920       -3.44040       -3.20970
C          5.44150       -4.07330       -2.82910
C          6.37620       -4.16190       -3.88650
O          7.61110       -4.69400       -3.91980
C          8.41580       -4.83590       -2.76910
C          7.75400       -5.59250       -1.62560
C          6.73500       -4.72030       -0.90030
O          5.49890       -4.59520       -1.57020
C          3.14250       -3.10280       -2.40100
C          3.05190       -3.10360       -1.01960
C          1.84990       -2.56460       -0.57090
C          1.25440       -2.18370        0.76130
C          0.82910       -3.42320        1.57440
C          1.97550       -4.33680        1.98720
C          2.26710       -1.27490        1.48840
C          1.86930       -0.78710        2.87530
C         -0.00480       -1.45740        0.31200
C         -0.14770       -1.51330       -1.09530
C          1.01530       -2.16750       -1.60290
S          1.69330       -2.46080       -3.15150
C         -1.25080       -0.98270       -1.76050
C         -2.18770       -0.31330       -1.00740
C         -3.47320        0.37280       -1.44830
C         -4.41810       -0.69430       -2.03470
C         -5.80010       -0.18010       -2.41560
C         -3.23150        1.57760       -2.38200
C         -2.70920        1.25880       -3.77670
C         -3.97270        0.91480       -0.13100
C         -3.10720        0.55900        0.89230
C         -2.02420       -0.22580        0.39520
C         -0.96360       -0.82630        1.06900
S         -3.52570        1.26270        2.39810
C         -4.89000        2.06050        1.64260
C         -4.99370        1.75950        0.29500
C         -5.67980        2.95960        2.40370
S         -5.01650        3.71520        3.80830
C         -6.46010        4.65290        4.05860
C         -7.40790        4.38070        3.05880
C         -6.96640        3.41920        2.12660
O         -7.59150        2.96600        1.00070
C         -8.98520        2.73490        1.05170
C         -9.81050        4.00380        1.24950
C         -9.77320        4.48510        2.69640
O         -8.55600        5.09450        3.07980
C         -6.57760        5.67960        5.00790
C         -5.73990        5.99070        6.04430
C         -5.67910        7.37840        6.55610
O         -6.47350        8.27120        6.37050
C         -4.38940        7.45330        7.28850
C         -3.77150        8.55400        7.84350
C         -2.52760        8.38360        8.44320
Cl        -1.72460        9.73680        9.13600
C         -1.93620        7.11900        8.47470
Br        -0.23310        6.89690        9.26590
C         -2.56440        6.00550        7.92950
C         -3.79980        6.17670        7.33160
C         -4.70670        5.22350        6.69570
C         -4.72870        3.87020        6.91980
C         -3.72680        3.17610        7.62400
N         -2.92100        2.57200        8.17520
C         -5.82390        3.06160        6.55200
N         -6.73010        2.39650        6.31800
H          4.82550       -2.15700       -8.94720
H          4.07060       -2.65270       -7.42340
H          4.95800       -3.83310       -8.40310
H          5.35800       -0.87480       -6.12820
H          6.07330       -0.31550       -7.64940
H          7.11990       -0.76890       -6.30070
H          9.28540       -5.38090       -3.14370
H          8.73710       -3.84200       -2.42100
H          7.26390       -6.48780       -2.01310
H          8.52460       -5.89740       -0.91810
H          7.16400       -3.72330       -0.71430
H          6.46220       -5.16910        0.05820
H          3.85260       -3.45470       -0.39780
H          0.12500       -3.99240        0.96160
H          0.28980       -3.08700        2.46080
H          1.58040       -5.18510        2.54180
H          2.49900       -4.71780        1.11440
H          2.68570       -3.81800        2.62530
H          2.44870       -0.40790        0.84750
H          3.20680       -1.82520        1.56330
H          1.01610       -0.11760        2.82830
H          2.70020       -0.23570        3.31060
H          1.63320       -1.61530        3.53740
H         -1.34010       -1.10600       -2.82800
H         -4.52680       -1.48360       -1.28620
H         -3.93900       -1.13900       -2.90800
H         -5.74020        0.58390       -3.18590
H         -6.39910       -1.00230       -2.80100
H         -6.30950        0.23340       -1.54940
H         -4.17430        2.12020       -2.47060
H         -2.52100        2.24170       -1.88270
H         -3.36090        0.56280       -4.29750
H         -1.70740        0.84220       -3.73510
H         -2.66420        2.17710       -4.35860
H         -0.92130       -0.78010        2.14530
H         -5.76150        2.18980       -0.31940
H         -9.21730        2.00890        1.84410
H         -9.21070        2.28340        0.08260
H         -9.43100        4.78900        0.59240
H        -10.84600        3.79470        0.98070
H        -10.51600        5.27020        2.85470
H         -9.99250        3.64710        3.37370
H         -7.37760        6.38730        4.81670
H         -4.24030        9.52470        7.81010
H         -2.07720        5.04400        7.96850
