
  xtb     02032223343D
 energy: -214.083911241777 gnorm: 0.000254259629 xtb: 6.4.1 (unknown)
123134  0     0  0            999 V2000
    4.9269   -2.7966   -8.0741 C   0  0  0  0  0  0  0  0  0  0  0  0
    6.2279   -2.4333   -7.3528 C   0  0  0  0  0  0  0  0  0  0  0  0
    6.1892   -1.0012   -6.8144 C   0  0  0  0  0  0  0  0  0  0  0  0
    6.6196   -3.4463   -6.2906 C   0  0  0  0  0  0  0  0  0  0  0  0
    7.7771   -4.0628   -6.7165 C   0  0  0  0  0  0  0  0  0  0  0  0
    8.4434   -5.1907   -6.2129 C   0  0  0  0  0  0  0  0  0  0  0  0
    8.9774   -6.1545   -5.8918 N   0  0  0  0  0  0  0  0  0  0  0  0
    8.1793   -3.4334   -7.9538 C   0  0  0  0  0  0  0  0  0  0  0  0
    9.3025   -3.6564   -8.7053 C   0  0  0  0  0  0  0  0  0  0  0  0
   10.3195   -4.5625   -8.3568 C   0  0  0  0  0  0  0  0  0  0  0  0
   11.2019   -5.2581   -8.1247 N   0  0  0  0  0  0  0  0  0  0  0  0
    9.5201   -2.9206   -9.8882 C   0  0  0  0  0  0  0  0  0  0  0  0
    9.7013   -2.3226  -10.8502 N   0  0  0  0  0  0  0  0  0  0  0  0
    7.2851   -2.5041   -8.3159 O   0  0  0  0  0  0  0  0  0  0  0  0
    5.9078   -3.5969   -5.0830 C   0  0  0  0  0  0  0  0  0  0  0  0
    4.2885   -2.9920   -4.8770 S   0  0  0  0  0  0  0  0  0  0  0  0
    4.2592   -3.4404   -3.2097 C   0  0  0  0  0  0  0  0  0  0  0  0
    5.4415   -4.0733   -2.8291 C   0  0  0  0  0  0  0  0  0  0  0  0
    6.3762   -4.1619   -3.8865 C   0  0  0  0  0  0  0  0  0  0  0  0
    7.6111   -4.6940   -3.9198 O   0  0  0  0  0  0  0  0  0  0  0  0
    8.4158   -4.8359   -2.7691 C   0  0  0  0  0  0  0  0  0  0  0  0
    7.7540   -5.5925   -1.6256 C   0  0  0  0  0  0  0  0  0  0  0  0
    6.7350   -4.7203   -0.9003 C   0  0  0  0  0  0  0  0  0  0  0  0
    5.4989   -4.5952   -1.5702 O   0  0  0  0  0  0  0  0  0  0  0  0
    3.1425   -3.1028   -2.4010 C   0  0  0  0  0  0  0  0  0  0  0  0
    3.0519   -3.1036   -1.0196 C   0  0  0  0  0  0  0  0  0  0  0  0
    1.8499   -2.5646   -0.5709 C   0  0  0  0  0  0  0  0  0  0  0  0
    1.2544   -2.1837    0.7613 C   0  0  0  0  0  0  0  0  0  0  0  0
    0.8291   -3.4232    1.5744 C   0  0  0  0  0  0  0  0  0  0  0  0
    1.9755   -4.3368    1.9872 C   0  0  0  0  0  0  0  0  0  0  0  0
    2.2671   -1.2749    1.4884 C   0  0  0  0  0  0  0  0  0  0  0  0
    1.8693   -0.7871    2.8753 C   0  0  0  0  0  0  0  0  0  0  0  0
   -0.0048   -1.4574    0.3120 C   0  0  0  0  0  0  0  0  0  0  0  0
   -0.1477   -1.5133   -1.0953 C   0  0  0  0  0  0  0  0  0  0  0  0
    1.0153   -2.1675   -1.6029 C   0  0  0  0  0  0  0  0  0  0  0  0
    1.6933   -2.4608   -3.1515 S   0  0  0  0  0  0  0  0  0  0  0  0
   -1.2508   -0.9827   -1.7605 C   0  0  0  0  0  0  0  0  0  0  0  0
   -2.1877   -0.3133   -1.0074 C   0  0  0  0  0  0  0  0  0  0  0  0
   -3.4732    0.3728   -1.4483 C   0  0  0  0  0  0  0  0  0  0  0  0
   -4.4181   -0.6943   -2.0347 C   0  0  0  0  0  0  0  0  0  0  0  0
   -5.8001   -0.1801   -2.4156 C   0  0  0  0  0  0  0  0  0  0  0  0
   -3.2315    1.5776   -2.3820 C   0  0  0  0  0  0  0  0  0  0  0  0
   -2.7092    1.2588   -3.7767 C   0  0  0  0  0  0  0  0  0  0  0  0
   -3.9727    0.9148   -0.1310 C   0  0  0  0  0  0  0  0  0  0  0  0
   -3.1072    0.5590    0.8923 C   0  0  0  0  0  0  0  0  0  0  0  0
   -2.0242   -0.2258    0.3952 C   0  0  0  0  0  0  0  0  0  0  0  0
   -0.9636   -0.8263    1.0690 C   0  0  0  0  0  0  0  0  0  0  0  0
   -3.5257    1.2627    2.3981 S   0  0  0  0  0  0  0  0  0  0  0  0
   -4.8900    2.0605    1.6426 C   0  0  0  0  0  0  0  0  0  0  0  0
   -4.9937    1.7595    0.2950 C   0  0  0  0  0  0  0  0  0  0  0  0
   -5.6798    2.9596    2.4037 C   0  0  0  0  0  0  0  0  0  0  0  0
   -5.0165    3.7152    3.8083 S   0  0  0  0  0  0  0  0  0  0  0  0
   -6.4601    4.6529    4.0586 C   0  0  0  0  0  0  0  0  0  0  0  0
   -7.4079    4.3807    3.0588 C   0  0  0  0  0  0  0  0  0  0  0  0
   -6.9664    3.4192    2.1266 C   0  0  0  0  0  0  0  0  0  0  0  0
   -7.5915    2.9660    1.0007 O   0  0  0  0  0  0  0  0  0  0  0  0
   -8.9852    2.7349    1.0517 C   0  0  0  0  0  0  0  0  0  0  0  0
   -9.8105    4.0038    1.2495 C   0  0  0  0  0  0  0  0  0  0  0  0
   -9.7732    4.4851    2.6964 C   0  0  0  0  0  0  0  0  0  0  0  0
   -8.5560    5.0945    3.0798 O   0  0  0  0  0  0  0  0  0  0  0  0
   -6.5776    5.6796    5.0079 C   0  0  0  0  0  0  0  0  0  0  0  0
   -5.7399    5.9907    6.0443 C   0  0  0  0  0  0  0  0  0  0  0  0
   -5.6791    7.3784    6.5561 C   0  0  0  0  0  0  0  0  0  0  0  0
   -6.4735    8.2712    6.3705 O   0  0  0  0  0  0  0  0  0  0  0  0
   -4.3894    7.4533    7.2885 C   0  0  0  0  0  0  0  0  0  0  0  0
   -3.7715    8.5540    7.8435 C   0  0  0  0  0  0  0  0  0  0  0  0
   -2.5276    8.3836    8.4432 C   0  0  0  0  0  0  0  0  0  0  0  0
   -1.7246    9.7368    9.1360 Cl  0  0  0  0  0  0  0  0  0  0  0  0
   -1.9362    7.1190    8.4747 C   0  0  0  0  0  0  0  0  0  0  0  0
   -0.2331    6.8969    9.2659 Br  0  0  0  0  0  0  0  0  0  0  0  0
   -2.5644    6.0055    7.9295 C   0  0  0  0  0  0  0  0  0  0  0  0
   -3.7998    6.1767    7.3316 C   0  0  0  0  0  0  0  0  0  0  0  0
   -4.7067    5.2235    6.6957 C   0  0  0  0  0  0  0  0  0  0  0  0
   -4.7287    3.8702    6.9198 C   0  0  0  0  0  0  0  0  0  0  0  0
   -3.7268    3.1761    7.6240 C   0  0  0  0  0  0  0  0  0  0  0  0
   -2.9210    2.5720    8.1752 N   0  0  0  0  0  0  0  0  0  0  0  0
   -5.8239    3.0616    6.5520 C   0  0  0  0  0  0  0  0  0  0  0  0
   -6.7301    2.3965    6.3180 N   0  0  0  0  0  0  0  0  0  0  0  0
    4.8255   -2.1570   -8.9472 H   0  0  0  0  0  0  0  0  0  0  0  0
    4.0706   -2.6527   -7.4234 H   0  0  0  0  0  0  0  0  0  0  0  0
    4.9580   -3.8331   -8.4031 H   0  0  0  0  0  0  0  0  0  0  0  0
    5.3580   -0.8748   -6.1282 H   0  0  0  0  0  0  0  0  0  0  0  0
    6.0733   -0.3155   -7.6494 H   0  0  0  0  0  0  0  0  0  0  0  0
    7.1199   -0.7689   -6.3007 H   0  0  0  0  0  0  0  0  0  0  0  0
    9.2854   -5.3809   -3.1437 H   0  0  0  0  0  0  0  0  0  0  0  0
    8.7371   -3.8420   -2.4210 H   0  0  0  0  0  0  0  0  0  0  0  0
    7.2639   -6.4878   -2.0131 H   0  0  0  0  0  0  0  0  0  0  0  0
    8.5246   -5.8974   -0.9181 H   0  0  0  0  0  0  0  0  0  0  0  0
    7.1640   -3.7233   -0.7143 H   0  0  0  0  0  0  0  0  0  0  0  0
    6.4622   -5.1691    0.0582 H   0  0  0  0  0  0  0  0  0  0  0  0
    3.8526   -3.4547   -0.3978 H   0  0  0  0  0  0  0  0  0  0  0  0
    0.1250   -3.9924    0.9616 H   0  0  0  0  0  0  0  0  0  0  0  0
    0.2898   -3.0870    2.4608 H   0  0  0  0  0  0  0  0  0  0  0  0
    1.5804   -5.1851    2.5418 H   0  0  0  0  0  0  0  0  0  0  0  0
    2.4990   -4.7178    1.1144 H   0  0  0  0  0  0  0  0  0  0  0  0
    2.6857   -3.8180    2.6253 H   0  0  0  0  0  0  0  0  0  0  0  0
    2.4487   -0.4079    0.8475 H   0  0  0  0  0  0  0  0  0  0  0  0
    3.2068   -1.8252    1.5633 H   0  0  0  0  0  0  0  0  0  0  0  0
    1.0161   -0.1176    2.8283 H   0  0  0  0  0  0  0  0  0  0  0  0
    2.7002   -0.2357    3.3106 H   0  0  0  0  0  0  0  0  0  0  0  0
    1.6332   -1.6153    3.5374 H   0  0  0  0  0  0  0  0  0  0  0  0
   -1.3401   -1.1060   -2.8280 H   0  0  0  0  0  0  0  0  0  0  0  0
   -4.5268   -1.4836   -1.2862 H   0  0  0  0  0  0  0  0  0  0  0  0
   -3.9390   -1.1390   -2.9080 H   0  0  0  0  0  0  0  0  0  0  0  0
   -5.7402    0.5839   -3.1859 H   0  0  0  0  0  0  0  0  0  0  0  0
   -6.3991   -1.0023   -2.8010 H   0  0  0  0  0  0  0  0  0  0  0  0
   -6.3095    0.2334   -1.5494 H   0  0  0  0  0  0  0  0  0  0  0  0
   -4.1743    2.1202   -2.4706 H   0  0  0  0  0  0  0  0  0  0  0  0
   -2.5210    2.2417   -1.8827 H   0  0  0  0  0  0  0  0  0  0  0  0
   -3.3609    0.5628   -4.2975 H   0  0  0  0  0  0  0  0  0  0  0  0
   -1.7074    0.8422   -3.7351 H   0  0  0  0  0  0  0  0  0  0  0  0
   -2.6642    2.1771   -4.3586 H   0  0  0  0  0  0  0  0  0  0  0  0
   -0.9213   -0.7801    2.1453 H   0  0  0  0  0  0  0  0  0  0  0  0
   -5.7615    2.1898   -0.3194 H   0  0  0  0  0  0  0  0  0  0  0  0
   -9.2173    2.0089    1.8441 H   0  0  0  0  0  0  0  0  0  0  0  0
   -9.2107    2.2834    0.0826 H   0  0  0  0  0  0  0  0  0  0  0  0
   -9.4310    4.7890    0.5924 H   0  0  0  0  0  0  0  0  0  0  0  0
  -10.8460    3.7947    0.9807 H   0  0  0  0  0  0  0  0  0  0  0  0
  -10.5160    5.2702    2.8547 H   0  0  0  0  0  0  0  0  0  0  0  0
   -9.9925    3.6471    3.3737 H   0  0  0  0  0  0  0  0  0  0  0  0
   -7.3776    6.3873    4.8167 H   0  0  0  0  0  0  0  0  0  0  0  0
   -4.2403    9.5247    7.8101 H   0  0  0  0  0  0  0  0  0  0  0  0
   -2.0772    5.0440    7.9685 H   0  0  0  0  0  0  0  0  0  0  0  0
  1  2  1  0  0  0  0
  2  3  1  0  0  0  0
  2  4  1  0  0  0  0
  4  5  2  0  0  0  0
  5  6  1  0  0  0  0
  6  7  3  0  0  0  0
  5  8  1  0  0  0  0
  8  9  2  0  0  0  0
  9 10  1  0  0  0  0
 10 11  3  0  0  0  0
  9 12  1  0  0  0  0
 12 13  3  0  0  0  0
  8 14  1  0  0  0  0
  4 15  1  0  0  0  0
 15 16  1  0  0  0  0
 16 17  1  0  0  0  0
 17 18  2  0  0  0  0
 18 19  1  0  0  0  0
 19 20  1  0  0  0  0
 20 21  1  0  0  0  0
 21 22  1  0  0  0  0
 22 23  1  0  0  0  0
 23 24  1  0  0  0  0
 17 25  1  0  0  0  0
 25 26  2  0  0  0  0
 26 27  1  0  0  0  0
 27 28  1  0  0  0  0
 28 29  1  0  0  0  0
 29 30  1  0  0  0  0
 28 31  1  0  0  0  0
 31 32  1  0  0  0  0
 28 33  1  0  0  0  0
 33 34  2  0  0  0  0
 34 35  1  0  0  0  0
 35 36  1  0  0  0  0
 34 37  1  0  0  0  0
 37 38  2  0  0  0  0
 38 39  1  0  0  0  0
 39 40  1  0  0  0  0
 40 41  1  0  0  0  0
 39 42  1  0  0  0  0
 42 43  1  0  0  0  0
 39 44  1  0  0  0  0
 44 45  2  0  0  0  0
 45 46  1  0  0  0  0
 46 47  2  0  0  0  0
 45 48  1  0  0  0  0
 48 49  1  0  0  0  0
 49 50  2  0  0  0  0
 49 51  1  0  0  0  0
 51 52  1  0  0  0  0
 52 53  1  0  0  0  0
 53 54  2  0  0  0  0
 54 55  1  0  0  0  0
 55 56  1  0  0  0  0
 56 57  1  0  0  0  0
 57 58  1  0  0  0  0
 58 59  1  0  0  0  0
 59 60  1  0  0  0  0
 53 61  1  0  0  0  0
 61 62  2  0  0  0  0
 62 63  1  0  0  0  0
 63 64  2  0  0  0  0
 63 65  1  0  0  0  0
 65 66  2  0  0  0  0
 66 67  1  0  0  0  0
 67 68  1  0  0  0  0
 67 69  2  0  0  0  0
 69 70  1  0  0  0  0
 69 71  1  0  0  0  0
 71 72  2  0  0  0  0
 72 73  1  0  0  0  0
 73 74  2  0  0  0  0
 74 75  1  0  0  0  0
 75 76  3  0  0  0  0
 74 77  1  0  0  0  0
 77 78  3  0  0  0  0
 14  2  1  0  0  0  0
 19 15  2  0  0  0  0
 36 25  1  0  0  0  0
 46 38  1  0  0  0  0
 55 51  2  0  0  0  0
 73 62  1  0  0  0  0
 24 18  1  0  0  0  0
 35 27  2  0  0  0  0
 50 44  1  0  0  0  0
 60 54  1  0  0  0  0
 72 65  1  0  0  0  0
 47 33  1  0  0  0  0
  1 79  1  0  0  0  0
  1 80  1  0  0  0  0
  1 81  1  0  0  0  0
  3 82  1  0  0  0  0
  3 83  1  0  0  0  0
  3 84  1  0  0  0  0
 21 85  1  0  0  0  0
 21 86  1  0  0  0  0
 22 87  1  0  0  0  0
 22 88  1  0  0  0  0
 23 89  1  0  0  0  0
 23 90  1  0  0  0  0
 26 91  1  0  0  0  0
 29 92  1  0  0  0  0
 29 93  1  0  0  0  0
 30 94  1  0  0  0  0
 30 95  1  0  0  0  0
 30 96  1  0  0  0  0
 31 97  1  0  0  0  0
 31 98  1  0  0  0  0
 32 99  1  0  0  0  0
 32100  1  0  0  0  0
 32101  1  0  0  0  0
 37102  1  0  0  0  0
 40103  1  0  0  0  0
 40104  1  0  0  0  0
 41105  1  0  0  0  0
 41106  1  0  0  0  0
 41107  1  0  0  0  0
 42108  1  0  0  0  0
 42109  1  0  0  0  0
 43110  1  0  0  0  0
 43111  1  0  0  0  0
 43112  1  0  0  0  0
 47113  1  0  0  0  0
 50114  1  0  0  0  0
 57115  1  0  0  0  0
 57116  1  0  0  0  0
 58117  1  0  0  0  0
 58118  1  0  0  0  0
 59119  1  0  0  0  0
 59120  1  0  0  0  0
 61121  1  0  0  0  0
 66122  1  0  0  0  0
 71123  1  0  0  0  0
M  END
