249

C         -0.60470        9.54690        8.11670
C         -1.44160       10.56070        8.54300
C         -1.99870       11.62640        7.71480
O         -1.90800       11.77820        6.50870
C         -2.68960       12.54360        8.65010
C         -3.37370       13.70510        8.36380
C         -3.93700       14.38990        9.43260
Br        -4.89280       15.99990        9.10070
C         -3.82060       13.92940       10.73550
C         -3.13180       12.75610       11.01100
C         -2.55910       12.05520        9.96120
C         -1.80320       10.80230        9.91690
C         -1.53730       10.00410       11.00500
C         -1.86780       10.34350       12.33160
N         -2.09510       10.56290       13.43600
C         -0.93820        8.73130       10.96080
N         -0.48550        7.67540       11.01640
C         -0.22510        9.17210        6.83490
C          0.66040        8.09060        6.57090
N          1.40660        7.42270        7.50040
C          1.70220        6.06370        7.26700
C          0.68950        5.19350        6.87090
C          0.97820        3.86950        6.61370
C          2.27220        3.37880        6.75120
C          2.57250        1.94590        6.43710
C          3.27000        4.25010        7.16960
C          2.99550        5.57950        7.42580
C          1.98120        8.05360        8.61930
C          2.46010        9.35850        8.53350
C          3.00860        9.96660        9.64490
C          3.11160        9.29150       10.85580
C          3.68380        9.95430       12.07030
C          2.66160        7.97770       10.92020
C          2.09850        7.36050        9.82150
C          0.66020        7.77530        5.20280
S          1.44890        6.56580        4.24600
C          0.68270        7.19400        2.78970
C         -0.16840        8.25520        3.04990
N         -1.00780        8.86970        2.14000
C         -1.72100        8.14470        1.18340
C         -2.22220        8.79810        0.05980
C         -2.93170        8.10150       -0.89780
C         -3.14600        6.73380       -0.78180
C         -3.86600        5.96940       -1.85060
C         -2.66180        6.09100        0.35060
C         -1.97580        6.78190        1.32910
C         -1.34520       10.21540        2.40660
C         -0.33180       11.13890        2.64250
C         -0.64630       12.43810        2.98550
C         -1.96880       12.84800        3.10080
C         -2.29550       14.23880        3.54630
C         -2.97260       11.92550        2.83530
C         -2.67210       10.62190        2.49350
C         -0.14620        8.59840        4.42640
S         -0.92240        9.83180        5.35040
C          0.97130        6.51090        1.56210
C          1.35470        7.01290        0.33370
C          1.64060        8.44390        0.14900
C          2.44120        9.04600        1.11930
C          2.76990       10.38480        1.04930
C          2.28930       11.14500       -0.00160
C          1.50690       10.55300       -0.97540
C          1.17280        9.20490       -0.93080
C          0.35320        8.57520       -2.02300
C         -0.46800        9.54140       -2.87010
C          1.58580        5.96180       -0.58630
S          2.17270        5.89340       -2.23530
C          2.09030        4.16480       -2.19290
C          2.33670        3.05390       -3.02150
C          2.86590        2.94330       -4.32580
C          3.04690        1.63690       -4.89750
N          3.59330        1.68470       -6.10220
S          3.85420        3.23520       -6.48760
N          3.27840        3.90840       -5.13280
C          2.57630        0.50800       -4.19090
C          2.42270       -0.83570       -4.57280
S          2.74890       -1.85850       -5.93260
C          1.90900       -3.15810       -5.12130
C          1.64760       -4.49180       -5.49650
C          2.14070       -5.03350       -6.77200
C          3.12230       -6.02490       -6.82110
C          3.71850       -6.61400       -5.57320
C          4.76760       -5.67050       -4.98130
C          3.61550       -6.40500       -8.06210
C          3.14890       -5.83270       -9.22970
C          2.17380       -4.85260       -9.17300
C          1.68120       -4.44960       -7.94810
C          0.92990       -5.14890       -4.51850
S          0.61510       -4.13480       -3.11270
C          1.42590       -2.80510       -3.85940
C          1.72600       -1.47490       -3.54290
N          1.46920       -0.58910       -2.53030
C          1.99430        0.63490       -2.89940
C          1.99880        1.90060       -2.26310
N          1.61120        2.29690       -0.99100
C          1.65620        3.66890       -0.96520
C          1.38260        4.68960       -0.04820
S          0.89190        4.75770        1.59990
C          1.78770        1.58440        0.25660
C          3.15860        1.87290        0.86940
C          0.49600       -0.91490       -1.51260
C          1.06530       -1.86010       -0.45350
C          0.40890       -6.47690       -4.47740
C         -0.04570       -7.29020       -5.49830
N         -0.17220       -6.90890       -6.84760
C         -1.43670       -6.31450       -7.12260
C         -2.42770       -7.02530       -7.79450
C         -3.66020       -6.44930       -8.02450
C         -3.94530       -5.16210       -7.58030
C         -5.28690       -4.55060       -7.84550
C         -2.95790       -4.46910       -6.89480
C         -1.71640       -5.03470       -6.66470
C          0.46840       -7.66640       -7.82850
C          1.40930       -8.63880       -7.49710
C          2.07680       -9.33500       -8.48520
C          1.84300       -9.08340       -9.82930
C          2.55400       -9.85820      -10.89740
C          0.92210       -8.09560      -10.15440
C          0.24860       -7.39250       -9.17790
C         -0.50720       -8.52610       -4.99260
S         -1.25660       -9.89230       -5.72540
C         -1.39960      -10.69150       -4.14850
C         -0.96670       -9.85060       -3.09270
N         -1.13840      -10.05520       -1.75690
C         -2.15420      -10.86120       -1.22620
C         -1.89880      -11.64320       -0.10120
C         -2.88040      -12.47350        0.40720
C         -4.13540      -12.54560       -0.18180
C         -5.18530      -13.48040        0.32910
C         -4.39750      -11.72290       -1.27580
C         -3.42810      -10.89110       -1.79360
C         -0.28340       -9.39110       -0.84710
C         -0.82150       -8.70360        0.23390
C          0.01550       -8.05150        1.11940
C          1.39370       -8.07230        0.94890
C          2.30580       -7.36070        1.89960
C          1.91980       -8.77870       -0.12850
C          1.09670       -9.43420       -1.02080
C         -0.42110       -8.65740       -3.61230
S          0.24570       -7.22800       -2.89800
C         -1.91840      -11.98140       -4.14460
C         -1.75730      -12.91800       -3.13630
C         -0.60430      -12.93750       -2.23250
O          0.34400      -12.17580       -2.22580
C         -0.76760      -14.16430       -1.41340
C         -1.92960      -14.84340       -1.81890
C         -2.29130      -16.02870       -1.20390
C         -1.49500      -16.51280       -0.17470
C         -0.36260      -15.82890        0.23550
Br         0.66190      -16.51830        1.66890
C          0.02650      -14.63750       -0.38600
Cl         1.41740      -13.77710        0.12890
C         -2.57490      -14.06210       -2.87470
C         -3.83220      -14.29100       -3.38320
C         -4.65450      -15.36450       -2.99940
N         -5.37400      -16.21050       -2.70360
C         -4.48220      -13.42160       -4.28020
N         -5.08050      -12.73560       -4.98120
H         -0.18020        8.93390        8.90130
H         -3.46660       14.05750        7.34820
H         -4.27120       14.48760       11.54180
H         -3.05520       12.41540       12.03030
H         -0.32050        5.56340        6.77110
H          0.18650        3.20340        6.30340
H          1.84280        1.28860        6.90630
H          2.52270        1.78440        5.36000
H          3.56610        1.67040        6.78030
H          4.28050        3.88740        7.28840
H          3.78110        6.25020        7.74060
H          2.39250        9.89410        7.59770
H          3.36930       10.98200        9.56620
H          4.07130       10.94150       11.83210
H          4.48860        9.35330       12.49050
H          2.91520       10.05900       12.83590
H          2.73450        7.43540       11.85060
H          1.73350        6.34820        9.89290
H         -2.04880        9.85760       -0.05190
H         -3.31640        8.62910       -1.75830
H         -4.46590        5.17070       -1.41940
H         -4.51380        6.62520       -2.42700
H         -3.14710        5.51670       -2.53520
H         -2.83740        5.03210        0.47870
H         -1.65840        6.26390        2.22140
H          0.69820       10.82410        2.56290
H          0.14880       13.14360        3.17820
H         -2.19040       14.29770        4.62960
H         -1.61390       14.96210        3.10340
H         -3.31650       14.50640        3.28570
H         -4.00750       12.22420        2.91820
H         -3.46240        9.90800        2.31180
H          2.82640        8.44400        1.92990
H          3.39890       10.82850        1.80730
H          2.52880       12.19580       -0.06830
H          1.15360       11.16040       -1.79270
H          1.03650        8.04470       -2.69220
H         -0.31070        7.82930       -1.58020
H         -1.07550       10.19200       -2.24690
H          0.17170       10.15470       -3.50010
H         -1.12870        8.97370       -3.52120
H          4.19110       -7.56700       -5.81800
H          2.94520       -6.80450       -4.82800
H          4.31580       -4.71990       -4.70700
H          5.21580       -6.11010       -4.09310
H          5.55250       -5.47630       -5.70860
H          4.38290       -7.16400       -8.10980
H          3.54750       -6.14940      -10.18150
H          1.80460       -4.39620      -10.07880
H          0.92620       -3.67870       -7.89530
H          0.99930        1.90760        0.94370
H          1.70280        0.51820        0.08660
H          3.27900        1.29700        1.78300
H          3.94700        1.59490        0.17290
H          3.26330        2.92710        1.11020
H         -0.34550       -1.41600       -2.00500
H          0.11770        0.00930       -1.07470
H          1.25160       -2.83850       -0.88770
H          0.35240       -1.97580        0.35810
H          2.00520       -1.49110       -0.04860
H         -2.22460       -8.03180       -8.13060
H         -4.42030       -7.01200       -8.54680
H         -5.39820       -4.33560       -8.90820
H         -5.40910       -3.62240       -7.29300
H         -6.08280       -5.23680       -7.56120
H         -3.15780       -3.46970       -6.53490
H         -0.96200       -4.48160       -6.12910
H          1.63350       -8.84760       -6.46190
H          2.79700      -10.08920       -8.20090
H          2.66490       -9.26120      -11.79980
H          1.98590      -10.75330      -11.15430
H          3.53880      -10.17220      -10.55860
H          0.73180       -7.86580      -11.19320
H         -0.44650       -6.61610       -9.45870
H         -0.92450      -11.60370        0.36230
H         -2.65850      -13.08600        1.26900
H         -6.12160      -12.95050        0.49530
H         -5.37840      -14.26670       -0.40130
H         -4.87350      -13.94610        1.26020
H         -5.37630      -11.74150       -1.73250
H         -3.65540      -10.26350       -2.64220
H         -1.89270       -8.67930        0.37260
H         -0.41260       -7.51520        1.95370
H          1.74210       -6.86780        2.68730
H          2.89280       -6.61180        1.36950
H          3.00070       -8.06400        2.35650
H          2.99060       -8.82030       -0.26360
H          1.50510      -10.00790       -1.83790
H         -2.46080      -12.27400       -5.03550
H         -3.16670      -16.58040       -1.50330
H         -1.76020      -17.43350        0.32170
