
  xtb     02112218563D
 energy: -280.598882031224 gnorm: 0.000758073741 xtb: 6.4.1 (unknown)
157176  0     0  0            999 V2000
   -7.5193   -7.5804   -8.7998 C   0  0  0  0  0  0  0  0  0  0  0  0
   -7.6845   -8.6104   -9.6993 C   0  0  0  0  0  0  0  0  0  0  0  0
   -7.2504  -10.0131   -9.5846 C   0  0  0  0  0  0  0  0  0  0  0  0
   -6.7347  -10.5925   -8.6473 O   0  0  0  0  0  0  0  0  0  0  0  0
   -7.5733  -10.6400  -10.8859 C   0  0  0  0  0  0  0  0  0  0  0  0
   -7.3262  -11.9363  -11.2860 C   0  0  0  0  0  0  0  0  0  0  0  0
   -7.7158  -12.2888  -12.5706 C   0  0  0  0  0  0  0  0  0  0  0  0
   -7.3989  -14.0598  -13.1844 Br  0  0  0  0  0  0  0  0  0  0  0  0
   -8.3291  -11.3783  -13.4197 C   0  0  0  0  0  0  0  0  0  0  0  0
   -8.5752  -10.0780  -13.0038 C   0  0  0  0  0  0  0  0  0  0  0  0
   -8.1952   -9.7014  -11.7236 C   0  0  0  0  0  0  0  0  0  0  0  0
   -8.3094   -8.4362  -10.9985 C   0  0  0  0  0  0  0  0  0  0  0  0
   -8.9322   -7.3170  -11.4911 C   0  0  0  0  0  0  0  0  0  0  0  0
   -9.1178   -6.0875  -10.8240 C   0  0  0  0  0  0  0  0  0  0  0  0
   -9.3319   -5.0529  -10.3720 N   0  0  0  0  0  0  0  0  0  0  0  0
   -9.5155   -7.2395  -12.7736 C   0  0  0  0  0  0  0  0  0  0  0  0
  -10.0094   -7.1025  -13.8011 N   0  0  0  0  0  0  0  0  0  0  0  0
   -6.9325   -7.5295   -7.5307 C   0  0  0  0  0  0  0  0  0  0  0  0
   -6.8988   -5.9232   -6.7653 S   0  0  0  0  0  0  0  0  0  0  0  0
   -6.0911   -6.5749   -5.4015 C   0  0  0  0  0  0  0  0  0  0  0  0
   -5.5343   -6.2096   -4.1829 C   0  0  0  0  0  0  0  0  0  0  0  0
   -4.9976   -7.3853   -3.6031 C   0  0  0  0  0  0  0  0  0  0  0  0
   -5.2118   -8.4494   -4.4332 N   0  0  0  0  0  0  0  0  0  0  0  0
   -4.8632   -9.8288   -4.1990 C   0  0  0  0  0  0  0  0  0  0  0  0
   -6.1018  -10.6907   -3.9677 C   0  0  0  0  0  0  0  0  0  0  0  0
   -5.8762   -7.9763   -5.5378 C   0  0  0  0  0  0  0  0  0  0  0  0
   -6.3445   -8.5028   -6.7278 C   0  0  0  0  0  0  0  0  0  0  0  0
   -4.3499   -7.1609   -2.3852 C   0  0  0  0  0  0  0  0  0  0  0  0
   -4.3849   -5.8273   -2.0282 C   0  0  0  0  0  0  0  0  0  0  0  0
   -5.2425   -4.8267   -3.1954 S   0  0  0  0  0  0  0  0  0  0  0  0
   -3.7652   -5.1886   -0.9178 C   0  0  0  0  0  0  0  0  0  0  0  0
   -3.1803   -5.7405    0.2109 C   0  0  0  0  0  0  0  0  0  0  0  0
   -3.2387   -7.1459    0.6216 C   0  0  0  0  0  0  0  0  0  0  0  0
   -2.0720   -7.8210    0.9674 C   0  0  0  0  0  0  0  0  0  0  0  0
   -2.1376   -9.1375    1.3836 C   0  0  0  0  0  0  0  0  0  0  0  0
   -3.3587   -9.7837    1.4683 C   0  0  0  0  0  0  0  0  0  0  0  0
   -4.5346   -9.1174    1.1463 C   0  0  0  0  0  0  0  0  0  0  0  0
   -5.8640   -9.8139    1.2016 C   0  0  0  0  0  0  0  0  0  0  0  0
   -6.2996  -10.2343   -0.2031 C   0  0  0  0  0  0  0  0  0  0  0  0
   -4.4622   -7.7988    0.7227 C   0  0  0  0  0  0  0  0  0  0  0  0
   -2.5367   -4.7566    0.9846 C   0  0  0  0  0  0  0  0  0  0  0  0
   -1.6189   -4.8383    2.4694 S   0  0  0  0  0  0  0  0  0  0  0  0
   -1.3681   -3.1278    2.3803 C   0  0  0  0  0  0  0  0  0  0  0  0
   -0.6914   -2.1143    3.0827 C   0  0  0  0  0  0  0  0  0  0  0  0
    0.0098   -2.1008    4.3086 C   0  0  0  0  0  0  0  0  0  0  0  0
    0.5564   -0.8582    4.7846 C   0  0  0  0  0  0  0  0  0  0  0  0
    1.1390   -0.9846    5.9663 N   0  0  0  0  0  0  0  0  0  0  0  0
    1.0169   -2.5276    6.4392 S   0  0  0  0  0  0  0  0  0  0  0  0
    0.2164   -3.0988    5.1530 N   0  0  0  0  0  0  0  0  0  0  0  0
    0.5006    0.2823    3.9518 C   0  0  0  0  0  0  0  0  0  0  0  0
    1.1285    1.5366    4.0366 C   0  0  0  0  0  0  0  0  0  0  0  0
    2.1419    2.4242    5.1237 S   0  0  0  0  0  0  0  0  0  0  0  0
    2.2739    3.6907    3.9280 C   0  0  0  0  0  0  0  0  0  0  0  0
    2.9598    4.9223    3.9204 C   0  0  0  0  0  0  0  0  0  0  0  0
    3.7106    5.4209    5.0744 C   0  0  0  0  0  0  0  0  0  0  0  0
    3.4837    6.7027    5.5691 C   0  0  0  0  0  0  0  0  0  0  0  0
    4.1723    7.1406    6.6834 C   0  0  0  0  0  0  0  0  0  0  0  0
    5.0816    6.3086    7.3136 C   0  0  0  0  0  0  0  0  0  0  0  0
    5.3062    5.0210    6.8440 C   0  0  0  0  0  0  0  0  0  0  0  0
    6.3117    4.1223    7.5037 C   0  0  0  0  0  0  0  0  0  0  0  0
    7.6727    4.2510    6.8171 C   0  0  0  0  0  0  0  0  0  0  0  0
    4.6142    4.5875    5.7231 C   0  0  0  0  0  0  0  0  0  0  0  0
    2.7767    5.5925    2.7257 C   0  0  0  0  0  0  0  0  0  0  0  0
    1.7167    4.7145    1.6229 S   0  0  0  0  0  0  0  0  0  0  0  0
    1.5522    3.4268    2.7633 C   0  0  0  0  0  0  0  0  0  0  0  0
    0.8913    2.1942    2.8259 C   0  0  0  0  0  0  0  0  0  0  0  0
    0.1075    1.4203    2.0089 N   0  0  0  0  0  0  0  0  0  0  0  0
   -0.1526    0.2413    2.6911 C   0  0  0  0  0  0  0  0  0  0  0  0
   -0.8767   -0.9211    2.3362 C   0  0  0  0  0  0  0  0  0  0  0  0
   -1.7061   -1.1822    1.2596 N   0  0  0  0  0  0  0  0  0  0  0  0
   -1.9803   -2.5275    1.2751 C   0  0  0  0  0  0  0  0  0  0  0  0
   -2.6500   -3.4605    0.4762 C   0  0  0  0  0  0  0  0  0  0  0  0
   -3.5491   -3.4438   -0.9970 S   0  0  0  0  0  0  0  0  0  0  0  0
   -2.6120   -0.2430    0.6339 C   0  0  0  0  0  0  0  0  0  0  0  0
   -4.0548   -0.4652    1.0853 C   0  0  0  0  0  0  0  0  0  0  0  0
    0.1136    1.6582    0.5786 C   0  0  0  0  0  0  0  0  0  0  0  0
    0.8685    0.5695   -0.1773 C   0  0  0  0  0  0  0  0  0  0  0  0
    3.3838    6.7831    2.2370 C   0  0  0  0  0  0  0  0  0  0  0  0
    4.8888    7.3883    2.9196 S   0  0  0  0  0  0  0  0  0  0  0  0
    4.9262    8.6424    1.7319 C   0  0  0  0  0  0  0  0  0  0  0  0
    5.6866    9.7313    1.3195 C   0  0  0  0  0  0  0  0  0  0  0  0
    5.0165   10.2973    0.2037 C   0  0  0  0  0  0  0  0  0  0  0  0
    3.8833    9.5735   -0.0673 N   0  0  0  0  0  0  0  0  0  0  0  0
    2.8718    9.9146   -1.0343 C   0  0  0  0  0  0  0  0  0  0  0  0
    1.8558   10.8964   -0.4541 C   0  0  0  0  0  0  0  0  0  0  0  0
    3.8107    8.5766    0.8648 C   0  0  0  0  0  0  0  0  0  0  0  0
    2.9479    7.5173    1.1532 C   0  0  0  0  0  0  0  0  0  0  0  0
    5.6798   11.3843   -0.3471 C   0  0  0  0  0  0  0  0  0  0  0  0
    6.8358   11.7000    0.3545 C   0  0  0  0  0  0  0  0  0  0  0  0
    7.1314   10.5828    1.6927 S   0  0  0  0  0  0  0  0  0  0  0  0
    7.7490   12.7097   -0.0040 C   0  0  0  0  0  0  0  0  0  0  0  0
    8.7673   13.2551    0.7245 C   0  0  0  0  0  0  0  0  0  0  0  0
    9.9088   13.9002    0.0334 C   0  0  0  0  0  0  0  0  0  0  0  0
    9.9733   14.2223   -1.1313 O   0  0  0  0  0  0  0  0  0  0  0  0
   10.9686   14.0048    1.0652 C   0  0  0  0  0  0  0  0  0  0  0  0
   12.2752   14.4225    0.9201 C   0  0  0  0  0  0  0  0  0  0  0  0
   13.0852   14.4033    2.0501 C   0  0  0  0  0  0  0  0  0  0  0  0
   14.7265   14.9148    1.9234 Cl  0  0  0  0  0  0  0  0  0  0  0  0
   12.5993   13.9776    3.2811 C   0  0  0  0  0  0  0  0  0  0  0  0
   11.2813   13.5694    3.4212 C   0  0  0  0  0  0  0  0  0  0  0  0
   10.4576   13.5837    2.3068 C   0  0  0  0  0  0  0  0  0  0  0  0
    9.0433   13.2579    2.1424 C   0  0  0  0  0  0  0  0  0  0  0  0
    8.1048   13.2593    3.1426 C   0  0  0  0  0  0  0  0  0  0  0  0
    8.4172   13.3561    4.5119 C   0  0  0  0  0  0  0  0  0  0  0  0
    8.6243   13.4177    5.6396 N   0  0  0  0  0  0  0  0  0  0  0  0
    6.7182   13.2787    2.8864 C   0  0  0  0  0  0  0  0  0  0  0  0
    5.5863   13.3602    2.7117 N   0  0  0  0  0  0  0  0  0  0  0  0
   -7.8907   -6.6161   -9.1256 H   0  0  0  0  0  0  0  0  0  0  0  0
   -6.8485  -12.6384  -10.6203 H   0  0  0  0  0  0  0  0  0  0  0  0
   -8.6170  -11.6855  -14.4134 H   0  0  0  0  0  0  0  0  0  0  0  0
   -9.0515   -9.3902  -13.6822 H   0  0  0  0  0  0  0  0  0  0  0  0
   -4.3106  -10.2034   -5.0671 H   0  0  0  0  0  0  0  0  0  0  0  0
   -4.2084   -9.8623   -3.3259 H   0  0  0  0  0  0  0  0  0  0  0  0
   -6.7335  -10.6931   -4.8516 H   0  0  0  0  0  0  0  0  0  0  0  0
   -6.6789  -10.3117   -3.1282 H   0  0  0  0  0  0  0  0  0  0  0  0
   -5.8031  -11.7127   -3.7529 H   0  0  0  0  0  0  0  0  0  0  0  0
   -6.2725   -9.5284   -7.0379 H   0  0  0  0  0  0  0  0  0  0  0  0
   -3.8513   -7.9091   -1.7984 H   0  0  0  0  0  0  0  0  0  0  0  0
   -1.1204   -7.3165    0.8975 H   0  0  0  0  0  0  0  0  0  0  0  0
   -1.2309   -9.6622    1.6453 H   0  0  0  0  0  0  0  0  0  0  0  0
   -3.4015  -10.8124    1.7959 H   0  0  0  0  0  0  0  0  0  0  0  0
   -5.7962  -10.6957    1.8406 H   0  0  0  0  0  0  0  0  0  0  0  0
   -6.6144   -9.1422    1.6238 H   0  0  0  0  0  0  0  0  0  0  0  0
   -6.3871   -9.3595   -0.8446 H   0  0  0  0  0  0  0  0  0  0  0  0
   -5.5672  -10.9112   -0.6381 H   0  0  0  0  0  0  0  0  0  0  0  0
   -7.2618  -10.7397   -0.1692 H   0  0  0  0  0  0  0  0  0  0  0  0
   -5.3681   -7.2629    0.4764 H   0  0  0  0  0  0  0  0  0  0  0  0
    2.7580    7.3425    5.0885 H   0  0  0  0  0  0  0  0  0  0  0  0
    3.9957    8.1348    7.0659 H   0  0  0  0  0  0  0  0  0  0  0  0
    5.6159    6.6592    8.1846 H   0  0  0  0  0  0  0  0  0  0  0  0
    5.9739    3.0857    7.4441 H   0  0  0  0  0  0  0  0  0  0  0  0
    6.4123    4.3897    8.5571 H   0  0  0  0  0  0  0  0  0  0  0  0
    8.0296    5.2769    6.8741 H   0  0  0  0  0  0  0  0  0  0  0  0
    7.5952    3.9751    5.7678 H   0  0  0  0  0  0  0  0  0  0  0  0
    8.4024    3.6015    7.2947 H   0  0  0  0  0  0  0  0  0  0  0  0
    4.7853    3.5908    5.3425 H   0  0  0  0  0  0  0  0  0  0  0  0
   -2.5415   -0.3419   -0.4544 H   0  0  0  0  0  0  0  0  0  0  0  0
   -2.3174    0.7595    0.9349 H   0  0  0  0  0  0  0  0  0  0  0  0
   -4.4280   -1.4297    0.7548 H   0  0  0  0  0  0  0  0  0  0  0  0
   -4.1202   -0.4173    2.1703 H   0  0  0  0  0  0  0  0  0  0  0  0
   -4.6883    0.3098    0.6627 H   0  0  0  0  0  0  0  0  0  0  0  0
    0.6140    2.6185    0.4309 H   0  0  0  0  0  0  0  0  0  0  0  0
   -0.8993    1.7588    0.1837 H   0  0  0  0  0  0  0  0  0  0  0  0
    0.3771   -0.3936   -0.0705 H   0  0  0  0  0  0  0  0  0  0  0  0
    1.8837    0.4839    0.2034 H   0  0  0  0  0  0  0  0  0  0  0  0
    0.9127    0.8228   -1.2328 H   0  0  0  0  0  0  0  0  0  0  0  0
    2.3734    8.9928   -1.3452 H   0  0  0  0  0  0  0  0  0  0  0  0
    3.3660   10.3538   -1.9048 H   0  0  0  0  0  0  0  0  0  0  0  0
    1.1134   11.1527   -1.2047 H   0  0  0  0  0  0  0  0  0  0  0  0
    2.3549   11.8057   -0.1280 H   0  0  0  0  0  0  0  0  0  0  0  0
    1.3512   10.4545    0.4019 H   0  0  0  0  0  0  0  0  0  0  0  0
    2.0443    7.2829    0.6196 H   0  0  0  0  0  0  0  0  0  0  0  0
    5.3486   11.9586   -1.1931 H   0  0  0  0  0  0  0  0  0  0  0  0
    7.6962   13.0399   -1.0374 H   0  0  0  0  0  0  0  0  0  0  0  0
   12.6467   14.7517   -0.0374 H   0  0  0  0  0  0  0  0  0  0  0  0
   13.2582   13.9677    4.1351 H   0  0  0  0  0  0  0  0  0  0  0  0
   10.9213   13.2379    4.3819 H   0  0  0  0  0  0  0  0  0  0  0  0
  1  2  2  0  0  0  0
  2  3  1  0  0  0  0
  3  4  2  0  0  0  0
  3  5  1  0  0  0  0
  5  6  2  0  0  0  0
  6  7  1  0  0  0  0
  7  8  1  0  0  0  0
  7  9  2  0  0  0  0
  9 10  1  0  0  0  0
 10 11  2  0  0  0  0
 11 12  1  0  0  0  0
 12 13  2  0  0  0  0
 13 14  1  0  0  0  0
 14 15  3  0  0  0  0
 13 16  1  0  0  0  0
 16 17  3  0  0  0  0
  1 18  1  0  0  0  0
 18 19  1  0  0  0  0
 19 20  1  0  0  0  0
 20 21  1  0  0  0  0
 21 22  2  0  0  0  0
 22 23  1  0  0  0  0
 23 24  1  0  0  0  0
 24 25  1  0  0  0  0
 23 26  1  0  0  0  0
 26 27  1  0  0  0  0
 22 28  1  0  0  0  0
 28 29  2  0  0  0  0
 29 30  1  0  0  0  0
 29 31  1  0  0  0  0
 31 32  2  0  0  0  0
 32 33  1  0  0  0  0
 33 34  2  0  0  0  0
 34 35  1  0  0  0  0
 35 36  2  0  0  0  0
 36 37  1  0  0  0  0
 37 38  1  0  0  0  0
 38 39  1  0  0  0  0
 37 40  2  0  0  0  0
 32 41  1  0  0  0  0
 41 42  1  0  0  0  0
 42 43  1  0  0  0  0
 43 44  1  0  0  0  0
 44 45  1  0  0  0  0
 45 46  1  0  0  0  0
 46 47  2  0  0  0  0
 47 48  1  0  0  0  0
 48 49  1  0  0  0  0
 46 50  1  0  0  0  0
 50 51  1  0  0  0  0
 51 52  1  0  0  0  0
 52 53  1  0  0  0  0
 53 54  1  0  0  0  0
 54 55  1  0  0  0  0
 55 56  2  0  0  0  0
 56 57  1  0  0  0  0
 57 58  2  0  0  0  0
 58 59  1  0  0  0  0
 59 60  1  0  0  0  0
 60 61  1  0  0  0  0
 59 62  2  0  0  0  0
 54 63  2  0  0  0  0
 63 64  1  0  0  0  0
 64 65  1  0  0  0  0
 65 66  1  0  0  0  0
 66 67  1  0  0  0  0
 67 68  1  0  0  0  0
 68 69  1  0  0  0  0
 69 70  1  0  0  0  0
 70 71  1  0  0  0  0
 71 72  1  0  0  0  0
 72 73  1  0  0  0  0
 70 74  1  0  0  0  0
 74 75  1  0  0  0  0
 67 76  1  0  0  0  0
 76 77  1  0  0  0  0
 63 78  1  0  0  0  0
 78 79  1  0  0  0  0
 79 80  1  0  0  0  0
 80 81  1  0  0  0  0
 81 82  2  0  0  0  0
 82 83  1  0  0  0  0
 83 84  1  0  0  0  0
 84 85  1  0  0  0  0
 83 86  1  0  0  0  0
 86 87  1  0  0  0  0
 82 88  1  0  0  0  0
 88 89  2  0  0  0  0
 89 90  1  0  0  0  0
 89 91  1  0  0  0  0
 91 92  2  0  0  0  0
 92 93  1  0  0  0  0
 93 94  2  0  0  0  0
 93 95  1  0  0  0  0
 95 96  2  0  0  0  0
 96 97  1  0  0  0  0
 97 98  1  0  0  0  0
 97 99  2  0  0  0  0
 99100  1  0  0  0  0
100101  2  0  0  0  0
101102  1  0  0  0  0
102103  2  0  0  0  0
103104  1  0  0  0  0
104105  3  0  0  0  0
103106  1  0  0  0  0
106107  3  0  0  0  0
 12  2  1  0  0  0  0
 27 18  2  0  0  0  0
 73 31  1  0  0  0  0
 87 78  2  0  0  0  0
102 92  1  0  0  0  0
 11  5  1  0  0  0  0
 26 20  2  0  0  0  0
 40 33  1  0  0  0  0
 72 41  2  0  0  0  0
 86 80  2  0  0  0  0
101 95  1  0  0  0  0
 30 21  1  0  0  0  0
 71 43  2  0  0  0  0
 90 81  1  0  0  0  0
 69 44  2  0  0  0  0
 49 45  2  0  0  0  0
 68 50  2  0  0  0  0
 66 51  2  0  0  0  0
 65 53  2  0  0  0  0
 62 55  1  0  0  0  0
  1108  1  0  0  0  0
  6109  1  0  0  0  0
  9110  1  0  0  0  0
 10111  1  0  0  0  0
 24112  1  0  0  0  0
 24113  1  0  0  0  0
 25114  1  0  0  0  0
 25115  1  0  0  0  0
 25116  1  0  0  0  0
 27117  1  0  0  0  0
 28118  1  0  0  0  0
 34119  1  0  0  0  0
 35120  1  0  0  0  0
 36121  1  0  0  0  0
 38122  1  0  0  0  0
 38123  1  0  0  0  0
 39124  1  0  0  0  0
 39125  1  0  0  0  0
 39126  1  0  0  0  0
 40127  1  0  0  0  0
 56128  1  0  0  0  0
 57129  1  0  0  0  0
 58130  1  0  0  0  0
 60131  1  0  0  0  0
 60132  1  0  0  0  0
 61133  1  0  0  0  0
 61134  1  0  0  0  0
 61135  1  0  0  0  0
 62136  1  0  0  0  0
 74137  1  0  0  0  0
 74138  1  0  0  0  0
 75139  1  0  0  0  0
 75140  1  0  0  0  0
 75141  1  0  0  0  0
 76142  1  0  0  0  0
 76143  1  0  0  0  0
 77144  1  0  0  0  0
 77145  1  0  0  0  0
 77146  1  0  0  0  0
 84147  1  0  0  0  0
 84148  1  0  0  0  0
 85149  1  0  0  0  0
 85150  1  0  0  0  0
 85151  1  0  0  0  0
 87152  1  0  0  0  0
 88153  1  0  0  0  0
 91154  1  0  0  0  0
 96155  1  0  0  0  0
 99156  1  0  0  0  0
100157  1  0  0  0  0
M  END
