217

C         -0.60640       -3.37880      -13.79810
C         -0.49780       -4.45280      -14.64180
C         -1.09760       -5.79860      -14.51210
O         -1.92310       -6.20160      -13.71980
C         -0.48510       -6.61100      -15.58660
C         -0.67920       -7.95140      -15.84840
C          0.02450       -8.49850      -16.91210
Br        -0.19500      -10.34010      -17.32370
C          0.88940       -7.73230      -17.68260
C          1.07210       -6.38460      -17.41300
C          0.37700       -5.81350      -16.35580
C          0.34710       -4.45170      -15.82760
C          0.97840       -3.38040      -16.40360
C          0.91800       -2.03610      -15.97600
N          0.92270       -0.91530      -15.72420
C          1.77670       -3.46670      -17.56480
N          2.44150       -3.46160      -18.50060
C         -1.32320       -3.19180      -12.59920
C         -2.20460       -3.98820      -11.90350
C         -2.67640       -3.40830      -10.71310
C         -3.54140       -3.99180       -9.76030
C         -4.21520       -5.26920      -10.01360
C         -4.83770       -5.51250      -11.23590
C         -5.49700       -6.71010      -11.44940
C         -5.57450       -7.65730      -10.44740
C         -4.97560       -7.41110       -9.21510
S         -5.14980       -8.64970       -7.96700
C         -4.96790       -7.72080       -6.40110
C         -3.55970       -7.76390       -5.83820
C         -4.27680       -6.23330       -9.01150
C         -3.73430       -3.27890       -8.59080
C         -3.17910       -1.99190       -8.35990
C         -2.35800       -1.38820       -9.32800
C         -1.76670       -0.05990       -9.11430
C         -1.87810        0.92800      -10.09140
C         -1.32540        2.17530       -9.87650
C         -0.66370        2.46750       -8.69600
C         -0.54020        1.48550       -7.72280
S          0.25290        1.72750       -6.16230
C          1.10930        3.33740       -6.34330
C          1.99040        3.57010       -5.13070
C         -1.08500        0.22450       -7.93910
C         -2.11900       -2.11950      -10.48000
S         -1.06410       -1.64840      -11.77710
C         -3.56610       -1.47080       -7.10570
C         -4.35260       -2.31410       -6.36860
S         -4.70310       -3.79850       -7.22950
C         -4.72570       -2.12050       -5.00920
C         -5.50720       -2.90030       -4.17450
C         -6.35620       -4.02230       -4.57830
C         -7.25190       -3.89940       -5.63780
C         -8.07970       -4.95670       -5.96340
C         -8.03870       -6.12940       -5.22900
C         -7.16330       -6.26250       -4.15870
C         -7.16180       -7.49620       -3.30300
C         -8.00230       -7.26360       -2.04560
C         -6.32260       -5.20470       -3.84750
C         -5.41230       -2.46710       -2.83660
S         -6.09360       -3.07060       -1.34330
C         -5.22960       -1.84510       -0.47750
C         -4.98700       -1.44300        0.84840
C         -5.50860       -1.87680        2.08710
C         -5.04420       -1.25390        3.29700
N         -5.64560       -1.73410        4.37370
S         -6.70080       -2.87100        3.91090
N         -6.43010       -2.79890        2.31640
C         -3.98870       -0.31700        3.22500
C         -3.16970        0.24530        4.21830
S         -2.99730        0.22450        5.94180
C         -1.50120        1.11290        5.77840
C         -0.55650        1.56600        6.71980
C         -0.69960        1.35960        8.16410
C         -0.91420        0.07760        8.65870
C         -1.03810       -0.12000       10.02100
C         -0.95080        0.95090       10.89240
C         -0.75910        2.24100       10.41340
C         -0.61380        3.39630       11.36060
C          0.84970        3.54610       11.78190
C         -0.64370        2.43440        9.04540
C          0.50150        2.20740        6.10190
S          0.30720        2.28190        4.35210
C         -1.18550        1.42190        4.45370
C         -2.14370        0.93140        3.56020
N         -2.31510        0.84550        2.20440
C         -3.44730        0.08780        1.97390
C         -4.04770       -0.37890        0.77980
N         -3.78670       -0.09180       -0.54970
C         -4.48340       -1.00120       -1.30430
C         -4.59050       -1.35420       -2.65320
S         -3.91310       -0.81540       -4.14520
C         -3.42860        1.18830       -1.12300
C         -4.65430        1.90830       -1.68520
C         -1.22950        1.19010        1.31320
C         -1.08520        2.70160        1.13790
C          1.71960        2.71190        6.63650
C          2.67250        3.39800        5.93330
C          3.81260        3.74410        6.69070
C          4.94190        4.46590        6.27530
C          5.03390        5.03450        4.92200
C          6.14910        4.80120        4.12490
C          6.22330        5.36120        2.86130
C          5.19440        6.14670        2.38230
C          4.07400        6.38550        3.17480
S          2.84240        7.45100        2.47870
C          1.33440        7.13900        3.46140
C          0.73960        5.77450        3.17250
C          3.99850        5.83340        4.44260
C          5.95260        4.63730        7.20980
C          5.85610        4.15770        8.54680
C          4.70470        3.45580        8.97200
C          4.52420        2.99280       10.35360
C          4.11860        1.68580       10.61650
C          3.87850        1.27970       11.91610
C          4.05360        2.16030       12.96770
C          4.47580        3.45890       12.71390
S          4.68680        4.56820       14.08440
C          6.34980        5.24450       13.72140
C          7.40380        4.15700       13.70350
C          4.69670        3.87800       11.41200
C          3.72560        3.25110        8.02050
S          2.20770        2.42630        8.29450
C          7.01050        4.46480        9.28020
C          7.96760        5.16890        8.56590
S          7.45030        5.47230        6.91780
C          9.18810        5.56210        9.14890
C         10.26410        6.21820        8.61260
C         10.41380        6.64780        7.21140
O          9.60330        6.56860        6.31120
C         11.77900        7.20350        7.10310
C         12.40450        7.71620        5.98610
C         13.70740        8.17730        6.13600
Cl        14.53950        8.82780        4.77590
C         14.35180        8.12160        7.36730
C         13.71230        7.60670        8.48440
C         12.41070        7.14180        8.35670
C         11.48310        6.56100        9.32400
C         11.73890        6.41060       10.66300
C         12.95740        6.76390       11.28160
N         13.92040        7.02180       11.85050
C         10.84180        5.91210       11.62740
N         10.17620        5.53450       12.48470
H         -0.01670       -2.51010      -14.06710
H         -1.35080       -8.54000      -15.24270
H          1.42440       -8.19190      -18.49950
H          1.75030       -5.81210      -18.02350
H         -2.47510       -4.97470      -12.23140
H         -4.82650       -4.75600      -12.00530
H         -5.96960       -6.89850      -12.40140
H         -6.10200       -8.58590      -10.60060
H         -5.66220       -8.20820       -5.71780
H         -5.31160       -6.70290       -6.58060
H         -3.52210       -7.19410       -4.91150
H         -2.83840       -7.34140       -6.53380
H         -3.26780       -8.79080       -5.63090
H         -3.75180       -6.05950       -8.08700
H         -2.41280        0.72300      -11.00590
H         -1.41580        2.93960      -10.63370
H         -0.25540        3.45440       -8.54990
H          1.70390        3.29120       -7.25570
H          0.35120        4.11700       -6.42640
H          2.72970        2.77780       -5.04030
H          2.50750        4.52230       -5.22770
H          1.39180        3.58810       -4.22280
H         -0.95190       -0.53840       -7.18670
H         -3.26900       -0.50070       -6.74920
H         -7.31010       -2.97130       -6.18690
H         -8.76980       -4.86160       -6.78850
H         -8.69640       -6.94700       -5.48610
H         -6.13920       -7.74340       -3.00890
H         -7.57350       -8.33970       -3.86070
H         -7.99810       -8.15050       -1.41660
H         -9.03040       -7.03430       -2.31640
H         -7.60550       -6.42810       -1.47330
H         -5.62660       -5.30210       -3.02690
H         -0.96830       -0.75810        7.97710
H         -1.20030       -1.11640       10.40450
H         -1.03950        0.78760       11.95670
H         -1.22850        3.23070       12.24730
H         -0.94750        4.31730       10.87890
H          1.19770        2.64230       12.27600
H          0.96940        4.38190       12.46680
H          1.48080        3.71550       10.91220
H         -0.51610        3.43470        8.65550
H         -2.69710        1.02500       -1.92150
H         -2.99340        1.81100       -0.34890
H         -5.40290        2.04130       -0.90670
H         -4.36020        2.88520       -2.05910
H         -5.09800        1.34750       -2.50270
H         -1.37580        0.68350        0.35950
H         -0.30290        0.80530        1.75470
H         -2.01720        3.16260        0.81850
H         -0.79030        3.15960        2.07790
H         -0.31840        2.91130        0.39770
H          2.56690        3.63050        4.88870
H          6.94720        4.17270        4.48780
H          7.08990        5.17980        2.24400
H          5.24460        6.58780        1.39870
H          0.65450        7.93360        3.15390
H          1.56950        7.27450        4.51610
H          0.45860        5.70190        2.12440
H         -0.14510        5.61440        3.78610
H          1.45730        4.98620        3.38750
H          3.15950        6.03380        5.09080
H          4.00760        0.98560        9.80270
H          3.56010        0.26660       12.11070
H          3.87180        1.85370       13.98600
H          6.30650        5.78650       12.77720
H          6.53030        5.95550       14.52620
H          7.18230        3.41770       12.93410
H          8.37880        4.59270       13.50100
H          7.43810        3.64900       14.66440
H          4.96970        4.90250       11.20740
H          7.16360        4.17080       10.30410
H          9.26540        5.27460       10.19120
H         11.89330        7.75380        5.03710
H         15.36380        8.48540        7.45110
H         14.23610        7.57470        9.42540
