
  xtb     02032219243D
 energy: -322.329481050383 gnorm: 0.000635265912 xtb: 6.4.1 (unknown)
208226  0     0  0            999 V2000
   11.3170   -9.8063   10.4219 C   0  0  0  0  0  0  0  0  0  0  0  0
   11.7552   -8.7398    9.4275 C   0  0  0  0  0  0  0  0  0  0  0  0
   10.7724   -7.6646    9.3355 N   0  0  0  0  0  0  0  0  0  0  0  0
    9.8120   -7.7897    8.3373 C   0  0  0  0  0  0  0  0  0  0  0  0
    9.7788   -8.8079    7.6750 O   0  0  0  0  0  0  0  0  0  0  0  0
    8.9177   -6.6385    8.1641 C   0  0  0  0  0  0  0  0  0  0  0  0
    8.7546   -5.7420    9.3120 C   0  0  0  0  0  0  0  0  0  0  0  0
    7.8157   -4.9848    9.4666 O   0  0  0  0  0  0  0  0  0  0  0  0
    9.7715   -5.7660   10.2597 N   0  0  0  0  0  0  0  0  0  0  0  0
    9.6766   -4.7918   11.3421 C   0  0  0  0  0  0  0  0  0  0  0  0
    8.9968   -5.3897   12.5663 C   0  0  0  0  0  0  0  0  0  0  0  0
   10.7984   -6.6640   10.2633 C   0  0  0  0  0  0  0  0  0  0  0  0
   12.0111   -6.5664   11.3794 S   0  0  0  0  0  0  0  0  0  0  0  0
    8.2412   -6.4026    6.9871 C   0  0  0  0  0  0  0  0  0  0  0  0
    8.3808   -7.2576    5.8355 C   0  0  0  0  0  0  0  0  0  0  0  0
    7.6199   -7.1364    4.7394 C   0  0  0  0  0  0  0  0  0  0  0  0
    6.6041   -6.0562    4.5738 C   0  0  0  0  0  0  0  0  0  0  0  0
    7.0728   -4.8410    5.3846 C   0  0  0  0  0  0  0  0  0  0  0  0
    7.3148   -5.2364    6.8357 C   0  0  0  0  0  0  0  0  0  0  0  0
    6.3962   -5.6889    3.1419 C   0  0  0  0  0  0  0  0  0  0  0  0
    7.2601   -5.6289    2.0848 C   0  0  0  0  0  0  0  0  0  0  0  0
    6.5205   -5.1298    0.9927 C   0  0  0  0  0  0  0  0  0  0  0  0
    5.2452   -4.9117    1.4586 C   0  0  0  0  0  0  0  0  0  0  0  0
    5.1718   -5.2572    2.7681 O   0  0  0  0  0  0  0  0  0  0  0  0
    4.0864   -4.3842    0.8132 C   0  0  0  0  0  0  0  0  0  0  0  0
    4.1918   -3.8008   -0.8305 S   0  0  0  0  0  0  0  0  0  0  0  0
    2.5434   -3.3209   -0.7619 C   0  0  0  0  0  0  0  0  0  0  0  0
    1.6221   -2.6010   -1.5647 C   0  0  0  0  0  0  0  0  0  0  0  0
    0.4357   -2.4412   -0.8761 C   0  0  0  0  0  0  0  0  0  0  0  0
    0.4871   -3.2018    0.4366 C   0  0  0  0  0  0  0  0  0  0  0  0
    1.9494   -3.6152    0.4569 C   0  0  0  0  0  0  0  0  0  0  0  0
    2.8283   -4.2193    1.3544 C   0  0  0  0  0  0  0  0  0  0  0  0
    0.1342   -2.2922    1.5970 C   0  0  0  0  0  0  0  0  0  0  0  0
    0.7271   -1.0335    1.6321 C   0  0  0  0  0  0  0  0  0  0  0  0
    0.4218   -0.1353    2.6337 C   0  0  0  0  0  0  0  0  0  0  0  0
   -0.4759   -0.4699    3.6399 C   0  0  0  0  0  0  0  0  0  0  0  0
   -0.7919    0.5033    4.7384 C   0  0  0  0  0  0  0  0  0  0  0  0
    0.2464    0.4085    5.8577 C   0  0  0  0  0  0  0  0  0  0  0  0
   -1.0420   -1.7350    3.6187 C   0  0  0  0  0  0  0  0  0  0  0  0
   -0.7480   -2.6348    2.6093 C   0  0  0  0  0  0  0  0  0  0  0  0
   -0.3004   -4.5010    0.3648 C   0  0  0  0  0  0  0  0  0  0  0  0
   -0.2292   -5.4166    1.4091 C   0  0  0  0  0  0  0  0  0  0  0  0
   -0.9452   -6.5974    1.3648 C   0  0  0  0  0  0  0  0  0  0  0  0
   -1.7338   -6.9135    0.2665 C   0  0  0  0  0  0  0  0  0  0  0  0
   -2.5739   -8.1575    0.2515 C   0  0  0  0  0  0  0  0  0  0  0  0
   -3.9607   -7.8603    0.8262 C   0  0  0  0  0  0  0  0  0  0  0  0
   -1.7653   -6.0211   -0.7946 C   0  0  0  0  0  0  0  0  0  0  0  0
   -1.0580   -4.8337   -0.7499 C   0  0  0  0  0  0  0  0  0  0  0  0
   -0.4570   -1.5504   -1.5235 C   0  0  0  0  0  0  0  0  0  0  0  0
   -1.6980   -1.0209   -1.1314 C   0  0  0  0  0  0  0  0  0  0  0  0
   -2.4348   -1.3600    0.0816 C   0  0  0  0  0  0  0  0  0  0  0  0
   -2.8132   -0.4869    1.0593 C   0  0  0  0  0  0  0  0  0  0  0  0
   -3.6517   -1.0715    2.0299 C   0  0  0  0  0  0  0  0  0  0  0  0
   -3.9344   -2.3778    1.7825 C   0  0  0  0  0  0  0  0  0  0  0  0
   -4.7735   -3.3219    2.5737 C   0  0  0  0  0  0  0  0  0  0  0  0
   -5.9838   -3.8082    1.7765 C   0  0  0  0  0  0  0  0  0  0  0  0
   -3.1554   -2.9185    0.3321 S   0  0  0  0  0  0  0  0  0  0  0  0
   -2.2509   -0.0432   -1.9456 C   0  0  0  0  0  0  0  0  0  0  0  0
   -3.7850    0.7125   -1.5767 S   0  0  0  0  0  0  0  0  0  0  0  0
   -3.5750    1.7500   -2.9337 C   0  0  0  0  0  0  0  0  0  0  0  0
   -4.3004    2.8238   -3.5021 C   0  0  0  0  0  0  0  0  0  0  0  0
   -3.6222    3.2986   -4.6146 C   0  0  0  0  0  0  0  0  0  0  0  0
   -2.3004    2.5559   -4.7744 C   0  0  0  0  0  0  0  0  0  0  0  0
   -1.1901    3.5542   -4.4844 C   0  0  0  0  0  0  0  0  0  0  0  0
   -0.3216    3.4046   -3.4119 C   0  0  0  0  0  0  0  0  0  0  0  0
    0.6588    4.3476   -3.1578 C   0  0  0  0  0  0  0  0  0  0  0  0
    0.7998    5.4709   -3.9588 C   0  0  0  0  0  0  0  0  0  0  0  0
    1.8357    6.5128   -3.6493 C   0  0  0  0  0  0  0  0  0  0  0  0
    1.2968    7.5164   -2.6276 C   0  0  0  0  0  0  0  0  0  0  0  0
   -0.0822    5.6304   -5.0193 C   0  0  0  0  0  0  0  0  0  0  0  0
   -1.0627    4.6917   -5.2753 C   0  0  0  0  0  0  0  0  0  0  0  0
   -2.2331    1.9111   -6.1464 C   0  0  0  0  0  0  0  0  0  0  0  0
   -1.2974    2.2522   -7.1102 C   0  0  0  0  0  0  0  0  0  0  0  0
   -1.3415    1.6710   -8.3651 C   0  0  0  0  0  0  0  0  0  0  0  0
   -2.2969    0.7182   -8.6840 C   0  0  0  0  0  0  0  0  0  0  0  0
   -2.3676    0.1246  -10.0616 C   0  0  0  0  0  0  0  0  0  0  0  0
   -3.2845    0.9610  -10.9565 C   0  0  0  0  0  0  0  0  0  0  0  0
   -3.2190    0.3622   -7.7076 C   0  0  0  0  0  0  0  0  0  0  0  0
   -3.1929    0.9544   -6.4614 C   0  0  0  0  0  0  0  0  0  0  0  0
   -2.4288    1.5230   -3.6679 C   0  0  0  0  0  0  0  0  0  0  0  0
   -1.6575    0.4576   -3.1379 C   0  0  0  0  0  0  0  0  0  0  0  0
   -0.4574   -0.1280   -3.5687 C   0  0  0  0  0  0  0  0  0  0  0  0
    0.1111   -1.0862   -2.7458 C   0  0  0  0  0  0  0  0  0  0  0  0
    1.6914   -1.7726   -3.0776 S   0  0  0  0  0  0  0  0  0  0  0  0
    0.2047    0.1678   -4.8405 C   0  0  0  0  0  0  0  0  0  0  0  0
    1.1718    1.0741   -5.1393 C   0  0  0  0  0  0  0  0  0  0  0  0
    1.6800    0.9264   -6.4482 C   0  0  0  0  0  0  0  0  0  0  0  0
    1.1149   -0.0990   -7.1400 C   0  0  0  0  0  0  0  0  0  0  0  0
    1.4273   -0.5451   -8.5312 C   0  0  0  0  0  0  0  0  0  0  0  0
    0.7977   -1.8871   -8.8795 C   0  0  0  0  0  0  0  0  0  0  0  0
   -0.0847   -0.8999   -6.1834 S   0  0  0  0  0  0  0  0  0  0  0  0
   -4.3093    4.3314   -5.2565 C   0  0  0  0  0  0  0  0  0  0  0  0
   -5.4857    4.6486   -4.6113 C   0  0  0  0  0  0  0  0  0  0  0  0
   -5.7686    3.6549   -3.1996 S   0  0  0  0  0  0  0  0  0  0  0  0
   -6.4493    5.6550   -4.9171 C   0  0  0  0  0  0  0  0  0  0  0  0
   -6.6553    6.4569   -6.0151 C   0  0  0  0  0  0  0  0  0  0  0  0
   -7.7723    7.2617   -5.7071 C   0  0  0  0  0  0  0  0  0  0  0  0
   -8.1813    6.8992   -4.4525 C   0  0  0  0  0  0  0  0  0  0  0  0
   -7.3839    5.9259   -3.9753 O   0  0  0  0  0  0  0  0  0  0  0  0
   -9.1974    7.5163   -3.5404 C   0  0  0  0  0  0  0  0  0  0  0  0
   -8.4402    8.3915   -2.5840 C   0  0  0  0  0  0  0  0  0  0  0  0
   -7.7829    7.8292   -1.5655 C   0  0  0  0  0  0  0  0  0  0  0  0
   -7.8475    6.4090   -1.3257 C   0  0  0  0  0  0  0  0  0  0  0  0
   -6.7865    5.7171   -0.7814 C   0  0  0  0  0  0  0  0  0  0  0  0
   -5.4554    6.3177   -0.8018 C   0  0  0  0  0  0  0  0  0  0  0  0
   -5.2097    7.4288   -1.2327 O   0  0  0  0  0  0  0  0  0  0  0  0
   -4.4105    5.5140   -0.3591 N   0  0  0  0  0  0  0  0  0  0  0  0
   -3.0687    6.0617   -0.5235 C   0  0  0  0  0  0  0  0  0  0  0  0
   -2.4832    5.6467   -1.8660 C   0  0  0  0  0  0  0  0  0  0  0  0
   -4.5575    4.2500    0.1324 C   0  0  0  0  0  0  0  0  0  0  0  0
   -3.2449    3.3876    0.6457 S   0  0  0  0  0  0  0  0  0  0  0  0
   -5.8121    3.7238    0.2006 N   0  0  0  0  0  0  0  0  0  0  0  0
   -6.9587    4.3626   -0.2631 C   0  0  0  0  0  0  0  0  0  0  0  0
   -8.0344    3.8018   -0.1709 O   0  0  0  0  0  0  0  0  0  0  0  0
   -5.9966    2.3998    0.7846 C   0  0  0  0  0  0  0  0  0  0  0  0
   -6.1079    2.4747    2.3011 C   0  0  0  0  0  0  0  0  0  0  0  0
   -9.1122    5.7162   -1.7222 C   0  0  0  0  0  0  0  0  0  0  0  0
   -9.9917    6.5144   -2.6903 C   0  0  0  0  0  0  0  0  0  0  0  0
   11.2176   -9.3799   11.4174 H   0  0  0  0  0  0  0  0  0  0  0  0
   10.3640  -10.2326   10.1180 H   0  0  0  0  0  0  0  0  0  0  0  0
   12.0603  -10.5973   10.4558 H   0  0  0  0  0  0  0  0  0  0  0  0
   12.7080   -8.3017    9.7286 H   0  0  0  0  0  0  0  0  0  0  0  0
   11.8449   -9.1723    8.4300 H   0  0  0  0  0  0  0  0  0  0  0  0
   10.6861   -4.4584   11.5874 H   0  0  0  0  0  0  0  0  0  0  0  0
    9.0914   -3.9535   10.9610 H   0  0  0  0  0  0  0  0  0  0  0  0
    8.9247   -4.6359   13.3447 H   0  0  0  0  0  0  0  0  0  0  0  0
    9.5719   -6.2299   12.9482 H   0  0  0  0  0  0  0  0  0  0  0  0
    7.9954   -5.7278   12.3111 H   0  0  0  0  0  0  0  0  0  0  0  0
    9.0939   -8.0631    5.8941 H   0  0  0  0  0  0  0  0  0  0  0  0
    7.7305   -7.8381    3.9258 H   0  0  0  0  0  0  0  0  0  0  0  0
    5.6394   -6.3980    4.9741 H   0  0  0  0  0  0  0  0  0  0  0  0
    6.3265   -4.0473    5.3398 H   0  0  0  0  0  0  0  0  0  0  0  0
    7.9987   -4.4637    4.9441 H   0  0  0  0  0  0  0  0  0  0  0  0
    6.3657   -5.5154    7.3061 H   0  0  0  0  0  0  0  0  0  0  0  0
    7.6828   -4.3760    7.3953 H   0  0  0  0  0  0  0  0  0  0  0  0
    8.2950   -5.9044    2.0890 H   0  0  0  0  0  0  0  0  0  0  0  0
    6.8708   -4.9488   -0.0027 H   0  0  0  0  0  0  0  0  0  0  0  0
    2.6022   -4.5067    2.3644 H   0  0  0  0  0  0  0  0  0  0  0  0
    1.4254   -0.7533    0.8560 H   0  0  0  0  0  0  0  0  0  0  0  0
    0.8774    0.8446    2.6294 H   0  0  0  0  0  0  0  0  0  0  0  0
   -1.7821    0.2908    5.1465 H   0  0  0  0  0  0  0  0  0  0  0  0
   -0.7991    1.5187    4.3371 H   0  0  0  0  0  0  0  0  0  0  0  0
    0.0176    1.1151    6.6523 H   0  0  0  0  0  0  0  0  0  0  0  0
    1.2392    0.6288    5.4719 H   0  0  0  0  0  0  0  0  0  0  0  0
    0.2585   -0.5951    6.2775 H   0  0  0  0  0  0  0  0  0  0  0  0
   -1.7392   -2.0216    4.3936 H   0  0  0  0  0  0  0  0  0  0  0  0
   -1.2358   -3.5971    2.6076 H   0  0  0  0  0  0  0  0  0  0  0  0
    0.3883   -5.2060    2.2687 H   0  0  0  0  0  0  0  0  0  0  0  0
   -0.8871   -7.2863    2.1961 H   0  0  0  0  0  0  0  0  0  0  0  0
   -2.0960   -8.9390    0.8459 H   0  0  0  0  0  0  0  0  0  0  0  0
   -2.6794   -8.5221   -0.7722 H   0  0  0  0  0  0  0  0  0  0  0  0
   -4.4510   -7.0839    0.2432 H   0  0  0  0  0  0  0  0  0  0  0  0
   -3.8774   -7.5135    1.8539 H   0  0  0  0  0  0  0  0  0  0  0  0
   -4.5812   -8.7534    0.8100 H   0  0  0  0  0  0  0  0  0  0  0  0
   -2.3564   -6.2515   -1.6693 H   0  0  0  0  0  0  0  0  0  0  0  0
   -1.1134   -4.1599   -1.5909 H   0  0  0  0  0  0  0  0  0  0  0  0
   -2.4801    0.5350    1.0981 H   0  0  0  0  0  0  0  0  0  0  0  0
   -4.0283   -0.5334    2.8816 H   0  0  0  0  0  0  0  0  0  0  0  0
   -5.1061   -2.8162    3.4830 H   0  0  0  0  0  0  0  0  0  0  0  0
   -4.1706   -4.1869    2.8661 H   0  0  0  0  0  0  0  0  0  0  0  0
   -5.6548   -4.3262    0.8784 H   0  0  0  0  0  0  0  0  0  0  0  0
   -6.5828   -4.4914    2.3737 H   0  0  0  0  0  0  0  0  0  0  0  0
   -6.6048   -2.9658    1.4807 H   0  0  0  0  0  0  0  0  0  0  0  0
   -0.3989    2.5505   -2.7579 H   0  0  0  0  0  0  0  0  0  0  0  0
    1.3244    4.2030   -2.3183 H   0  0  0  0  0  0  0  0  0  0  0  0
    2.7313    6.0359   -3.2454 H   0  0  0  0  0  0  0  0  0  0  0  0
    2.1128    7.0428   -4.5628 H   0  0  0  0  0  0  0  0  0  0  0  0
    0.4022    8.0031   -3.0106 H   0  0  0  0  0  0  0  0  0  0  0  0
    2.0420    8.2790   -2.4132 H   0  0  0  0  0  0  0  0  0  0  0  0
    1.0417    7.0109   -1.6986 H   0  0  0  0  0  0  0  0  0  0  0  0
   -0.0019    6.5021   -5.6536 H   0  0  0  0  0  0  0  0  0  0  0  0
   -1.7353    4.8470   -6.1044 H   0  0  0  0  0  0  0  0  0  0  0  0
   -0.5189    2.9657   -6.8894 H   0  0  0  0  0  0  0  0  0  0  0  0
   -0.6140    1.9687   -9.1072 H   0  0  0  0  0  0  0  0  0  0  0  0
   -2.7536   -0.8954  -10.0059 H   0  0  0  0  0  0  0  0  0  0  0  0
   -1.3702    0.0891  -10.5045 H   0  0  0  0  0  0  0  0  0  0  0  0
   -4.2880    0.9994  -10.5387 H   0  0  0  0  0  0  0  0  0  0  0  0
   -2.9088    1.9788  -11.0360 H   0  0  0  0  0  0  0  0  0  0  0  0
   -3.3392    0.5317  -11.9544 H   0  0  0  0  0  0  0  0  0  0  0  0
   -3.9681   -0.3849   -7.9280 H   0  0  0  0  0  0  0  0  0  0  0  0
   -3.9254    0.6719   -5.7186 H   0  0  0  0  0  0  0  0  0  0  0  0
    1.5184    1.8201   -4.4472 H   0  0  0  0  0  0  0  0  0  0  0  0
    2.4517    1.5571   -6.8541 H   0  0  0  0  0  0  0  0  0  0  0  0
    1.0752    0.2142   -9.2367 H   0  0  0  0  0  0  0  0  0  0  0  0
    2.5145   -0.6061   -8.6405 H   0  0  0  0  0  0  0  0  0  0  0  0
    1.0499   -2.1719   -9.8984 H   0  0  0  0  0  0  0  0  0  0  0  0
    1.1554   -2.6604   -8.2037 H   0  0  0  0  0  0  0  0  0  0  0  0
   -0.2850   -1.8287   -8.7913 H   0  0  0  0  0  0  0  0  0  0  0  0
   -3.9942    4.8388   -6.1489 H   0  0  0  0  0  0  0  0  0  0  0  0
   -6.0815    6.4642   -6.9184 H   0  0  0  0  0  0  0  0  0  0  0  0
   -8.2169    8.0069   -6.3348 H   0  0  0  0  0  0  0  0  0  0  0  0
   -9.8816    8.1097   -4.1522 H   0  0  0  0  0  0  0  0  0  0  0  0
   -8.3929    9.4524   -2.7719 H   0  0  0  0  0  0  0  0  0  0  0  0
   -7.1717    8.4275   -0.9087 H   0  0  0  0  0  0  0  0  0  0  0  0
   -3.1604    7.1476   -0.4702 H   0  0  0  0  0  0  0  0  0  0  0  0
   -2.4467    5.7004    0.2964 H   0  0  0  0  0  0  0  0  0  0  0  0
   -2.3988    4.5642   -1.9258 H   0  0  0  0  0  0  0  0  0  0  0  0
   -3.1161    5.9959   -2.6791 H   0  0  0  0  0  0  0  0  0  0  0  0
   -1.4931    6.0743   -1.9892 H   0  0  0  0  0  0  0  0  0  0  0  0
   -5.1526    1.7724    0.4972 H   0  0  0  0  0  0  0  0  0  0  0  0
   -6.9155    1.9958    0.3578 H   0  0  0  0  0  0  0  0  0  0  0  0
   -6.9437    3.1083    2.5892 H   0  0  0  0  0  0  0  0  0  0  0  0
   -6.2713    1.4769    2.6977 H   0  0  0  0  0  0  0  0  0  0  0  0
   -5.1920    2.8748    2.7300 H   0  0  0  0  0  0  0  0  0  0  0  0
   -9.6755    5.4753   -0.8168 H   0  0  0  0  0  0  0  0  0  0  0  0
   -8.8437    4.7530   -2.1601 H   0  0  0  0  0  0  0  0  0  0  0  0
  -10.7332    7.0888   -2.1307 H   0  0  0  0  0  0  0  0  0  0  0  0
  -10.5258    5.8203   -3.3399 H   0  0  0  0  0  0  0  0  0  0  0  0
  1  2  1  0  0  0  0
  2  3  1  0  0  0  0
  3  4  1  0  0  0  0
  4  5  2  0  0  0  0
  4  6  1  0  0  0  0
  6  7  1  0  0  0  0
  7  8  2  0  0  0  0
  7  9  1  0  0  0  0
  9 10  1  0  0  0  0
 10 11  1  0  0  0  0
  9 12  1  0  0  0  0
 12 13  2  0  0  0  0
  6 14  2  0  0  0  0
 14 15  1  0  0  0  0
 15 16  2  0  0  0  0
 16 17  1  0  0  0  0
 17 18  1  0  0  0  0
 18 19  1  0  0  0  0
 17 20  1  0  0  0  0
 20 21  2  0  0  0  0
 21 22  1  0  0  0  0
 22 23  2  0  0  0  0
 23 24  1  0  0  0  0
 23 25  1  0  0  0  0
 25 26  1  0  0  0  0
 26 27  1  0  0  0  0
 27 28  1  0  0  0  0
 28 29  2  0  0  0  0
 29 30  1  0  0  0  0
 30 31  1  0  0  0  0
 31 32  1  0  0  0  0
 30 33  1  0  0  0  0
 33 34  2  0  0  0  0
 34 35  1  0  0  0  0
 35 36  2  0  0  0  0
 36 37  1  0  0  0  0
 37 38  1  0  0  0  0
 36 39  1  0  0  0  0
 39 40  2  0  0  0  0
 30 41  1  0  0  0  0
 41 42  2  0  0  0  0
 42 43  1  0  0  0  0
 43 44  2  0  0  0  0
 44 45  1  0  0  0  0
 45 46  1  0  0  0  0
 44 47  1  0  0  0  0
 47 48  2  0  0  0  0
 29 49  1  0  0  0  0
 49 50  2  0  0  0  0
 50 51  1  0  0  0  0
 51 52  2  0  0  0  0
 52 53  1  0  0  0  0
 53 54  2  0  0  0  0
 54 55  1  0  0  0  0
 55 56  1  0  0  0  0
 54 57  1  0  0  0  0
 50 58  1  0  0  0  0
 58 59  1  0  0  0  0
 59 60  1  0  0  0  0
 60 61  1  0  0  0  0
 61 62  2  0  0  0  0
 62 63  1  0  0  0  0
 63 64  1  0  0  0  0
 64 65  2  0  0  0  0
 65 66  1  0  0  0  0
 66 67  2  0  0  0  0
 67 68  1  0  0  0  0
 68 69  1  0  0  0  0
 67 70  1  0  0  0  0
 70 71  2  0  0  0  0
 63 72  1  0  0  0  0
 72 73  2  0  0  0  0
 73 74  1  0  0  0  0
 74 75  2  0  0  0  0
 75 76  1  0  0  0  0
 76 77  1  0  0  0  0
 75 78  1  0  0  0  0
 78 79  2  0  0  0  0
 63 80  1  0  0  0  0
 80 81  1  0  0  0  0
 81 82  1  0  0  0  0
 82 83  2  0  0  0  0
 83 84  1  0  0  0  0
 82 85  1  0  0  0  0
 85 86  2  0  0  0  0
 86 87  1  0  0  0  0
 87 88  2  0  0  0  0
 88 89  1  0  0  0  0
 89 90  1  0  0  0  0
 88 91  1  0  0  0  0
 62 92  1  0  0  0  0
 92 93  2  0  0  0  0
 93 94  1  0  0  0  0
 93 95  1  0  0  0  0
 95 96  2  0  0  0  0
 96 97  1  0  0  0  0
 97 98  2  0  0  0  0
 98 99  1  0  0  0  0
 98100  1  0  0  0  0
100101  1  0  0  0  0
101102  2  0  0  0  0
102103  1  0  0  0  0
103104  2  0  0  0  0
104105  1  0  0  0  0
105106  2  0  0  0  0
105107  1  0  0  0  0
107108  1  0  0  0  0
108109  1  0  0  0  0
107110  1  0  0  0  0
110111  2  0  0  0  0
110112  1  0  0  0  0
112113  1  0  0  0  0
113114  2  0  0  0  0
112115  1  0  0  0  0
115116  1  0  0  0  0
103117  1  0  0  0  0
117118  1  0  0  0  0
 12  3  1  0  0  0  0
 19 14  1  0  0  0  0
 24 20  1  0  0  0  0
 32 25  2  0  0  0  0
 40 33  1  0  0  0  0
 48 41  1  0  0  0  0
 83 49  1  0  0  0  0
 91 85  1  0  0  0  0
 99 95  1  0  0  0  0
118100  1  0  0  0  0
 31 27  2  0  0  0  0
 57 51  1  0  0  0  0
 81 58  2  0  0  0  0
113104  1  0  0  0  0
 84 28  1  0  0  0  0
 80 60  2  0  0  0  0
 94 61  1  0  0  0  0
 71 64  1  0  0  0  0
 79 72  1  0  0  0  0
  1119  1  0  0  0  0
  1120  1  0  0  0  0
  1121  1  0  0  0  0
  2122  1  0  0  0  0
  2123  1  0  0  0  0
 10124  1  0  0  0  0
 10125  1  0  0  0  0
 11126  1  0  0  0  0
 11127  1  0  0  0  0
 11128  1  0  0  0  0
 15129  1  0  0  0  0
 16130  1  0  0  0  0
 17131  1  0  0  0  0
 18132  1  0  0  0  0
 18133  1  0  0  0  0
 19134  1  0  0  0  0
 19135  1  0  0  0  0
 21136  1  0  0  0  0
 22137  1  0  0  0  0
 32138  1  0  0  0  0
 34139  1  0  0  0  0
 35140  1  0  0  0  0
 37141  1  0  0  0  0
 37142  1  0  0  0  0
 38143  1  0  0  0  0
 38144  1  0  0  0  0
 38145  1  0  0  0  0
 39146  1  0  0  0  0
 40147  1  0  0  0  0
 42148  1  0  0  0  0
 43149  1  0  0  0  0
 45150  1  0  0  0  0
 45151  1  0  0  0  0
 46152  1  0  0  0  0
 46153  1  0  0  0  0
 46154  1  0  0  0  0
 47155  1  0  0  0  0
 48156  1  0  0  0  0
 52157  1  0  0  0  0
 53158  1  0  0  0  0
 55159  1  0  0  0  0
 55160  1  0  0  0  0
 56161  1  0  0  0  0
 56162  1  0  0  0  0
 56163  1  0  0  0  0
 65164  1  0  0  0  0
 66165  1  0  0  0  0
 68166  1  0  0  0  0
 68167  1  0  0  0  0
 69168  1  0  0  0  0
 69169  1  0  0  0  0
 69170  1  0  0  0  0
 70171  1  0  0  0  0
 71172  1  0  0  0  0
 73173  1  0  0  0  0
 74174  1  0  0  0  0
 76175  1  0  0  0  0
 76176  1  0  0  0  0
 77177  1  0  0  0  0
 77178  1  0  0  0  0
 77179  1  0  0  0  0
 78180  1  0  0  0  0
 79181  1  0  0  0  0
 86182  1  0  0  0  0
 87183  1  0  0  0  0
 89184  1  0  0  0  0
 89185  1  0  0  0  0
 90186  1  0  0  0  0
 90187  1  0  0  0  0
 90188  1  0  0  0  0
 92189  1  0  0  0  0
 96190  1  0  0  0  0
 97191  1  0  0  0  0
100192  1  0  0  0  0
101193  1  0  0  0  0
102194  1  0  0  0  0
108195  1  0  0  0  0
108196  1  0  0  0  0
109197  1  0  0  0  0
109198  1  0  0  0  0
109199  1  0  0  0  0
115200  1  0  0  0  0
115201  1  0  0  0  0
116202  1  0  0  0  0
116203  1  0  0  0  0
116204  1  0  0  0  0
117205  1  0  0  0  0
117206  1  0  0  0  0
118207  1  0  0  0  0
118208  1  0  0  0  0
M  END
