174

C         10.13620        8.67080       10.43540
C         10.11690        7.21240       10.87240
N         10.46070        6.32310        9.76750
C          9.39740        5.80720        9.03520
O          8.26590        6.16650        9.30010
C          9.73690        4.82810        7.99970
C         11.12330        4.80390        7.52040
O         11.48690        4.32310        6.46490
N         12.07040        5.37610        8.36240
C         13.46390        5.25570        7.94480
C         13.90350        6.46430        7.12980
C         11.77560        6.09750        9.48260
S         12.97200        6.70790       10.44270
C          8.77350        3.98620        7.48550
C          9.08060        2.98170        6.49990
C          8.13470        2.33810        5.80320
C          6.67790        2.56580        6.03780
C          6.50270        2.86870        7.53050
C          7.34500        4.07480        7.92500
C          5.84030        1.39830        5.61970
C          6.09080        0.08360        5.85110
C          5.10250       -0.83330        5.40100
C          5.27430       -2.31430        5.55130
C          5.37450       -2.73640        7.01640
C          4.02730       -0.24600        4.79450
Se         4.20540        1.63800        4.73810
C          2.84300       -0.87810        4.26470
C          1.90570       -1.62880        4.93530
C          1.91990       -1.85720        6.38010
C          1.58660       -3.10280        6.90520
C          1.61970       -3.30440        8.27190
C          1.98600       -2.27640        9.12440
C          2.30480       -1.02270        8.61840
C          2.75190        0.09670        9.51430
C          4.27410        0.24150        9.45910
C          2.26030       -0.82500        7.24710
C          0.90200       -2.10060        4.05720
S         -0.54430       -3.04420        4.31550
C         -0.92640       -2.87490        2.63630
C         -1.89510       -3.31630        1.71870
C         -2.97640       -4.21260        1.85790
C         -3.71060       -4.60200        0.68600
N         -4.64990       -5.49610        0.95200
S         -4.61930       -5.81550        2.53940
N         -3.40290       -4.82780        2.94960
C         -3.40820       -3.98370       -0.54620
C         -4.02190       -4.07040       -1.80780
S         -5.29440       -4.94660       -2.58740
C         -4.98410       -4.04730       -4.05230
C         -5.54790       -4.10940       -5.34610
C         -6.58820       -5.06540       -5.72880
C         -7.67180       -5.30010       -4.88800
C         -8.64200       -6.21400       -5.25360
C         -8.53850       -6.90360       -6.44810
C         -7.45130       -6.69880       -7.28930
C         -7.30310       -7.49280       -8.55540
C         -6.59080       -8.81710       -8.27470
C         -6.47950       -5.78490       -6.91570
C         -4.94030       -3.20880       -6.19650
S         -3.64880       -2.30640       -5.41170
C         -3.94810       -3.12280       -3.91960
C         -3.39710       -3.13290       -2.63130
N         -2.40400       -2.48240       -1.94380
C         -2.38190       -3.00780       -0.65950
C         -1.53770       -2.77140        0.45600
N         -0.35690       -2.06390        0.59960
C          0.00700       -2.12450        1.91990
C          1.06030       -1.68460        2.73670
S          2.48900       -0.72730        2.55210
C          0.62170       -1.71290       -0.40500
C          0.83090       -0.20520       -0.52470
C         -2.01880       -1.14880       -2.36060
C         -2.68260       -0.08900       -1.48700
C         -5.24350       -2.85380       -7.54700
C         -4.38670       -2.27600       -8.44430
C         -5.00680       -1.94890       -9.66590
S         -4.17870       -1.28960      -11.07380
C         -3.20210        0.06160      -10.31170
C         -2.51760        0.86480      -11.39900
C         -6.34260       -2.24970       -9.70170
S         -6.84170       -3.01690       -8.22710
C         -7.28220       -1.88880      -10.81620
C         -7.00540       -0.45920      -11.19880
C         -7.23580        0.44570      -10.24440
C         -7.84100       -0.00220       -9.00490
C         -7.36790        0.33170       -7.75990
C         -8.09880       -0.01350       -6.54400
O         -9.27280       -0.32840       -6.51590
N         -7.38200        0.06290       -5.35350
C         -8.09970       -0.31880       -4.14220
C         -7.91480       -1.79790       -3.83570
C         -6.07510        0.43280       -5.26600
S         -5.27820        0.37540       -3.82090
N         -5.44960        0.87730       -6.39440
C         -6.05160        0.94990       -7.64510
O         -5.44230        1.44620       -8.57560
C         -4.07480        1.35300       -6.30000
C         -4.01730        2.81250       -5.87050
C         -9.00780       -0.91840       -9.22180
C         -8.74560       -1.92850      -10.35560
H          9.42740        8.82900        9.62610
H          9.85850        9.30340       11.27330
H         11.13130        8.95420       10.10050
H          9.11470        6.93360       11.20150
H         10.83250        7.04330       11.67840
H         13.53550        4.35050        7.34010
H         14.07750        5.15240        8.84090
H         14.93660        6.33640        6.82050
H         13.28150        6.56420        6.24350
H         13.82830        7.37170        7.72450
H         10.11840        2.79220        6.27980
H          8.41160        1.62680        5.03900
H          6.35860        3.44850        5.46290
H          6.81240        1.99230        8.10440
H          5.45280        3.06650        7.75290
H          7.28870        4.22940        9.00370
H          6.92540        4.98110        7.47520
H          6.99290       -0.25060        6.33700
H          6.18940       -2.61230        5.03010
H          4.43490       -2.82910        5.08160
H          5.49440       -3.81490        7.08490
H          4.47390       -2.45460        7.55450
H          6.22750       -2.26410        7.49760
H          1.31560       -3.91060        6.24270
H          1.36410       -4.27270        8.67610
H          2.01940       -2.44690       10.19090
H          2.29190        1.03240        9.18900
H          2.44090       -0.09850       10.54200
H          4.75280       -0.66890        9.81370
H          4.60130        1.07110       10.08180
H          4.59850        0.42170        8.43600
H          2.48450        0.15430        6.84710
H         -7.75690       -4.76160       -3.95700
H         -9.48480       -6.38800       -4.60120
H         -9.30360       -7.61270       -6.72980
H         -8.28820       -7.69700       -8.98010
H         -6.72750       -6.92070       -9.28600
H         -5.59990       -8.63340       -7.86550
H         -6.48780       -9.39630       -9.18940
H         -7.15430       -9.40380       -7.55270
H         -5.61600       -5.63700       -7.54930
H          1.57420       -2.17220       -0.11340
H          0.32030       -2.15910       -1.35320
H          1.22620        0.19060        0.40670
H         -0.09740        0.31120       -0.74720
H          1.54880        0.00090       -1.31420
H         -2.36370       -1.03390       -3.39060
H         -0.93610       -1.03120       -2.35960
H         -2.40020       -0.21070       -0.44380
H         -3.76380       -0.17040       -1.56420
H         -2.39390        0.90270       -1.82430
H         -3.34720       -2.10440       -8.22930
H         -2.47300       -0.38960       -9.63880
H         -3.90840        0.67450       -9.75180
H         -1.84600        0.23480      -11.97860
H         -3.25490        1.29560      -12.07180
H         -1.94220        1.67180      -10.95050
H         -7.13310       -2.56310      -11.66540
H         -6.63270       -0.21260      -12.17730
H         -7.00190        1.49150      -10.35960
H         -9.15400       -0.10230       -4.32350
H         -7.73160        0.29480       -3.31810
H         -6.86910       -2.01600       -3.63120
H         -8.50220       -2.06420       -2.96180
H         -8.24560       -2.39790       -4.68070
H         -3.54800        0.71890       -5.58480
H         -3.63160        1.23530       -7.28990
H         -4.55450        3.43410       -6.58270
H         -2.98210        3.13880       -5.83150
H         -4.45930        2.93570       -4.88460
H         -9.87050       -0.29450       -9.46780
H         -9.25820       -1.43660       -8.29810
H         -9.37880       -1.71370      -11.21730
H         -8.98560       -2.93150      -10.00130
