
  xtb     02132221023D
 energy: -277.082857823192 gnorm: 0.000300095548 xtb: 6.4.1 (unknown)
174189  0     0  0            999 V2000
   10.1362    8.6708   10.4354 C   0  0  0  0  0  0  0  0  0  0  0  0
   10.1169    7.2124   10.8724 C   0  0  0  0  0  0  0  0  0  0  0  0
   10.4607    6.3231    9.7675 N   0  0  0  0  0  0  0  0  0  0  0  0
    9.3974    5.8072    9.0352 C   0  0  0  0  0  0  0  0  0  0  0  0
    8.2659    6.1665    9.3001 O   0  0  0  0  0  0  0  0  0  0  0  0
    9.7369    4.8281    7.9997 C   0  0  0  0  0  0  0  0  0  0  0  0
   11.1233    4.8039    7.5204 C   0  0  0  0  0  0  0  0  0  0  0  0
   11.4869    4.3231    6.4649 O   0  0  0  0  0  0  0  0  0  0  0  0
   12.0704    5.3761    8.3624 N   0  0  0  0  0  0  0  0  0  0  0  0
   13.4639    5.2557    7.9448 C   0  0  0  0  0  0  0  0  0  0  0  0
   13.9035    6.4643    7.1298 C   0  0  0  0  0  0  0  0  0  0  0  0
   11.7756    6.0975    9.4826 C   0  0  0  0  0  0  0  0  0  0  0  0
   12.9720    6.7079   10.4427 S   0  0  0  0  0  0  0  0  0  0  0  0
    8.7735    3.9862    7.4855 C   0  0  0  0  0  0  0  0  0  0  0  0
    9.0806    2.9817    6.4999 C   0  0  0  0  0  0  0  0  0  0  0  0
    8.1347    2.3381    5.8032 C   0  0  0  0  0  0  0  0  0  0  0  0
    6.6779    2.5658    6.0378 C   0  0  0  0  0  0  0  0  0  0  0  0
    6.5027    2.8687    7.5305 C   0  0  0  0  0  0  0  0  0  0  0  0
    7.3450    4.0748    7.9250 C   0  0  0  0  0  0  0  0  0  0  0  0
    5.8403    1.3983    5.6197 C   0  0  0  0  0  0  0  0  0  0  0  0
    6.0908    0.0836    5.8511 C   0  0  0  0  0  0  0  0  0  0  0  0
    5.1025   -0.8333    5.4010 C   0  0  0  0  0  0  0  0  0  0  0  0
    5.2743   -2.3143    5.5513 C   0  0  0  0  0  0  0  0  0  0  0  0
    5.3745   -2.7364    7.0164 C   0  0  0  0  0  0  0  0  0  0  0  0
    4.0273   -0.2460    4.7945 C   0  0  0  0  0  0  0  0  0  0  0  0
    4.2054    1.6380    4.7381 Se  0  0  0  0  0  2  0  0  0  0  0  0
    2.8430   -0.8781    4.2647 C   0  0  0  0  0  0  0  0  0  0  0  0
    1.9057   -1.6288    4.9353 C   0  0  0  0  0  0  0  0  0  0  0  0
    1.9199   -1.8572    6.3801 C   0  0  0  0  0  0  0  0  0  0  0  0
    1.5866   -3.1028    6.9052 C   0  0  0  0  0  0  0  0  0  0  0  0
    1.6197   -3.3044    8.2719 C   0  0  0  0  0  0  0  0  0  0  0  0
    1.9860   -2.2764    9.1244 C   0  0  0  0  0  0  0  0  0  0  0  0
    2.3048   -1.0227    8.6184 C   0  0  0  0  0  0  0  0  0  0  0  0
    2.7519    0.0967    9.5143 C   0  0  0  0  0  0  0  0  0  0  0  0
    4.2741    0.2415    9.4591 C   0  0  0  0  0  0  0  0  0  0  0  0
    2.2603   -0.8250    7.2471 C   0  0  0  0  0  0  0  0  0  0  0  0
    0.9020   -2.1006    4.0572 C   0  0  0  0  0  0  0  0  0  0  0  0
   -0.5443   -3.0442    4.3155 S   0  0  0  0  0  0  0  0  0  0  0  0
   -0.9264   -2.8749    2.6363 C   0  0  0  0  0  0  0  0  0  0  0  0
   -1.8951   -3.3163    1.7187 C   0  0  0  0  0  0  0  0  0  0  0  0
   -2.9764   -4.2126    1.8579 C   0  0  0  0  0  0  0  0  0  0  0  0
   -3.7106   -4.6020    0.6860 C   0  0  0  0  0  0  0  0  0  0  0  0
   -4.6499   -5.4961    0.9520 N   0  0  0  0  0  0  0  0  0  0  0  0
   -4.6193   -5.8155    2.5394 S   0  0  0  0  0  0  0  0  0  0  0  0
   -3.4029   -4.8278    2.9496 N   0  0  0  0  0  0  0  0  0  0  0  0
   -3.4082   -3.9837   -0.5462 C   0  0  0  0  0  0  0  0  0  0  0  0
   -4.0219   -4.0704   -1.8078 C   0  0  0  0  0  0  0  0  0  0  0  0
   -5.2944   -4.9466   -2.5874 S   0  0  0  0  0  0  0  0  0  0  0  0
   -4.9841   -4.0473   -4.0523 C   0  0  0  0  0  0  0  0  0  0  0  0
   -5.5479   -4.1094   -5.3461 C   0  0  0  0  0  0  0  0  0  0  0  0
   -6.5882   -5.0654   -5.7288 C   0  0  0  0  0  0  0  0  0  0  0  0
   -7.6718   -5.3001   -4.8880 C   0  0  0  0  0  0  0  0  0  0  0  0
   -8.6420   -6.2140   -5.2536 C   0  0  0  0  0  0  0  0  0  0  0  0
   -8.5385   -6.9036   -6.4481 C   0  0  0  0  0  0  0  0  0  0  0  0
   -7.4513   -6.6988   -7.2893 C   0  0  0  0  0  0  0  0  0  0  0  0
   -7.3031   -7.4928   -8.5554 C   0  0  0  0  0  0  0  0  0  0  0  0
   -6.5908   -8.8171   -8.2747 C   0  0  0  0  0  0  0  0  0  0  0  0
   -6.4795   -5.7849   -6.9157 C   0  0  0  0  0  0  0  0  0  0  0  0
   -4.9403   -3.2088   -6.1965 C   0  0  0  0  0  0  0  0  0  0  0  0
   -3.6488   -2.3064   -5.4117 S   0  0  0  0  0  0  0  0  0  0  0  0
   -3.9481   -3.1228   -3.9196 C   0  0  0  0  0  0  0  0  0  0  0  0
   -3.3971   -3.1329   -2.6313 C   0  0  0  0  0  0  0  0  0  0  0  0
   -2.4040   -2.4824   -1.9438 N   0  0  0  0  0  0  0  0  0  0  0  0
   -2.3819   -3.0078   -0.6595 C   0  0  0  0  0  0  0  0  0  0  0  0
   -1.5377   -2.7714    0.4560 C   0  0  0  0  0  0  0  0  0  0  0  0
   -0.3569   -2.0639    0.5996 N   0  0  0  0  0  0  0  0  0  0  0  0
    0.0070   -2.1245    1.9199 C   0  0  0  0  0  0  0  0  0  0  0  0
    1.0603   -1.6846    2.7367 C   0  0  0  0  0  0  0  0  0  0  0  0
    2.4890   -0.7273    2.5521 S   0  0  0  0  0  0  0  0  0  0  0  0
    0.6217   -1.7129   -0.4050 C   0  0  0  0  0  0  0  0  0  0  0  0
    0.8309   -0.2052   -0.5247 C   0  0  0  0  0  0  0  0  0  0  0  0
   -2.0188   -1.1488   -2.3606 C   0  0  0  0  0  0  0  0  0  0  0  0
   -2.6826   -0.0890   -1.4870 C   0  0  0  0  0  0  0  0  0  0  0  0
   -5.2435   -2.8538   -7.5470 C   0  0  0  0  0  0  0  0  0  0  0  0
   -4.3867   -2.2760   -8.4443 C   0  0  0  0  0  0  0  0  0  0  0  0
   -5.0068   -1.9489   -9.6659 C   0  0  0  0  0  0  0  0  0  0  0  0
   -4.1787   -1.2896  -11.0738 S   0  0  0  0  0  0  0  0  0  0  0  0
   -3.2021    0.0616  -10.3117 C   0  0  0  0  0  0  0  0  0  0  0  0
   -2.5176    0.8648  -11.3990 C   0  0  0  0  0  0  0  0  0  0  0  0
   -6.3426   -2.2497   -9.7017 C   0  0  0  0  0  0  0  0  0  0  0  0
   -6.8417   -3.0169   -8.2271 S   0  0  0  0  0  0  0  0  0  0  0  0
   -7.2822   -1.8888  -10.8162 C   0  0  0  0  0  0  0  0  0  0  0  0
   -7.0054   -0.4592  -11.1988 C   0  0  0  0  0  0  0  0  0  0  0  0
   -7.2358    0.4457  -10.2444 C   0  0  0  0  0  0  0  0  0  0  0  0
   -7.8410   -0.0022   -9.0049 C   0  0  0  0  0  0  0  0  0  0  0  0
   -7.3679    0.3317   -7.7599 C   0  0  0  0  0  0  0  0  0  0  0  0
   -8.0988   -0.0135   -6.5440 C   0  0  0  0  0  0  0  0  0  0  0  0
   -9.2728   -0.3284   -6.5159 O   0  0  0  0  0  0  0  0  0  0  0  0
   -7.3820    0.0629   -5.3535 N   0  0  0  0  0  0  0  0  0  0  0  0
   -8.0997   -0.3188   -4.1422 C   0  0  0  0  0  0  0  0  0  0  0  0
   -7.9148   -1.7979   -3.8357 C   0  0  0  0  0  0  0  0  0  0  0  0
   -6.0751    0.4328   -5.2660 C   0  0  0  0  0  0  0  0  0  0  0  0
   -5.2782    0.3754   -3.8209 S   0  0  0  0  0  0  0  0  0  0  0  0
   -5.4496    0.8773   -6.3944 N   0  0  0  0  0  0  0  0  0  0  0  0
   -6.0516    0.9499   -7.6451 C   0  0  0  0  0  0  0  0  0  0  0  0
   -5.4423    1.4462   -8.5756 O   0  0  0  0  0  0  0  0  0  0  0  0
   -4.0748    1.3530   -6.3000 C   0  0  0  0  0  0  0  0  0  0  0  0
   -4.0173    2.8125   -5.8705 C   0  0  0  0  0  0  0  0  0  0  0  0
   -9.0078   -0.9184   -9.2218 C   0  0  0  0  0  0  0  0  0  0  0  0
   -8.7456   -1.9285  -10.3556 C   0  0  0  0  0  0  0  0  0  0  0  0
    9.4274    8.8290    9.6261 H   0  0  0  0  0  0  0  0  0  0  0  0
    9.8585    9.3034   11.2733 H   0  0  0  0  0  0  0  0  0  0  0  0
   11.1313    8.9542   10.1005 H   0  0  0  0  0  0  0  0  0  0  0  0
    9.1147    6.9336   11.2015 H   0  0  0  0  0  0  0  0  0  0  0  0
   10.8325    7.0433   11.6784 H   0  0  0  0  0  0  0  0  0  0  0  0
   13.5355    4.3505    7.3401 H   0  0  0  0  0  0  0  0  0  0  0  0
   14.0775    5.1524    8.8409 H   0  0  0  0  0  0  0  0  0  0  0  0
   14.9366    6.3364    6.8205 H   0  0  0  0  0  0  0  0  0  0  0  0
   13.2815    6.5642    6.2435 H   0  0  0  0  0  0  0  0  0  0  0  0
   13.8283    7.3717    7.7245 H   0  0  0  0  0  0  0  0  0  0  0  0
   10.1184    2.7922    6.2798 H   0  0  0  0  0  0  0  0  0  0  0  0
    8.4116    1.6268    5.0390 H   0  0  0  0  0  0  0  0  0  0  0  0
    6.3586    3.4485    5.4629 H   0  0  0  0  0  0  0  0  0  0  0  0
    6.8124    1.9923    8.1044 H   0  0  0  0  0  0  0  0  0  0  0  0
    5.4528    3.0665    7.7529 H   0  0  0  0  0  0  0  0  0  0  0  0
    7.2887    4.2294    9.0037 H   0  0  0  0  0  0  0  0  0  0  0  0
    6.9254    4.9811    7.4752 H   0  0  0  0  0  0  0  0  0  0  0  0
    6.9929   -0.2506    6.3370 H   0  0  0  0  0  0  0  0  0  0  0  0
    6.1894   -2.6123    5.0301 H   0  0  0  0  0  0  0  0  0  0  0  0
    4.4349   -2.8291    5.0816 H   0  0  0  0  0  0  0  0  0  0  0  0
    5.4944   -3.8149    7.0849 H   0  0  0  0  0  0  0  0  0  0  0  0
    4.4739   -2.4546    7.5545 H   0  0  0  0  0  0  0  0  0  0  0  0
    6.2275   -2.2641    7.4976 H   0  0  0  0  0  0  0  0  0  0  0  0
    1.3156   -3.9106    6.2427 H   0  0  0  0  0  0  0  0  0  0  0  0
    1.3641   -4.2727    8.6761 H   0  0  0  0  0  0  0  0  0  0  0  0
    2.0194   -2.4469   10.1909 H   0  0  0  0  0  0  0  0  0  0  0  0
    2.2919    1.0324    9.1890 H   0  0  0  0  0  0  0  0  0  0  0  0
    2.4409   -0.0985   10.5420 H   0  0  0  0  0  0  0  0  0  0  0  0
    4.7528   -0.6689    9.8137 H   0  0  0  0  0  0  0  0  0  0  0  0
    4.6013    1.0711   10.0818 H   0  0  0  0  0  0  0  0  0  0  0  0
    4.5985    0.4217    8.4360 H   0  0  0  0  0  0  0  0  0  0  0  0
    2.4845    0.1543    6.8471 H   0  0  0  0  0  0  0  0  0  0  0  0
   -7.7569   -4.7616   -3.9570 H   0  0  0  0  0  0  0  0  0  0  0  0
   -9.4848   -6.3880   -4.6012 H   0  0  0  0  0  0  0  0  0  0  0  0
   -9.3036   -7.6127   -6.7298 H   0  0  0  0  0  0  0  0  0  0  0  0
   -8.2882   -7.6970   -8.9801 H   0  0  0  0  0  0  0  0  0  0  0  0
   -6.7275   -6.9207   -9.2860 H   0  0  0  0  0  0  0  0  0  0  0  0
   -5.5999   -8.6334   -7.8655 H   0  0  0  0  0  0  0  0  0  0  0  0
   -6.4878   -9.3963   -9.1894 H   0  0  0  0  0  0  0  0  0  0  0  0
   -7.1543   -9.4038   -7.5527 H   0  0  0  0  0  0  0  0  0  0  0  0
   -5.6160   -5.6370   -7.5493 H   0  0  0  0  0  0  0  0  0  0  0  0
    1.5742   -2.1722   -0.1134 H   0  0  0  0  0  0  0  0  0  0  0  0
    0.3203   -2.1591   -1.3532 H   0  0  0  0  0  0  0  0  0  0  0  0
    1.2262    0.1906    0.4067 H   0  0  0  0  0  0  0  0  0  0  0  0
   -0.0974    0.3112   -0.7472 H   0  0  0  0  0  0  0  0  0  0  0  0
    1.5488    0.0009   -1.3142 H   0  0  0  0  0  0  0  0  0  0  0  0
   -2.3637   -1.0339   -3.3906 H   0  0  0  0  0  0  0  0  0  0  0  0
   -0.9361   -1.0312   -2.3596 H   0  0  0  0  0  0  0  0  0  0  0  0
   -2.4002   -0.2107   -0.4438 H   0  0  0  0  0  0  0  0  0  0  0  0
   -3.7638   -0.1704   -1.5642 H   0  0  0  0  0  0  0  0  0  0  0  0
   -2.3939    0.9027   -1.8243 H   0  0  0  0  0  0  0  0  0  0  0  0
   -3.3472   -2.1044   -8.2293 H   0  0  0  0  0  0  0  0  0  0  0  0
   -2.4730   -0.3896   -9.6388 H   0  0  0  0  0  0  0  0  0  0  0  0
   -3.9084    0.6745   -9.7518 H   0  0  0  0  0  0  0  0  0  0  0  0
   -1.8460    0.2348  -11.9786 H   0  0  0  0  0  0  0  0  0  0  0  0
   -3.2549    1.2956  -12.0718 H   0  0  0  0  0  0  0  0  0  0  0  0
   -1.9422    1.6718  -10.9505 H   0  0  0  0  0  0  0  0  0  0  0  0
   -7.1331   -2.5631  -11.6654 H   0  0  0  0  0  0  0  0  0  0  0  0
   -6.6327   -0.2126  -12.1773 H   0  0  0  0  0  0  0  0  0  0  0  0
   -7.0019    1.4915  -10.3596 H   0  0  0  0  0  0  0  0  0  0  0  0
   -9.1540   -0.1023   -4.3235 H   0  0  0  0  0  0  0  0  0  0  0  0
   -7.7316    0.2948   -3.3181 H   0  0  0  0  0  0  0  0  0  0  0  0
   -6.8691   -2.0160   -3.6312 H   0  0  0  0  0  0  0  0  0  0  0  0
   -8.5022   -2.0642   -2.9618 H   0  0  0  0  0  0  0  0  0  0  0  0
   -8.2456   -2.3979   -4.6807 H   0  0  0  0  0  0  0  0  0  0  0  0
   -3.5480    0.7189   -5.5848 H   0  0  0  0  0  0  0  0  0  0  0  0
   -3.6316    1.2353   -7.2899 H   0  0  0  0  0  0  0  0  0  0  0  0
   -4.5545    3.4341   -6.5827 H   0  0  0  0  0  0  0  0  0  0  0  0
   -2.9821    3.1388   -5.8315 H   0  0  0  0  0  0  0  0  0  0  0  0
   -4.4593    2.9357   -4.8846 H   0  0  0  0  0  0  0  0  0  0  0  0
   -9.8705   -0.2945   -9.4678 H   0  0  0  0  0  0  0  0  0  0  0  0
   -9.2582   -1.4366   -8.2981 H   0  0  0  0  0  0  0  0  0  0  0  0
   -9.3788   -1.7137  -11.2173 H   0  0  0  0  0  0  0  0  0  0  0  0
   -8.9856   -2.9315  -10.0013 H   0  0  0  0  0  0  0  0  0  0  0  0
  1  2  1  0  0  0  0
  2  3  1  0  0  0  0
  3  4  1  0  0  0  0
  4  5  2  0  0  0  0
  4  6  1  0  0  0  0
  6  7  1  0  0  0  0
  7  8  2  0  0  0  0
  7  9  1  0  0  0  0
  9 10  1  0  0  0  0
 10 11  1  0  0  0  0
  9 12  1  0  0  0  0
 12 13  2  0  0  0  0
  6 14  2  0  0  0  0
 14 15  1  0  0  0  0
 15 16  2  0  0  0  0
 16 17  1  0  0  0  0
 17 18  1  0  0  0  0
 18 19  1  0  0  0  0
 17 20  1  0  0  0  0
 20 21  2  0  0  0  0
 21 22  1  0  0  0  0
 22 23  1  0  0  0  0
 23 24  1  0  0  0  0
 22 25  2  0  0  0  0
 25 26  1  0  0  0  0
 25 27  1  0  0  0  0
 27 28  2  0  0  0  0
 28 29  1  0  0  0  0
 29 30  2  0  0  0  0
 30 31  1  0  0  0  0
 31 32  2  0  0  0  0
 32 33  1  0  0  0  0
 33 34  1  0  0  0  0
 34 35  1  0  0  0  0
 33 36  2  0  0  0  0
 28 37  1  0  0  0  0
 37 38  1  0  0  0  0
 38 39  1  0  0  0  0
 39 40  1  0  0  0  0
 40 41  1  0  0  0  0
 41 42  1  0  0  0  0
 42 43  2  0  0  0  0
 43 44  1  0  0  0  0
 44 45  1  0  0  0  0
 42 46  1  0  0  0  0
 46 47  1  0  0  0  0
 47 48  1  0  0  0  0
 48 49  1  0  0  0  0
 49 50  1  0  0  0  0
 50 51  1  0  0  0  0
 51 52  2  0  0  0  0
 52 53  1  0  0  0  0
 53 54  2  0  0  0  0
 54 55  1  0  0  0  0
 55 56  1  0  0  0  0
 56 57  1  0  0  0  0
 55 58  2  0  0  0  0
 50 59  2  0  0  0  0
 59 60  1  0  0  0  0
 60 61  1  0  0  0  0
 61 62  1  0  0  0  0
 62 63  1  0  0  0  0
 63 64  1  0  0  0  0
 64 65  1  0  0  0  0
 65 66  1  0  0  0  0
 66 67  1  0  0  0  0
 67 68  1  0  0  0  0
 68 69  1  0  0  0  0
 66 70  1  0  0  0  0
 70 71  1  0  0  0  0
 63 72  1  0  0  0  0
 72 73  1  0  0  0  0
 59 74  1  0  0  0  0
 74 75  2  0  0  0  0
 75 76  1  0  0  0  0
 76 77  1  0  0  0  0
 77 78  1  0  0  0  0
 78 79  1  0  0  0  0
 76 80  2  0  0  0  0
 80 81  1  0  0  0  0
 80 82  1  0  0  0  0
 82 83  1  0  0  0  0
 83 84  2  0  0  0  0
 84 85  1  0  0  0  0
 85 86  2  0  0  0  0
 86 87  1  0  0  0  0
 87 88  2  0  0  0  0
 87 89  1  0  0  0  0
 89 90  1  0  0  0  0
 90 91  1  0  0  0  0
 89 92  1  0  0  0  0
 92 93  2  0  0  0  0
 92 94  1  0  0  0  0
 94 95  1  0  0  0  0
 95 96  2  0  0  0  0
 94 97  1  0  0  0  0
 97 98  1  0  0  0  0
 85 99  1  0  0  0  0
 99100  1  0  0  0  0
 12  3  1  0  0  0  0
 19 14  1  0  0  0  0
 26 20  1  0  0  0  0
 69 27  1  0  0  0  0
 81 74  1  0  0  0  0
100 82  1  0  0  0  0
 36 29  1  0  0  0  0
 68 37  2  0  0  0  0
 95 86  1  0  0  0  0
 67 39  2  0  0  0  0
 65 40  2  0  0  0  0
 45 41  2  0  0  0  0
 64 46  2  0  0  0  0
 62 47  2  0  0  0  0
 61 49  2  0  0  0  0
 58 51  1  0  0  0  0
  1101  1  0  0  0  0
  1102  1  0  0  0  0
  1103  1  0  0  0  0
  2104  1  0  0  0  0
  2105  1  0  0  0  0
 10106  1  0  0  0  0
 10107  1  0  0  0  0
 11108  1  0  0  0  0
 11109  1  0  0  0  0
 11110  1  0  0  0  0
 15111  1  0  0  0  0
 16112  1  0  0  0  0
 17113  1  0  0  0  0
 18114  1  0  0  0  0
 18115  1  0  0  0  0
 19116  1  0  0  0  0
 19117  1  0  0  0  0
 21118  1  0  0  0  0
 23119  1  0  0  0  0
 23120  1  0  0  0  0
 24121  1  0  0  0  0
 24122  1  0  0  0  0
 24123  1  0  0  0  0
 30124  1  0  0  0  0
 31125  1  0  0  0  0
 32126  1  0  0  0  0
 34127  1  0  0  0  0
 34128  1  0  0  0  0
 35129  1  0  0  0  0
 35130  1  0  0  0  0
 35131  1  0  0  0  0
 36132  1  0  0  0  0
 52133  1  0  0  0  0
 53134  1  0  0  0  0
 54135  1  0  0  0  0
 56136  1  0  0  0  0
 56137  1  0  0  0  0
 57138  1  0  0  0  0
 57139  1  0  0  0  0
 57140  1  0  0  0  0
 58141  1  0  0  0  0
 70142  1  0  0  0  0
 70143  1  0  0  0  0
 71144  1  0  0  0  0
 71145  1  0  0  0  0
 71146  1  0  0  0  0
 72147  1  0  0  0  0
 72148  1  0  0  0  0
 73149  1  0  0  0  0
 73150  1  0  0  0  0
 73151  1  0  0  0  0
 75152  1  0  0  0  0
 78153  1  0  0  0  0
 78154  1  0  0  0  0
 79155  1  0  0  0  0
 79156  1  0  0  0  0
 79157  1  0  0  0  0
 82158  1  0  0  0  0
 83159  1  0  0  0  0
 84160  1  0  0  0  0
 90161  1  0  0  0  0
 90162  1  0  0  0  0
 91163  1  0  0  0  0
 91164  1  0  0  0  0
 91165  1  0  0  0  0
 97166  1  0  0  0  0
 97167  1  0  0  0  0
 98168  1  0  0  0  0
 98169  1  0  0  0  0
 98170  1  0  0  0  0
 99171  1  0  0  0  0
 99172  1  0  0  0  0
100173  1  0  0  0  0
100174  1  0  0  0  0
M  END
