
  xtb     02032219133D
 energy: -432.370260479492 gnorm: 0.000388309544 xtb: 6.4.1 (unknown)
288313  0     0  0            999 V2000
   -4.7473   -6.6290    7.2147 C   0  0  0  0  0  0  0  0  0  0  0  0
   -5.9556   -6.9014    6.3295 C   0  0  0  0  0  0  0  0  0  0  0  0
   -6.9372   -5.8294    6.4459 N   0  0  0  0  0  0  0  0  0  0  0  0
   -7.8827   -5.9792    7.4515 C   0  0  0  0  0  0  0  0  0  0  0  0
   -7.8608   -6.9702    8.1528 O   0  0  0  0  0  0  0  0  0  0  0  0
   -8.8711   -4.9010    7.5684 C   0  0  0  0  0  0  0  0  0  0  0  0
   -8.6031   -3.6345    6.8843 C   0  0  0  0  0  0  0  0  0  0  0  0
   -9.1534   -2.5841    7.1513 O   0  0  0  0  0  0  0  0  0  0  0  0
   -7.6712   -3.6853    5.8557 N   0  0  0  0  0  0  0  0  0  0  0  0
   -7.4945   -2.4635    5.0775 C   0  0  0  0  0  0  0  0  0  0  0  0
   -6.3613   -1.6097    5.6290 C   0  0  0  0  0  0  0  0  0  0  0  0
   -6.8564   -4.7528    5.6094 C   0  0  0  0  0  0  0  0  0  0  0  0
   -5.7777   -4.7204    4.3597 S   0  0  0  0  0  0  0  0  0  0  0  0
  -10.0440   -5.1237    8.2339 C   0  0  0  0  0  0  0  0  0  0  0  0
  -10.3524   -6.4003    8.8665 C   0  0  0  0  0  0  0  0  0  0  0  0
  -11.4889   -6.9970    8.5107 C   0  0  0  0  0  0  0  0  0  0  0  0
  -12.3324   -6.2754    7.4963 C   0  0  0  0  0  0  0  0  0  0  0  0
  -12.5416   -4.8717    8.0947 C   0  0  0  0  0  0  0  0  0  0  0  0
  -11.1898   -4.1561    8.2667 C   0  0  0  0  0  0  0  0  0  0  0  0
  -11.5786   -6.1780    6.2005 C   0  0  0  0  0  0  0  0  0  0  0  0
  -11.5226   -5.1409    5.3369 C   0  0  0  0  0  0  0  0  0  0  0  0
  -10.5411   -5.2896    4.3166 C   0  0  0  0  0  0  0  0  0  0  0  0
  -10.1349   -4.3249    3.3773 C   0  0  0  0  0  0  0  0  0  0  0  0
  -10.7006   -2.9940    3.2988 C   0  0  0  0  0  0  0  0  0  0  0  0
  -10.8721   -2.2326    2.1771 C   0  0  0  0  0  0  0  0  0  0  0  0
  -11.3614   -0.9298    2.4256 C   0  0  0  0  0  0  0  0  0  0  0  0
  -11.5599    0.0635    1.3223 C   0  0  0  0  0  0  0  0  0  0  0  0
  -10.2170    0.6561    0.8922 C   0  0  0  0  0  0  0  0  0  0  0  0
  -11.5501   -0.6888    3.7560 C   0  0  0  0  0  0  0  0  0  0  0  0
  -12.0743    0.5317    4.4340 C   0  0  0  0  0  0  0  0  0  0  0  0
  -13.5961    0.4684    4.5869 C   0  0  0  0  0  0  0  0  0  0  0  0
  -11.1601   -2.0810    4.7109 S   0  0  0  0  0  0  0  0  0  0  0  0
   -9.0882   -4.6969    2.5382 C   0  0  0  0  0  0  0  0  0  0  0  0
   -8.4660   -5.9685    2.5719 C   0  0  0  0  0  0  0  0  0  0  0  0
   -8.8639   -6.9326    3.5239 C   0  0  0  0  0  0  0  0  0  0  0  0
   -8.2072   -8.2118    3.6799 C   0  0  0  0  0  0  0  0  0  0  0  0
   -8.7272   -9.3607    4.2115 C   0  0  0  0  0  0  0  0  0  0  0  0
   -7.8016  -10.4202    4.3479 C   0  0  0  0  0  0  0  0  0  0  0  0
   -8.1813  -11.7264    4.9749 C   0  0  0  0  0  0  0  0  0  0  0  0
   -7.9471  -11.6831    6.4858 C   0  0  0  0  0  0  0  0  0  0  0  0
   -6.5531  -10.0798    3.9124 C   0  0  0  0  0  0  0  0  0  0  0  0
   -6.5216   -8.4585    3.3008 S   0  0  0  0  0  0  0  0  0  0  0  0
   -5.2867  -10.8659    3.9230 C   0  0  0  0  0  0  0  0  0  0  0  0
   -4.2842  -10.2853    4.9230 C   0  0  0  0  0  0  0  0  0  0  0  0
   -9.8944   -6.5445    4.3831 C   0  0  0  0  0  0  0  0  0  0  0  0
  -10.4953   -7.4685    5.7376 S   0  0  0  0  0  0  0  0  0  0  0  0
   -7.4149   -6.0560    1.6280 C   0  0  0  0  0  0  0  0  0  0  0  0
   -7.1739   -4.8945    0.9547 C   0  0  0  0  0  0  0  0  0  0  0  0
   -8.3035   -3.6389    1.3956 S   0  0  0  0  0  0  0  0  0  0  0  0
   -6.1066   -4.6515    0.0447 C   0  0  0  0  0  0  0  0  0  0  0  0
   -5.6783   -3.0411   -0.4486 S   0  0  0  0  0  0  0  0  0  0  0  0
   -4.2985   -3.6428   -1.3148 C   0  0  0  0  0  0  0  0  0  0  0  0
   -3.3266   -2.8143   -1.9538 C   0  0  0  0  0  0  0  0  0  0  0  0
   -2.1224   -3.4498   -2.3979 C   0  0  0  0  0  0  0  0  0  0  0  0
   -1.0652   -2.6308   -2.8633 C   0  0  0  0  0  0  0  0  0  0  0  0
    0.1200   -3.2535   -3.2846 C   0  0  0  0  0  0  0  0  0  0  0  0
    0.2624   -4.6159   -3.2161 C   0  0  0  0  0  0  0  0  0  0  0  0
   -0.7737   -5.4113   -2.7379 C   0  0  0  0  0  0  0  0  0  0  0  0
   -1.9676   -4.8503   -2.3380 C   0  0  0  0  0  0  0  0  0  0  0  0
   -3.0999   -5.7740   -1.9137 C   0  0  0  0  0  0  0  0  0  0  0  0
   -4.2074   -5.0131   -1.2353 C   0  0  0  0  0  0  0  0  0  0  0  0
   -5.2342   -5.5811   -0.4706 C   0  0  0  0  0  0  0  0  0  0  0  0
   -2.6428   -6.8059   -0.8942 C   0  0  0  0  0  0  0  0  0  0  0  0
   -3.2605   -8.0470   -0.7964 C   0  0  0  0  0  0  0  0  0  0  0  0
   -2.9128   -8.9310    0.2082 C   0  0  0  0  0  0  0  0  0  0  0  0
   -1.9494   -8.5986    1.1502 C   0  0  0  0  0  0  0  0  0  0  0  0
   -1.5432   -9.5743    2.2169 C   0  0  0  0  0  0  0  0  0  0  0  0
   -0.3373  -10.3973    1.7601 C   0  0  0  0  0  0  0  0  0  0  0  0
   -1.3427   -7.3532    1.0577 C   0  0  0  0  0  0  0  0  0  0  0  0
   -1.6890   -6.4656    0.0565 C   0  0  0  0  0  0  0  0  0  0  0  0
   -3.6024   -6.3917   -3.2175 C   0  0  0  0  0  0  0  0  0  0  0  0
   -4.6234   -5.7854   -3.9374 C   0  0  0  0  0  0  0  0  0  0  0  0
   -5.0443   -6.3069   -5.1468 C   0  0  0  0  0  0  0  0  0  0  0  0
   -4.4526   -7.4430   -5.6800 C   0  0  0  0  0  0  0  0  0  0  0  0
   -4.9435   -8.0389   -6.9679 C   0  0  0  0  0  0  0  0  0  0  0  0
   -6.0461   -9.0642   -6.6956 C   0  0  0  0  0  0  0  0  0  0  0  0
   -3.4229   -8.0406   -4.9658 C   0  0  0  0  0  0  0  0  0  0  0  0
   -2.9995   -7.5219   -3.7570 C   0  0  0  0  0  0  0  0  0  0  0  0
   -1.2305   -1.1987   -2.8937 C   0  0  0  0  0  0  0  0  0  0  0  0
   -0.1499   -0.3401   -3.1615 C   0  0  0  0  0  0  0  0  0  0  0  0
   -0.2875    1.0242   -3.1805 C   0  0  0  0  0  0  0  0  0  0  0  0
    0.8347    1.9005   -3.2892 C   0  0  0  0  0  0  0  0  0  0  0  0
    0.7358    3.2700   -3.3524 C   0  0  0  0  0  0  0  0  0  0  0  0
   -0.5952    3.9617   -3.4872 C   0  0  0  0  0  0  0  0  0  0  0  0
   -0.6771    4.3822   -4.9528 C   0  0  0  0  0  0  0  0  0  0  0  0
   -1.4381    3.6665   -5.8672 C   0  0  0  0  0  0  0  0  0  0  0  0
   -1.4665    4.0312   -7.2012 C   0  0  0  0  0  0  0  0  0  0  0  0
   -0.7325    5.1136   -7.6643 C   0  0  0  0  0  0  0  0  0  0  0  0
   -0.7377    5.4835   -9.1197 C   0  0  0  0  0  0  0  0  0  0  0  0
    0.3491    4.7130   -9.8718 C   0  0  0  0  0  0  0  0  0  0  0  0
    0.0457    5.8146   -6.7526 C   0  0  0  0  0  0  0  0  0  0  0  0
    0.0772    5.4531   -5.4198 C   0  0  0  0  0  0  0  0  0  0  0  0
   -0.6523    5.1359   -2.5204 C   0  0  0  0  0  0  0  0  0  0  0  0
   -1.2333    6.3539   -2.8460 C   0  0  0  0  0  0  0  0  0  0  0  0
   -1.3002    7.3746   -1.9135 C   0  0  0  0  0  0  0  0  0  0  0  0
   -0.8052    7.2047   -0.6287 C   0  0  0  0  0  0  0  0  0  0  0  0
   -0.8522    8.3174    0.3794 C   0  0  0  0  0  0  0  0  0  0  0  0
    0.4827    9.0626    0.4302 C   0  0  0  0  0  0  0  0  0  0  0  0
   -0.2388    5.9793   -0.3005 C   0  0  0  0  0  0  0  0  0  0  0  0
   -0.1679    4.9596   -1.2289 C   0  0  0  0  0  0  0  0  0  0  0  0
   -1.7444    3.0283   -3.1377 C   0  0  0  0  0  0  0  0  0  0  0  0
   -3.0035    3.5669   -2.9816 C   0  0  0  0  0  0  0  0  0  0  0  0
   -4.0976    2.7509   -2.7103 C   0  0  0  0  0  0  0  0  0  0  0  0
   -3.9404    1.3945   -2.5804 C   0  0  0  0  0  0  0  0  0  0  0  0
   -2.6773    0.7985   -2.7203 C   0  0  0  0  0  0  0  0  0  0  0  0
   -2.4823   -0.6240   -2.5853 C   0  0  0  0  0  0  0  0  0  0  0  0
   -3.4975   -1.4602   -2.0895 C   0  0  0  0  0  0  0  0  0  0  0  0
   -1.5732    1.6333   -3.0175 C   0  0  0  0  0  0  0  0  0  0  0  0
    1.9828    3.9070   -3.2962 C   0  0  0  0  0  0  0  0  0  0  0  0
    3.0382    3.0318   -3.1845 C   0  0  0  0  0  0  0  0  0  0  0  0
    2.4892    1.3819   -3.1801 S   0  0  0  0  0  0  0  0  0  0  0  0
    4.4093    3.3671   -2.9919 C   0  0  0  0  0  0  0  0  0  0  0  0
    4.9457    4.6208   -2.9566 C   0  0  0  0  0  0  0  0  0  0  0  0
    6.3195    4.6456   -2.6148 C   0  0  0  0  0  0  0  0  0  0  0  0
    7.1361    5.7749   -2.4124 C   0  0  0  0  0  0  0  0  0  0  0  0
    6.5857    7.1097   -2.5254 C   0  0  0  0  0  0  0  0  0  0  0  0
    5.3763    7.5597   -2.0802 C   0  0  0  0  0  0  0  0  0  0  0  0
    5.1001    8.9062   -2.4164 C   0  0  0  0  0  0  0  0  0  0  0  0
    3.7892    9.5510   -2.0809 C   0  0  0  0  0  0  0  0  0  0  0  0
    2.6665    8.9539   -2.9321 C   0  0  0  0  0  0  0  0  0  0  0  0
    6.1153    9.4822   -3.1251 C   0  0  0  0  0  0  0  0  0  0  0  0
    6.2411   10.8795   -3.6320 C   0  0  0  0  0  0  0  0  0  0  0  0
    6.8744   11.7909   -2.5777 C   0  0  0  0  0  0  0  0  0  0  0  0
    7.4332    8.3782   -3.3619 S   0  0  0  0  0  0  0  0  0  0  0  0
    8.4634    5.5234   -2.0883 C   0  0  0  0  0  0  0  0  0  0  0  0
    8.9951    4.2238   -1.9281 C   0  0  0  0  0  0  0  0  0  0  0  0
    8.1743    3.0954   -2.1042 C   0  0  0  0  0  0  0  0  0  0  0  0
    8.6383    1.7361   -1.9146 C   0  0  0  0  0  0  0  0  0  0  0  0
    8.2774    0.6293   -2.6269 C   0  0  0  0  0  0  0  0  0  0  0  0
    8.8359   -0.5799   -2.1485 C   0  0  0  0  0  0  0  0  0  0  0  0
    8.5138   -1.8971   -2.7838 C   0  0  0  0  0  0  0  0  0  0  0  0
    7.0746   -2.3098   -2.4717 C   0  0  0  0  0  0  0  0  0  0  0  0
    9.6333   -0.3894   -1.0574 C   0  0  0  0  0  0  0  0  0  0  0  0
    9.7020    1.2864   -0.6109 S   0  0  0  0  0  0  0  0  0  0  0  0
   10.3742   -1.3880   -0.2333 C   0  0  0  0  0  0  0  0  0  0  0  0
    9.4860   -1.9716    0.8680 C   0  0  0  0  0  0  0  0  0  0  0  0
    6.8483    3.3446   -2.4494 C   0  0  0  0  0  0  0  0  0  0  0  0
    5.6097    2.1353   -2.6640 S   0  0  0  0  0  0  0  0  0  0  0  0
   10.3761    4.2621   -1.5765 C   0  0  0  0  0  0  0  0  0  0  0  0
   10.8682    5.5118   -1.4365 C   0  0  0  0  0  0  0  0  0  0  0  0
    9.6661    6.7404   -1.7586 S   0  0  0  0  0  0  0  0  0  0  0  0
   12.2456    5.9444   -1.0485 C   0  0  0  0  0  0  0  0  0  0  0  0
   12.9510    6.6375   -2.1723 C   0  0  0  0  0  0  0  0  0  0  0  0
   14.2861    6.7220   -2.2329 C   0  0  0  0  0  0  0  0  0  0  0  0
   15.1443    6.2143   -1.1937 C   0  0  0  0  0  0  0  0  0  0  0  0
   16.4875    6.5210   -1.1336 C   0  0  0  0  0  0  0  0  0  0  0  0
   17.3337    5.9622   -0.0766 C   0  0  0  0  0  0  0  0  0  0  0  0
   16.9154    5.4791    0.9585 O   0  0  0  0  0  0  0  0  0  0  0  0
   18.7042    5.9772   -0.3115 N   0  0  0  0  0  0  0  0  0  0  0  0
   19.5417    5.3222    0.6881 C   0  0  0  0  0  0  0  0  0  0  0  0
   20.0446    6.3162    1.7260 C   0  0  0  0  0  0  0  0  0  0  0  0
   19.2985    6.6040   -1.3673 C   0  0  0  0  0  0  0  0  0  0  0  0
   20.9310    6.5174   -1.5999 S   0  0  0  0  0  0  0  0  0  0  0  0
   18.5047    7.3289   -2.2071 N   0  0  0  0  0  0  0  0  0  0  0  0
   17.1211    7.4276   -2.0969 C   0  0  0  0  0  0  0  0  0  0  0  0
   16.5315    8.2304   -2.7931 O   0  0  0  0  0  0  0  0  0  0  0  0
   19.1297    8.1362   -3.2501 C   0  0  0  0  0  0  0  0  0  0  0  0
   19.5791    9.4871   -2.7104 C   0  0  0  0  0  0  0  0  0  0  0  0
   14.4994    5.3304   -0.1717 C   0  0  0  0  0  0  0  0  0  0  0  0
   13.1396    4.7906   -0.5977 C   0  0  0  0  0  0  0  0  0  0  0  0
   -5.0509   -6.5516    8.2560 H   0  0  0  0  0  0  0  0  0  0  0  0
   -4.2615   -5.7032    6.9140 H   0  0  0  0  0  0  0  0  0  0  0  0
   -4.0350   -7.4432    7.1168 H   0  0  0  0  0  0  0  0  0  0  0  0
   -6.4534   -7.8234    6.6357 H   0  0  0  0  0  0  0  0  0  0  0  0
   -5.6527   -6.9721    5.2855 H   0  0  0  0  0  0  0  0  0  0  0  0
   -8.4354   -1.9157    5.1367 H   0  0  0  0  0  0  0  0  0  0  0  0
   -7.2956   -2.7437    4.0422 H   0  0  0  0  0  0  0  0  0  0  0  0
   -6.5652   -1.3395    6.6624 H   0  0  0  0  0  0  0  0  0  0  0  0
   -6.2739   -0.7023    5.0388 H   0  0  0  0  0  0  0  0  0  0  0  0
   -5.4184   -2.1491    5.5783 H   0  0  0  0  0  0  0  0  0  0  0  0
   -9.6483   -6.8350    9.5549 H   0  0  0  0  0  0  0  0  0  0  0  0
  -11.8047   -7.9468    8.9085 H   0  0  0  0  0  0  0  0  0  0  0  0
  -13.2936   -6.7775    7.3472 H   0  0  0  0  0  0  0  0  0  0  0  0
  -13.1898   -4.2763    7.4536 H   0  0  0  0  0  0  0  0  0  0  0  0
  -13.0423   -4.9905    9.0572 H   0  0  0  0  0  0  0  0  0  0  0  0
  -11.1576   -3.6415    9.2303 H   0  0  0  0  0  0  0  0  0  0  0  0
  -11.0538   -3.3899    7.5051 H   0  0  0  0  0  0  0  0  0  0  0  0
  -12.1409   -4.2680    5.4194 H   0  0  0  0  0  0  0  0  0  0  0  0
  -10.6909   -2.6008    1.1834 H   0  0  0  0  0  0  0  0  0  0  0  0
  -12.2291    0.8621    1.6447 H   0  0  0  0  0  0  0  0  0  0  0  0
  -12.0207   -0.4409    0.4700 H   0  0  0  0  0  0  0  0  0  0  0  0
  -10.3557    1.3579    0.0730 H   0  0  0  0  0  0  0  0  0  0  0  0
   -9.5426   -0.1326    0.5667 H   0  0  0  0  0  0  0  0  0  0  0  0
   -9.7510    1.1803    1.7239 H   0  0  0  0  0  0  0  0  0  0  0  0
  -11.6181    0.6172    5.4225 H   0  0  0  0  0  0  0  0  0  0  0  0
  -11.8001    1.4163    3.8558 H   0  0  0  0  0  0  0  0  0  0  0  0
  -14.0732    0.3834    3.6130 H   0  0  0  0  0  0  0  0  0  0  0  0
  -13.8777   -0.3963    5.1838 H   0  0  0  0  0  0  0  0  0  0  0  0
  -13.9646    1.3649    5.0793 H   0  0  0  0  0  0  0  0  0  0  0  0
   -9.7638   -9.4757    4.4709 H   0  0  0  0  0  0  0  0  0  0  0  0
   -9.2380  -11.9177    4.7792 H   0  0  0  0  0  0  0  0  0  0  0  0
   -7.6036  -12.5427    4.5367 H   0  0  0  0  0  0  0  0  0  0  0  0
   -6.8907  -11.5418    6.7024 H   0  0  0  0  0  0  0  0  0  0  0  0
   -8.2744  -12.6112    6.9487 H   0  0  0  0  0  0  0  0  0  0  0  0
   -8.5001  -10.8576    6.9287 H   0  0  0  0  0  0  0  0  0  0  0  0
   -5.5057  -11.9031    4.1816 H   0  0  0  0  0  0  0  0  0  0  0  0
   -4.8417  -10.8500    2.9240 H   0  0  0  0  0  0  0  0  0  0  0  0
   -4.0207   -9.2684    4.6409 H   0  0  0  0  0  0  0  0  0  0  0  0
   -3.3789  -10.8873    4.9454 H   0  0  0  0  0  0  0  0  0  0  0  0
   -4.7136  -10.2658    5.9223 H   0  0  0  0  0  0  0  0  0  0  0  0
   -6.8271   -6.9367    1.4617 H   0  0  0  0  0  0  0  0  0  0  0  0
    0.9329   -2.6667   -3.6800 H   0  0  0  0  0  0  0  0  0  0  0  0
    1.1831   -5.0798   -3.5378 H   0  0  0  0  0  0  0  0  0  0  0  0
   -0.6350   -6.4796   -2.6803 H   0  0  0  0  0  0  0  0  0  0  0  0
   -5.3311   -6.6339   -0.2842 H   0  0  0  0  0  0  0  0  0  0  0  0
   -4.0223   -8.3283   -1.5097 H   0  0  0  0  0  0  0  0  0  0  0  0
   -3.4067   -9.8914    0.2642 H   0  0  0  0  0  0  0  0  0  0  0  0
   -2.3735  -10.2472    2.4384 H   0  0  0  0  0  0  0  0  0  0  0  0
   -1.2864   -9.0358    3.1314 H   0  0  0  0  0  0  0  0  0  0  0  0
   -0.0420  -11.1039    2.5326 H   0  0  0  0  0  0  0  0  0  0  0  0
    0.5063   -9.7453    1.5449 H   0  0  0  0  0  0  0  0  0  0  0  0
   -0.5790  -10.9522    0.8560 H   0  0  0  0  0  0  0  0  0  0  0  0
   -0.5979   -7.0677    1.7870 H   0  0  0  0  0  0  0  0  0  0  0  0
   -1.2165   -5.4947    0.0168 H   0  0  0  0  0  0  0  0  0  0  0  0
   -5.0992   -4.8946   -3.5551 H   0  0  0  0  0  0  0  0  0  0  0  0
   -5.8436   -5.8183   -5.6862 H   0  0  0  0  0  0  0  0  0  0  0  0
   -4.1175   -8.5285   -7.4881 H   0  0  0  0  0  0  0  0  0  0  0  0
   -5.3359   -7.2515   -7.6146 H   0  0  0  0  0  0  0  0  0  0  0  0
   -6.8838   -8.5917   -6.1873 H   0  0  0  0  0  0  0  0  0  0  0  0
   -5.6699   -9.8645   -6.0620 H   0  0  0  0  0  0  0  0  0  0  0  0
   -6.4037   -9.4972   -7.6270 H   0  0  0  0  0  0  0  0  0  0  0  0
   -2.9414   -8.9235   -5.3625 H   0  0  0  0  0  0  0  0  0  0  0  0
   -2.1978   -8.0145   -3.2274 H   0  0  0  0  0  0  0  0  0  0  0  0
    0.8414   -0.7403   -3.3069 H   0  0  0  0  0  0  0  0  0  0  0  0
   -2.0200    2.8173   -5.5416 H   0  0  0  0  0  0  0  0  0  0  0  0
   -2.0733    3.4632   -7.8923 H   0  0  0  0  0  0  0  0  0  0  0  0
   -1.7111    5.2510   -9.5567 H   0  0  0  0  0  0  0  0  0  0  0  0
   -0.5606    6.5554   -9.2300 H   0  0  0  0  0  0  0  0  0  0  0  0
    0.1826    3.6417   -9.7832 H   0  0  0  0  0  0  0  0  0  0  0  0
    1.3290    4.9411   -9.4584 H   0  0  0  0  0  0  0  0  0  0  0  0
    0.3454    4.9797  -10.9263 H   0  0  0  0  0  0  0  0  0  0  0  0
    0.6339    6.6569   -7.0892 H   0  0  0  0  0  0  0  0  0  0  0  0
    0.6875    6.0234   -4.7357 H   0  0  0  0  0  0  0  0  0  0  0  0
   -1.6387    6.5141   -3.8348 H   0  0  0  0  0  0  0  0  0  0  0  0
   -1.7551    8.3156   -2.1904 H   0  0  0  0  0  0  0  0  0  0  0  0
   -1.6473    9.0193    0.1201 H   0  0  0  0  0  0  0  0  0  0  0  0
   -1.0698    7.9060    1.3676 H   0  0  0  0  0  0  0  0  0  0  0  0
    1.2896    8.3764    0.6777 H   0  0  0  0  0  0  0  0  0  0  0  0
    0.4524    9.8486    1.1814 H   0  0  0  0  0  0  0  0  0  0  0  0
    0.7003    9.5138   -0.5348 H   0  0  0  0  0  0  0  0  0  0  0  0
    0.1425    5.8184    0.6981 H   0  0  0  0  0  0  0  0  0  0  0  0
    0.2641    4.0100   -0.9463 H   0  0  0  0  0  0  0  0  0  0  0  0
   -3.1485    4.6317   -3.0818 H   0  0  0  0  0  0  0  0  0  0  0  0
   -5.0772    3.1938   -2.6068 H   0  0  0  0  0  0  0  0  0  0  0  0
   -4.8097    0.7870   -2.3885 H   0  0  0  0  0  0  0  0  0  0  0  0
   -4.4308   -1.0408   -1.7474 H   0  0  0  0  0  0  0  0  0  0  0  0
    2.1112    4.9733   -3.2973 H   0  0  0  0  0  0  0  0  0  0  0  0
    4.3802    5.5047   -3.1812 H   0  0  0  0  0  0  0  0  0  0  0  0
    4.7116    6.9591   -1.4843 H   0  0  0  0  0  0  0  0  0  0  0  0
    3.8442   10.6266   -2.2503 H   0  0  0  0  0  0  0  0  0  0  0  0
    3.5660    9.3871   -1.0238 H   0  0  0  0  0  0  0  0  0  0  0  0
    2.9015    9.0524   -3.9902 H   0  0  0  0  0  0  0  0  0  0  0  0
    2.5335    7.8984   -2.7048 H   0  0  0  0  0  0  0  0  0  0  0  0
    1.7251    9.4631   -2.7395 H   0  0  0  0  0  0  0  0  0  0  0  0
    6.8646   10.8819   -4.5282 H   0  0  0  0  0  0  0  0  0  0  0  0
    5.2552   11.2622   -3.9047 H   0  0  0  0  0  0  0  0  0  0  0  0
    7.8655   11.4277   -2.3160 H   0  0  0  0  0  0  0  0  0  0  0  0
    6.9645   12.8050   -2.9592 H   0  0  0  0  0  0  0  0  0  0  0  0
    6.2660   11.8090   -1.6761 H   0  0  0  0  0  0  0  0  0  0  0  0
    7.6537    0.6718   -3.5019 H   0  0  0  0  0  0  0  0  0  0  0  0
    8.6330   -1.8074   -3.8666 H   0  0  0  0  0  0  0  0  0  0  0  0
    9.2004   -2.6669   -2.4292 H   0  0  0  0  0  0  0  0  0  0  0  0
    6.3766   -1.5572   -2.8306 H   0  0  0  0  0  0  0  0  0  0  0  0
    6.9331   -2.4172   -1.3985 H   0  0  0  0  0  0  0  0  0  0  0  0
    6.8405   -3.2588   -2.9487 H   0  0  0  0  0  0  0  0  0  0  0  0
   11.2395   -0.9036    0.2240 H   0  0  0  0  0  0  0  0  0  0  0  0
   10.7378   -2.1948   -0.8743 H   0  0  0  0  0  0  0  0  0  0  0  0
    8.6307   -2.4839    0.4347 H   0  0  0  0  0  0  0  0  0  0  0  0
   10.0486   -2.6813    1.4698 H   0  0  0  0  0  0  0  0  0  0  0  0
    9.1207   -1.1782    1.5161 H   0  0  0  0  0  0  0  0  0  0  0  0
   10.9633    3.3751   -1.4343 H   0  0  0  0  0  0  0  0  0  0  0  0
   12.1470    6.6625   -0.2194 H   0  0  0  0  0  0  0  0  0  0  0  0
   12.3405    7.0783   -2.9469 H   0  0  0  0  0  0  0  0  0  0  0  0
   14.7446    7.2426   -3.0575 H   0  0  0  0  0  0  0  0  0  0  0  0
   18.9237    4.5613    1.1672 H   0  0  0  0  0  0  0  0  0  0  0  0
   20.3785    4.8496    0.1717 H   0  0  0  0  0  0  0  0  0  0  0  0
   20.6493    5.7956    2.4628 H   0  0  0  0  0  0  0  0  0  0  0  0
   19.2049    6.7878    2.2308 H   0  0  0  0  0  0  0  0  0  0  0  0
   20.6550    7.0825    1.2540 H   0  0  0  0  0  0  0  0  0  0  0  0
   18.3818    8.2759   -4.0320 H   0  0  0  0  0  0  0  0  0  0  0  0
   19.9797    7.5780   -3.6454 H   0  0  0  0  0  0  0  0  0  0  0  0
   20.3205    9.3555   -1.9257 H   0  0  0  0  0  0  0  0  0  0  0  0
   18.7275   10.0325   -2.3109 H   0  0  0  0  0  0  0  0  0  0  0  0
   20.0227   10.0685   -3.5132 H   0  0  0  0  0  0  0  0  0  0  0  0
   15.1615    4.5032    0.0878 H   0  0  0  0  0  0  0  0  0  0  0  0
   14.3926    5.9211    0.7447 H   0  0  0  0  0  0  0  0  0  0  0  0
   13.2670    4.0939   -1.4291 H   0  0  0  0  0  0  0  0  0  0  0  0
   12.6828    4.2542    0.2344 H   0  0  0  0  0  0  0  0  0  0  0  0
  1  2  1  0  0  0  0
  2  3  1  0  0  0  0
  3  4  1  0  0  0  0
  4  5  2  0  0  0  0
  4  6  1  0  0  0  0
  6  7  1  0  0  0  0
  7  8  2  0  0  0  0
  7  9  1  0  0  0  0
  9 10  1  0  0  0  0
 10 11  1  0  0  0  0
  9 12  1  0  0  0  0
 12 13  2  0  0  0  0
  6 14  2  0  0  0  0
 14 15  1  0  0  0  0
 15 16  2  0  0  0  0
 16 17  1  0  0  0  0
 17 18  1  0  0  0  0
 18 19  1  0  0  0  0
 17 20  1  0  0  0  0
 20 21  2  0  0  0  0
 21 22  1  0  0  0  0
 22 23  2  0  0  0  0
 23 24  1  0  0  0  0
 24 25  2  0  0  0  0
 25 26  1  0  0  0  0
 26 27  1  0  0  0  0
 27 28  1  0  0  0  0
 26 29  2  0  0  0  0
 29 30  1  0  0  0  0
 30 31  1  0  0  0  0
 29 32  1  0  0  0  0
 23 33  1  0  0  0  0
 33 34  2  0  0  0  0
 34 35  1  0  0  0  0
 35 36  1  0  0  0  0
 36 37  2  0  0  0  0
 37 38  1  0  0  0  0
 38 39  1  0  0  0  0
 39 40  1  0  0  0  0
 38 41  2  0  0  0  0
 41 42  1  0  0  0  0
 41 43  1  0  0  0  0
 43 44  1  0  0  0  0
 35 45  2  0  0  0  0
 45 46  1  0  0  0  0
 34 47  1  0  0  0  0
 47 48  2  0  0  0  0
 48 49  1  0  0  0  0
 48 50  1  0  0  0  0
 50 51  1  0  0  0  0
 51 52  1  0  0  0  0
 52 53  1  0  0  0  0
 53 54  2  0  0  0  0
 54 55  1  0  0  0  0
 55 56  1  0  0  0  0
 56 57  2  0  0  0  0
 57 58  1  0  0  0  0
 58 59  2  0  0  0  0
 59 60  1  0  0  0  0
 60 61  1  0  0  0  0
 61 62  1  0  0  0  0
 60 63  1  0  0  0  0
 63 64  2  0  0  0  0
 64 65  1  0  0  0  0
 65 66  2  0  0  0  0
 66 67  1  0  0  0  0
 67 68  1  0  0  0  0
 66 69  1  0  0  0  0
 69 70  2  0  0  0  0
 60 71  1  0  0  0  0
 71 72  2  0  0  0  0
 72 73  1  0  0  0  0
 73 74  2  0  0  0  0
 74 75  1  0  0  0  0
 75 76  1  0  0  0  0
 74 77  1  0  0  0  0
 77 78  2  0  0  0  0
 55 79  2  0  0  0  0
 79 80  1  0  0  0  0
 80 81  2  0  0  0  0
 81 82  1  0  0  0  0
 82 83  2  0  0  0  0
 83 84  1  0  0  0  0
 84 85  1  0  0  0  0
 85 86  2  0  0  0  0
 86 87  1  0  0  0  0
 87 88  2  0  0  0  0
 88 89  1  0  0  0  0
 89 90  1  0  0  0  0
 88 91  1  0  0  0  0
 91 92  2  0  0  0  0
 84 93  1  0  0  0  0
 93 94  2  0  0  0  0
 94 95  1  0  0  0  0
 95 96  2  0  0  0  0
 96 97  1  0  0  0  0
 97 98  1  0  0  0  0
 96 99  1  0  0  0  0
 99100  2  0  0  0  0
 84101  1  0  0  0  0
101102  1  0  0  0  0
102103  2  0  0  0  0
103104  1  0  0  0  0
104105  2  0  0  0  0
105106  1  0  0  0  0
106107  2  0  0  0  0
105108  1  0  0  0  0
 83109  1  0  0  0  0
109110  2  0  0  0  0
110111  1  0  0  0  0
110112  1  0  0  0  0
112113  2  0  0  0  0
113114  1  0  0  0  0
114115  2  0  0  0  0
115116  1  0  0  0  0
116117  2  0  0  0  0
117118  1  0  0  0  0
118119  1  0  0  0  0
119120  1  0  0  0  0
118121  2  0  0  0  0
121122  1  0  0  0  0
122123  1  0  0  0  0
121124  1  0  0  0  0
115125  1  0  0  0  0
125126  2  0  0  0  0
126127  1  0  0  0  0
127128  1  0  0  0  0
128129  2  0  0  0  0
129130  1  0  0  0  0
130131  1  0  0  0  0
131132  1  0  0  0  0
130133  2  0  0  0  0
133134  1  0  0  0  0
133135  1  0  0  0  0
135136  1  0  0  0  0
127137  2  0  0  0  0
137138  1  0  0  0  0
126139  1  0  0  0  0
139140  2  0  0  0  0
140141  1  0  0  0  0
140142  1  0  0  0  0
142143  1  0  0  0  0
143144  2  0  0  0  0
144145  1  0  0  0  0
145146  2  0  0  0  0
146147  1  0  0  0  0
147148  2  0  0  0  0
147149  1  0  0  0  0
149150  1  0  0  0  0
150151  1  0  0  0  0
149152  1  0  0  0  0
152153  2  0  0  0  0
152154  1  0  0  0  0
154155  1  0  0  0  0
155156  2  0  0  0  0
154157  1  0  0  0  0
157158  1  0  0  0  0
145159  1  0  0  0  0
159160  1  0  0  0  0
 12  3  1  0  0  0  0
 19 14  1  0  0  0  0
 46 20  1  0  0  0  0
 62 50  2  0  0  0  0
 70 63  1  0  0  0  0
 78 71  1  0  0  0  0
106 79  1  0  0  0  0
138112  1  0  0  0  0
160142  1  0  0  0  0
 45 22  1  0  0  0  0
 61 52  2  0  0  0  0
108 81  1  0  0  0  0
137114  1  0  0  0  0
155146  1  0  0  0  0
 32 24  1  0  0  0  0
 49 33  1  0  0  0  0
107 53  1  0  0  0  0
124116  1  0  0  0  0
141125  1  0  0  0  0
 42 36  1  0  0  0  0
 59 54  1  0  0  0  0
111 82  1  0  0  0  0
134128  1  0  0  0  0
 92 85  1  0  0  0  0
100 93  1  0  0  0  0
108101  2  0  0  0  0
  1161  1  0  0  0  0
  1162  1  0  0  0  0
  1163  1  0  0  0  0
  2164  1  0  0  0  0
  2165  1  0  0  0  0
 10166  1  0  0  0  0
 10167  1  0  0  0  0
 11168  1  0  0  0  0
 11169  1  0  0  0  0
 11170  1  0  0  0  0
 15171  1  0  0  0  0
 16172  1  0  0  0  0
 17173  1  0  0  0  0
 18174  1  0  0  0  0
 18175  1  0  0  0  0
 19176  1  0  0  0  0
 19177  1  0  0  0  0
 21178  1  0  0  0  0
 25179  1  0  0  0  0
 27180  1  0  0  0  0
 27181  1  0  0  0  0
 28182  1  0  0  0  0
 28183  1  0  0  0  0
 28184  1  0  0  0  0
 30185  1  0  0  0  0
 30186  1  0  0  0  0
 31187  1  0  0  0  0
 31188  1  0  0  0  0
 31189  1  0  0  0  0
 37190  1  0  0  0  0
 39191  1  0  0  0  0
 39192  1  0  0  0  0
 40193  1  0  0  0  0
 40194  1  0  0  0  0
 40195  1  0  0  0  0
 43196  1  0  0  0  0
 43197  1  0  0  0  0
 44198  1  0  0  0  0
 44199  1  0  0  0  0
 44200  1  0  0  0  0
 47201  1  0  0  0  0
 56202  1  0  0  0  0
 57203  1  0  0  0  0
 58204  1  0  0  0  0
 62205  1  0  0  0  0
 64206  1  0  0  0  0
 65207  1  0  0  0  0
 67208  1  0  0  0  0
 67209  1  0  0  0  0
 68210  1  0  0  0  0
 68211  1  0  0  0  0
 68212  1  0  0  0  0
 69213  1  0  0  0  0
 70214  1  0  0  0  0
 72215  1  0  0  0  0
 73216  1  0  0  0  0
 75217  1  0  0  0  0
 75218  1  0  0  0  0
 76219  1  0  0  0  0
 76220  1  0  0  0  0
 76221  1  0  0  0  0
 77222  1  0  0  0  0
 78223  1  0  0  0  0
 80224  1  0  0  0  0
 86225  1  0  0  0  0
 87226  1  0  0  0  0
 89227  1  0  0  0  0
 89228  1  0  0  0  0
 90229  1  0  0  0  0
 90230  1  0  0  0  0
 90231  1  0  0  0  0
 91232  1  0  0  0  0
 92233  1  0  0  0  0
 94234  1  0  0  0  0
 95235  1  0  0  0  0
 97236  1  0  0  0  0
 97237  1  0  0  0  0
 98238  1  0  0  0  0
 98239  1  0  0  0  0
 98240  1  0  0  0  0
 99241  1  0  0  0  0
100242  1  0  0  0  0
102243  1  0  0  0  0
103244  1  0  0  0  0
104245  1  0  0  0  0
107246  1  0  0  0  0
109247  1  0  0  0  0
113248  1  0  0  0  0
117249  1  0  0  0  0
119250  1  0  0  0  0
119251  1  0  0  0  0
120252  1  0  0  0  0
120253  1  0  0  0  0
120254  1  0  0  0  0
122255  1  0  0  0  0
122256  1  0  0  0  0
123257  1  0  0  0  0
123258  1  0  0  0  0
123259  1  0  0  0  0
129260  1  0  0  0  0
131261  1  0  0  0  0
131262  1  0  0  0  0
132263  1  0  0  0  0
132264  1  0  0  0  0
132265  1  0  0  0  0
135266  1  0  0  0  0
135267  1  0  0  0  0
136268  1  0  0  0  0
136269  1  0  0  0  0
136270  1  0  0  0  0
139271  1  0  0  0  0
142272  1  0  0  0  0
143273  1  0  0  0  0
144274  1  0  0  0  0
150275  1  0  0  0  0
150276  1  0  0  0  0
151277  1  0  0  0  0
151278  1  0  0  0  0
151279  1  0  0  0  0
157280  1  0  0  0  0
157281  1  0  0  0  0
158282  1  0  0  0  0
158283  1  0  0  0  0
158284  1  0  0  0  0
159285  1  0  0  0  0
159286  1  0  0  0  0
160287  1  0  0  0  0
160288  1  0  0  0  0
M  END
