160

C          7.76160        0.69340       -6.92220
C          7.65890       -0.33620       -8.03910
N          6.38660       -0.22800       -8.74640
C          5.35950       -1.05260       -8.30060
O          5.53020       -1.72250       -7.30200
C          4.14130       -1.04760       -9.12150
C          3.89390        0.14880       -9.93330
O          2.80170        0.48310      -10.34930
N          5.01020        0.91190      -10.25310
C          4.79720        2.03020      -11.16610
C          4.57490        3.33060      -10.40600
C          6.25460        0.70880       -9.73060
S          7.54840        1.59630      -10.24280
C          3.26210       -2.10550       -9.14520
C          3.47970       -3.29800       -8.36340
C          2.60190       -4.30710       -8.30270
C          1.32880       -4.33340       -9.08380
C          1.50980       -3.47120      -10.33960
C          2.02380       -2.08160       -9.98570
C          0.17970       -3.85790       -8.24480
C         -1.13330       -4.16810       -8.39750
C         -1.97640       -3.54830       -7.44460
S         -3.69970       -3.90460       -7.44000
C         -4.04590       -4.15550       -5.65370
C         -5.11770       -5.21650       -5.49860
C         -1.29370       -2.73050       -6.57500
S          0.42210       -2.78150       -6.90760
C         -1.77910       -1.91080       -5.50320
C         -2.89000       -1.09400       -5.48590
C         -3.73980       -0.81670       -6.64460
C         -3.18060       -0.57030       -7.89570
C         -4.00070       -0.32730       -8.97920
C         -5.37710       -0.33370       -8.82990
C         -5.95100       -0.55950       -7.58650
C         -7.44140       -0.61760       -7.41520
C         -7.91370       -2.07270       -7.39540
C         -5.12200       -0.78990       -6.49920
C         -3.07960       -0.52070       -4.20820
S         -4.28380        0.56960       -3.56610
C         -3.46050        0.55060       -2.04320
C         -3.60490        1.07740       -0.74590
C         -4.62920        1.81380       -0.10840
C         -4.54530        2.05430        1.31030
N         -5.61230        2.68220        1.77770
S         -6.62910        2.95830        0.54810
N         -5.75110        2.28240       -0.63100
C         -3.37330        1.67860        2.00560
C         -2.92820        1.87610        3.32550
S         -3.51920        2.49630        4.83010
C         -1.97180        2.13530        5.55940
C         -1.46750        2.31640        6.85670
C         -2.22960        2.98770        7.91490
C         -1.73560        4.14850        8.50410
C         -2.48550        4.80540        9.46100
C         -3.71670        4.30390        9.84740
C         -4.22430        3.14800        9.26780
C         -5.53440        2.57350        9.72250
C         -5.31100        1.59710       10.87970
C         -3.47580        2.50340        8.29320
C         -0.16300        1.85270        6.95900
S          0.45170        1.23260        5.43190
C         -1.05570        1.57100        4.66430
C         -1.60460        1.42360        3.38760
N         -1.21260        0.93660        2.16420
C         -2.30000        1.05400        1.31910
C         -2.48860        0.61100       -0.00670
N         -1.72180       -0.22310       -0.80120
C         -2.31490       -0.25070       -2.03890
C         -2.10080       -0.86760       -3.27890
S         -0.92700       -1.93480       -3.96450
C         -0.92650       -1.34640       -0.34710
C         -1.73040       -2.64590       -0.38900
C          0.18310        0.97310        1.77180
C          0.75850        2.38340        1.89780
C          0.66730        1.73760        8.10290
C          0.29240        1.83900        9.43360
C          1.34830        1.61330       10.30630
S          1.26450        1.60450       12.04820
C         -0.41850        2.22000       12.40780
C         -0.54090        3.71380       12.18060
C          2.57120        1.32910        9.65320
S          2.34830        1.35500        7.91730
C          3.75070        1.05730       10.33730
C          5.01490        0.77850        9.86120
C          5.41120        0.74190        8.45960
O          4.69920        0.84230        7.47680
C          6.88440        0.58330        8.45670
C          7.75340        0.59640        7.38130
Cl         7.18180        0.63710        5.77400
C          9.13070        0.58530        7.64300
Cl        10.24570        0.56330        6.34600
C          9.59130        0.64040        8.95640
Cl        11.27440        0.73460        9.24900
C          8.70170        0.63590       10.04400
Cl         9.34050        0.89490       11.61510
C          7.34120        0.52730        9.78890
C          6.17300        0.45860       10.66810
C          6.15300       -0.03590       11.94820
C          5.00930       -0.09770       12.77400
N          4.14300       -0.17630       13.52430
C          7.21280       -0.72320       12.57730
N          7.96750       -1.38830       13.13060
H          6.95260        0.55430       -6.20920
H          8.70910        0.57360       -6.40540
H          7.71220        1.70120       -7.32810
H          8.46170       -0.19760       -8.76470
H          7.70460       -1.34420       -7.62410
H          3.91440        1.78800      -11.75980
H          5.67050        2.10890      -11.81540
H          3.71100        3.23960       -9.75200
H          5.45050        3.57760       -9.81030
H          4.39690        4.13650      -11.11190
H          4.37270       -3.34390       -7.76240
H          2.79020       -5.14380       -7.64560
H          1.10440       -5.36270       -9.38820
H          2.22900       -3.96710      -10.99540
H          0.56250       -3.38510      -10.87360
H          1.26360       -1.53380       -9.41940
H          2.18360       -1.50810      -10.89890
H         -1.51400       -4.83350       -9.15090
H         -4.37200       -3.20530       -5.23250
H         -3.11060       -4.46170       -5.18740
H         -5.34300       -5.36430       -4.44430
H         -6.02710       -4.91250       -6.01190
H         -4.78390       -6.16040       -5.92280
H         -2.10700       -0.55930       -8.01090
H         -3.56420       -0.13490       -9.94810
H         -6.01150       -0.15620       -9.68630
H         -7.72480       -0.13390       -6.47780
H         -7.93090       -0.08920       -8.23510
H         -7.45960       -2.60580       -6.56320
H         -8.99510       -2.12230       -7.29050
H         -7.62820       -2.57470       -8.31720
H         -5.56110       -0.96800       -5.52750
H         -0.77390        4.53340        8.19780
H         -2.11000        5.71480        9.90680
H         -4.29490        4.82030       10.60000
H         -6.01560        2.04900        8.89540
H         -6.19680        3.37600       10.05170
H         -6.25740        1.17690       11.21080
H         -4.84470        2.10560       11.72120
H         -4.66080        0.78220       10.56820
H         -3.85920        1.60750        7.82650
H         -0.04560       -1.43330       -0.99100
H         -0.61210       -1.17200        0.67970
H         -1.12690       -3.45860        0.00550
H         -2.62900       -2.54990        0.21690
H         -2.01970       -2.89330       -1.40640
H          0.26670        0.66220        0.73200
H          0.74670        0.28480        2.40980
H          0.17590        3.08140        1.30010
H          0.75370        2.71810        2.93100
H          1.78430        2.38800        1.54030
H         -0.72000        2.03620        9.73000
H         -1.13020        1.64840       11.81450
H         -0.55980        1.97290       13.45980
H         -0.32830        3.96870       11.14510
H          0.15640        4.24970       12.82000
H         -1.55230        4.03970       12.41410
H          3.63980        1.09870       11.41490
