
  xtb     02032213313D
 energy: -237.453465183746 gnorm: 0.000446887040 xtb: 6.4.1 (unknown)
118132  0     0  0            999 V2000
    8.1066    3.0912   18.2233 N   0  0  0  0  0  0  0  0  0  0  0  0
    7.5262    2.8451   17.2658 C   0  0  0  0  0  0  0  0  0  0  0  0
    6.8247    2.5508   16.0760 C   0  0  0  0  0  0  0  0  0  0  0  0
    7.4156    3.0630   14.9045 C   0  0  0  0  0  0  0  0  0  0  0  0
    7.9240    3.5269   13.9864 N   0  0  0  0  0  0  0  0  0  0  0  0
    5.6443    1.8441   16.1130 C   0  0  0  0  0  0  0  0  0  0  0  0
    5.1669    1.4533   17.3933 C   0  0  0  0  0  0  0  0  0  0  0  0
    4.7783    1.1365   18.4227 N   0  0  0  0  0  0  0  0  0  0  0  0
    4.8355    1.4638   15.0053 C   0  0  0  0  0  0  0  0  0  0  0  0
    3.5993    0.8379   15.0900 C   0  0  0  0  0  0  0  0  0  0  0  0
    3.0272    0.5928   13.8514 C   0  0  0  0  0  0  0  0  0  0  0  0
    3.8202    0.9989   12.7902 C   0  0  0  0  0  0  0  0  0  0  0  0
    5.2949    1.7218   13.3468 S   0  0  0  0  0  0  0  0  0  0  0  0
    3.4904    0.9002   11.3965 C   0  0  0  0  0  0  0  0  0  0  0  0
    4.4294    0.8868   10.3627 C   0  0  0  0  0  0  0  0  0  0  0  0
    5.8195    0.8550   10.6356 C   0  0  0  0  0  0  0  0  0  0  0  0
    6.9493    0.7753   10.8121 N   0  0  0  0  0  0  0  0  0  0  0  0
    4.0802    0.8234    8.9868 C   0  0  0  0  0  0  0  0  0  0  0  0
    5.1811    0.8005    8.1034 C   0  0  0  0  0  0  0  0  0  0  0  0
    6.1051    0.7793    7.4225 N   0  0  0  0  0  0  0  0  0  0  0  0
    2.7470    0.7741    8.5455 C   0  0  0  0  0  0  0  0  0  0  0  0
    1.7802    0.7619    9.5912 C   0  0  0  0  0  0  0  0  0  0  0  0
    2.1336    0.8137   10.9823 C   0  0  0  0  0  0  0  0  0  0  0  0
    1.0556    0.7970   11.7636 N   0  0  0  0  0  0  0  0  0  0  0  0
   -0.2648    0.7190   10.8494 S   0  0  0  0  0  0  0  0  0  0  0  0
    0.4650    0.7053    9.4179 N   0  0  0  0  0  0  0  0  0  0  0  0
    2.3203    0.7244    7.1892 C   0  0  0  0  0  0  0  0  0  0  0  0
    0.5937    0.5939    6.8381 S   0  0  0  0  0  0  0  0  0  0  0  0
    0.9299    0.5692    5.1465 C   0  0  0  0  0  0  0  0  0  0  0  0
    0.3312    0.4779    3.8994 C   0  0  0  0  0  0  0  0  0  0  0  0
   -0.8945    0.3557    3.3435 O   0  0  0  0  0  0  0  0  0  0  0  0
   -0.6799    0.3050    1.9862 C   0  0  0  0  0  0  0  0  0  0  0  0
   -1.6602    0.1586    1.0171 C   0  0  0  0  0  0  0  0  0  0  0  0
   -3.0027    0.0764    1.1869 O   0  0  0  0  0  0  0  0  0  0  0  0
   -3.5550   -0.1217    2.4809 C   0  0  0  0  0  0  0  0  0  0  0  0
   -3.3610   -1.5479    2.9806 C   0  0  0  0  0  0  0  0  0  0  0  0
   -1.1860    0.1208   -0.3070 C   0  0  0  0  0  0  0  0  0  0  0  0
    0.2020    0.2309   -0.6254 C   0  0  0  0  0  0  0  0  0  0  0  0
    1.1821    0.3752    0.3446 C   0  0  0  0  0  0  0  0  0  0  0  0
    2.5186    0.4776    0.1591 O   0  0  0  0  0  0  0  0  0  0  0  0
    3.0404    0.5423   -1.1623 C   0  0  0  0  0  0  0  0  0  0  0  0
    4.5429    0.7411   -1.0486 C   0  0  0  0  0  0  0  0  0  0  0  0
    0.7102    0.4040    1.6686 C   0  0  0  0  0  0  0  0  0  0  0  0
    1.3522    0.5189    2.9290 C   0  0  0  0  0  0  0  0  0  0  0  0
    2.5677    0.6225    3.5370 N   0  0  0  0  0  0  0  0  0  0  0  0
    2.3240    0.6677    4.8871 C   0  0  0  0  0  0  0  0  0  0  0  0
    3.0954    0.7566    6.0372 C   0  0  0  0  0  0  0  0  0  0  0  0
    3.8636    0.7838    2.9250 C   0  0  0  0  0  0  0  0  0  0  0  0
    4.2181    2.2591    2.7585 C   0  0  0  0  0  0  0  0  0  0  0  0
    0.4222    0.1560   -1.9798 O   0  0  0  0  0  0  0  0  0  0  0  0
   -0.8002   -0.0038   -2.5341 C   0  0  0  0  0  0  0  0  0  0  0  0
   -1.3904   -0.1723   -3.7787 C   0  0  0  0  0  0  0  0  0  0  0  0
   -1.0412   -0.3026   -5.4627 S   0  0  0  0  0  0  0  0  0  0  0  0
   -2.7581   -0.5219   -5.8099 C   0  0  0  0  0  0  0  0  0  0  0  0
   -3.5420   -0.4892   -4.6651 C   0  0  0  0  0  0  0  0  0  0  0  0
   -2.7820   -0.2944   -3.5193 C   0  0  0  0  0  0  0  0  0  0  0  0
   -3.0310   -0.2198   -2.1718 N   0  0  0  0  0  0  0  0  0  0  0  0
   -4.3448   -0.2113   -1.5766 C   0  0  0  0  0  0  0  0  0  0  0  0
   -4.9574    1.1864   -1.6053 C   0  0  0  0  0  0  0  0  0  0  0  0
   -1.8238   -0.0291   -1.5665 C   0  0  0  0  0  0  0  0  0  0  0  0
   -3.1688   -0.7347   -7.1567 C   0  0  0  0  0  0  0  0  0  0  0  0
   -4.4962   -0.8969   -7.5889 C   0  0  0  0  0  0  0  0  0  0  0  0
   -5.6113   -0.7926   -6.7308 C   0  0  0  0  0  0  0  0  0  0  0  0
   -6.5566   -0.7075   -6.0849 N   0  0  0  0  0  0  0  0  0  0  0  0
   -4.8191   -1.1867   -8.9411 C   0  0  0  0  0  0  0  0  0  0  0  0
   -6.1799   -1.3994   -9.2718 C   0  0  0  0  0  0  0  0  0  0  0  0
   -7.2726   -1.5818   -9.5636 N   0  0  0  0  0  0  0  0  0  0  0  0
   -3.8609   -1.3490   -9.9372 C   0  0  0  0  0  0  0  0  0  0  0  0
   -2.5214   -1.1065   -9.5517 C   0  0  0  0  0  0  0  0  0  0  0  0
   -2.1891   -0.8095   -8.1881 C   0  0  0  0  0  0  0  0  0  0  0  0
   -0.8852   -0.6057   -8.0343 N   0  0  0  0  0  0  0  0  0  0  0  0
   -0.1556   -0.7543   -9.4585 S   0  0  0  0  0  0  0  0  0  0  0  0
   -1.4533   -1.0767  -10.3447 N   0  0  0  0  0  0  0  0  0  0  0  0
   -4.2110   -1.7086  -11.2888 C   0  0  0  0  0  0  0  0  0  0  0  0
   -3.5277   -2.6163  -12.0197 C   0  0  0  0  0  0  0  0  0  0  0  0
   -2.5280   -3.5820  -11.4590 C   0  0  0  0  0  0  0  0  0  0  0  0
   -2.2003   -3.7177  -10.3015 O   0  0  0  0  0  0  0  0  0  0  0  0
   -2.1296   -4.4078  -12.6010 C   0  0  0  0  0  0  0  0  0  0  0  0
   -2.8527   -4.0238  -13.7270 C   0  0  0  0  0  0  0  0  0  0  0  0
   -2.4920   -4.9497  -15.1377 S   0  0  0  0  0  0  0  0  0  0  0  0
   -1.3507   -5.8819  -14.2189 C   0  0  0  0  0  0  0  0  0  0  0  0
   -0.4903   -6.9509  -14.5278 C   0  0  0  0  0  0  0  0  0  0  0  0
    0.2204   -7.3354  -13.4337 C   0  0  0  0  0  0  0  0  0  0  0  0
   -0.1270   -6.4216  -12.0067 S   0  0  0  0  0  0  0  0  0  0  0  0
   -1.2708   -5.4767  -12.8792 C   0  0  0  0  0  0  0  0  0  0  0  0
   -3.7270   -2.9278  -13.4343 C   0  0  0  0  0  0  0  0  0  0  0  0
   -4.5330   -2.2898  -14.3403 C   0  0  0  0  0  0  0  0  0  0  0  0
   -4.5965   -2.7239  -15.6816 C   0  0  0  0  0  0  0  0  0  0  0  0
   -4.6520   -3.0749  -16.7724 N   0  0  0  0  0  0  0  0  0  0  0  0
   -5.3339   -1.1638  -14.0677 C   0  0  0  0  0  0  0  0  0  0  0  0
   -5.9884   -0.2336  -13.9138 N   0  0  0  0  0  0  0  0  0  0  0  0
    3.1407    0.5811   16.0288 H   0  0  0  0  0  0  0  0  0  0  0  0
    2.0703    0.1272   13.7094 H   0  0  0  0  0  0  0  0  0  0  0  0
   -4.6194    0.0882    2.3429 H   0  0  0  0  0  0  0  0  0  0  0  0
   -3.1411    0.5961    3.1931 H   0  0  0  0  0  0  0  0  0  0  0  0
   -3.8880   -1.6756    3.9214 H   0  0  0  0  0  0  0  0  0  0  0  0
   -3.7538   -2.2571    2.2555 H   0  0  0  0  0  0  0  0  0  0  0  0
   -2.3072   -1.7581    3.1418 H   0  0  0  0  0  0  0  0  0  0  0  0
    2.8141   -0.3853   -1.6992 H   0  0  0  0  0  0  0  0  0  0  0  0
    2.5827    1.3782   -1.7024 H   0  0  0  0  0  0  0  0  0  0  0  0
    4.7599    1.6567   -0.5049 H   0  0  0  0  0  0  0  0  0  0  0  0
    4.9766    0.8068   -2.0417 H   0  0  0  0  0  0  0  0  0  0  0  0
    4.9952   -0.0941   -0.5203 H   0  0  0  0  0  0  0  0  0  0  0  0
    4.1640    0.8427    6.0429 H   0  0  0  0  0  0  0  0  0  0  0  0
    3.8371    0.2964    1.9504 H   0  0  0  0  0  0  0  0  0  0  0  0
    4.6021    0.2891    3.5610 H   0  0  0  0  0  0  0  0  0  0  0  0
    4.2089    2.7652    3.7210 H   0  0  0  0  0  0  0  0  0  0  0  0
    5.2102    2.3533    2.3267 H   0  0  0  0  0  0  0  0  0  0  0  0
    3.5004    2.7435    2.1007 H   0  0  0  0  0  0  0  0  0  0  0  0
   -4.6074   -0.6098   -4.6716 H   0  0  0  0  0  0  0  0  0  0  0  0
   -4.2490   -0.5533   -0.5462 H   0  0  0  0  0  0  0  0  0  0  0  0
   -4.9736   -0.9093   -2.1353 H   0  0  0  0  0  0  0  0  0  0  0  0
   -4.3458    1.8732   -1.0255 H   0  0  0  0  0  0  0  0  0  0  0  0
   -5.0261    1.5518   -2.6273 H   0  0  0  0  0  0  0  0  0  0  0  0
   -5.9554    1.1607   -1.1777 H   0  0  0  0  0  0  0  0  0  0  0  0
   -5.0813   -1.2180  -11.7078 H   0  0  0  0  0  0  0  0  0  0  0  0
   -0.4058   -7.4037  -15.4978 H   0  0  0  0  0  0  0  0  0  0  0  0
    0.9471   -8.1214  -13.3745 H   0  0  0  0  0  0  0  0  0  0  0  0
  1  2  3  0  0  0  0
  2  3  1  0  0  0  0
  3  4  1  0  0  0  0
  4  5  3  0  0  0  0
  3  6  2  0  0  0  0
  6  7  1  0  0  0  0
  7  8  3  0  0  0  0
  6  9  1  0  0  0  0
  9 10  2  0  0  0  0
 10 11  1  0  0  0  0
 11 12  2  0  0  0  0
 12 13  1  0  0  0  0
 12 14  1  0  0  0  0
 14 15  2  0  0  0  0
 15 16  1  0  0  0  0
 16 17  3  0  0  0  0
 15 18  1  0  0  0  0
 18 19  1  0  0  0  0
 19 20  3  0  0  0  0
 18 21  2  0  0  0  0
 21 22  1  0  0  0  0
 22 23  1  0  0  0  0
 23 24  2  0  0  0  0
 24 25  1  0  0  0  0
 25 26  1  0  0  0  0
 21 27  1  0  0  0  0
 27 28  1  0  0  0  0
 28 29  1  0  0  0  0
 29 30  1  0  0  0  0
 30 31  1  0  0  0  0
 31 32  1  0  0  0  0
 32 33  2  0  0  0  0
 33 34  1  0  0  0  0
 34 35  1  0  0  0  0
 35 36  1  0  0  0  0
 33 37  1  0  0  0  0
 37 38  2  0  0  0  0
 38 39  1  0  0  0  0
 39 40  1  0  0  0  0
 40 41  1  0  0  0  0
 41 42  1  0  0  0  0
 39 43  2  0  0  0  0
 43 44  1  0  0  0  0
 44 45  1  0  0  0  0
 45 46  1  0  0  0  0
 46 47  1  0  0  0  0
 45 48  1  0  0  0  0
 48 49  1  0  0  0  0
 38 50  1  0  0  0  0
 50 51  1  0  0  0  0
 51 52  1  0  0  0  0
 52 53  1  0  0  0  0
 53 54  1  0  0  0  0
 54 55  2  0  0  0  0
 55 56  1  0  0  0  0
 56 57  1  0  0  0  0
 57 58  1  0  0  0  0
 58 59  1  0  0  0  0
 57 60  1  0  0  0  0
 54 61  1  0  0  0  0
 61 62  2  0  0  0  0
 62 63  1  0  0  0  0
 63 64  3  0  0  0  0
 62 65  1  0  0  0  0
 65 66  1  0  0  0  0
 66 67  3  0  0  0  0
 65 68  2  0  0  0  0
 68 69  1  0  0  0  0
 69 70  1  0  0  0  0
 70 71  2  0  0  0  0
 71 72  1  0  0  0  0
 72 73  1  0  0  0  0
 68 74  1  0  0  0  0
 74 75  2  0  0  0  0
 75 76  1  0  0  0  0
 76 77  2  0  0  0  0
 76 78  1  0  0  0  0
 78 79  2  0  0  0  0
 79 80  1  0  0  0  0
 80 81  1  0  0  0  0
 81 82  1  0  0  0  0
 82 83  2  0  0  0  0
 83 84  1  0  0  0  0
 84 85  1  0  0  0  0
 79 86  1  0  0  0  0
 86 87  2  0  0  0  0
 87 88  1  0  0  0  0
 88 89  3  0  0  0  0
 87 90  1  0  0  0  0
 90 91  3  0  0  0  0
 13  9  1  0  0  0  0
 23 14  1  0  0  0  0
 47 27  2  0  0  0  0
 60 51  2  0  0  0  0
 70 61  1  0  0  0  0
 86 75  1  0  0  0  0
 26 22  2  0  0  0  0
 46 29  2  0  0  0  0
 56 52  2  0  0  0  0
 73 69  2  0  0  0  0
 85 78  1  0  0  0  0
 44 30  2  0  0  0  0
 85 81  2  0  0  0  0
 43 32  1  0  0  0  0
 60 37  1  0  0  0  0
 10 92  1  0  0  0  0
 11 93  1  0  0  0  0
 35 94  1  0  0  0  0
 35 95  1  0  0  0  0
 36 96  1  0  0  0  0
 36 97  1  0  0  0  0
 36 98  1  0  0  0  0
 41 99  1  0  0  0  0
 41100  1  0  0  0  0
 42101  1  0  0  0  0
 42102  1  0  0  0  0
 42103  1  0  0  0  0
 47104  1  0  0  0  0
 48105  1  0  0  0  0
 48106  1  0  0  0  0
 49107  1  0  0  0  0
 49108  1  0  0  0  0
 49109  1  0  0  0  0
 55110  1  0  0  0  0
 58111  1  0  0  0  0
 58112  1  0  0  0  0
 59113  1  0  0  0  0
 59114  1  0  0  0  0
 59115  1  0  0  0  0
 74116  1  0  0  0  0
 82117  1  0  0  0  0
 83118  1  0  0  0  0
M  END
