
  xtb     02212214143D
 energy: -309.954988492431 gnorm: 0.000940066761 xtb: 6.4.1 (unknown)
185203  0     0  0            999 V2000
    8.4503    4.4478    7.5333 N   0  0  0  0  0  0  0  0  0  0  0  0
    8.8269    4.7630    8.5715 C   0  0  0  0  0  0  0  0  0  0  0  0
    9.3444    5.1231    9.8281 C   0  0  0  0  0  0  0  0  0  0  0  0
   10.7264    4.8895    9.9853 C   0  0  0  0  0  0  0  0  0  0  0  0
   11.8509    4.6923   10.0950 N   0  0  0  0  0  0  0  0  0  0  0  0
    8.5975    5.6631   10.8557 C   0  0  0  0  0  0  0  0  0  0  0  0
    9.2849    5.9592   12.0627 C   0  0  0  0  0  0  0  0  0  0  0  0
    9.8315    6.2058   13.0384 N   0  0  0  0  0  0  0  0  0  0  0  0
    7.2093    5.9560   10.8424 C   0  0  0  0  0  0  0  0  0  0  0  0
    6.4847    6.4918   11.9006 C   0  0  0  0  0  0  0  0  0  0  0  0
    5.1431    6.6770   11.6119 C   0  0  0  0  0  0  0  0  0  0  0  0
    4.8013    6.2875   10.3238 C   0  0  0  0  0  0  0  0  0  0  0  0
    6.1786    5.6827    9.4619 S   0  0  0  0  0  0  0  0  0  0  0  0
    3.5279    6.3419    9.7051 C   0  0  0  0  0  0  0  0  0  0  0  0
    2.3396    6.7952   10.2386 C   0  0  0  0  0  0  0  0  0  0  0  0
    1.2547    6.7016    9.3582 C   0  0  0  0  0  0  0  0  0  0  0  0
   -0.4075    7.1031    9.7631 S   0  0  0  0  0  0  0  0  0  0  0  0
   -0.4635    6.7300   11.5566 C   0  0  0  0  0  0  0  0  0  0  0  0
   -0.1857    5.2716   11.8610 C   0  0  0  0  0  0  0  0  0  0  0  0
    1.6108    6.1973    8.1126 C   0  0  0  0  0  0  0  0  0  0  0  0
    3.3058    5.8063    8.0640 S   0  0  0  0  0  0  0  0  0  0  0  0
    0.8139    5.9464    6.9609 C   0  0  0  0  0  0  0  0  0  0  0  0
   -0.2636    6.6494    6.4482 C   0  0  0  0  0  0  0  0  0  0  0  0
   -0.7256    7.9543    6.9156 C   0  0  0  0  0  0  0  0  0  0  0  0
   -2.0867    8.2446    6.9568 C   0  0  0  0  0  0  0  0  0  0  0  0
   -2.5126    9.4900    7.3754 C   0  0  0  0  0  0  0  0  0  0  0  0
   -1.5935   10.4552    7.7469 C   0  0  0  0  0  0  0  0  0  0  0  0
   -0.2308   10.1883    7.6993 C   0  0  0  0  0  0  0  0  0  0  0  0
    0.7715   11.2501    8.0507 C   0  0  0  0  0  0  0  0  0  0  0  0
    1.1131   12.0910    6.8192 C   0  0  0  0  0  0  0  0  0  0  0  0
    0.1912    8.9385    7.2764 C   0  0  0  0  0  0  0  0  0  0  0  0
   -0.7894    6.0063    5.3087 C   0  0  0  0  0  0  0  0  0  0  0  0
   -2.0982    6.4144    4.2254 S   0  0  0  0  0  0  0  0  0  0  0  0
   -1.7088    5.0271    3.2681 C   0  0  0  0  0  0  0  0  0  0  0  0
   -2.1810    4.3534    2.1309 C   0  0  0  0  0  0  0  0  0  0  0  0
   -3.3218    4.5724    1.3294 C   0  0  0  0  0  0  0  0  0  0  0  0
   -3.6293    3.6304    0.2918 C   0  0  0  0  0  0  0  0  0  0  0  0
   -4.7567    3.9216   -0.3386 N   0  0  0  0  0  0  0  0  0  0  0  0
   -5.3735    5.2700    0.3119 S   0  0  0  0  0  0  0  0  0  0  0  0
   -4.2283    5.5325    1.4260 N   0  0  0  0  0  0  0  0  0  0  0  0
   -2.7187    2.5848    0.0282 C   0  0  0  0  0  0  0  0  0  0  0  0
   -2.6900    1.6255   -0.9979 C   0  0  0  0  0  0  0  0  0  0  0  0
   -3.6438    1.1133   -2.3483 S   0  0  0  0  0  0  0  0  0  0  0  0
   -2.4205   -0.0686   -2.7441 C   0  0  0  0  0  0  0  0  0  0  0  0
   -2.3107   -1.0388   -3.7658 C   0  0  0  0  0  0  0  0  0  0  0  0
   -3.2319   -1.1713   -4.8919 C   0  0  0  0  0  0  0  0  0  0  0  0
   -2.7640   -1.5358   -6.1537 C   0  0  0  0  0  0  0  0  0  0  0  0
   -3.6414   -1.6372   -7.2153 C   0  0  0  0  0  0  0  0  0  0  0  0
   -4.9898   -1.3784   -7.0383 C   0  0  0  0  0  0  0  0  0  0  0  0
   -5.4716   -0.9931   -5.7949 C   0  0  0  0  0  0  0  0  0  0  0  0
   -6.9183   -0.6465   -5.5920 C   0  0  0  0  0  0  0  0  0  0  0  0
   -7.1089    0.8714   -5.5950 C   0  0  0  0  0  0  0  0  0  0  0  0
   -4.5836   -0.8845   -4.7355 C   0  0  0  0  0  0  0  0  0  0  0  0
   -1.1634   -1.7915   -3.6076 C   0  0  0  0  0  0  0  0  0  0  0  0
   -0.1644   -1.2420   -2.2715 S   0  0  0  0  0  0  0  0  0  0  0  0
   -1.3407   -0.0481   -1.8626 C   0  0  0  0  0  0  0  0  0  0  0  0
   -1.4932    0.9237   -0.8647 C   0  0  0  0  0  0  0  0  0  0  0  0
   -0.7886    1.3838    0.2183 N   0  0  0  0  0  0  0  0  0  0  0  0
   -1.5283    2.4127    0.7884 C   0  0  0  0  0  0  0  0  0  0  0  0
   -1.3223    3.2356    1.9266 C   0  0  0  0  0  0  0  0  0  0  0  0
   -0.3927    3.2102    2.9504 N   0  0  0  0  0  0  0  0  0  0  0  0
   -0.6217    4.2960    3.7537 C   0  0  0  0  0  0  0  0  0  0  0  0
   -0.1000    4.8523    4.9275 C   0  0  0  0  0  0  0  0  0  0  0  0
    1.2063    4.5209    6.0066 S   0  0  0  0  0  0  0  0  0  0  0  0
    0.4456    2.1339    3.4267 C   0  0  0  0  0  0  0  0  0  0  0  0
    1.9326    2.4272    3.2325 C   0  0  0  0  0  0  0  0  0  0  0  0
    0.6429    1.1701    0.2295 C   0  0  0  0  0  0  0  0  0  0  0  0
    1.3693    2.3027   -0.4933 C   0  0  0  0  0  0  0  0  0  0  0  0
   -0.8201   -3.0148   -4.2680 C   0  0  0  0  0  0  0  0  0  0  0  0
   -1.6453   -4.1159   -4.4508 C   0  0  0  0  0  0  0  0  0  0  0  0
   -2.9378   -4.2419   -3.9762 N   0  0  0  0  0  0  0  0  0  0  0  0
   -3.8695   -4.9804   -4.7222 C   0  0  0  0  0  0  0  0  0  0  0  0
   -4.8039   -5.7904   -4.0816 C   0  0  0  0  0  0  0  0  0  0  0  0
   -5.7105   -6.5209   -4.8218 C   0  0  0  0  0  0  0  0  0  0  0  0
   -5.7096   -6.4747   -6.2118 C   0  0  0  0  0  0  0  0  0  0  0  0
   -6.6790   -7.2974   -7.0033 C   0  0  0  0  0  0  0  0  0  0  0  0
   -4.7737   -5.6655   -6.8417 C   0  0  0  0  0  0  0  0  0  0  0  0
   -3.8652   -4.9237   -6.1128 C   0  0  0  0  0  0  0  0  0  0  0  0
   -3.3095   -3.6449   -2.7628 C   0  0  0  0  0  0  0  0  0  0  0  0
   -4.5766   -3.0876   -2.6075 C   0  0  0  0  0  0  0  0  0  0  0  0
   -4.8968   -2.4018   -1.4540 C   0  0  0  0  0  0  0  0  0  0  0  0
   -3.9750   -2.2519   -0.4235 C   0  0  0  0  0  0  0  0  0  0  0  0
   -4.3115   -1.4304    0.7828 C   0  0  0  0  0  0  0  0  0  0  0  0
   -2.7403   -2.8719   -0.5559 C   0  0  0  0  0  0  0  0  0  0  0  0
   -2.4108   -3.5697   -1.7017 C   0  0  0  0  0  0  0  0  0  0  0  0
   -0.9544   -5.1447   -5.1367 C   0  0  0  0  0  0  0  0  0  0  0  0
   -1.3842   -6.7444   -5.6268 S   0  0  0  0  0  0  0  0  0  0  0  0
    0.2407   -7.0022   -6.2546 C   0  0  0  0  0  0  0  0  0  0  0  0
    1.0881   -5.9187   -6.0173 C   0  0  0  0  0  0  0  0  0  0  0  0
    2.4478   -5.9074   -6.2315 N   0  0  0  0  0  0  0  0  0  0  0  0
    3.2128   -7.0796   -6.0760 C   0  0  0  0  0  0  0  0  0  0  0  0
    2.9205   -7.9967   -5.0720 C   0  0  0  0  0  0  0  0  0  0  0  0
    3.6227   -9.1839   -4.9905 C   0  0  0  0  0  0  0  0  0  0  0  0
    4.6392   -9.4813   -5.8890 C   0  0  0  0  0  0  0  0  0  0  0  0
    5.3786  -10.7808   -5.8354 C   0  0  0  0  0  0  0  0  0  0  0  0
    4.9586   -8.5351   -6.8573 C   0  0  0  0  0  0  0  0  0  0  0  0
    4.2584   -7.3506   -6.9556 C   0  0  0  0  0  0  0  0  0  0  0  0
    3.0893   -4.6942   -6.5294 C   0  0  0  0  0  0  0  0  0  0  0  0
    2.4936   -3.7780   -7.3920 C   0  0  0  0  0  0  0  0  0  0  0  0
    3.1234   -2.5821   -7.6763 C   0  0  0  0  0  0  0  0  0  0  0  0
    4.3590   -2.2734   -7.1224 C   0  0  0  0  0  0  0  0  0  0  0  0
    5.0528   -0.9870   -7.4481 C   0  0  0  0  0  0  0  0  0  0  0  0
    4.9520   -3.2011   -6.2722 C   0  0  0  0  0  0  0  0  0  0  0  0
    4.3301   -4.3954   -5.9725 C   0  0  0  0  0  0  0  0  0  0  0  0
    0.3737   -4.8570   -5.4122 C   0  0  0  0  0  0  0  0  0  0  0  0
    0.8186   -3.2865   -4.8408 S   0  0  0  0  0  0  0  0  0  0  0  0
    0.5725   -8.2282   -6.8849 C   0  0  0  0  0  0  0  0  0  0  0  0
    1.5003   -8.4354   -7.8959 C   0  0  0  0  0  0  0  0  0  0  0  0
    1.6963   -9.7713   -8.2032 C   0  0  0  0  0  0  0  0  0  0  0  0
    0.8983  -10.6261   -7.4592 C   0  0  0  0  0  0  0  0  0  0  0  0
    0.8352  -12.0435   -7.4822 C   0  0  0  0  0  0  0  0  0  0  0  0
    1.7928  -12.8861   -8.0144 C   0  0  0  0  0  0  0  0  0  0  0  0
    1.6045  -14.2830   -8.0230 C   0  0  0  0  0  0  0  0  0  0  0  0
    1.4683  -15.4219   -8.0444 N   0  0  0  0  0  0  0  0  0  0  0  0
    3.0315  -12.4553   -8.5165 C   0  0  0  0  0  0  0  0  0  0  0  0
    4.0722  -12.1448   -8.8913 N   0  0  0  0  0  0  0  0  0  0  0  0
   -0.2992  -12.6481   -6.8822 C   0  0  0  0  0  0  0  0  0  0  0  0
   -1.2232  -13.1233   -6.3998 N   0  0  0  0  0  0  0  0  0  0  0  0
   -0.1314   -9.7254   -6.3692 S   0  0  0  0  0  0  0  0  0  0  0  0
    6.9376    6.7331   12.8464 H   0  0  0  0  0  0  0  0  0  0  0  0
    4.4329    7.0805   12.3098 H   0  0  0  0  0  0  0  0  0  0  0  0
    2.2653    7.1796   11.2386 H   0  0  0  0  0  0  0  0  0  0  0  0
    0.2231    7.3987   12.0739 H   0  0  0  0  0  0  0  0  0  0  0  0
   -1.4830    6.9992   11.8318 H   0  0  0  0  0  0  0  0  0  0  0  0
    0.8238    4.9961   11.5619 H   0  0  0  0  0  0  0  0  0  0  0  0
   -0.2916    5.0914   12.9289 H   0  0  0  0  0  0  0  0  0  0  0  0
   -0.8887    4.6357   11.3285 H   0  0  0  0  0  0  0  0  0  0  0  0
   -2.8053    7.4872    6.6845 H   0  0  0  0  0  0  0  0  0  0  0  0
   -3.5693    9.7087    7.4146 H   0  0  0  0  0  0  0  0  0  0  0  0
   -1.9345   11.4259    8.0772 H   0  0  0  0  0  0  0  0  0  0  0  0
    1.6826   10.7864    8.4349 H   0  0  0  0  0  0  0  0  0  0  0  0
    0.3640   11.8993    8.8283 H   0  0  0  0  0  0  0  0  0  0  0  0
    1.8391   12.8601    7.0723 H   0  0  0  0  0  0  0  0  0  0  0  0
    0.2185   12.5714    6.4297 H   0  0  0  0  0  0  0  0  0  0  0  0
    1.5310   11.4620    6.0364 H   0  0  0  0  0  0  0  0  0  0  0  0
    1.2496    8.7268    7.2151 H   0  0  0  0  0  0  0  0  0  0  0  0
   -1.7101   -1.7187   -6.3032 H   0  0  0  0  0  0  0  0  0  0  0  0
   -3.2715   -1.9160   -8.1917 H   0  0  0  0  0  0  0  0  0  0  0  0
   -5.6696   -1.4676   -7.8731 H   0  0  0  0  0  0  0  0  0  0  0  0
   -7.5217   -1.0910   -6.3858 H   0  0  0  0  0  0  0  0  0  0  0  0
   -7.2620   -1.0477   -4.6360 H   0  0  0  0  0  0  0  0  0  0  0  0
   -8.1564    1.1231   -5.4474 H   0  0  0  0  0  0  0  0  0  0  0  0
   -6.7811    1.2912   -6.5436 H   0  0  0  0  0  0  0  0  0  0  0  0
   -6.5255    1.3279   -4.7986 H   0  0  0  0  0  0  0  0  0  0  0  0
   -4.9547   -0.5883   -3.7666 H   0  0  0  0  0  0  0  0  0  0  0  0
    0.1384    1.2077    2.9392 H   0  0  0  0  0  0  0  0  0  0  0  0
    0.2529    2.0170    4.4995 H   0  0  0  0  0  0  0  0  0  0  0  0
    2.2296    3.2657    3.8565 H   0  0  0  0  0  0  0  0  0  0  0  0
    2.1593    2.6779    2.2004 H   0  0  0  0  0  0  0  0  0  0  0  0
    2.5203    1.5613    3.5248 H   0  0  0  0  0  0  0  0  0  0  0  0
    0.8215    0.2267   -0.2930 H   0  0  0  0  0  0  0  0  0  0  0  0
    1.0200    1.0650    1.2417 H   0  0  0  0  0  0  0  0  0  0  0  0
    1.0326    2.3664   -1.5255 H   0  0  0  0  0  0  0  0  0  0  0  0
    1.1691    3.2562   -0.0085 H   0  0  0  0  0  0  0  0  0  0  0  0
    2.4405    2.1202   -0.4890 H   0  0  0  0  0  0  0  0  0  0  0  0
   -4.8101   -5.8454   -3.0030 H   0  0  0  0  0  0  0  0  0  0  0  0
   -6.4274   -7.1476   -4.3116 H   0  0  0  0  0  0  0  0  0  0  0  0
   -6.8063   -6.8928   -8.0045 H   0  0  0  0  0  0  0  0  0  0  0  0
   -7.6482   -7.3347   -6.5108 H   0  0  0  0  0  0  0  0  0  0  0  0
   -6.3108   -8.3197   -7.0947 H   0  0  0  0  0  0  0  0  0  0  0  0
   -4.7568   -5.6082   -7.9205 H   0  0  0  0  0  0  0  0  0  0  0  0
   -3.1559   -4.2858   -6.6179 H   0  0  0  0  0  0  0  0  0  0  0  0
   -5.2944   -3.1759   -3.4091 H   0  0  0  0  0  0  0  0  0  0  0  0
   -5.8746   -1.9519   -1.3581 H   0  0  0  0  0  0  0  0  0  0  0  0
   -4.4069   -0.3800    0.5057 H   0  0  0  0  0  0  0  0  0  0  0  0
   -3.5375   -1.5162    1.5415 H   0  0  0  0  0  0  0  0  0  0  0  0
   -5.2607   -1.7467    1.2120 H   0  0  0  0  0  0  0  0  0  0  0  0
   -2.0179   -2.8040    0.2453 H   0  0  0  0  0  0  0  0  0  0  0  0
   -1.4451   -4.0474   -1.7827 H   0  0  0  0  0  0  0  0  0  0  0  0
    2.1328   -7.7845   -4.3638 H   0  0  0  0  0  0  0  0  0  0  0  0
    3.3714   -9.8915   -4.2134 H   0  0  0  0  0  0  0  0  0  0  0  0
    6.4399  -10.6080   -5.6625 H   0  0  0  0  0  0  0  0  0  0  0  0
    4.9962  -11.4172   -5.0414 H   0  0  0  0  0  0  0  0  0  0  0  0
    5.2794  -11.3062   -6.7849 H   0  0  0  0  0  0  0  0  0  0  0  0
    5.7543   -8.7429   -7.5569 H   0  0  0  0  0  0  0  0  0  0  0  0
    4.5045   -6.6337   -7.7256 H   0  0  0  0  0  0  0  0  0  0  0  0
    1.5394   -4.0111   -7.8424 H   0  0  0  0  0  0  0  0  0  0  0  0
    2.6479   -1.8803   -8.3459 H   0  0  0  0  0  0  0  0  0  0  0  0
    5.7934   -1.1499   -8.2319 H   0  0  0  0  0  0  0  0  0  0  0  0
    4.3448   -0.2413   -7.8007 H   0  0  0  0  0  0  0  0  0  0  0  0
    5.5719   -0.5973   -6.5752 H   0  0  0  0  0  0  0  0  0  0  0  0
    5.9127   -2.9792   -5.8308 H   0  0  0  0  0  0  0  0  0  0  0  0
    4.7961   -5.1019   -5.3018 H   0  0  0  0  0  0  0  0  0  0  0  0
    1.9922   -7.6285   -8.4057 H   0  0  0  0  0  0  0  0  0  0  0  0
    2.3770  -10.1118   -8.9616 H   0  0  0  0  0  0  0  0  0  0  0  0
  1  2  3  0  0  0  0
  2  3  1  0  0  0  0
  3  4  1  0  0  0  0
  4  5  3  0  0  0  0
  3  6  2  0  0  0  0
  6  7  1  0  0  0  0
  7  8  3  0  0  0  0
  6  9  1  0  0  0  0
  9 10  2  0  0  0  0
 10 11  1  0  0  0  0
 11 12  2  0  0  0  0
 12 13  1  0  0  0  0
 12 14  1  0  0  0  0
 14 15  2  0  0  0  0
 15 16  1  0  0  0  0
 16 17  1  0  0  0  0
 17 18  1  0  0  0  0
 18 19  1  0  0  0  0
 16 20  2  0  0  0  0
 20 21  1  0  0  0  0
 20 22  1  0  0  0  0
 22 23  2  0  0  0  0
 23 24  1  0  0  0  0
 24 25  2  0  0  0  0
 25 26  1  0  0  0  0
 26 27  2  0  0  0  0
 27 28  1  0  0  0  0
 28 29  1  0  0  0  0
 29 30  1  0  0  0  0
 28 31  2  0  0  0  0
 23 32  1  0  0  0  0
 32 33  1  0  0  0  0
 33 34  1  0  0  0  0
 34 35  1  0  0  0  0
 35 36  1  0  0  0  0
 36 37  1  0  0  0  0
 37 38  2  0  0  0  0
 38 39  1  0  0  0  0
 39 40  1  0  0  0  0
 37 41  1  0  0  0  0
 41 42  1  0  0  0  0
 42 43  1  0  0  0  0
 43 44  1  0  0  0  0
 44 45  1  0  0  0  0
 45 46  1  0  0  0  0
 46 47  2  0  0  0  0
 47 48  1  0  0  0  0
 48 49  2  0  0  0  0
 49 50  1  0  0  0  0
 50 51  1  0  0  0  0
 51 52  1  0  0  0  0
 50 53  2  0  0  0  0
 45 54  2  0  0  0  0
 54 55  1  0  0  0  0
 55 56  1  0  0  0  0
 56 57  1  0  0  0  0
 57 58  1  0  0  0  0
 58 59  1  0  0  0  0
 59 60  1  0  0  0  0
 60 61  1  0  0  0  0
 61 62  1  0  0  0  0
 62 63  1  0  0  0  0
 63 64  1  0  0  0  0
 61 65  1  0  0  0  0
 65 66  1  0  0  0  0
 58 67  1  0  0  0  0
 67 68  1  0  0  0  0
 54 69  1  0  0  0  0
 69 70  2  0  0  0  0
 70 71  1  0  0  0  0
 71 72  1  0  0  0  0
 72 73  2  0  0  0  0
 73 74  1  0  0  0  0
 74 75  2  0  0  0  0
 75 76  1  0  0  0  0
 75 77  1  0  0  0  0
 77 78  2  0  0  0  0
 71 79  1  0  0  0  0
 79 80  2  0  0  0  0
 80 81  1  0  0  0  0
 81 82  2  0  0  0  0
 82 83  1  0  0  0  0
 82 84  1  0  0  0  0
 84 85  2  0  0  0  0
 70 86  1  0  0  0  0
 86 87  1  0  0  0  0
 87 88  1  0  0  0  0
 88 89  2  0  0  0  0
 89 90  1  0  0  0  0
 90 91  1  0  0  0  0
 91 92  2  0  0  0  0
 92 93  1  0  0  0  0
 93 94  2  0  0  0  0
 94 95  1  0  0  0  0
 94 96  1  0  0  0  0
 96 97  2  0  0  0  0
 90 98  1  0  0  0  0
 98 99  2  0  0  0  0
 99100  1  0  0  0  0
100101  2  0  0  0  0
101102  1  0  0  0  0
101103  1  0  0  0  0
103104  2  0  0  0  0
 89105  1  0  0  0  0
105106  1  0  0  0  0
 88107  1  0  0  0  0
107108  2  0  0  0  0
108109  1  0  0  0  0
109110  2  0  0  0  0
110111  1  0  0  0  0
111112  2  0  0  0  0
112113  1  0  0  0  0
113114  3  0  0  0  0
112115  1  0  0  0  0
115116  3  0  0  0  0
111117  1  0  0  0  0
117118  3  0  0  0  0
110119  1  0  0  0  0
 13  9  1  0  0  0  0
 21 14  1  0  0  0  0
 64 22  1  0  0  0  0
106 69  1  0  0  0  0
119107  1  0  0  0  0
 31 24  1  0  0  0  0
 63 32  2  0  0  0  0
 78 72  1  0  0  0  0
 85 79  1  0  0  0  0
105 86  2  0  0  0  0
 62 34  2  0  0  0  0
 97 91  1  0  0  0  0
104 98  1  0  0  0  0
 60 35  2  0  0  0  0
 40 36  2  0  0  0  0
 59 41  2  0  0  0  0
 57 42  2  0  0  0  0
 56 44  2  0  0  0  0
 53 46  1  0  0  0  0
 10120  1  0  0  0  0
 11121  1  0  0  0  0
 15122  1  0  0  0  0
 18123  1  0  0  0  0
 18124  1  0  0  0  0
 19125  1  0  0  0  0
 19126  1  0  0  0  0
 19127  1  0  0  0  0
 25128  1  0  0  0  0
 26129  1  0  0  0  0
 27130  1  0  0  0  0
 29131  1  0  0  0  0
 29132  1  0  0  0  0
 30133  1  0  0  0  0
 30134  1  0  0  0  0
 30135  1  0  0  0  0
 31136  1  0  0  0  0
 47137  1  0  0  0  0
 48138  1  0  0  0  0
 49139  1  0  0  0  0
 51140  1  0  0  0  0
 51141  1  0  0  0  0
 52142  1  0  0  0  0
 52143  1  0  0  0  0
 52144  1  0  0  0  0
 53145  1  0  0  0  0
 65146  1  0  0  0  0
 65147  1  0  0  0  0
 66148  1  0  0  0  0
 66149  1  0  0  0  0
 66150  1  0  0  0  0
 67151  1  0  0  0  0
 67152  1  0  0  0  0
 68153  1  0  0  0  0
 68154  1  0  0  0  0
 68155  1  0  0  0  0
 73156  1  0  0  0  0
 74157  1  0  0  0  0
 76158  1  0  0  0  0
 76159  1  0  0  0  0
 76160  1  0  0  0  0
 77161  1  0  0  0  0
 78162  1  0  0  0  0
 80163  1  0  0  0  0
 81164  1  0  0  0  0
 83165  1  0  0  0  0
 83166  1  0  0  0  0
 83167  1  0  0  0  0
 84168  1  0  0  0  0
 85169  1  0  0  0  0
 92170  1  0  0  0  0
 93171  1  0  0  0  0
 95172  1  0  0  0  0
 95173  1  0  0  0  0
 95174  1  0  0  0  0
 96175  1  0  0  0  0
 97176  1  0  0  0  0
 99177  1  0  0  0  0
100178  1  0  0  0  0
102179  1  0  0  0  0
102180  1  0  0  0  0
102181  1  0  0  0  0
103182  1  0  0  0  0
104183  1  0  0  0  0
108184  1  0  0  0  0
109185  1  0  0  0  0
M  END
