157

N         -4.49780        2.74640      -17.90950
C         -3.88400        2.44120      -16.99060
C         -3.14740        2.06080      -15.84800
C         -3.92780        1.58320      -14.77870
N         -4.60700        1.19630      -13.93800
C         -1.77350        2.16250      -15.82840
C         -1.14890        2.65750      -17.00490
N         -0.64160        3.05700      -17.95050
C         -0.90400        1.83010      -14.75440
C          0.48140        1.93020      -14.77760
C          1.07890        1.55190      -13.58530
C          0.16580        1.15510      -12.62020
S         -1.45900        1.24850      -13.20830
C          0.42830        0.73680      -11.28690
C          1.64380        0.62810      -10.66410
C          1.54810        0.22890       -9.31310
C          2.59320       -0.00950       -8.39980
C          3.99170        0.17600       -8.74720
S          4.56430        1.67320       -9.42430
C          6.21020        1.13530       -9.43470
C          7.29920        2.00410       -9.95910
C          7.20110        2.16160      -11.47760
C          6.29110       -0.13570       -8.95070
Cl         7.75520       -1.01910       -8.80530
C          5.04020       -0.68120       -8.55400
Cl         4.89270       -2.28780       -7.98110
C          2.22960       -0.40480       -7.12090
C          0.88430       -0.59050       -6.71410
C         -0.15920       -0.37820       -7.63270
C         -1.54790       -0.58430       -7.25750
S         -2.07030       -2.09500       -6.56980
C         -3.71530       -1.56920       -6.46300
C         -4.78550       -2.47880       -5.96990
C         -5.31270       -3.36500       -7.10110
C         -3.83730       -0.29740       -6.93760
C         -2.61140        0.26560       -7.38530
Cl        -2.49570        1.88320       -7.93810
Cl        -5.31820        0.56750       -6.98840
C          0.20140        0.03070       -8.91010
S         -0.89850        0.32680      -10.22120
C          0.79250       -0.91310       -5.34130
C          2.00490       -0.97530       -4.71080
S          3.33370       -0.64640       -5.80090
C          2.24850       -1.20050       -3.32830
C          3.46550       -1.34960       -2.69170
C          4.74920       -1.41460       -3.41020
C          5.14730       -2.59910       -4.01940
C          6.32850       -2.63610       -4.73680
C          7.10440       -1.49780       -4.85970
C          6.72430       -0.31050       -4.24660
C          7.53330        0.93980       -4.43500
C          7.15020        1.61600       -5.75320
C          5.54770       -0.28260       -3.51320
C          3.31120       -1.42950       -1.29850
S          4.45530       -1.55880        0.01410
C          3.13880       -1.47680        1.13680
C          2.92280       -1.45930        2.52760
C          3.76730       -1.64790        3.64560
C          3.19310       -1.66880        4.96710
N          4.09490       -1.92130        5.90230
S          5.53710       -2.10920        5.19310
N          5.07070       -1.87680        3.66160
C          1.82440       -1.35430        5.13030
C          1.01820       -1.11730        6.25950
S          1.12350       -1.18240        7.98580
C         -0.50740       -0.56390        8.08950
C         -1.35670       -0.27380        9.17520
C         -1.01370       -0.53130       10.57280
C         -1.93360       -1.13320       11.42860
C         -1.59240       -1.37390       12.74520
C         -0.34070       -1.01960       13.21790
C          0.59340       -0.43150       12.37450
C          1.93650       -0.00480       12.89080
C          1.88300        1.44880       13.36550
C          0.24710       -0.19500       11.05310
C         -2.58290        0.19230        8.73290
S         -2.70860        0.23490        6.98280
C         -1.08900       -0.33570        6.83910
C         -0.21690       -0.65350        5.79300
N         -0.22470       -0.61840        4.42000
C          1.01370       -1.06960        4.00140
C          1.52630       -1.28620        2.70550
N          0.89790       -1.27790        1.47350
C          1.88430       -1.37460        0.52310
C          1.98180       -1.35180       -0.87160
S          0.89500       -1.19210       -2.20530
C         -0.44440       -1.75050        1.19640
C         -0.43130       -3.19330        0.69230
C         -1.07640        0.32810        3.72720
C         -0.76130        1.76360        4.14740
C         -3.68570        0.67870        9.52580
C         -5.02000        0.40500        9.19680
F         -5.29140       -0.35370        8.12530
C         -6.07730        0.86480        9.95770
F         -7.31720        0.53700        9.56550
C         -5.89770        1.65450       11.10550
C         -4.55860        1.94330       11.42050
F         -4.26150        2.69230       12.49170
C         -3.50040        1.48460       10.65850
F         -2.26600        1.87300       11.00290
C         -7.01170        2.13510       11.88770
C         -7.00940        3.12120       12.86120
C         -8.25580        3.34530       13.43140
C         -9.24470        2.52900       12.90930
C        -10.63230        2.45590       13.23010
C        -11.30630        3.20680       14.16600
C        -10.73240        4.19630       14.98620
N        -10.31030        5.01120       15.67530
C        -12.69240        3.02030       14.37060
N        -13.81620        2.88590       14.55070
C        -11.40100        1.50390       12.50670
N        -12.01280        0.73260       11.92230
S         -8.60200        1.47920       11.67840
H          1.02230        2.27130      -15.64300
H          2.13960        1.56680      -13.41660
H          2.57750        0.82880      -11.15510
H          7.23530        2.98840       -9.49010
H          8.25740        1.55490       -9.69410
H          8.00800        2.79230      -11.84010
H          7.27220        1.19190      -11.96410
H          6.25230        2.61930      -11.74800
H         -4.38810       -3.10730       -5.17100
H         -5.60090       -1.87400       -5.56920
H         -5.72330       -2.75240       -7.89950
H         -6.09440       -4.02070       -6.72750
H         -4.50970       -3.97480       -7.50840
H         -0.13680       -1.07910       -4.82670
H          4.52670       -3.47940       -3.93590
H          6.63860       -3.55490       -5.21220
H          8.01610       -1.52880       -5.43840
H          8.59740        0.69640       -4.45200
H          7.35200        1.62800       -3.60750
H          7.71140        2.53790       -5.88660
H          6.08720        1.84850       -5.76490
H          7.36250        0.95610       -6.59030
H          5.23250        0.63310       -3.03320
H         -2.90380       -1.42890       11.05500
H         -2.30640       -1.84280       13.40630
H         -0.08430       -1.20660       14.25050
H          2.68270       -0.09910       12.09970
H          2.23490       -0.64560       13.72260
H          1.15680        1.55880       14.16770
H          1.58810        2.10270       12.54820
H          2.85680        1.76500       13.73180
H          0.95850        0.27680       10.39160
H         -1.02800       -1.71480        2.11500
H         -0.89980       -1.09960        0.44270
H          0.05730       -3.83990        1.41800
H         -1.45220       -3.53640        0.55010
H          0.09360       -3.27160       -0.25530
H         -0.91610        0.24220        2.65510
H         -2.11870        0.09030        3.96170
H         -0.95260        1.91260        5.20630
H          0.28330        1.99150        3.94600
H         -1.38440        2.45220        3.58380
H         -6.13740        3.67690       13.14790
H         -8.42920        4.07860       14.19710
