
  xtb     02102219083D
 energy: -228.861146413135 gnorm: 0.000260841691 xtb: 6.4.1 (unknown)
123135  0     0  0            999 V2000
    1.6149    8.8132   -0.4489 C   0  0  0  0  0  0  0  0  0  0  0  0
    1.7201    9.3184    0.8225 C   0  0  0  0  0  0  0  0  0  0  0  0
    1.8875    8.5310    2.0581 C   0  0  0  0  0  0  0  0  0  0  0  0
    1.9649    7.3225    2.1764 O   0  0  0  0  0  0  0  0  0  0  0  0
    1.9340    9.5314    3.1230 C   0  0  0  0  0  0  0  0  0  0  0  0
    2.1034    9.5091    4.8243 S   0  0  0  0  0  0  0  0  0  0  0  0
    2.0020   11.2461    4.8363 C   0  0  0  0  0  0  0  0  0  0  0  0
    2.1071   12.1711    6.4620 Br  0  0  0  0  0  0  0  0  0  0  0  0
    1.8464   11.8112    3.6005 C   0  0  0  0  0  0  0  0  0  0  0  0
    1.8075   10.8135    2.6102 C   0  0  0  0  0  0  0  0  0  0  0  0
    1.6679   10.7273    1.1655 C   0  0  0  0  0  0  0  0  0  0  0  0
    1.5137   11.8131    0.3431 C   0  0  0  0  0  0  0  0  0  0  0  0
    1.4784   13.1277    0.8541 C   0  0  0  0  0  0  0  0  0  0  0  0
    1.4449   14.2052    1.2474 N   0  0  0  0  0  0  0  0  0  0  0  0
    1.3718   11.7835   -1.0581 C   0  0  0  0  0  0  0  0  0  0  0  0
    1.2507   11.8432   -2.1989 N   0  0  0  0  0  0  0  0  0  0  0  0
    1.6395    7.4922   -0.9134 C   0  0  0  0  0  0  0  0  0  0  0  0
    1.4618    7.1659   -2.2572 C   0  0  0  0  0  0  0  0  0  0  0  0
    1.4878    5.8030   -2.5296 C   0  0  0  0  0  0  0  0  0  0  0  0
    1.2157    5.2498   -3.8622 C   0  0  0  0  0  0  0  0  0  0  0  0
    1.8336    5.7951   -4.9778 C   0  0  0  0  0  0  0  0  0  0  0  0
    1.5747    5.2784   -6.2451 C   0  0  0  0  0  0  0  0  0  0  0  0
    0.6982    4.2078   -6.3954 C   0  0  0  0  0  0  0  0  0  0  0  0
    0.0717    3.6685   -5.2751 C   0  0  0  0  0  0  0  0  0  0  0  0
   -0.7922    2.6190   -5.3086 O   0  0  0  0  0  0  0  0  0  0  0  0
   -1.0904    2.0045   -6.5461 C   0  0  0  0  0  0  0  0  0  0  0  0
   -2.0424    0.8509   -6.2712 C   0  0  0  0  0  0  0  0  0  0  0  0
    0.3207    4.1981   -4.0137 C   0  0  0  0  0  0  0  0  0  0  0  0
    2.2321    5.8812   -7.2683 O   0  0  0  0  0  0  0  0  0  0  0  0
    2.0121    5.4398   -8.5930 C   0  0  0  0  0  0  0  0  0  0  0  0
    2.8423    6.3182   -9.5156 C   0  0  0  0  0  0  0  0  0  0  0  0
    1.7195    5.0506   -1.3759 C   0  0  0  0  0  0  0  0  0  0  0  0
    1.8648    6.0397    0.0294 S   0  0  0  0  0  0  0  0  0  0  0  0
    1.8317    3.6149   -1.2621 C   0  0  0  0  0  0  0  0  0  0  0  0
    2.3702    2.8488   -2.3136 C   0  0  0  0  0  0  0  0  0  0  0  0
    2.3940    1.4744   -2.2704 C   0  0  0  0  0  0  0  0  0  0  0  0
    1.8738    0.8403   -1.1467 C   0  0  0  0  0  0  0  0  0  0  0  0
    1.7289   -0.4927   -0.8797 N   0  0  0  0  0  0  0  0  0  0  0  0
    2.0073   -1.5607   -1.8025 C   0  0  0  0  0  0  0  0  0  0  0  0
    0.8233   -1.8174   -2.7340 C   0  0  0  0  0  0  0  0  0  0  0  0
    1.1418   -0.6360    0.3590 C   0  0  0  0  0  0  0  0  0  0  0  0
    0.9505    0.6510    0.9349 C   0  0  0  0  0  0  0  0  0  0  0  0
    1.4002    1.5982   -0.0456 C   0  0  0  0  0  0  0  0  0  0  0  0
    1.3851    2.9793   -0.1040 C   0  0  0  0  0  0  0  0  0  0  0  0
    0.4159    0.8066    2.2057 C   0  0  0  0  0  0  0  0  0  0  0  0
    0.0512   -0.3520    2.8674 C   0  0  0  0  0  0  0  0  0  0  0  0
    0.1973   -1.6343    2.2714 C   0  0  0  0  0  0  0  0  0  0  0  0
    0.7552   -1.7933    1.0129 C   0  0  0  0  0  0  0  0  0  0  0  0
   -0.3192   -2.5783    3.2233 C   0  0  0  0  0  0  0  0  0  0  0  0
   -0.4882   -3.9461    3.1866 C   0  0  0  0  0  0  0  0  0  0  0  0
   -1.0717   -4.5917    4.2825 C   0  0  0  0  0  0  0  0  0  0  0  0
   -1.4456   -3.8309    5.4104 C   0  0  0  0  0  0  0  0  0  0  0  0
   -1.2740   -2.4686    5.4637 C   0  0  0  0  0  0  0  0  0  0  0  0
   -0.7267   -1.8244    4.3559 C   0  0  0  0  0  0  0  0  0  0  0  0
   -0.5128   -0.5003    4.1213 N   0  0  0  0  0  0  0  0  0  0  0  0
   -0.7476    0.5704    5.0537 C   0  0  0  0  0  0  0  0  0  0  0  0
    0.4925    0.8581    5.8988 C   0  0  0  0  0  0  0  0  0  0  0  0
   -1.3474   -6.0139    4.2446 C   0  0  0  0  0  0  0  0  0  0  0  0
   -0.6674   -6.9358    3.4619 C   0  0  0  0  0  0  0  0  0  0  0  0
    0.4315   -6.5689    2.7780 F   0  0  0  0  0  0  0  0  0  0  0  0
   -1.0274   -8.2916    3.3270 C   0  0  0  0  0  0  0  0  0  0  0  0
   -0.2182   -9.0487    2.5804 F   0  0  0  0  0  0  0  0  0  0  0  0
   -2.1025   -8.8697    3.9805 C   0  0  0  0  0  0  0  0  0  0  0  0
   -2.7596   -7.9946    4.8821 C   0  0  0  0  0  0  0  0  0  0  0  0
   -2.4015   -6.6011    5.0066 C   0  0  0  0  0  0  0  0  0  0  0  0
   -3.2301   -6.0758    5.8875 N   0  0  0  0  0  0  0  0  0  0  0  0
   -4.0348   -7.0555    6.2852 O   0  0  0  0  0  0  0  0  0  0  0  0
   -3.7755   -8.2167    5.6901 N   0  0  0  0  0  0  0  0  0  0  0  0
   -2.5324  -10.2284    3.8198 C   0  0  0  0  0  0  0  0  0  0  0  0
   -2.5741  -10.8815    2.6302 C   0  0  0  0  0  0  0  0  0  0  0  0
   -2.5446  -10.1996    1.3027 C   0  0  0  0  0  0  0  0  0  0  0  0
   -2.3761   -9.0225    1.0774 O   0  0  0  0  0  0  0  0  0  0  0  0
   -2.8986  -11.2433    0.3239 C   0  0  0  0  0  0  0  0  0  0  0  0
   -3.0383  -11.1255   -1.0469 C   0  0  0  0  0  0  0  0  0  0  0  0
   -3.3917  -12.2483   -1.7764 C   0  0  0  0  0  0  0  0  0  0  0  0
   -3.6072  -13.4584   -1.1242 C   0  0  0  0  0  0  0  0  0  0  0  0
   -4.0556  -14.8397   -2.0486 Cl  0  0  0  0  0  0  0  0  0  0  0  0
   -3.4746  -13.5898    0.2546 C   0  0  0  0  0  0  0  0  0  0  0  0
   -3.1136  -12.4674    0.9816 C   0  0  0  0  0  0  0  0  0  0  0  0
   -2.8888  -12.2826    2.4132 C   0  0  0  0  0  0  0  0  0  0  0  0
   -2.8875  -13.2662    3.3627 C   0  0  0  0  0  0  0  0  0  0  0  0
   -3.1709  -14.6239    3.0989 C   0  0  0  0  0  0  0  0  0  0  0  0
   -3.3989  -15.7385    2.9493 N   0  0  0  0  0  0  0  0  0  0  0  0
   -2.5717  -13.0656    4.7248 C   0  0  0  0  0  0  0  0  0  0  0  0
   -2.3038  -12.9835    5.8376 N   0  0  0  0  0  0  0  0  0  0  0  0
    1.4849    9.5380   -1.2442 H   0  0  0  0  0  0  0  0  0  0  0  0
    1.7675   12.8699    3.4366 H   0  0  0  0  0  0  0  0  0  0  0  0
    1.2826    7.9160   -3.0077 H   0  0  0  0  0  0  0  0  0  0  0  0
    2.5328    6.6102   -4.8859 H   0  0  0  0  0  0  0  0  0  0  0  0
    0.5040    3.8010   -7.3733 H   0  0  0  0  0  0  0  0  0  0  0  0
   -1.5606    2.7288   -7.2258 H   0  0  0  0  0  0  0  0  0  0  0  0
   -0.1689    1.6294   -7.0141 H   0  0  0  0  0  0  0  0  0  0  0  0
   -1.5777    0.1393   -5.5942 H   0  0  0  0  0  0  0  0  0  0  0  0
   -2.2934    0.3485   -7.2009 H   0  0  0  0  0  0  0  0  0  0  0  0
   -2.9520    1.2236   -5.8087 H   0  0  0  0  0  0  0  0  0  0  0  0
   -0.1892    3.7729   -3.1651 H   0  0  0  0  0  0  0  0  0  0  0  0
    0.9464    5.5252   -8.8479 H   0  0  0  0  0  0  0  0  0  0  0  0
    2.3162    4.3883   -8.6967 H   0  0  0  0  0  0  0  0  0  0  0  0
    2.6953    6.0138  -10.5479 H   0  0  0  0  0  0  0  0  0  0  0  0
    2.5449    7.3569   -9.4028 H   0  0  0  0  0  0  0  0  0  0  0  0
    3.8952    6.2307   -9.2628 H   0  0  0  0  0  0  0  0  0  0  0  0
    2.7801    3.3581   -3.1710 H   0  0  0  0  0  0  0  0  0  0  0  0
    2.8007    0.9128   -3.0972 H   0  0  0  0  0  0  0  0  0  0  0  0
    2.8922   -1.2922   -2.3859 H   0  0  0  0  0  0  0  0  0  0  0  0
    2.2396   -2.4619   -1.2300 H   0  0  0  0  0  0  0  0  0  0  0  0
    0.5908   -0.9185   -3.3007 H   0  0  0  0  0  0  0  0  0  0  0  0
    1.0588   -2.6202   -3.4274 H   0  0  0  0  0  0  0  0  0  0  0  0
   -0.0552   -2.0983   -2.1578 H   0  0  0  0  0  0  0  0  0  0  0  0
    0.9962    3.5637    0.7162 H   0  0  0  0  0  0  0  0  0  0  0  0
    0.3001    1.7874    2.6382 H   0  0  0  0  0  0  0  0  0  0  0  0
    0.8716   -2.7740    0.5806 H   0  0  0  0  0  0  0  0  0  0  0  0
   -0.2134   -4.4884    2.2978 H   0  0  0  0  0  0  0  0  0  0  0  0
   -1.8786   -4.3406    6.2547 H   0  0  0  0  0  0  0  0  0  0  0  0
   -1.5662   -1.9212    6.3463 H   0  0  0  0  0  0  0  0  0  0  0  0
   -1.5854    0.2912    5.6974 H   0  0  0  0  0  0  0  0  0  0  0  0
   -1.0337    1.4628    4.4912 H   0  0  0  0  0  0  0  0  0  0  0  0
    1.3264    1.1413    5.2609 H   0  0  0  0  0  0  0  0  0  0  0  0
    0.2917    1.6696    6.5926 H   0  0  0  0  0  0  0  0  0  0  0  0
    0.7758   -0.0257    6.4657 H   0  0  0  0  0  0  0  0  0  0  0  0
   -2.8965  -10.7049    4.7208 H   0  0  0  0  0  0  0  0  0  0  0  0
   -2.8685  -10.1746   -1.5275 H   0  0  0  0  0  0  0  0  0  0  0  0
   -3.5037  -12.1951   -2.8478 H   0  0  0  0  0  0  0  0  0  0  0  0
   -3.6566  -14.5431    0.7228 H   0  0  0  0  0  0  0  0  0  0  0  0
  1  2  2  0  0  0  0
  2  3  1  0  0  0  0
  3  4  2  0  0  0  0
  3  5  1  0  0  0  0
  5  6  1  0  0  0  0
  6  7  1  0  0  0  0
  7  8  1  0  0  0  0
  7  9  2  0  0  0  0
  9 10  1  0  0  0  0
 10 11  1  0  0  0  0
 11 12  2  0  0  0  0
 12 13  1  0  0  0  0
 13 14  3  0  0  0  0
 12 15  1  0  0  0  0
 15 16  3  0  0  0  0
  1 17  1  0  0  0  0
 17 18  2  0  0  0  0
 18 19  1  0  0  0  0
 19 20  1  0  0  0  0
 20 21  2  0  0  0  0
 21 22  1  0  0  0  0
 22 23  2  0  0  0  0
 23 24  1  0  0  0  0
 24 25  1  0  0  0  0
 25 26  1  0  0  0  0
 26 27  1  0  0  0  0
 24 28  2  0  0  0  0
 22 29  1  0  0  0  0
 29 30  1  0  0  0  0
 30 31  1  0  0  0  0
 19 32  2  0  0  0  0
 32 33  1  0  0  0  0
 32 34  1  0  0  0  0
 34 35  2  0  0  0  0
 35 36  1  0  0  0  0
 36 37  2  0  0  0  0
 37 38  1  0  0  0  0
 38 39  1  0  0  0  0
 39 40  1  0  0  0  0
 38 41  1  0  0  0  0
 41 42  2  0  0  0  0
 42 43  1  0  0  0  0
 43 44  2  0  0  0  0
 42 45  1  0  0  0  0
 45 46  2  0  0  0  0
 46 47  1  0  0  0  0
 47 48  2  0  0  0  0
 47 49  1  0  0  0  0
 49 50  2  0  0  0  0
 50 51  1  0  0  0  0
 51 52  2  0  0  0  0
 52 53  1  0  0  0  0
 53 54  2  0  0  0  0
 54 55  1  0  0  0  0
 55 56  1  0  0  0  0
 56 57  1  0  0  0  0
 51 58  1  0  0  0  0
 58 59  2  0  0  0  0
 59 60  1  0  0  0  0
 59 61  1  0  0  0  0
 61 62  1  0  0  0  0
 61 63  2  0  0  0  0
 63 64  1  0  0  0  0
 64 65  1  0  0  0  0
 65 66  2  0  0  0  0
 66 67  1  0  0  0  0
 67 68  1  0  0  0  0
 63 69  1  0  0  0  0
 69 70  2  0  0  0  0
 70 71  1  0  0  0  0
 71 72  2  0  0  0  0
 71 73  1  0  0  0  0
 73 74  2  0  0  0  0
 74 75  1  0  0  0  0
 75 76  2  0  0  0  0
 76 77  1  0  0  0  0
 76 78  1  0  0  0  0
 78 79  2  0  0  0  0
 79 80  1  0  0  0  0
 80 81  2  0  0  0  0
 81 82  1  0  0  0  0
 82 83  3  0  0  0  0
 81 84  1  0  0  0  0
 84 85  3  0  0  0  0
 11  2  1  0  0  0  0
 33 17  1  0  0  0  0
 44 34  1  0  0  0  0
 55 46  1  0  0  0  0
 65 58  1  0  0  0  0
 80 70  1  0  0  0  0
 10  5  2  0  0  0  0
 28 20  1  0  0  0  0
 43 37  1  0  0  0  0
 54 49  1  0  0  0  0
 68 64  2  0  0  0  0
 79 73  1  0  0  0  0
 48 41  1  0  0  0  0
  1 86  1  0  0  0  0
  9 87  1  0  0  0  0
 18 88  1  0  0  0  0
 21 89  1  0  0  0  0
 23 90  1  0  0  0  0
 26 91  1  0  0  0  0
 26 92  1  0  0  0  0
 27 93  1  0  0  0  0
 27 94  1  0  0  0  0
 27 95  1  0  0  0  0
 28 96  1  0  0  0  0
 30 97  1  0  0  0  0
 30 98  1  0  0  0  0
 31 99  1  0  0  0  0
 31100  1  0  0  0  0
 31101  1  0  0  0  0
 35102  1  0  0  0  0
 36103  1  0  0  0  0
 39104  1  0  0  0  0
 39105  1  0  0  0  0
 40106  1  0  0  0  0
 40107  1  0  0  0  0
 40108  1  0  0  0  0
 44109  1  0  0  0  0
 45110  1  0  0  0  0
 48111  1  0  0  0  0
 50112  1  0  0  0  0
 52113  1  0  0  0  0
 53114  1  0  0  0  0
 56115  1  0  0  0  0
 56116  1  0  0  0  0
 57117  1  0  0  0  0
 57118  1  0  0  0  0
 57119  1  0  0  0  0
 69120  1  0  0  0  0
 74121  1  0  0  0  0
 75122  1  0  0  0  0
 78123  1  0  0  0  0
M  END
