243

C         -5.46610      -12.35420       -0.67500
C         -5.80060      -13.37410       -1.54000
C         -5.45970      -13.45730       -2.96900
O         -4.76820      -12.70300       -3.62850
C         -6.15940      -14.65290       -3.43980
S         -6.32550      -15.47560       -4.92960
C         -7.35210      -16.64190       -4.14680
Br        -8.07030      -18.06040       -5.13750
C         -7.55440      -16.41150       -2.81380
C         -6.86190      -15.25670       -2.40930
C         -6.63790      -14.49680       -1.18840
C         -7.13490      -14.85480        0.04150
C         -6.84080      -14.22930        1.26560
N         -6.62020      -13.79670        2.30780
C         -7.99280      -15.96190        0.19700
N         -8.70360      -16.85130        0.34470
C         -4.66400      -11.23260       -0.85900
C         -4.43020      -10.27100        0.16020
N         -5.10280      -10.18810        1.34820
C         -4.41770       -9.68630        2.47310
C         -3.13380      -10.14270        2.76220
C         -2.45540       -9.64870        3.85680
C         -3.03570       -8.69950        4.69210
C         -2.28530       -8.18030        5.87910
C         -4.32060       -8.25990        4.40080
C         -5.00890       -8.74160        3.30430
C         -6.48180      -10.44890        1.45750
C         -6.99440      -11.00210        2.62830
C         -8.34830      -11.24730        2.73980
C         -9.22010      -10.96220        1.69530
C        -10.68010      -11.26850        1.82400
C         -8.69980      -10.39660        0.53710
C         -7.35040      -10.13140        0.41620
C         -3.39970       -9.39200       -0.21280
S         -2.65050       -8.02300        0.54440
C         -1.63400       -7.78700       -0.86950
C         -1.92750       -8.66810       -1.89510
N         -1.38690       -8.61980       -3.16590
C         -1.10170       -7.39470       -3.77700
C         -0.05580       -7.29310       -4.69140
C          0.28570       -6.07000       -5.23030
C         -0.40640       -4.91370       -4.88840
C          0.02110       -3.58040       -5.42260
C         -1.49180       -5.03210       -4.03150
C         -1.84510       -6.25210       -3.48880
C         -1.22890       -9.83180       -3.86210
C         -0.73360      -10.95060       -3.19980
C         -0.62680      -12.15710       -3.86280
C         -1.00250      -12.27870       -5.19380
C         -0.93420      -13.59880       -5.89740
C         -1.47720      -11.14990       -5.85200
C         -1.59420       -9.93930       -5.20050
C         -2.91160       -9.60620       -1.49520
S         -3.68790      -10.91890       -2.29930
C         -0.61600       -6.77220       -0.87340
C          0.73400       -6.95490       -1.09570
C          1.30110       -8.31510       -1.10770
C          0.88420       -9.15160       -0.06710
C          1.29220      -10.46630        0.01250
C          2.12670      -10.98010       -0.96640
C          2.56110      -10.15640       -1.98440
C          2.18050       -8.81970       -2.06880
C          2.75850       -8.00420       -3.18970
C          4.27050       -7.83490       -3.02190
C          1.41020       -5.71260       -1.10980
S          3.08620       -5.25020       -1.29870
C          2.64250       -3.59140       -1.09580
C          3.23570       -2.31790       -1.09820
C          4.55760       -1.91320       -1.38150
C          4.86480       -0.51210       -1.39790
N          6.12550       -0.27370       -1.72410
S          6.86360       -1.69160       -1.98500
N          5.60250       -2.66450       -1.69230
C          3.86280        0.40890       -1.02370
C          3.92510        1.79380       -0.80250
S          5.06030        3.09600       -0.93030
C          3.86300        4.17470       -0.24940
C          3.87150        5.54910        0.04430
C          4.98550        6.47340       -0.21880
C          6.19460        6.39500        0.47660
C          6.42940        5.36450        1.54470
C          5.58710        5.63190        2.79250
C          7.18170        7.32700        0.18570
C          6.99140        8.30880       -0.76850
C          5.79650        8.37220       -1.46340
C          4.80100        7.45640       -1.18700
C          2.65240        5.96890        0.54630
S          1.50440        4.64490        0.70270
C          2.65160        3.54140        0.03670
C          2.68570        2.17970       -0.28990
N          1.84650        1.10070       -0.22850
C          2.54680       -0.00860       -0.67540
C          2.20190       -1.37910       -0.82430
N          1.00580       -2.07340       -0.70590
C          1.27990       -3.40490       -0.87240
C          0.57570       -4.61680       -0.88200
S         -1.06100       -5.09550       -0.63240
C         -0.35560       -1.60910       -0.85350
C         -0.54840       -0.84670       -2.16200
C          0.62350        1.19140        0.53500
C          0.72120        0.41760        1.84740
C          2.31270        7.26530        1.02650
C          1.04880        7.83660        1.13720
N         -0.12790        7.29310        0.64340
C         -0.15960        6.71170       -0.62890
C          0.70610        7.14360       -1.63250
C          0.71890        6.51450       -2.85970
C         -0.13470        5.45080       -3.13270
C         -0.08860        4.76650       -4.46460
C         -1.01560        5.04540       -2.13890
C         -1.03090        5.65910       -0.90180
C         -1.30370        7.47460        1.38850
C         -2.50970        7.78110        0.76430
C         -3.65020        7.96870        1.51830
C         -3.62240        7.86830        2.90470
C         -4.85930        8.10770        3.71480
C         -2.41390        7.56580        3.51900
C         -1.26770        7.36500        2.77610
C          1.11720        9.09610        1.77200
S         -0.05770       10.29990        2.14790
C          1.20330       11.35690        2.81160
C          2.49470       10.80820        2.63420
N          3.69150       11.43660        2.80780
C          4.85620       10.65320        3.00280
C          5.96430       10.84870        2.18810
C          7.11160       10.10790        2.39840
C          7.18110        9.17320        3.42280
C          8.42810        8.38260        3.67220
C          6.06450        8.99080        4.23360
C          4.90800        9.71550        4.02860
C          3.85760       12.82640        2.77430
C          4.77920       13.42980        3.62890
C          4.92330       14.80440        3.64160
C          4.16020       15.61450        2.81150
C          4.26470       17.10600        2.86340
C          3.28200       15.00000        1.92160
C          3.13110       13.62980        1.89560
C          2.40340        9.50360        2.09970
S          3.58000        8.32110        1.63270
C          0.77610       12.56020        3.36880
C          1.47590       13.33340        4.27460
C          2.49070       12.79610        5.19970
O          2.84640       11.64000        5.32910
C          2.87510       13.95430        6.01400
S          3.99300       14.25740        7.26950
C          3.50640       15.92910        7.27350
Br         4.32120       17.13230        8.45730
C          2.53320       16.23300        6.36320
C          2.17060       15.08480        5.63750
C          1.28040       14.73150        4.54270
C          0.53470       15.63030        3.82040
C         -0.22360       15.30510        2.68110
N         -0.83740       15.10810        1.73030
C          0.53050       17.00280        4.12910
N          0.53610       18.12810        4.35940
H         -5.88700      -12.43700        0.31950
H         -8.16200      -17.03750       -2.18710
H         -2.67880      -10.88850        2.12650
H         -1.46010      -10.00870        4.07290
H         -1.31100       -7.79980        5.57650
H         -2.11980       -8.98040        6.60000
H         -2.83570       -7.38200        6.37000
H         -4.78980       -7.52300        5.03610
H         -6.00370       -8.38420        3.08320
H         -6.32840      -11.24810        3.44000
H         -8.73170      -11.68640        3.64820
H        -11.23670      -10.88840        0.97120
H        -11.08490      -10.82620        2.73280
H        -10.83240      -12.34590        1.88460
H         -9.36060      -10.15020       -0.28160
H         -6.96390       -9.68210       -0.48690
H          0.48900       -8.18210       -4.96670
H          1.11550       -6.00890       -5.91960
H          0.33120       -3.66130       -6.46230
H         -0.78670       -2.85500       -5.35300
H          0.87220       -3.20530       -4.85120
H         -2.07390       -4.15670       -3.77910
H         -2.70350       -6.32010       -2.83660
H         -0.43480      -10.86730       -2.16540
H         -0.24660      -13.01860       -3.33300
H         -0.66890      -13.46980       -6.94440
H         -0.20770      -14.25620       -5.42560
H         -1.90970      -14.08430       -5.85530
H         -1.77600      -11.22490       -6.88750
H         -1.98190       -9.07450       -5.71870
H          0.24120       -8.74980        0.70260
H          0.95610      -11.08760        0.82960
H          2.43850      -12.01340       -0.93220
H          3.21200      -10.55730       -2.74770
H          2.27830       -7.02850       -3.24260
H          2.57560       -8.52130       -4.13490
H          4.50480       -7.41130       -2.04910
H          4.77710       -8.79320       -3.10580
H          4.65940       -7.16990       -3.78870
H          7.48670        5.37590        1.81730
H          6.19880        4.36930        1.16110
H          5.86440        4.94300        3.58740
H          5.73700        6.65190        3.13830
H          4.52950        5.50030        2.58020
H          8.11970        7.27800        0.71910
H          7.77630        9.02120       -0.97490
H          5.64080        9.12990       -2.21680
H          3.86340        7.49010       -1.72360
H         -0.98600       -2.50170       -0.86170
H         -0.65850       -1.01280        0.00770
H          0.11200        0.01570       -2.21720
H         -0.32700       -1.49840       -3.00400
H         -1.57780       -0.50790       -2.24540
H          0.47190        2.25190        0.75170
H         -0.22700        0.86350       -0.06350
H          0.94660       -0.63130        1.67020
H          1.51340        0.83520        2.46420
H         -0.21630        0.49030        2.39220
H          1.36680        7.97720       -1.44350
H          1.40080        6.85680       -3.62510
H         -0.88860        4.03620       -4.55570
H          0.86470        4.25320       -4.59210
H         -0.18430        5.49200       -5.27090
H         -1.69410        4.22590       -2.32870
H         -1.70550        5.31630       -0.13150
H         -2.54480        7.87870       -0.31060
H         -4.57880        8.20960        1.02130
H         -4.80900        7.58300        4.66600
H         -4.96660        9.17290        3.92210
H         -5.74580        7.78060        3.17620
H         -2.36870        7.48040        4.59510
H         -0.33730        7.11850        3.26700
H          5.92150       11.58050        1.39470
H          7.96690       10.26480        1.75830
H          8.81200        8.58840        4.67080
H          8.21940        7.31560        3.61260
H          9.19920        8.63100        2.94770
H          6.10940        8.28260        5.04860
H          4.05170        9.59620        4.67360
H          5.36480       12.81440        4.29570
H          5.63080       15.25430        4.32330
H          3.30860       17.54310        3.15160
H          4.52530       17.50450        1.88410
H          5.01850       17.42020        3.58060
H          2.70050       15.60860        1.24410
H          2.44360       13.17850        1.19620
H         -0.20970       12.89360        3.06670
H          2.11900       17.21640        6.23940
