
  xtb     02042200163D
 energy: -402.116576287183 gnorm: 0.000423476876 xtb: 6.4.1 (unknown)
229254  0     0  0            999 V2000
   -5.3099  -13.6907    0.8970 C   0  0  0  0  0  0  0  0  0  0  0  0
   -5.4252  -14.4635   -0.2206 C   0  0  0  0  0  0  0  0  0  0  0  0
   -5.9307  -15.8616   -0.0673 C   0  0  0  0  0  0  0  0  0  0  0  0
   -6.4630  -16.3405    0.9066 O   0  0  0  0  0  0  0  0  0  0  0  0
   -5.5827  -16.4983   -1.3366 C   0  0  0  0  0  0  0  0  0  0  0  0
   -5.6849  -18.0739   -1.9944 S   0  0  0  0  0  0  0  0  0  0  0  0
   -4.9658  -17.4861   -3.4660 C   0  0  0  0  0  0  0  0  0  0  0  0
   -4.6649  -18.6655   -4.8884 Br  0  0  0  0  0  0  0  0  0  0  0  0
   -4.6715  -16.1502   -3.4569 C   0  0  0  0  0  0  0  0  0  0  0  0
   -5.0264  -15.5830   -2.2207 C   0  0  0  0  0  0  0  0  0  0  0  0
   -5.0363  -14.2650   -1.6065 C   0  0  0  0  0  0  0  0  0  0  0  0
   -4.9271  -13.1014   -2.3235 C   0  0  0  0  0  0  0  0  0  0  0  0
   -4.5733  -13.0913   -3.6886 C   0  0  0  0  0  0  0  0  0  0  0  0
   -4.2647  -13.0491   -4.7933 N   0  0  0  0  0  0  0  0  0  0  0  0
   -5.2224  -11.8123   -1.8367 C   0  0  0  0  0  0  0  0  0  0  0  0
   -5.5072  -10.7431   -1.5316 N   0  0  0  0  0  0  0  0  0  0  0  0
   -4.5491  -12.5102    1.0513 C   0  0  0  0  0  0  0  0  0  0  0  0
   -3.5092  -12.0831    0.2650 C   0  0  0  0  0  0  0  0  0  0  0  0
   -2.9923  -10.8309    0.6348 C   0  0  0  0  0  0  0  0  0  0  0  0
   -2.0350  -10.0865   -0.0793 C   0  0  0  0  0  0  0  0  0  0  0  0
   -1.5367  -10.6573   -1.3408 C   0  0  0  0  0  0  0  0  0  0  0  0
   -0.7823  -11.8503   -1.3253 C   0  0  0  0  0  0  0  0  0  0  0  0
   -0.4856  -12.4998   -2.4876 C   0  0  0  0  0  0  0  0  0  0  0  0
   -0.9521  -12.0101   -3.7278 C   0  0  0  0  0  0  0  0  0  0  0  0
   -0.7385  -12.7015   -4.9303 C   0  0  0  0  0  0  0  0  0  0  0  0
   -1.2425  -12.2272   -6.1193 C   0  0  0  0  0  0  0  0  0  0  0  0
   -0.9601  -13.2305   -7.5434 S   0  0  0  0  0  0  0  0  0  0  0  0
   -1.3895  -12.1769   -8.9720 C   0  0  0  0  0  0  0  0  0  0  0  0
   -0.3834  -11.0626   -9.1899 C   0  0  0  0  0  0  0  0  0  0  0  0
   -1.9700  -11.0237   -6.1398 C   0  0  0  0  0  0  0  0  0  0  0  0
   -2.1703  -10.3227   -4.9857 C   0  0  0  0  0  0  0  0  0  0  0  0
   -1.6807  -10.7911   -3.7497 C   0  0  0  0  0  0  0  0  0  0  0  0
   -1.9463  -10.1261   -2.5387 C   0  0  0  0  0  0  0  0  0  0  0  0
   -1.7556   -8.8281    0.4021 C   0  0  0  0  0  0  0  0  0  0  0  0
   -2.3589   -8.2986    1.5767 C   0  0  0  0  0  0  0  0  0  0  0  0
   -3.3178   -9.0446    2.2875 C   0  0  0  0  0  0  0  0  0  0  0  0
   -3.9480   -8.5121    3.5027 C   0  0  0  0  0  0  0  0  0  0  0  0
   -5.3149   -8.4977    3.6441 C   0  0  0  0  0  0  0  0  0  0  0  0
   -5.9179   -7.9874    4.8075 C   0  0  0  0  0  0  0  0  0  0  0  0
   -7.3185   -7.9471    4.9699 C   0  0  0  0  0  0  0  0  0  0  0  0
   -7.8853   -7.4391    6.1031 C   0  0  0  0  0  0  0  0  0  0  0  0
   -7.0718   -6.9553    7.1443 C   0  0  0  0  0  0  0  0  0  0  0  0
   -7.7308   -6.2391    8.6225 S   0  0  0  0  0  0  0  0  0  0  0  0
   -9.3500   -7.0599    8.8384 C   0  0  0  0  0  0  0  0  0  0  0  0
   -9.2104   -8.5542    9.0534 C   0  0  0  0  0  0  0  0  0  0  0  0
   -5.7038   -6.9775    7.0143 C   0  0  0  0  0  0  0  0  0  0  0  0
   -5.0983   -7.4841    5.8521 C   0  0  0  0  0  0  0  0  0  0  0  0
   -3.6962   -7.5212    5.6896 C   0  0  0  0  0  0  0  0  0  0  0  0
   -3.1375   -8.0184    4.5493 C   0  0  0  0  0  0  0  0  0  0  0  0
   -3.6396  -10.2915    1.7744 C   0  0  0  0  0  0  0  0  0  0  0  0
   -4.8587  -11.3882    2.3699 S   0  0  0  0  0  0  0  0  0  0  0  0
   -1.9289   -6.9756    1.8291 C   0  0  0  0  0  0  0  0  0  0  0  0
   -1.0283   -6.5020    0.9155 C   0  0  0  0  0  0  0  0  0  0  0  0
   -0.6564   -7.6866   -0.3261 S   0  0  0  0  0  0  0  0  0  0  0  0
   -0.4333   -5.2143    0.8686 C   0  0  0  0  0  0  0  0  0  0  0  0
   -0.8767   -4.0017    2.0678 S   0  0  0  0  0  0  0  0  0  0  0  0
    0.1571   -2.8563    1.2986 C   0  0  0  0  0  0  0  0  0  0  0  0
    0.5699   -1.5277    1.3816 C   0  0  0  0  0  0  0  0  0  0  0  0
    0.3065   -0.1110    2.3451 S   0  0  0  0  0  0  0  0  0  0  0  0
    1.3895    0.7558    1.3023 C   0  0  0  0  0  0  0  0  0  0  0  0
    1.7846    2.1252    1.2015 C   0  0  0  0  0  0  0  0  0  0  0  0
    2.6120    2.2335    0.0609 C   0  0  0  0  0  0  0  0  0  0  0  0
    2.8535    0.8626   -0.5673 C   0  0  0  0  0  0  0  0  0  0  0  0
    4.3145    0.4830   -0.3926 C   0  0  0  0  0  0  0  0  0  0  0  0
    4.7046   -0.5854    0.3992 C   0  0  0  0  0  0  0  0  0  0  0  0
    6.0398   -0.9220    0.5579 C   0  0  0  0  0  0  0  0  0  0  0  0
    7.0271   -0.1799   -0.0775 C   0  0  0  0  0  0  0  0  0  0  0  0
    8.3611   -0.4166   -0.0014 O   0  0  0  0  0  0  0  0  0  0  0  0
    8.8242   -1.4913    0.7925 C   0  0  0  0  0  0  0  0  0  0  0  0
   10.3418   -1.5111    0.7030 C   0  0  0  0  0  0  0  0  0  0  0  0
    6.6417    0.9041   -0.8695 C   0  0  0  0  0  0  0  0  0  0  0  0
    5.3125    1.2267   -1.0204 C   0  0  0  0  0  0  0  0  0  0  0  0
    2.3914    0.8600   -2.0140 C   0  0  0  0  0  0  0  0  0  0  0  0
    1.1075    1.3236   -2.2952 C   0  0  0  0  0  0  0  0  0  0  0  0
    0.6268    1.3381   -3.5843 C   0  0  0  0  0  0  0  0  0  0  0  0
    1.4176    0.8887   -4.6456 C   0  0  0  0  0  0  0  0  0  0  0  0
    0.8320    0.9347   -5.8708 O   0  0  0  0  0  0  0  0  0  0  0  0
    1.5864    0.6278   -7.0262 C   0  0  0  0  0  0  0  0  0  0  0  0
    2.5429    1.7498   -7.4189 C   0  0  0  0  0  0  0  0  0  0  0  0
    2.6948    0.4169   -4.3683 C   0  0  0  0  0  0  0  0  0  0  0  0
    3.1669    0.4011   -3.0651 C   0  0  0  0  0  0  0  0  0  0  0  0
    1.9388    0.0060    0.2776 C   0  0  0  0  0  0  0  0  0  0  0  0
    1.4703   -1.3122    0.3074 C   0  0  0  0  0  0  0  0  0  0  0  0
    1.6247   -2.4748   -0.3998 N   0  0  0  0  0  0  0  0  0  0  0  0
    0.8132   -3.4141    0.1798 C   0  0  0  0  0  0  0  0  0  0  0  0
    0.4746   -4.7483   -0.0571 C   0  0  0  0  0  0  0  0  0  0  0  0
    2.3661   -2.6619   -1.6199 C   0  0  0  0  0  0  0  0  0  0  0  0
    1.4557   -2.5843   -2.8431 C   0  0  0  0  0  0  0  0  0  0  0  0
    3.0115    3.4675   -0.3912 C   0  0  0  0  0  0  0  0  0  0  0  0
    2.6083    4.5791    0.3437 C   0  0  0  0  0  0  0  0  0  0  0  0
    2.7533    5.9712    0.0656 C   0  0  0  0  0  0  0  0  0  0  0  0
    2.1259    6.7387    1.0339 C   0  0  0  0  0  0  0  0  0  0  0  0
    1.5457    5.8477    2.1101 C   0  0  0  0  0  0  0  0  0  0  0  0
    1.8432    4.4672    1.5255 C   0  0  0  0  0  0  0  0  0  0  0  0
    1.4058    3.2353    1.9521 C   0  0  0  0  0  0  0  0  0  0  0  0
    0.0461    6.0695    2.2104 C   0  0  0  0  0  0  0  0  0  0  0  0
   -0.7361    5.8021    1.0883 C   0  0  0  0  0  0  0  0  0  0  0  0
   -2.0967    6.0046    1.1094 C   0  0  0  0  0  0  0  0  0  0  0  0
   -2.7293    6.4838    2.2601 C   0  0  0  0  0  0  0  0  0  0  0  0
   -4.0721    6.6628    2.1563 O   0  0  0  0  0  0  0  0  0  0  0  0
   -4.8257    7.0398    3.2910 C   0  0  0  0  0  0  0  0  0  0  0  0
   -5.0518    5.8812    4.2579 C   0  0  0  0  0  0  0  0  0  0  0  0
   -1.9525    6.7576    3.3791 C   0  0  0  0  0  0  0  0  0  0  0  0
   -0.5815    6.5557    3.3448 C   0  0  0  0  0  0  0  0  0  0  0  0
    2.2754    5.9934    3.4342 C   0  0  0  0  0  0  0  0  0  0  0  0
    3.3279    6.8874    3.5988 C   0  0  0  0  0  0  0  0  0  0  0  0
    3.9850    6.9957    4.8060 C   0  0  0  0  0  0  0  0  0  0  0  0
    3.6181    6.2058    5.8957 C   0  0  0  0  0  0  0  0  0  0  0  0
    4.3216    6.4195    7.0390 O   0  0  0  0  0  0  0  0  0  0  0  0
    4.1081    5.5918    8.1648 C   0  0  0  0  0  0  0  0  0  0  0  0
    4.7544    4.2177    8.0154 C   0  0  0  0  0  0  0  0  0  0  0  0
    2.5714    5.3035    5.7359 C   0  0  0  0  0  0  0  0  0  0  0  0
    1.9173    5.2065    4.5211 C   0  0  0  0  0  0  0  0  0  0  0  0
    2.1861    8.0979    0.7136 C   0  0  0  0  0  0  0  0  0  0  0  0
    2.8732    8.3199   -0.5112 C   0  0  0  0  0  0  0  0  0  0  0  0
    3.4429    6.8594   -1.2511 S   0  0  0  0  0  0  0  0  0  0  0  0
    2.8583    9.6901   -0.7425 C   0  0  0  0  0  0  0  0  0  0  0  0
    3.3572   10.8672   -1.8867 S   0  0  0  0  0  0  0  0  0  0  0  0
    2.6336   12.1444   -0.9045 C   0  0  0  0  0  0  0  0  0  0  0  0
    2.0498   11.6541    0.2562 C   0  0  0  0  0  0  0  0  0  0  0  0
    2.1674   10.2751    0.3502 C   0  0  0  0  0  0  0  0  0  0  0  0
    1.7848    9.2984    1.2342 N   0  0  0  0  0  0  0  0  0  0  0  0
    0.9720    9.5178    2.4025 C   0  0  0  0  0  0  0  0  0  0  0  0
   -0.4926    9.7316    2.0285 C   0  0  0  0  0  0  0  0  0  0  0  0
    2.6502   13.5001   -1.3302 C   0  0  0  0  0  0  0  0  0  0  0  0
    3.2067   13.9227   -2.5390 C   0  0  0  0  0  0  0  0  0  0  0  0
    3.8200   13.0300   -3.3391 F   0  0  0  0  0  0  0  0  0  0  0  0
    3.1625   15.2367   -3.0009 C   0  0  0  0  0  0  0  0  0  0  0  0
    3.7581   15.4855   -4.1811 F   0  0  0  0  0  0  0  0  0  0  0  0
    2.5913   16.2849   -2.2863 C   0  0  0  0  0  0  0  0  0  0  0  0
    2.0815   15.9162   -1.0137 C   0  0  0  0  0  0  0  0  0  0  0  0
    2.0807   14.5538   -0.5510 C   0  0  0  0  0  0  0  0  0  0  0  0
    1.5122   14.4484    0.6466 N   0  0  0  0  0  0  0  0  0  0  0  0
    1.0295   15.9045    1.1361 S   0  0  0  0  0  0  0  0  0  0  0  0
    1.5153   16.7452   -0.1436 N   0  0  0  0  0  0  0  0  0  0  0  0
    2.5568   17.6507   -2.7013 C   0  0  0  0  0  0  0  0  0  0  0  0
    2.5114   18.1823   -3.9497 C   0  0  0  0  0  0  0  0  0  0  0  0
    2.8815   19.6228   -4.1317 C   0  0  0  0  0  0  0  0  0  0  0  0
    3.0533   20.4443   -3.2626 O   0  0  0  0  0  0  0  0  0  0  0  0
    3.0193   19.7636   -5.5791 C   0  0  0  0  0  0  0  0  0  0  0  0
    3.5044   21.0015   -6.6559 S   0  0  0  0  0  0  0  0  0  0  0  0
    3.2256   19.9228   -7.9919 C   0  0  0  0  0  0  0  0  0  0  0  0
    3.5404   20.5109   -9.7408 Br  0  0  0  0  0  0  0  0  0  0  0  0
    2.7750   18.6820   -7.6328 C   0  0  0  0  0  0  0  0  0  0  0  0
    2.6622   18.5923   -6.2350 C   0  0  0  0  0  0  0  0  0  0  0  0
    2.2214   17.6158   -5.2539 C   0  0  0  0  0  0  0  0  0  0  0  0
    1.4746   16.5079   -5.5524 C   0  0  0  0  0  0  0  0  0  0  0  0
    1.2067   16.1290   -6.8848 C   0  0  0  0  0  0  0  0  0  0  0  0
    0.9826   15.8063   -7.9625 N   0  0  0  0  0  0  0  0  0  0  0  0
    0.8354   15.6942   -4.5984 C   0  0  0  0  0  0  0  0  0  0  0  0
    0.2703   15.0237   -3.8574 N   0  0  0  0  0  0  0  0  0  0  0  0
   -5.8215  -14.0673    1.7765 H   0  0  0  0  0  0  0  0  0  0  0  0
   -4.2235  -15.6322   -4.2849 H   0  0  0  0  0  0  0  0  0  0  0  0
   -3.0996  -12.6654   -0.5405 H   0  0  0  0  0  0  0  0  0  0  0  0
   -0.4482  -12.2413   -0.3744 H   0  0  0  0  0  0  0  0  0  0  0  0
    0.0896  -13.4146   -2.4739 H   0  0  0  0  0  0  0  0  0  0  0  0
   -0.1858  -13.6296   -4.9185 H   0  0  0  0  0  0  0  0  0  0  0  0
   -2.4038  -11.8042   -8.8353 H   0  0  0  0  0  0  0  0  0  0  0  0
   -1.3866  -12.8712   -9.8124 H   0  0  0  0  0  0  0  0  0  0  0  0
   -0.3433  -10.3979   -8.3294 H   0  0  0  0  0  0  0  0  0  0  0  0
    0.6089  -11.4796   -9.3461 H   0  0  0  0  0  0  0  0  0  0  0  0
   -0.6592  -10.4804  -10.0674 H   0  0  0  0  0  0  0  0  0  0  0  0
   -2.3904  -10.6527   -7.0605 H   0  0  0  0  0  0  0  0  0  0  0  0
   -2.7351   -9.4017   -5.0040 H   0  0  0  0  0  0  0  0  0  0  0  0
   -2.5326   -9.2185   -2.5546 H   0  0  0  0  0  0  0  0  0  0  0  0
   -5.9480   -8.8564    2.8455 H   0  0  0  0  0  0  0  0  0  0  0  0
   -7.9446   -8.3211    4.1727 H   0  0  0  0  0  0  0  0  0  0  0  0
   -8.9599   -7.4006    6.1906 H   0  0  0  0  0  0  0  0  0  0  0  0
   -9.9820   -6.8230    7.9830 H   0  0  0  0  0  0  0  0  0  0  0  0
   -9.7660   -6.5743    9.7211 H   0  0  0  0  0  0  0  0  0  0  0  0
   -8.7605   -9.0311    8.1847 H   0  0  0  0  0  0  0  0  0  0  0  0
   -8.5815   -8.7522    9.9183 H   0  0  0  0  0  0  0  0  0  0  0  0
  -10.1899   -8.9966    9.2249 H   0  0  0  0  0  0  0  0  0  0  0  0
   -5.0852   -6.5970    7.8135 H   0  0  0  0  0  0  0  0  0  0  0  0
   -3.0713   -7.1494    6.4888 H   0  0  0  0  0  0  0  0  0  0  0  0
   -2.0634   -8.0611    4.4408 H   0  0  0  0  0  0  0  0  0  0  0  0
   -2.2895   -6.3755    2.6456 H   0  0  0  0  0  0  0  0  0  0  0  0
    3.9663   -1.1804    0.9150 H   0  0  0  0  0  0  0  0  0  0  0  0
    6.2903   -1.7646    1.1828 H   0  0  0  0  0  0  0  0  0  0  0  0
    8.4097   -2.4395    0.4219 H   0  0  0  0  0  0  0  0  0  0  0  0
    8.5069   -1.3532    1.8356 H   0  0  0  0  0  0  0  0  0  0  0  0
   10.6507   -1.6434   -0.3303 H   0  0  0  0  0  0  0  0  0  0  0  0
   10.7371   -2.3266    1.3017 H   0  0  0  0  0  0  0  0  0  0  0  0
   10.7465   -0.5708    1.0671 H   0  0  0  0  0  0  0  0  0  0  0  0
    7.4111    1.4805   -1.3582 H   0  0  0  0  0  0  0  0  0  0  0  0
    5.0474    2.0640   -1.6455 H   0  0  0  0  0  0  0  0  0  0  0  0
    0.4821    1.6793   -1.4892 H   0  0  0  0  0  0  0  0  0  0  0  0
   -0.3664    1.6968   -3.8034 H   0  0  0  0  0  0  0  0  0  0  0  0
    0.8352    0.4901   -7.8088 H   0  0  0  0  0  0  0  0  0  0  0  0
    2.1252   -0.3193   -6.8972 H   0  0  0  0  0  0  0  0  0  0  0  0
    3.0565    1.4881   -8.3398 H   0  0  0  0  0  0  0  0  0  0  0  0
    1.9858    2.6702   -7.5740 H   0  0  0  0  0  0  0  0  0  0  0  0
    3.2807    1.9235   -6.6392 H   0  0  0  0  0  0  0  0  0  0  0  0
    3.3405    0.0519   -5.1514 H   0  0  0  0  0  0  0  0  0  0  0  0
    4.1636    0.0258   -2.8854 H   0  0  0  0  0  0  0  0  0  0  0  0
    0.8511   -5.3612   -0.8562 H   0  0  0  0  0  0  0  0  0  0  0  0
    2.8535   -3.6412   -1.5773 H   0  0  0  0  0  0  0  0  0  0  0  0
    3.1344   -1.8886   -1.6708 H   0  0  0  0  0  0  0  0  0  0  0  0
    0.6934   -3.3585   -2.7978 H   0  0  0  0  0  0  0  0  0  0  0  0
    2.0404   -2.7203   -3.7483 H   0  0  0  0  0  0  0  0  0  0  0  0
    0.9671   -1.6142   -2.8877 H   0  0  0  0  0  0  0  0  0  0  0  0
    3.5728    3.6017   -1.3021 H   0  0  0  0  0  0  0  0  0  0  0  0
    0.7540    3.1108    2.8021 H   0  0  0  0  0  0  0  0  0  0  0  0
   -0.2672    5.4290    0.1894 H   0  0  0  0  0  0  0  0  0  0  0  0
   -2.7029    5.7995    0.2414 H   0  0  0  0  0  0  0  0  0  0  0  0
   -5.7833    7.3711    2.8799 H   0  0  0  0  0  0  0  0  0  0  0  0
   -4.3585    7.8912    3.8017 H   0  0  0  0  0  0  0  0  0  0  0  0
   -5.5402    5.0602    3.7392 H   0  0  0  0  0  0  0  0  0  0  0  0
   -4.1085    5.5192    4.6599 H   0  0  0  0  0  0  0  0  0  0  0  0
   -5.6846    6.2070    5.0788 H   0  0  0  0  0  0  0  0  0  0  0  0
   -2.3922    7.1359    4.2885 H   0  0  0  0  0  0  0  0  0  0  0  0
   -0.0077    6.7833    4.2312 H   0  0  0  0  0  0  0  0  0  0  0  0
    3.6492    7.5098    2.7778 H   0  0  0  0  0  0  0  0  0  0  0  0
    4.7974    7.6938    4.9309 H   0  0  0  0  0  0  0  0  0  0  0  0
    4.5773    6.1343    8.9903 H   0  0  0  0  0  0  0  0  0  0  0  0
    3.0364    5.4988    8.3804 H   0  0  0  0  0  0  0  0  0  0  0  0
    4.3238    3.6737    7.1781 H   0  0  0  0  0  0  0  0  0  0  0  0
    5.8209    4.3307    7.8379 H   0  0  0  0  0  0  0  0  0  0  0  0
    4.6063    3.6424    8.9251 H   0  0  0  0  0  0  0  0  0  0  0  0
    2.2476    4.6699    6.5465 H   0  0  0  0  0  0  0  0  0  0  0  0
    1.1028    4.5052    4.4313 H   0  0  0  0  0  0  0  0  0  0  0  0
    1.5675   12.3004    0.9645 H   0  0  0  0  0  0  0  0  0  0  0  0
    1.3571   10.3986    2.9257 H   0  0  0  0  0  0  0  0  0  0  0  0
    1.0749    8.6483    3.0537 H   0  0  0  0  0  0  0  0  0  0  0  0
   -0.5952   10.6017    1.3847 H   0  0  0  0  0  0  0  0  0  0  0  0
   -0.8788    8.8607    1.5044 H   0  0  0  0  0  0  0  0  0  0  0  0
   -1.0843    9.8873    2.9258 H   0  0  0  0  0  0  0  0  0  0  0  0
    2.6130   18.3708   -1.8909 H   0  0  0  0  0  0  0  0  0  0  0  0
    2.5550   17.8998   -8.3355 H   0  0  0  0  0  0  0  0  0  0  0  0
  1  2  2  0  0  0  0
  2  3  1  0  0  0  0
  3  4  2  0  0  0  0
  3  5  1  0  0  0  0
  5  6  1  0  0  0  0
  6  7  1  0  0  0  0
  7  8  1  0  0  0  0
  7  9  2  0  0  0  0
  9 10  1  0  0  0  0
 10 11  1  0  0  0  0
 11 12  2  0  0  0  0
 12 13  1  0  0  0  0
 13 14  3  0  0  0  0
 12 15  1  0  0  0  0
 15 16  3  0  0  0  0
  1 17  1  0  0  0  0
 17 18  2  0  0  0  0
 18 19  1  0  0  0  0
 19 20  2  0  0  0  0
 20 21  1  0  0  0  0
 21 22  2  0  0  0  0
 22 23  1  0  0  0  0
 23 24  2  0  0  0  0
 24 25  1  0  0  0  0
 25 26  2  0  0  0  0
 26 27  1  0  0  0  0
 27 28  1  0  0  0  0
 28 29  1  0  0  0  0
 26 30  1  0  0  0  0
 30 31  2  0  0  0  0
 31 32  1  0  0  0  0
 32 33  2  0  0  0  0
 20 34  1  0  0  0  0
 34 35  2  0  0  0  0
 35 36  1  0  0  0  0
 36 37  1  0  0  0  0
 37 38  2  0  0  0  0
 38 39  1  0  0  0  0
 39 40  2  0  0  0  0
 40 41  1  0  0  0  0
 41 42  2  0  0  0  0
 42 43  1  0  0  0  0
 43 44  1  0  0  0  0
 44 45  1  0  0  0  0
 42 46  1  0  0  0  0
 46 47  2  0  0  0  0
 47 48  1  0  0  0  0
 48 49  2  0  0  0  0
 36 50  2  0  0  0  0
 50 51  1  0  0  0  0
 35 52  1  0  0  0  0
 52 53  2  0  0  0  0
 53 54  1  0  0  0  0
 53 55  1  0  0  0  0
 55 56  1  0  0  0  0
 56 57  1  0  0  0  0
 57 58  1  0  0  0  0
 58 59  1  0  0  0  0
 59 60  1  0  0  0  0
 60 61  1  0  0  0  0
 61 62  2  0  0  0  0
 62 63  1  0  0  0  0
 63 64  1  0  0  0  0
 64 65  2  0  0  0  0
 65 66  1  0  0  0  0
 66 67  2  0  0  0  0
 67 68  1  0  0  0  0
 68 69  1  0  0  0  0
 69 70  1  0  0  0  0
 67 71  1  0  0  0  0
 71 72  2  0  0  0  0
 63 73  1  0  0  0  0
 73 74  2  0  0  0  0
 74 75  1  0  0  0  0
 75 76  2  0  0  0  0
 76 77  1  0  0  0  0
 77 78  1  0  0  0  0
 78 79  1  0  0  0  0
 76 80  1  0  0  0  0
 80 81  2  0  0  0  0
 63 82  1  0  0  0  0
 82 83  1  0  0  0  0
 83 84  1  0  0  0  0
 84 85  1  0  0  0  0
 85 86  1  0  0  0  0
 84 87  1  0  0  0  0
 87 88  1  0  0  0  0
 62 89  1  0  0  0  0
 89 90  2  0  0  0  0
 90 91  1  0  0  0  0
 91 92  2  0  0  0  0
 92 93  1  0  0  0  0
 93 94  1  0  0  0  0
 94 95  2  0  0  0  0
 93 96  1  0  0  0  0
 96 97  2  0  0  0  0
 97 98  1  0  0  0  0
 98 99  2  0  0  0  0
 99100  1  0  0  0  0
100101  1  0  0  0  0
101102  1  0  0  0  0
 99103  1  0  0  0  0
103104  2  0  0  0  0
 93105  1  0  0  0  0
105106  2  0  0  0  0
106107  1  0  0  0  0
107108  2  0  0  0  0
108109  1  0  0  0  0
109110  1  0  0  0  0
110111  1  0  0  0  0
108112  1  0  0  0  0
112113  2  0  0  0  0
 92114  1  0  0  0  0
114115  2  0  0  0  0
115116  1  0  0  0  0
115117  1  0  0  0  0
117118  1  0  0  0  0
118119  1  0  0  0  0
119120  2  0  0  0  0
120121  1  0  0  0  0
121122  1  0  0  0  0
122123  1  0  0  0  0
123124  1  0  0  0  0
119125  1  0  0  0  0
125126  2  0  0  0  0
126127  1  0  0  0  0
126128  1  0  0  0  0
128129  1  0  0  0  0
128130  2  0  0  0  0
130131  1  0  0  0  0
131132  1  0  0  0  0
132133  2  0  0  0  0
133134  1  0  0  0  0
134135  1  0  0  0  0
130136  1  0  0  0  0
136137  2  0  0  0  0
137138  1  0  0  0  0
138139  2  0  0  0  0
138140  1  0  0  0  0
140141  1  0  0  0  0
141142  1  0  0  0  0
142143  1  0  0  0  0
142144  2  0  0  0  0
144145  1  0  0  0  0
145146  1  0  0  0  0
146147  2  0  0  0  0
147148  1  0  0  0  0
148149  3  0  0  0  0
147150  1  0  0  0  0
150151  3  0  0  0  0
 11  2  1  0  0  0  0
 51 17  1  0  0  0  0
 86 55  2  0  0  0  0
 94 90  1  0  0  0  0
104 96  1  0  0  0  0
113105  1  0  0  0  0
122114  1  0  0  0  0
132125  1  0  0  0  0
146137  1  0  0  0  0
 10  5  2  0  0  0  0
 50 19  1  0  0  0  0
 85 57  2  0  0  0  0
116 91  1  0  0  0  0
121117  2  0  0  0  0
135131  2  0  0  0  0
145140  2  0  0  0  0
 33 21  1  0  0  0  0
 54 34  1  0  0  0  0
 83 58  2  0  0  0  0
 32 24  1  0  0  0  0
 49 37  1  0  0  0  0
 82 60  2  0  0  0  0
 47 39  1  0  0  0  0
 95 61  1  0  0  0  0
 72 64  1  0  0  0  0
 81 73  1  0  0  0  0
  1152  1  0  0  0  0
  9153  1  0  0  0  0
 18154  1  0  0  0  0
 22155  1  0  0  0  0
 23156  1  0  0  0  0
 25157  1  0  0  0  0
 28158  1  0  0  0  0
 28159  1  0  0  0  0
 29160  1  0  0  0  0
 29161  1  0  0  0  0
 29162  1  0  0  0  0
 30163  1  0  0  0  0
 31164  1  0  0  0  0
 33165  1  0  0  0  0
 38166  1  0  0  0  0
 40167  1  0  0  0  0
 41168  1  0  0  0  0
 44169  1  0  0  0  0
 44170  1  0  0  0  0
 45171  1  0  0  0  0
 45172  1  0  0  0  0
 45173  1  0  0  0  0
 46174  1  0  0  0  0
 48175  1  0  0  0  0
 49176  1  0  0  0  0
 52177  1  0  0  0  0
 65178  1  0  0  0  0
 66179  1  0  0  0  0
 69180  1  0  0  0  0
 69181  1  0  0  0  0
 70182  1  0  0  0  0
 70183  1  0  0  0  0
 70184  1  0  0  0  0
 71185  1  0  0  0  0
 72186  1  0  0  0  0
 74187  1  0  0  0  0
 75188  1  0  0  0  0
 78189  1  0  0  0  0
 78190  1  0  0  0  0
 79191  1  0  0  0  0
 79192  1  0  0  0  0
 79193  1  0  0  0  0
 80194  1  0  0  0  0
 81195  1  0  0  0  0
 86196  1  0  0  0  0
 87197  1  0  0  0  0
 87198  1  0  0  0  0
 88199  1  0  0  0  0
 88200  1  0  0  0  0
 88201  1  0  0  0  0
 89202  1  0  0  0  0
 95203  1  0  0  0  0
 97204  1  0  0  0  0
 98205  1  0  0  0  0
101206  1  0  0  0  0
101207  1  0  0  0  0
102208  1  0  0  0  0
102209  1  0  0  0  0
102210  1  0  0  0  0
103211  1  0  0  0  0
104212  1  0  0  0  0
106213  1  0  0  0  0
107214  1  0  0  0  0
110215  1  0  0  0  0
110216  1  0  0  0  0
111217  1  0  0  0  0
111218  1  0  0  0  0
111219  1  0  0  0  0
112220  1  0  0  0  0
113221  1  0  0  0  0
120222  1  0  0  0  0
123223  1  0  0  0  0
123224  1  0  0  0  0
124225  1  0  0  0  0
124226  1  0  0  0  0
124227  1  0  0  0  0
136228  1  0  0  0  0
144229  1  0  0  0  0
M  END
