
  xtb     02172221553D
 energy: -328.232371398858 gnorm: 0.000530516375 xtb: 6.4.1 (unknown)
197217  0     0  0            999 V2000
   -2.8119    0.4634  -10.1224 C   0  0  0  0  0  0  0  0  0  0  0  0
   -3.2845    1.5351  -10.8467 C   0  0  0  0  0  0  0  0  0  0  0  0
   -3.4436    2.9001  -10.2969 C   0  0  0  0  0  0  0  0  0  0  0  0
   -3.1914    3.2812   -9.1690 O   0  0  0  0  0  0  0  0  0  0  0  0
   -4.0881    3.6422  -11.3788 C   0  0  0  0  0  0  0  0  0  0  0  0
   -4.6193    5.2464  -11.6344 S   0  0  0  0  0  0  0  0  0  0  0  0
   -5.1395    4.8343  -13.2486 C   0  0  0  0  0  0  0  0  0  0  0  0
   -5.7615    5.8708  -14.1112 C   0  0  0  0  0  0  0  0  0  0  0  0
   -4.9075    3.5228  -13.5529 C   0  0  0  0  0  0  0  0  0  0  0  0
   -4.3064    2.8352  -12.4819 C   0  0  0  0  0  0  0  0  0  0  0  0
   -3.8011    1.5063  -12.1898 C   0  0  0  0  0  0  0  0  0  0  0  0
   -3.7035    0.4844  -13.1025 C   0  0  0  0  0  0  0  0  0  0  0  0
   -3.0967   -0.7590  -12.8505 C   0  0  0  0  0  0  0  0  0  0  0  0
   -2.5918   -1.7823  -12.7160 N   0  0  0  0  0  0  0  0  0  0  0  0
   -4.1525    0.6327  -14.4270 C   0  0  0  0  0  0  0  0  0  0  0  0
   -4.4953    0.7487  -15.5175 N   0  0  0  0  0  0  0  0  0  0  0  0
   -1.9977    0.5349   -8.9899 C   0  0  0  0  0  0  0  0  0  0  0  0
   -1.1011    1.5322   -8.5490 C   0  0  0  0  0  0  0  0  0  0  0  0
   -0.6240    2.5763   -9.2818 N   0  0  0  0  0  0  0  0  0  0  0  0
   -0.6593    2.6167  -10.6840 C   0  0  0  0  0  0  0  0  0  0  0  0
   -0.3852    1.4886  -11.4556 C   0  0  0  0  0  0  0  0  0  0  0  0
   -0.4702    1.5513  -12.8304 C   0  0  0  0  0  0  0  0  0  0  0  0
   -0.8225    2.7326  -13.4791 C   0  0  0  0  0  0  0  0  0  0  0  0
   -0.9730    2.7650  -14.9674 C   0  0  0  0  0  0  0  0  0  0  0  0
   -1.0409    3.8649  -12.7061 C   0  0  0  0  0  0  0  0  0  0  0  0
   -0.9597    3.8155  -11.3271 C   0  0  0  0  0  0  0  0  0  0  0  0
   -0.0146    3.6745   -8.6316 C   0  0  0  0  0  0  0  0  0  0  0  0
   -0.6705    4.3543   -7.6133 C   0  0  0  0  0  0  0  0  0  0  0  0
   -0.0689    5.4513   -7.0250 C   0  0  0  0  0  0  0  0  0  0  0  0
    1.1827    5.8890   -7.4361 C   0  0  0  0  0  0  0  0  0  0  0  0
    1.8284    7.0949   -6.8288 C   0  0  0  0  0  0  0  0  0  0  0  0
    1.8330    5.1908   -8.4486 C   0  0  0  0  0  0  0  0  0  0  0  0
    1.2448    4.0962   -9.0464 C   0  0  0  0  0  0  0  0  0  0  0  0
   -0.6135    1.2176   -7.2591 C   0  0  0  0  0  0  0  0  0  0  0  0
    0.4582    2.0110   -6.1512 S   0  0  0  0  0  0  0  0  0  0  0  0
    0.3671    0.6465   -5.0452 C   0  0  0  0  0  0  0  0  0  0  0  0
   -0.4240   -0.3834   -5.5452 C   0  0  0  0  0  0  0  0  0  0  0  0
   -0.6103   -1.6238   -4.9492 N   0  0  0  0  0  0  0  0  0  0  0  0
    0.4776   -2.3541   -4.4610 C   0  0  0  0  0  0  0  0  0  0  0  0
    0.3025   -3.2541   -3.4105 C   0  0  0  0  0  0  0  0  0  0  0  0
    1.3827   -3.9411   -2.8935 C   0  0  0  0  0  0  0  0  0  0  0  0
    2.6639   -3.7500   -3.3943 C   0  0  0  0  0  0  0  0  0  0  0  0
    3.8437   -4.4712   -2.8179 C   0  0  0  0  0  0  0  0  0  0  0  0
    2.8302   -2.8563   -4.4467 C   0  0  0  0  0  0  0  0  0  0  0  0
    1.7582   -2.1707   -4.9792 C   0  0  0  0  0  0  0  0  0  0  0  0
   -1.8889   -2.1993   -5.0335 C   0  0  0  0  0  0  0  0  0  0  0  0
   -2.0559   -3.5452   -5.3454 C   0  0  0  0  0  0  0  0  0  0  0  0
   -3.3247   -4.0802   -5.4424 C   0  0  0  0  0  0  0  0  0  0  0  0
   -4.4543   -3.2952   -5.2447 C   0  0  0  0  0  0  0  0  0  0  0  0
   -5.8283   -3.8839   -5.3423 C   0  0  0  0  0  0  0  0  0  0  0  0
   -4.2779   -1.9517   -4.9362 C   0  0  0  0  0  0  0  0  0  0  0  0
   -3.0148   -1.4064   -4.8262 C   0  0  0  0  0  0  0  0  0  0  0  0
   -0.9997   -0.0279   -6.7847 C   0  0  0  0  0  0  0  0  0  0  0  0
   -2.0353   -0.8528   -7.8882 S   0  0  0  0  0  0  0  0  0  0  0  0
    0.9657    0.7220   -3.7566 C   0  0  0  0  0  0  0  0  0  0  0  0
    1.9551    1.5763   -3.2972 C   0  0  0  0  0  0  0  0  0  0  0  0
    2.7517    2.4953   -4.1116 C   0  0  0  0  0  0  0  0  0  0  0  0
    3.3241    2.0970   -5.3166 C   0  0  0  0  0  0  0  0  0  0  0  0
    4.0801    2.9946   -6.0443 C   0  0  0  0  0  0  0  0  0  0  0  0
    4.2946    4.2768   -5.5692 C   0  0  0  0  0  0  0  0  0  0  0  0
    3.7651    4.6809   -4.3494 C   0  0  0  0  0  0  0  0  0  0  0  0
    4.0674    6.0485   -3.7984 C   0  0  0  0  0  0  0  0  0  0  0  0
    2.8649    6.7345   -3.1531 C   0  0  0  0  0  0  0  0  0  0  0  0
    2.9876    3.7809   -3.6371 C   0  0  0  0  0  0  0  0  0  0  0  0
    2.1447    1.4399   -1.9072 C   0  0  0  0  0  0  0  0  0  0  0  0
    3.2405    2.2095   -0.7815 S   0  0  0  0  0  0  0  0  0  0  0  0
    2.5900    1.2271    0.4873 C   0  0  0  0  0  0  0  0  0  0  0  0
    2.7765    0.9951    1.8576 C   0  0  0  0  0  0  0  0  0  0  0  0
    3.7028    1.5631    2.7571 C   0  0  0  0  0  0  0  0  0  0  0  0
    3.7215    1.0988    4.1112 C   0  0  0  0  0  0  0  0  0  0  0  0
    4.6546    1.6921    4.8395 N   0  0  0  0  0  0  0  0  0  0  0  0
    5.4409    2.7490    3.8974 S   0  0  0  0  0  0  0  0  0  0  0  0
    4.6208    2.4889    2.5252 N   0  0  0  0  0  0  0  0  0  0  0  0
    2.7682    0.1395    4.5122 C   0  0  0  0  0  0  0  0  0  0  0  0
    2.5090   -0.3962    5.7814 C   0  0  0  0  0  0  0  0  0  0  0  0
    3.1090   -0.2765    7.4007 S   0  0  0  0  0  0  0  0  0  0  0  0
    1.8406   -1.3606    7.9154 C   0  0  0  0  0  0  0  0  0  0  0  0
    1.4992   -1.8827    9.1714 C   0  0  0  0  0  0  0  0  0  0  0  0
    2.1948   -1.5466   10.4247 C   0  0  0  0  0  0  0  0  0  0  0  0
    1.9033   -0.3533   11.0748 C   0  0  0  0  0  0  0  0  0  0  0  0
    2.5418   -0.0468   12.2623 C   0  0  0  0  0  0  0  0  0  0  0  0
    3.4646   -0.9249   12.8016 C   0  0  0  0  0  0  0  0  0  0  0  0
    3.7774   -2.1141   12.1553 C   0  0  0  0  0  0  0  0  0  0  0  0
    4.8231   -3.0379   12.7094 C   0  0  0  0  0  0  0  0  0  0  0  0
    6.2006   -2.6759   12.1503 C   0  0  0  0  0  0  0  0  0  0  0  0
    3.1393   -2.4132   10.9607 C   0  0  0  0  0  0  0  0  0  0  0  0
    0.4001   -2.7175    9.0941 C   0  0  0  0  0  0  0  0  0  0  0  0
   -0.2169   -2.8585    7.4520 S   0  0  0  0  0  0  0  0  0  0  0  0
    1.0117   -1.7889    6.8726 C   0  0  0  0  0  0  0  0  0  0  0  0
    1.3990   -1.2330    5.6481 C   0  0  0  0  0  0  0  0  0  0  0  0
    0.9700   -1.2346    4.3488 N   0  0  0  0  0  0  0  0  0  0  0  0
    1.8038   -0.4083    3.6144 C   0  0  0  0  0  0  0  0  0  0  0  0
    1.8530   -0.0216    2.2447 C   0  0  0  0  0  0  0  0  0  0  0  0
    1.1548   -0.4081    1.1112 N   0  0  0  0  0  0  0  0  0  0  0  0
    1.5878    0.3557    0.0626 C   0  0  0  0  0  0  0  0  0  0  0  0
    1.3294    0.4796   -1.3086 C   0  0  0  0  0  0  0  0  0  0  0  0
    0.2701   -0.2452   -2.4596 S   0  0  0  0  0  0  0  0  0  0  0  0
    0.2803   -1.5232    0.8313 C   0  0  0  0  0  0  0  0  0  0  0  0
   -1.1755   -1.0834    0.6724 C   0  0  0  0  0  0  0  0  0  0  0  0
   -0.2511   -1.9335    4.0279 C   0  0  0  0  0  0  0  0  0  0  0  0
   -0.0188   -3.4364    3.8672 C   0  0  0  0  0  0  0  0  0  0  0  0
   -0.2689   -3.3857   10.1503 C   0  0  0  0  0  0  0  0  0  0  0  0
   -1.4270   -4.1271   10.0678 C   0  0  0  0  0  0  0  0  0  0  0  0
   -1.8507   -4.6412   11.2991 C   0  0  0  0  0  0  0  0  0  0  0  0
   -3.2765   -5.6210   11.5527 S   0  0  0  0  0  0  0  0  0  0  0  0
   -4.4142   -4.9691   10.2767 C   0  0  0  0  0  0  0  0  0  0  0  0
   -4.7673   -3.5183   10.5359 C   0  0  0  0  0  0  0  0  0  0  0  0
   -1.0282   -4.2682   12.3580 C   0  0  0  0  0  0  0  0  0  0  0  0
    0.3237   -3.3210   11.7794 S   0  0  0  0  0  0  0  0  0  0  0  0
   -1.1451   -4.6067   13.7222 C   0  0  0  0  0  0  0  0  0  0  0  0
   -0.6148   -3.9215   14.7739 C   0  0  0  0  0  0  0  0  0  0  0  0
   -0.3778   -4.6020   16.0822 C   0  0  0  0  0  0  0  0  0  0  0  0
   -0.7918   -5.6855   16.4270 O   0  0  0  0  0  0  0  0  0  0  0  0
    0.4984   -3.6741   16.7926 C   0  0  0  0  0  0  0  0  0  0  0  0
    1.3461   -3.6574   18.2793 S   0  0  0  0  0  0  0  0  0  0  0  0
    1.9582   -2.0609   17.9324 C   0  0  0  0  0  0  0  0  0  0  0  0
    2.8517   -1.3847   18.9063 C   0  0  0  0  0  0  0  0  0  0  0  0
    1.5146   -1.5776   16.7332 C   0  0  0  0  0  0  0  0  0  0  0  0
    0.6824   -2.5002   16.0745 C   0  0  0  0  0  0  0  0  0  0  0  0
   -0.1111   -2.5652   14.8629 C   0  0  0  0  0  0  0  0  0  0  0  0
   -0.5195   -1.4684   14.1458 C   0  0  0  0  0  0  0  0  0  0  0  0
   -1.5181   -1.4942   13.1536 C   0  0  0  0  0  0  0  0  0  0  0  0
   -2.3649   -1.4590   12.3781 N   0  0  0  0  0  0  0  0  0  0  0  0
   -0.0329   -0.1781   14.4259 C   0  0  0  0  0  0  0  0  0  0  0  0
    0.3553    0.8815   14.6387 N   0  0  0  0  0  0  0  0  0  0  0  0
   -3.1129   -0.5332  -10.4233 H   0  0  0  0  0  0  0  0  0  0  0  0
   -5.9489    5.4665  -15.1026 H   0  0  0  0  0  0  0  0  0  0  0  0
   -5.1108    6.7400  -14.1992 H   0  0  0  0  0  0  0  0  0  0  0  0
   -6.7068    6.2069  -13.6852 H   0  0  0  0  0  0  0  0  0  0  0  0
   -5.1633    3.0831  -14.4993 H   0  0  0  0  0  0  0  0  0  0  0  0
   -0.1118    0.5608  -10.9760 H   0  0  0  0  0  0  0  0  0  0  0  0
   -0.2676    0.6645  -13.4132 H   0  0  0  0  0  0  0  0  0  0  0  0
   -1.8971    2.2657  -15.2617 H   0  0  0  0  0  0  0  0  0  0  0  0
   -1.0074    3.7877  -15.3341 H   0  0  0  0  0  0  0  0  0  0  0  0
   -0.1493    2.2425  -15.4495 H   0  0  0  0  0  0  0  0  0  0  0  0
   -1.2945    4.7988  -13.1870 H   0  0  0  0  0  0  0  0  0  0  0  0
   -1.1449    4.7008  -10.7369 H   0  0  0  0  0  0  0  0  0  0  0  0
   -1.6604    4.0380   -7.3238 H   0  0  0  0  0  0  0  0  0  0  0  0
   -0.5915    5.9843   -6.2442 H   0  0  0  0  0  0  0  0  0  0  0  0
    2.0997    7.8106   -7.6037 H   0  0  0  0  0  0  0  0  0  0  0  0
    1.1612    7.5834   -6.1236 H   0  0  0  0  0  0  0  0  0  0  0  0
    2.7388    6.8064   -6.3076 H   0  0  0  0  0  0  0  0  0  0  0  0
    2.8102    5.5156   -8.7748 H   0  0  0  0  0  0  0  0  0  0  0  0
    1.7502    3.5641   -9.8393 H   0  0  0  0  0  0  0  0  0  0  0  0
   -0.6840   -3.3974   -2.9953 H   0  0  0  0  0  0  0  0  0  0  0  0
    1.2262   -4.6319   -2.0768 H   0  0  0  0  0  0  0  0  0  0  0  0
    4.4393   -4.9243   -3.6084 H   0  0  0  0  0  0  0  0  0  0  0  0
    4.4850   -3.7740   -2.2779 H   0  0  0  0  0  0  0  0  0  0  0  0
    3.5262   -5.2501   -2.1292 H   0  0  0  0  0  0  0  0  0  0  0  0
    3.8167   -2.6996   -4.8588 H   0  0  0  0  0  0  0  0  0  0  0  0
    1.9086   -1.4905   -5.8046 H   0  0  0  0  0  0  0  0  0  0  0  0
   -1.1887   -4.1639   -5.5229 H   0  0  0  0  0  0  0  0  0  0  0  0
   -3.4394   -5.1252   -5.6917 H   0  0  0  0  0  0  0  0  0  0  0  0
   -6.5308   -3.1598   -5.7486 H   0  0  0  0  0  0  0  0  0  0  0  0
   -5.8272   -4.7680   -5.9752 H   0  0  0  0  0  0  0  0  0  0  0  0
   -6.1823   -4.1763   -4.3528 H   0  0  0  0  0  0  0  0  0  0  0  0
   -5.1423   -1.3230   -4.7780 H   0  0  0  0  0  0  0  0  0  0  0  0
   -2.8912   -0.3615   -4.5808 H   0  0  0  0  0  0  0  0  0  0  0  0
    3.1889    1.0847   -5.6676 H   0  0  0  0  0  0  0  0  0  0  0  0
    4.5158    2.6905   -6.9846 H   0  0  0  0  0  0  0  0  0  0  0  0
    4.8979    4.9645   -6.1452 H   0  0  0  0  0  0  0  0  0  0  0  0
    4.8617    5.9505   -3.0516 H   0  0  0  0  0  0  0  0  0  0  0  0
    4.4585    6.6779   -4.6016 H   0  0  0  0  0  0  0  0  0  0  0  0
    2.5969    6.2554   -2.2156 H   0  0  0  0  0  0  0  0  0  0  0  0
    2.0043    6.6991   -3.8166 H   0  0  0  0  0  0  0  0  0  0  0  0
    3.0997    7.7754   -2.9423 H   0  0  0  0  0  0  0  0  0  0  0  0
    2.5521    4.0756   -2.6957 H   0  0  0  0  0  0  0  0  0  0  0  0
    1.1713    0.3211   10.6559 H   0  0  0  0  0  0  0  0  0  0  0  0
    2.3097    0.8754   12.7726 H   0  0  0  0  0  0  0  0  0  0  0  0
    3.9511   -0.6843   13.7362 H   0  0  0  0  0  0  0  0  0  0  0  0
    4.8438   -2.9619   13.7985 H   0  0  0  0  0  0  0  0  0  0  0  0
    4.5846   -4.0696   12.4431 H   0  0  0  0  0  0  0  0  0  0  0  0
    6.9611   -3.3432   12.5490 H   0  0  0  0  0  0  0  0  0  0  0  0
    6.2009   -2.7557   11.0657 H   0  0  0  0  0  0  0  0  0  0  0  0
    6.4595   -1.6536   12.4166 H   0  0  0  0  0  0  0  0  0  0  0  0
    3.3680   -3.3344   10.4434 H   0  0  0  0  0  0  0  0  0  0  0  0
    0.6116   -1.9655   -0.1155 H   0  0  0  0  0  0  0  0  0  0  0  0
    0.3941   -2.2788    1.6034 H   0  0  0  0  0  0  0  0  0  0  0  0
   -1.8152   -1.9555    0.5693 H   0  0  0  0  0  0  0  0  0  0  0  0
   -1.2834   -0.4721   -0.2193 H   0  0  0  0  0  0  0  0  0  0  0  0
   -1.5120   -0.4953    1.5239 H   0  0  0  0  0  0  0  0  0  0  0  0
   -0.9426   -1.7773    4.8633 H   0  0  0  0  0  0  0  0  0  0  0  0
   -0.7019   -1.4964    3.1424 H   0  0  0  0  0  0  0  0  0  0  0  0
    0.7706   -3.6426    3.1471 H   0  0  0  0  0  0  0  0  0  0  0  0
   -0.9342   -3.9186    3.5359 H   0  0  0  0  0  0  0  0  0  0  0  0
    0.2745   -3.8710    4.8191 H   0  0  0  0  0  0  0  0  0  0  0  0
   -1.9329   -4.2866    9.1325 H   0  0  0  0  0  0  0  0  0  0  0  0
   -5.2908   -5.6115   10.3587 H   0  0  0  0  0  0  0  0  0  0  0  0
   -3.9608   -5.1187    9.2980 H   0  0  0  0  0  0  0  0  0  0  0  0
   -5.2573   -3.4160   11.5011 H   0  0  0  0  0  0  0  0  0  0  0  0
   -5.4425   -3.1598    9.7615 H   0  0  0  0  0  0  0  0  0  0  0  0
   -3.8778   -2.8920   10.5418 H   0  0  0  0  0  0  0  0  0  0  0  0
   -1.6459   -5.5410   13.9537 H   0  0  0  0  0  0  0  0  0  0  0  0
    3.1049   -0.3891   18.5511 H   0  0  0  0  0  0  0  0  0  0  0  0
    3.7699   -1.9549   19.0454 H   0  0  0  0  0  0  0  0  0  0  0  0
    2.3652   -1.2998   19.8773 H   0  0  0  0  0  0  0  0  0  0  0  0
    1.7815   -0.6108   16.3477 H   0  0  0  0  0  0  0  0  0  0  0  0
  1  2  2  0  0  0  0
  2  3  1  0  0  0  0
  3  4  2  0  0  0  0
  3  5  1  0  0  0  0
  5  6  1  0  0  0  0
  6  7  1  0  0  0  0
  7  8  1  0  0  0  0
  7  9  2  0  0  0  0
  9 10  1  0  0  0  0
 10 11  1  0  0  0  0
 11 12  2  0  0  0  0
 12 13  1  0  0  0  0
 13 14  3  0  0  0  0
 12 15  1  0  0  0  0
 15 16  3  0  0  0  0
  1 17  1  0  0  0  0
 17 18  2  0  0  0  0
 18 19  1  0  0  0  0
 19 20  1  0  0  0  0
 20 21  2  0  0  0  0
 21 22  1  0  0  0  0
 22 23  2  0  0  0  0
 23 24  1  0  0  0  0
 23 25  1  0  0  0  0
 25 26  2  0  0  0  0
 19 27  1  0  0  0  0
 27 28  2  0  0  0  0
 28 29  1  0  0  0  0
 29 30  2  0  0  0  0
 30 31  1  0  0  0  0
 30 32  1  0  0  0  0
 32 33  2  0  0  0  0
 18 34  1  0  0  0  0
 34 35  1  0  0  0  0
 35 36  1  0  0  0  0
 36 37  2  0  0  0  0
 37 38  1  0  0  0  0
 38 39  1  0  0  0  0
 39 40  2  0  0  0  0
 40 41  1  0  0  0  0
 41 42  2  0  0  0  0
 42 43  1  0  0  0  0
 42 44  1  0  0  0  0
 44 45  2  0  0  0  0
 38 46  1  0  0  0  0
 46 47  2  0  0  0  0
 47 48  1  0  0  0  0
 48 49  2  0  0  0  0
 49 50  1  0  0  0  0
 49 51  1  0  0  0  0
 51 52  2  0  0  0  0
 37 53  1  0  0  0  0
 53 54  1  0  0  0  0
 36 55  1  0  0  0  0
 55 56  2  0  0  0  0
 56 57  1  0  0  0  0
 57 58  2  0  0  0  0
 58 59  1  0  0  0  0
 59 60  2  0  0  0  0
 60 61  1  0  0  0  0
 61 62  1  0  0  0  0
 62 63  1  0  0  0  0
 61 64  2  0  0  0  0
 56 65  1  0  0  0  0
 65 66  1  0  0  0  0
 66 67  1  0  0  0  0
 67 68  1  0  0  0  0
 68 69  1  0  0  0  0
 69 70  1  0  0  0  0
 70 71  2  0  0  0  0
 71 72  1  0  0  0  0
 72 73  1  0  0  0  0
 70 74  1  0  0  0  0
 74 75  1  0  0  0  0
 75 76  1  0  0  0  0
 76 77  1  0  0  0  0
 77 78  1  0  0  0  0
 78 79  1  0  0  0  0
 79 80  2  0  0  0  0
 80 81  1  0  0  0  0
 81 82  2  0  0  0  0
 82 83  1  0  0  0  0
 83 84  1  0  0  0  0
 84 85  1  0  0  0  0
 83 86  2  0  0  0  0
 78 87  2  0  0  0  0
 87 88  1  0  0  0  0
 88 89  1  0  0  0  0
 89 90  1  0  0  0  0
 90 91  1  0  0  0  0
 91 92  1  0  0  0  0
 92 93  1  0  0  0  0
 93 94  1  0  0  0  0
 94 95  1  0  0  0  0
 95 96  1  0  0  0  0
 96 97  1  0  0  0  0
 94 98  1  0  0  0  0
 98 99  1  0  0  0  0
 91100  1  0  0  0  0
100101  1  0  0  0  0
 87102  1  0  0  0  0
102103  2  0  0  0  0
103104  1  0  0  0  0
104105  1  0  0  0  0
105106  1  0  0  0  0
106107  1  0  0  0  0
104108  2  0  0  0  0
108109  1  0  0  0  0
108110  1  0  0  0  0
110111  2  0  0  0  0
111112  1  0  0  0  0
112113  2  0  0  0  0
112114  1  0  0  0  0
114115  1  0  0  0  0
115116  1  0  0  0  0
116117  1  0  0  0  0
116118  2  0  0  0  0
118119  1  0  0  0  0
119120  1  0  0  0  0
120121  2  0  0  0  0
121122  1  0  0  0  0
122123  3  0  0  0  0
121124  1  0  0  0  0
124125  3  0  0  0  0
 11  2  1  0  0  0  0
 54 17  1  0  0  0  0
 97 55  1  0  0  0  0
109102  1  0  0  0  0
120111  1  0  0  0  0
 10  5  2  0  0  0  0
 26 20  1  0  0  0  0
 33 27  1  0  0  0  0
 53 34  2  0  0  0  0
 64 57  1  0  0  0  0
 96 65  2  0  0  0  0
119114  2  0  0  0  0
 45 39  1  0  0  0  0
 52 46  1  0  0  0  0
 95 67  2  0  0  0  0
 93 68  2  0  0  0  0
 73 69  2  0  0  0  0
 92 74  2  0  0  0  0
 90 75  2  0  0  0  0
 89 77  2  0  0  0  0
 86 79  1  0  0  0  0
  1126  1  0  0  0  0
  8127  1  0  0  0  0
  8128  1  0  0  0  0
  8129  1  0  0  0  0
  9130  1  0  0  0  0
 21131  1  0  0  0  0
 22132  1  0  0  0  0
 24133  1  0  0  0  0
 24134  1  0  0  0  0
 24135  1  0  0  0  0
 25136  1  0  0  0  0
 26137  1  0  0  0  0
 28138  1  0  0  0  0
 29139  1  0  0  0  0
 31140  1  0  0  0  0
 31141  1  0  0  0  0
 31142  1  0  0  0  0
 32143  1  0  0  0  0
 33144  1  0  0  0  0
 40145  1  0  0  0  0
 41146  1  0  0  0  0
 43147  1  0  0  0  0
 43148  1  0  0  0  0
 43149  1  0  0  0  0
 44150  1  0  0  0  0
 45151  1  0  0  0  0
 47152  1  0  0  0  0
 48153  1  0  0  0  0
 50154  1  0  0  0  0
 50155  1  0  0  0  0
 50156  1  0  0  0  0
 51157  1  0  0  0  0
 52158  1  0  0  0  0
 58159  1  0  0  0  0
 59160  1  0  0  0  0
 60161  1  0  0  0  0
 62162  1  0  0  0  0
 62163  1  0  0  0  0
 63164  1  0  0  0  0
 63165  1  0  0  0  0
 63166  1  0  0  0  0
 64167  1  0  0  0  0
 80168  1  0  0  0  0
 81169  1  0  0  0  0
 82170  1  0  0  0  0
 84171  1  0  0  0  0
 84172  1  0  0  0  0
 85173  1  0  0  0  0
 85174  1  0  0  0  0
 85175  1  0  0  0  0
 86176  1  0  0  0  0
 98177  1  0  0  0  0
 98178  1  0  0  0  0
 99179  1  0  0  0  0
 99180  1  0  0  0  0
 99181  1  0  0  0  0
100182  1  0  0  0  0
100183  1  0  0  0  0
101184  1  0  0  0  0
101185  1  0  0  0  0
101186  1  0  0  0  0
103187  1  0  0  0  0
106188  1  0  0  0  0
106189  1  0  0  0  0
107190  1  0  0  0  0
107191  1  0  0  0  0
107192  1  0  0  0  0
110193  1  0  0  0  0
117194  1  0  0  0  0
117195  1  0  0  0  0
117196  1  0  0  0  0
118197  1  0  0  0  0
M  END
