149

C          7.83070       -7.50400        3.03660
C          7.79590       -8.70720        3.71050
C          6.62140       -9.56330        3.86100
O          5.50800       -9.38810        3.39120
C          7.08370      -10.76000        4.59890
C          6.35110      -11.85100        5.01390
C          7.03140      -12.86430        5.68070
Cl         6.16170      -14.24760        6.23150
C          8.39850      -12.78440        5.91160
C          9.12770      -11.68400        5.48380
C          8.46770      -10.66000        4.82250
C          8.94100       -9.39140        4.26870
C         10.23300       -8.93200        4.33430
C         10.68720       -7.68460        3.85990
N         11.14120       -6.68940        3.50750
C         11.30030       -9.65390        4.90670
N         12.21440      -10.18290        5.35780
C          6.78350       -6.65370        2.67870
Se         7.19950       -5.27130        1.43930
C          5.45290       -4.60530        1.64530
C          4.75340       -5.37960        2.57790
C          3.46200       -5.25720        3.16450
C          3.22220       -6.18680        4.11720
C          2.00550       -6.38780        4.95400
C          0.88480       -5.40260        4.64460
S          4.56480       -7.30080        4.32800
C          5.47290       -6.48350        3.11710
C          4.96940       -3.50980        0.88980
C          5.68290       -2.67840        0.03330
C          7.13730       -2.72350       -0.15990
C          7.67110       -3.02890       -1.40740
C          9.04380       -3.05640       -1.57430
C          9.88400       -2.78180       -0.50950
C          9.36720       -2.45220        0.73760
C         10.26520       -2.20890        1.91400
C         10.36560       -3.47980        2.76000
C          7.98940       -2.41670        0.89910
C          4.85510       -1.75230       -0.61300
S          5.19460       -0.47980       -1.76150
C          3.51620       -0.05710       -1.73810
C          2.64630        0.86090       -2.34080
C          2.89380        1.82740       -3.33910
C          1.79650        2.59860       -3.83840
N          2.16070        3.44040       -4.79330
S          3.75220        3.27470       -5.04030
N          4.03680        2.12380       -3.93800
C          0.52300        2.42270       -3.25610
C         -0.67050        3.12540       -3.46870
S         -1.27620        4.41780       -4.44900
C         -2.79650        4.31410       -3.59260
C         -3.99230        5.03640       -3.70100
C         -4.21340        6.09150       -4.69490
C         -5.22890        5.96470       -5.64240
C         -5.39940        6.94800       -6.59930
C         -4.56780        8.05430       -6.61710
C         -3.54430        8.18910       -5.68720
C         -2.60140        9.35500       -5.74690
C         -1.41250        9.02520       -6.65210
C         -3.37070        7.19610       -4.73390
C         -4.93390        4.61030       -2.77270
S         -4.33840        3.27180       -1.79330
C         -2.81740        3.31610       -2.61130
C         -1.59910        2.63180       -2.54870
N         -1.02840        1.64680       -1.79140
C          0.27970        1.47910       -2.21220
C          1.34420        0.62550       -1.80600
N          1.43460       -0.44890       -0.93620
C          2.74170       -0.85080       -0.88720
C          3.50600       -1.83380       -0.25010
S          3.25140       -3.10540        0.88990
C          0.43710       -1.25580       -0.27330
C          0.39460       -0.99020        1.23220
C         -1.78240        1.10520       -0.68590
C         -2.80020        0.06260       -1.14880
C         -6.19620        5.17550       -2.47590
Se        -6.77850        6.84250       -3.13920
C         -8.29090        6.71420       -1.99220
C         -8.29540        5.47540       -1.34510
C         -9.23850        4.79570       -0.53500
C         -8.81080        3.57470       -0.12790
C         -9.49530        2.63330        0.79710
C         -8.97200        2.82160        2.22400
S         -7.22190        3.17220       -0.73980
C         -7.14690        4.68090       -1.59600
C         -9.17670        7.79090       -1.93040
C         -9.99980        8.13790       -0.87930
C         -9.80000        7.72910        0.52120
O         -8.96820        6.96910        0.97790
C        -10.76590        8.53530        1.30670
C        -10.97400        8.52860        2.66940
C        -11.93890        9.39240        3.17550
Cl       -12.24580        9.41870        4.87250
C        -12.66030       10.23600        2.34040
C        -12.44030       10.23760        0.97040
C        -11.48620        9.37980        0.44560
C        -11.03440        9.14270       -0.92430
C        -11.56460        9.72250       -2.05100
C        -12.58370       10.69510       -2.03290
N        -13.40700       11.49430       -2.08360
C        -11.18800        9.40880       -3.37260
N        -10.95240        9.18870       -4.47550
H          8.80740       -7.14650        2.72460
H          5.29030      -11.90730        4.82750
H          8.89720      -13.58910        6.42870
H         10.18830      -11.64690        5.67100
H          2.75780       -4.49330        2.89540
H          1.64720       -7.41060        4.80290
H          2.28840       -6.30480        6.00790
H          0.02630       -5.61040        5.27820
H          1.20890       -4.38140        4.82950
H          0.57520       -5.48920        3.60600
H          7.01150       -3.24770       -2.23410
H          9.45980       -3.29850       -2.54110
H         10.95470       -2.81860       -0.64720
H         11.26040       -1.92040        1.57250
H          9.86350       -1.39830        2.52590
H         11.00380       -3.31620        3.62400
H         10.78120       -4.29780        2.17770
H          9.37900       -3.78160        3.11050
H          7.56660       -2.13680        1.85530
H         -5.85920        5.08610       -5.63820
H         -6.18160        6.84860       -7.33690
H         -4.71190        8.82150       -7.36380
H         -2.23730        9.58950       -4.74490
H         -3.12070       10.23220       -6.13720
H         -1.75520        8.80400       -7.66030
H         -0.87870        8.15610       -6.27430
H         -0.72430        9.86580       -6.69560
H         -2.57650        7.28220       -4.00610
H          0.71110       -2.30500       -0.43110
H         -0.53030       -1.09610       -0.74050
H          0.28070        0.06990        1.44920
H          1.31750       -1.32720        1.69640
H         -0.43350       -1.53340        1.67890
H         -2.32600        1.93790       -0.22610
H         -1.10230        0.70530        0.05970
H         -3.56410        0.53440       -1.76100
H         -2.33010       -0.71930       -1.74210
H         -3.28290       -0.38930       -0.28700
H        -10.20600        5.18760       -0.28360
H        -10.56920        2.82850        0.77270
H         -9.31960        1.60350        0.47800
H         -9.49990        2.16280        2.90850
H         -9.11810        3.85140        2.54080
H         -7.90940        2.59420        2.26870
H         -9.15340        8.45590       -2.78880
H        -10.40650        7.87380        3.31160
H        -13.39840       10.89820        2.76500
H        -13.00750       10.90510        0.34260
