139

C         -3.66160       -2.88690       -1.22630
C         -2.94010       -1.88680       -1.80770
C         -1.52850       -2.12380       -2.20650
O         -0.95970       -3.18620       -2.29300
C         -0.95610       -0.76970       -2.40240
C          0.36300       -0.41130       -2.59400
C          0.64580        0.94170       -2.74310
Cl         2.28220        1.46100       -2.89450
C         -0.37050        1.89000       -2.77530
C         -1.69220        1.52040       -2.58030
C         -1.98600        0.18610       -2.34010
C         -3.24250       -0.48560       -2.01740
C         -4.48970        0.07790       -2.07120
C         -4.73720        1.43820       -2.34700
N         -5.00940        2.52950       -2.57780
C         -5.69290       -0.65310       -1.97120
N         -6.70050       -1.20230       -1.96280
C         -4.73800       -2.73100       -0.31120
C         -5.61380       -3.68880        0.05260
C         -6.54200       -3.46950        1.15120
C         -6.09450       -3.17700        2.37590
C         -4.66890       -3.29280        2.66330
C         -3.91740       -4.43610        2.51670
C         -4.48220       -5.75110        2.21070
C         -3.86110       -6.57710        1.27770
C         -4.41390       -7.80530        0.96830
C         -5.58430       -8.21990        1.57940
C         -6.21120       -7.41360        2.52100
C         -7.50550       -7.82940        3.15880
C         -8.68610       -7.19200        2.42330
C         -5.65000       -6.18390        2.82860
C         -2.53650       -4.16690        2.65990
S         -1.10500       -5.16350        2.54820
C         -0.12630       -3.74150        2.69210
C          1.21420       -3.35000        2.51530
C          2.37550       -4.06530        2.14130
C          3.55130       -3.33790        1.73610
N          4.52150       -4.13840        1.32520
S          4.01180       -5.67120        1.44710
N          2.52920       -5.37390        2.02240
C          3.55790       -1.92800        1.83510
C          4.49070       -0.93640        1.48380
S          5.99600       -0.77910        0.63520
C          5.82860        0.96620        0.68690
C          6.53060        2.02060        0.08200
C          7.77620        1.84090       -0.66530
C          8.87410        2.66320       -0.42220
C         10.05780        2.44960       -1.10160
C         10.15970        1.42060       -2.02240
C          9.07640        0.58880       -2.27420
C          9.19140       -0.56880       -3.22280
C          9.50260       -1.85300       -2.45110
C          7.89110        0.80750       -1.58830
C          5.84920        3.23060        0.22680
S          4.45290        3.07070        1.30220
C          4.69000        1.37370        1.39610
C          3.93900        0.29530        1.86190
N          2.72210        0.10650        2.46180
C          2.44080       -1.23930        2.38710
C          1.23010       -1.93320        2.59750
N         -0.05710       -1.47020        2.81840
C         -0.87210       -2.57300        2.86450
C         -2.25210       -2.82070        2.87290
S         -3.69690       -1.87600        2.99780
C         -0.65110       -0.23080        2.35600
C         -1.12100       -0.36700        0.90910
C          2.19970        1.05430        3.42530
C          3.25930        1.42530        4.46210
C          6.07160        4.44070       -0.47900
C          5.08760        5.29830       -0.89900
C          3.72710        4.94140       -0.91560
C          2.62070        5.70540       -1.17690
C          1.37390        5.07450       -1.06240
C          0.11890        5.60050       -1.24470
C         -0.20230        6.91200       -1.84580
O          0.56340        7.81620       -2.10690
C         -1.66030        6.87220       -2.10200
C         -2.45250        7.79220       -2.72310
C         -3.82380        7.50340       -2.91850
C         -4.68440        8.41480       -3.56190
C         -6.00220        8.11200       -3.76910
C         -6.49110        6.87190       -3.33700
F         -7.78920        6.59340       -3.56190
C         -5.70210        5.95260       -2.70330
C         -4.34690        6.25530       -2.47200
C         -3.50910        5.33060       -1.80590
C         -2.18930        5.63890       -1.62120
C         -1.10720        4.88830       -1.00000
C         -1.24940        3.74830       -0.23970
C         -2.46000        3.07030       -0.01050
N         -3.38050        2.42090        0.22290
C         -0.21260        3.10780        0.45990
N          0.55270        2.52770        1.09490
H         -3.27460       -3.89090       -1.36810
H          1.14090       -1.15830       -2.61450
H         -0.11940        2.92560       -2.94830
H         -2.46630        2.26980       -2.60750
H         -4.81130       -1.76510        0.17550
H         -5.67620       -4.62100       -0.49360
H         -7.59910       -3.53980        0.93610
H         -6.76330       -2.90030        3.17960
H         -2.95550       -6.25130        0.78930
H         -3.93010       -8.44200        0.24240
H         -6.01230       -9.17980        1.32880
H         -7.60410       -8.91590        3.12850
H         -7.52080       -7.51360        4.20410
H         -8.69350       -7.50230        1.38070
H         -9.62640       -7.49000        2.88100
H         -8.61040       -6.10730        2.45650
H         -6.11990       -5.55530        3.57130
H          8.80630        3.44520        0.31990
H         10.90970        3.08460       -0.90700
H         11.09030        1.25950       -2.54710
H          9.98520       -0.37920       -3.94770
H          8.25320       -0.69570       -3.76650
H          9.58290       -2.69590       -3.13320
H          8.71530       -2.06160       -1.73030
H         10.44190       -1.75150       -1.91190
H          7.03920        0.17290       -1.78340
H          0.05820        0.58850        2.40310
H         -1.50270       -0.00910        3.00550
H         -0.26310       -0.48410        0.25070
H         -1.77320       -1.22870        0.78830
H         -1.66920        0.52420        0.61890
H          1.36250        0.58710        3.94380
H          1.86120        1.95230        2.90020
H          4.08830        1.95820        4.00500
H          3.64440        0.53130        4.94900
H          2.81400        2.06820        5.21640
H          7.09730        4.66590       -0.73930
H          5.37410        6.25320       -1.31750
H          3.51860        3.89570       -0.72960
H          2.67660        6.75840       -1.40450
H          1.41560        4.02690       -0.78380
H         -2.03940        8.72680       -3.07220
H         -4.28460        9.36140       -3.89360
H         -6.67310        8.79870       -4.26070
H         -6.10070        4.99990       -2.39250
H         -3.93500        4.39410       -1.48060
