
  xtb     02032216583D
 energy: -285.918384930093 gnorm: 0.000937944169 xtb: 6.4.1 (unknown)
171189  0     0  0            999 V2000
    7.2462   -8.9239   -8.3855 C   0  0  0  0  0  0  0  0  0  0  0  0
    8.0335   -8.7766   -9.4784 C   0  0  0  0  0  0  0  0  0  0  0  0
    7.9701   -9.8018  -10.5614 C   0  0  0  0  0  0  0  0  0  0  0  0
    7.4626  -10.8949  -10.4979 O   0  0  0  0  0  0  0  0  0  0  0  0
    8.6063   -9.1610  -11.7342 C   0  0  0  0  0  0  0  0  0  0  0  0
    8.6895   -9.6284  -13.0297 C   0  0  0  0  0  0  0  0  0  0  0  0
    9.3216   -8.8185  -13.9665 C   0  0  0  0  0  0  0  0  0  0  0  0
    9.4547   -9.3539  -15.5979 Cl  0  0  0  0  0  0  0  0  0  0  0  0
    9.8468   -7.5800  -13.6114 C   0  0  0  0  0  0  0  0  0  0  0  0
    9.7660   -7.1211  -12.3061 C   0  0  0  0  0  0  0  0  0  0  0  0
    9.1445   -7.9175  -11.3552 C   0  0  0  0  0  0  0  0  0  0  0  0
    8.9317   -7.7265   -9.9229 C   0  0  0  0  0  0  0  0  0  0  0  0
    9.6456   -6.8725   -9.1259 C   0  0  0  0  0  0  0  0  0  0  0  0
   10.5824   -5.9401   -9.6185 C   0  0  0  0  0  0  0  0  0  0  0  0
   11.3401   -5.1527   -9.9694 N   0  0  0  0  0  0  0  0  0  0  0  0
    9.5886   -6.8684   -7.7159 C   0  0  0  0  0  0  0  0  0  0  0  0
    9.6207   -6.8361   -6.5694 N   0  0  0  0  0  0  0  0  0  0  0  0
    6.8326   -7.9595   -7.4030 C   0  0  0  0  0  0  0  0  0  0  0  0
    6.7594   -6.5794   -7.6535 C   0  0  0  0  0  0  0  0  0  0  0  0
    6.2801   -5.7501   -6.6698 C   0  0  0  0  0  0  0  0  0  0  0  0
    5.8845   -6.2771   -5.4332 C   0  0  0  0  0  0  0  0  0  0  0  0
    5.9871   -7.6765   -5.2974 C   0  0  0  0  0  0  0  0  0  0  0  0
    6.4166   -8.4717   -6.2382 N   0  0  0  0  0  0  0  0  0  0  0  0
    5.3625   -5.4393   -4.3959 C   0  0  0  0  0  0  0  0  0  0  0  0
    4.8110   -5.8343   -3.1982 C   0  0  0  0  0  0  0  0  0  0  0  0
    4.3273   -4.7836   -2.4153 C   0  0  0  0  0  0  0  0  0  0  0  0
    3.4804   -4.7811   -0.8923 S   0  0  0  0  0  0  0  0  0  0  0  0
    3.3258   -3.0615   -0.9984 C   0  0  0  0  0  0  0  0  0  0  0  0
    2.6722   -2.0462   -0.2310 C   0  0  0  0  0  0  0  0  0  0  0  0
    1.9002   -2.1266    0.9248 C   0  0  0  0  0  0  0  0  0  0  0  0
    1.3157   -0.9650    1.3719 C   0  0  0  0  0  0  0  0  0  0  0  0
    0.3846   -0.7776    2.5586 C   0  0  0  0  0  0  0  0  0  0  0  0
   -0.7639   -1.7608    2.4646 C   0  0  0  0  0  0  0  0  0  0  0  0
   -0.6319   -3.0347    3.0038 C   0  0  0  0  0  0  0  0  0  0  0  0
   -1.6574   -3.9535    2.8915 C   0  0  0  0  0  0  0  0  0  0  0  0
   -2.8402   -3.6272    2.2404 C   0  0  0  0  0  0  0  0  0  0  0  0
   -3.9347   -4.6429    2.0826 C   0  0  0  0  0  0  0  0  0  0  0  0
   -3.7180   -5.4663    0.8113 C   0  0  0  0  0  0  0  0  0  0  0  0
   -2.9636   -2.3565    1.6959 C   0  0  0  0  0  0  0  0  0  0  0  0
   -1.9384   -1.4345    1.8018 C   0  0  0  0  0  0  0  0  0  0  0  0
    1.0825   -0.8651    3.9044 C   0  0  0  0  0  0  0  0  0  0  0  0
    0.3103   -0.8519    5.0602 C   0  0  0  0  0  0  0  0  0  0  0  0
    0.9073   -0.8724    6.3049 C   0  0  0  0  0  0  0  0  0  0  0  0
    2.2911   -0.9033    6.4298 C   0  0  0  0  0  0  0  0  0  0  0  0
    2.9379   -0.9745    7.7830 C   0  0  0  0  0  0  0  0  0  0  0  0
    3.0852   -2.4309    8.2285 C   0  0  0  0  0  0  0  0  0  0  0  0
    3.0573   -0.9130    5.2729 C   0  0  0  0  0  0  0  0  0  0  0  0
    2.4639   -0.8878    4.0231 C   0  0  0  0  0  0  0  0  0  0  0  0
   -0.0241    0.6598    2.3712 C   0  0  0  0  0  0  0  0  0  0  0  0
    0.6658    1.2268    1.3166 C   0  0  0  0  0  0  0  0  0  0  0  0
    1.4888    0.2516    0.6710 C   0  0  0  0  0  0  0  0  0  0  0  0
    2.2877    0.3388   -0.4652 C   0  0  0  0  0  0  0  0  0  0  0  0
    2.8814   -0.8207   -0.9061 C   0  0  0  0  0  0  0  0  0  0  0  0
    3.7498   -1.0209   -2.1364 C   0  0  0  0  0  0  0  0  0  0  0  0
    3.0455   -0.4755   -3.3611 C   0  0  0  0  0  0  0  0  0  0  0  0
    3.1654    0.8712   -3.6833 C   0  0  0  0  0  0  0  0  0  0  0  0
    2.5037    1.3921   -4.7778 C   0  0  0  0  0  0  0  0  0  0  0  0
    1.7052    0.5858   -5.5796 C   0  0  0  0  0  0  0  0  0  0  0  0
    1.0321    1.1470   -6.7988 C   0  0  0  0  0  0  0  0  0  0  0  0
    1.9815    1.1093   -7.9981 C   0  0  0  0  0  0  0  0  0  0  0  0
    1.5851   -0.7570   -5.2512 C   0  0  0  0  0  0  0  0  0  0  0  0
    2.2403   -1.2822   -4.1519 C   0  0  0  0  0  0  0  0  0  0  0  0
    5.1462   -0.4378   -1.9985 C   0  0  0  0  0  0  0  0  0  0  0  0
    5.9733   -0.4117   -3.1155 C   0  0  0  0  0  0  0  0  0  0  0  0
    7.2677    0.0590   -3.0206 C   0  0  0  0  0  0  0  0  0  0  0  0
    7.7716    0.5154   -1.8084 C   0  0  0  0  0  0  0  0  0  0  0  0
    9.1930    0.9859   -1.6989 C   0  0  0  0  0  0  0  0  0  0  0  0
   10.1255   -0.1947   -1.4205 C   0  0  0  0  0  0  0  0  0  0  0  0
    6.9445    0.4782   -0.6947 C   0  0  0  0  0  0  0  0  0  0  0  0
    5.6475    0.0044   -0.7837 C   0  0  0  0  0  0  0  0  0  0  0  0
    3.9074   -2.5178   -2.1285 C   0  0  0  0  0  0  0  0  0  0  0  0
    4.4853   -3.4915   -2.9413 C   0  0  0  0  0  0  0  0  0  0  0  0
    5.3254   -3.5432   -4.5953 Se  0  0  0  0  0  2  0  0  0  0  0  0
    0.2568    2.8829    1.0253 S   0  0  0  0  0  0  0  0  0  0  0  0
   -0.8932    2.8129    2.3294 C   0  0  0  0  0  0  0  0  0  0  0  0
   -1.8214    3.7527    2.7891 C   0  0  0  0  0  0  0  0  0  0  0  0
   -2.6313    3.2899    3.7987 C   0  0  0  0  0  0  0  0  0  0  0  0
   -2.2060    1.5042    4.2972 Se  0  0  0  0  0  2  0  0  0  0  0  0
   -0.9110    1.5600    2.9601 C   0  0  0  0  0  0  0  0  0  0  0  0
   -3.7180    3.9759    4.3990 C   0  0  0  0  0  0  0  0  0  0  0  0
   -4.1382    5.5978    3.8594 S   0  0  0  0  0  0  0  0  0  0  0  0
   -5.4910    5.6102    4.9317 C   0  0  0  0  0  0  0  0  0  0  0  0
   -6.5707    6.4010    5.3113 C   0  0  0  0  0  0  0  0  0  0  0  0
   -7.2958    5.6544    6.2793 C   0  0  0  0  0  0  0  0  0  0  0  0
   -6.6849    4.4421    6.4785 N   0  0  0  0  0  0  0  0  0  0  0  0
   -7.0767    3.4454    7.4416 C   0  0  0  0  0  0  0  0  0  0  0  0
   -6.4042    3.6786    8.7928 C   0  0  0  0  0  0  0  0  0  0  0  0
   -5.5822    4.4084    5.6723 C   0  0  0  0  0  0  0  0  0  0  0  0
   -4.5735    3.4919    5.3660 C   0  0  0  0  0  0  0  0  0  0  0  0
   -8.4323    6.2951    6.7493 C   0  0  0  0  0  0  0  0  0  0  0  0
   -8.6087    7.5351    6.1518 C   0  0  0  0  0  0  0  0  0  0  0  0
   -7.3113    7.9168    5.0006 S   0  0  0  0  0  0  0  0  0  0  0  0
   -9.6058    8.5150    6.2956 C   0  0  0  0  0  0  0  0  0  0  0  0
  -10.8028    8.4969    6.9617 C   0  0  0  0  0  0  0  0  0  0  0  0
  -11.4740    7.3734    7.6441 C   0  0  0  0  0  0  0  0  0  0  0  0
  -11.0201    6.2991    7.9896 O   0  0  0  0  0  0  0  0  0  0  0  0
  -12.8772    7.8015    7.8266 C   0  0  0  0  0  0  0  0  0  0  0  0
  -13.9346    7.0656    8.3217 C   0  0  0  0  0  0  0  0  0  0  0  0
  -15.1862    7.6637    8.3330 C   0  0  0  0  0  0  0  0  0  0  0  0
  -15.3737    8.9370    7.8232 C   0  0  0  0  0  0  0  0  0  0  0  0
  -14.3090    9.6855    7.3098 C   0  0  0  0  0  0  0  0  0  0  0  0
  -14.4335   10.8868    6.7173 O   0  0  0  0  0  0  0  0  0  0  0  0
  -15.6761   11.5510    6.7243 C   0  0  0  0  0  0  0  0  0  0  0  0
  -13.0297    9.1176    7.3657 C   0  0  0  0  0  0  0  0  0  0  0  0
  -11.7222    9.6302    6.9808 C   0  0  0  0  0  0  0  0  0  0  0  0
  -11.3674   10.9457    6.8416 C   0  0  0  0  0  0  0  0  0  0  0  0
  -10.0560   11.4001    6.5756 C   0  0  0  0  0  0  0  0  0  0  0  0
   -9.0224   11.8626    6.3822 N   0  0  0  0  0  0  0  0  0  0  0  0
  -12.1934   12.0680    7.0714 C   0  0  0  0  0  0  0  0  0  0  0  0
  -12.7321   13.0569    7.2964 N   0  0  0  0  0  0  0  0  0  0  0  0
    6.8018   -9.9061   -8.2596 H   0  0  0  0  0  0  0  0  0  0  0  0
    8.2773  -10.5885  -13.2968 H   0  0  0  0  0  0  0  0  0  0  0  0
   10.3227   -6.9723  -14.3649 H   0  0  0  0  0  0  0  0  0  0  0  0
   10.1735   -6.1554  -12.0537 H   0  0  0  0  0  0  0  0  0  0  0  0
    7.0291   -6.1836   -8.6208 H   0  0  0  0  0  0  0  0  0  0  0  0
    6.1956   -4.6817   -6.8429 H   0  0  0  0  0  0  0  0  0  0  0  0
    5.6966   -8.1670   -4.3788 H   0  0  0  0  0  0  0  0  0  0  0  0
    4.7330   -6.8626   -2.8918 H   0  0  0  0  0  0  0  0  0  0  0  0
    1.7537   -3.0700    1.4282 H   0  0  0  0  0  0  0  0  0  0  0  0
    0.2751   -3.3042    3.5257 H   0  0  0  0  0  0  0  0  0  0  0  0
   -1.5393   -4.9387    3.3200 H   0  0  0  0  0  0  0  0  0  0  0  0
   -4.9020   -4.1398    2.0250 H   0  0  0  0  0  0  0  0  0  0  0  0
   -3.9475   -5.3113    2.9460 H   0  0  0  0  0  0  0  0  0  0  0  0
   -2.7627   -5.9846    0.8547 H   0  0  0  0  0  0  0  0  0  0  0  0
   -4.5089   -6.2037    0.6954 H   0  0  0  0  0  0  0  0  0  0  0  0
   -3.7151   -4.8186   -0.0625 H   0  0  0  0  0  0  0  0  0  0  0  0
   -3.8740   -2.0822    1.1821 H   0  0  0  0  0  0  0  0  0  0  0  0
   -2.0565   -0.4549    1.3608 H   0  0  0  0  0  0  0  0  0  0  0  0
   -0.7711   -0.8366    4.9797 H   0  0  0  0  0  0  0  0  0  0  0  0
    0.2910   -0.8605    7.1923 H   0  0  0  0  0  0  0  0  0  0  0  0
    2.3304   -0.4350    8.5124 H   0  0  0  0  0  0  0  0  0  0  0  0
    3.9242   -0.5079    7.7472 H   0  0  0  0  0  0  0  0  0  0  0  0
    2.1104   -2.9107    8.2813 H   0  0  0  0  0  0  0  0  0  0  0  0
    3.5524   -2.4838    9.2090 H   0  0  0  0  0  0  0  0  0  0  0  0
    3.6998   -2.9825    7.5205 H   0  0  0  0  0  0  0  0  0  0  0  0
    4.1353   -0.9347    5.3476 H   0  0  0  0  0  0  0  0  0  0  0  0
    3.0825   -0.8873    3.1378 H   0  0  0  0  0  0  0  0  0  0  0  0
    2.4100    1.2768   -0.9842 H   0  0  0  0  0  0  0  0  0  0  0  0
    3.7918    1.5124   -3.0798 H   0  0  0  0  0  0  0  0  0  0  0  0
    2.6080    2.4416   -5.0137 H   0  0  0  0  0  0  0  0  0  0  0  0
    0.1371    0.5656   -7.0290 H   0  0  0  0  0  0  0  0  0  0  0  0
    0.7303    2.1797   -6.6119 H   0  0  0  0  0  0  0  0  0  0  0  0
    1.4952    1.5160   -8.8817 H   0  0  0  0  0  0  0  0  0  0  0  0
    2.2849    0.0860   -8.2080 H   0  0  0  0  0  0  0  0  0  0  0  0
    2.8748    1.6949   -7.7923 H   0  0  0  0  0  0  0  0  0  0  0  0
    0.9677   -1.4023   -5.8598 H   0  0  0  0  0  0  0  0  0  0  0  0
    2.1180   -2.3286   -3.9100 H   0  0  0  0  0  0  0  0  0  0  0  0
    5.5911   -0.7514   -4.0714 H   0  0  0  0  0  0  0  0  0  0  0  0
    7.8953    0.0744   -3.8998 H   0  0  0  0  0  0  0  0  0  0  0  0
    9.4952    1.4702   -2.6297 H   0  0  0  0  0  0  0  0  0  0  0  0
    9.2816    1.7137   -0.8899 H   0  0  0  0  0  0  0  0  0  0  0  0
   10.0598   -0.9262   -2.2227 H   0  0  0  0  0  0  0  0  0  0  0  0
    9.8488   -0.6836   -0.4890 H   0  0  0  0  0  0  0  0  0  0  0  0
   11.1558    0.1443   -1.3426 H   0  0  0  0  0  0  0  0  0  0  0  0
    7.3178    0.8251    0.2584 H   0  0  0  0  0  0  0  0  0  0  0  0
    5.0242   -0.0165    0.0983 H   0  0  0  0  0  0  0  0  0  0  0  0
   -1.9171    4.7433    2.3786 H   0  0  0  0  0  0  0  0  0  0  0  0
   -8.1631    3.4898    7.5511 H   0  0  0  0  0  0  0  0  0  0  0  0
   -6.8030    2.4627    7.0480 H   0  0  0  0  0  0  0  0  0  0  0  0
   -6.7149    2.9142    9.4993 H   0  0  0  0  0  0  0  0  0  0  0  0
   -5.3221    3.6413    8.6890 H   0  0  0  0  0  0  0  0  0  0  0  0
   -6.6824    4.6528    9.1873 H   0  0  0  0  0  0  0  0  0  0  0  0
   -4.4556    2.5130    5.8018 H   0  0  0  0  0  0  0  0  0  0  0  0
   -9.1197    5.9081    7.4779 H   0  0  0  0  0  0  0  0  0  0  0  0
   -9.3933    9.4170    5.7329 H   0  0  0  0  0  0  0  0  0  0  0  0
  -13.7790    6.0611    8.6812 H   0  0  0  0  0  0  0  0  0  0  0  0
  -16.0370    7.1260    8.7238 H   0  0  0  0  0  0  0  0  0  0  0  0
  -16.3691    9.3524    7.8150 H   0  0  0  0  0  0  0  0  0  0  0  0
  -16.4166   11.0183    6.1194 H   0  0  0  0  0  0  0  0  0  0  0  0
  -15.4772   12.5279    6.2877 H   0  0  0  0  0  0  0  0  0  0  0  0
  -16.0524   11.6822    7.7424 H   0  0  0  0  0  0  0  0  0  0  0  0
  1  2  2  0  0  0  0
  2  3  1  0  0  0  0
  3  4  2  0  0  0  0
  3  5  1  0  0  0  0
  5  6  2  0  0  0  0
  6  7  1  0  0  0  0
  7  8  1  0  0  0  0
  7  9  2  0  0  0  0
  9 10  1  0  0  0  0
 10 11  2  0  0  0  0
 11 12  1  0  0  0  0
 12 13  2  0  0  0  0
 13 14  1  0  0  0  0
 14 15  3  0  0  0  0
 13 16  1  0  0  0  0
 16 17  3  0  0  0  0
  1 18  1  0  0  0  0
 18 19  2  0  0  0  0
 19 20  1  0  0  0  0
 20 21  2  0  0  0  0
 21 22  1  0  0  0  0
 22 23  2  0  0  0  0
 21 24  1  0  0  0  0
 24 25  2  0  0  0  0
 25 26  1  0  0  0  0
 26 27  1  0  0  0  0
 27 28  1  0  0  0  0
 28 29  1  0  0  0  0
 29 30  2  0  0  0  0
 30 31  1  0  0  0  0
 31 32  1  0  0  0  0
 32 33  1  0  0  0  0
 33 34  2  0  0  0  0
 34 35  1  0  0  0  0
 35 36  2  0  0  0  0
 36 37  1  0  0  0  0
 37 38  1  0  0  0  0
 36 39  1  0  0  0  0
 39 40  2  0  0  0  0
 32 41  1  0  0  0  0
 41 42  2  0  0  0  0
 42 43  1  0  0  0  0
 43 44  2  0  0  0  0
 44 45  1  0  0  0  0
 45 46  1  0  0  0  0
 44 47  1  0  0  0  0
 47 48  2  0  0  0  0
 32 49  1  0  0  0  0
 49 50  2  0  0  0  0
 50 51  1  0  0  0  0
 51 52  1  0  0  0  0
 52 53  2  0  0  0  0
 53 54  1  0  0  0  0
 54 55  1  0  0  0  0
 55 56  2  0  0  0  0
 56 57  1  0  0  0  0
 57 58  2  0  0  0  0
 58 59  1  0  0  0  0
 59 60  1  0  0  0  0
 58 61  1  0  0  0  0
 61 62  2  0  0  0  0
 54 63  1  0  0  0  0
 63 64  2  0  0  0  0
 64 65  1  0  0  0  0
 65 66  2  0  0  0  0
 66 67  1  0  0  0  0
 67 68  1  0  0  0  0
 66 69  1  0  0  0  0
 69 70  2  0  0  0  0
 54 71  1  0  0  0  0
 71 72  1  0  0  0  0
 72 73  1  0  0  0  0
 50 74  1  0  0  0  0
 74 75  1  0  0  0  0
 75 76  1  0  0  0  0
 76 77  2  0  0  0  0
 77 78  1  0  0  0  0
 78 79  1  0  0  0  0
 77 80  1  0  0  0  0
 80 81  1  0  0  0  0
 81 82  1  0  0  0  0
 82 83  1  0  0  0  0
 83 84  2  0  0  0  0
 84 85  1  0  0  0  0
 85 86  1  0  0  0  0
 86 87  1  0  0  0  0
 85 88  1  0  0  0  0
 88 89  1  0  0  0  0
 84 90  1  0  0  0  0
 90 91  2  0  0  0  0
 91 92  1  0  0  0  0
 91 93  1  0  0  0  0
 93 94  2  0  0  0  0
 94 95  1  0  0  0  0
 95 96  2  0  0  0  0
 95 97  1  0  0  0  0
 97 98  2  0  0  0  0
 98 99  1  0  0  0  0
 99100  2  0  0  0  0
100101  1  0  0  0  0
101102  1  0  0  0  0
102103  1  0  0  0  0
101104  2  0  0  0  0
104105  1  0  0  0  0
105106  2  0  0  0  0
106107  1  0  0  0  0
107108  3  0  0  0  0
106109  1  0  0  0  0
109110  3  0  0  0  0
 12  2  1  0  0  0  0
 23 18  1  0  0  0  0
 73 24  1  0  0  0  0
 79 75  2  0  0  0  0
 89 80  2  0  0  0  0
105 94  1  0  0  0  0
 11  5  1  0  0  0  0
 72 26  2  0  0  0  0
 88 82  2  0  0  0  0
104 97  1  0  0  0  0
 71 28  2  0  0  0  0
 92 83  1  0  0  0  0
 53 29  1  0  0  0  0
 62 55  1  0  0  0  0
 70 63  1  0  0  0  0
 51 31  2  0  0  0  0
 40 33  1  0  0  0  0
 48 41  1  0  0  0  0
 79 49  1  0  0  0  0
  1111  1  0  0  0  0
  6112  1  0  0  0  0
  9113  1  0  0  0  0
 10114  1  0  0  0  0
 19115  1  0  0  0  0
 20116  1  0  0  0  0
 22117  1  0  0  0  0
 25118  1  0  0  0  0
 30119  1  0  0  0  0
 34120  1  0  0  0  0
 35121  1  0  0  0  0
 37122  1  0  0  0  0
 37123  1  0  0  0  0
 38124  1  0  0  0  0
 38125  1  0  0  0  0
 38126  1  0  0  0  0
 39127  1  0  0  0  0
 40128  1  0  0  0  0
 42129  1  0  0  0  0
 43130  1  0  0  0  0
 45131  1  0  0  0  0
 45132  1  0  0  0  0
 46133  1  0  0  0  0
 46134  1  0  0  0  0
 46135  1  0  0  0  0
 47136  1  0  0  0  0
 48137  1  0  0  0  0
 52138  1  0  0  0  0
 56139  1  0  0  0  0
 57140  1  0  0  0  0
 59141  1  0  0  0  0
 59142  1  0  0  0  0
 60143  1  0  0  0  0
 60144  1  0  0  0  0
 60145  1  0  0  0  0
 61146  1  0  0  0  0
 62147  1  0  0  0  0
 64148  1  0  0  0  0
 65149  1  0  0  0  0
 67150  1  0  0  0  0
 67151  1  0  0  0  0
 68152  1  0  0  0  0
 68153  1  0  0  0  0
 68154  1  0  0  0  0
 69155  1  0  0  0  0
 70156  1  0  0  0  0
 76157  1  0  0  0  0
 86158  1  0  0  0  0
 86159  1  0  0  0  0
 87160  1  0  0  0  0
 87161  1  0  0  0  0
 87162  1  0  0  0  0
 89163  1  0  0  0  0
 90164  1  0  0  0  0
 93165  1  0  0  0  0
 98166  1  0  0  0  0
 99167  1  0  0  0  0
100168  1  0  0  0  0
103169  1  0  0  0  0
103170  1  0  0  0  0
103171  1  0  0  0  0
M  END
