198

C          2.85710      -14.80940       -1.15620
C          3.82150      -14.96680       -2.11480
C          4.49700      -13.91050       -2.90160
O          4.22020      -12.73380       -3.00190
C          5.66100      -14.57350       -3.53160
C          6.63740      -14.00220       -4.32110
C          7.64660      -14.83160       -4.79540
Cl         8.89110      -14.17190       -5.78800
C          7.67160      -16.18590       -4.48110
C          6.68400      -16.75110       -3.68900
C          5.66500      -15.94040       -3.20920
C          4.50090      -16.22560       -2.37700
C          4.09070      -17.47450       -1.99140
C          4.79280      -18.66120       -2.29150
N          5.32040      -19.66020       -2.49470
C          2.90250      -17.76890       -1.28810
N          1.94730      -18.10150       -0.74440
C          2.08530      -13.67650       -0.82310
C          1.80960      -12.52430       -1.52090
C          0.97780      -11.62500       -0.82840
C          0.55260      -10.34760       -1.25340
C          0.99870       -9.77740       -2.52700
C          2.34620       -9.78810       -2.88060
C          2.77210       -9.24810       -4.07780
C          1.85340       -8.67910       -4.95010
S          2.25650       -7.98380       -6.52070
C          4.07660       -7.83040       -6.52050
C          4.56020       -6.72910       -5.59620
C          0.50310       -8.66370       -4.60370
C          0.08250       -9.20260       -3.40880
C         -0.28260       -9.66080       -0.38970
C         -0.68420      -10.16670        0.87320
C         -0.24070      -11.42750        1.30880
C         -0.59750      -11.94250        2.63700
C         -1.16510      -13.20600        2.79070
C         -1.51750      -13.66710        4.04030
C         -1.29760      -12.88340        5.17140
S         -1.77530      -13.58650        6.71880
C         -1.85050      -12.16810        7.86850
C         -2.97210      -11.20670        7.52410
C         -0.70070      -11.63730        5.03020
C         -0.36380      -11.17360        3.77370
C          0.56650      -12.13560        0.43410
S          1.25030      -13.70610        0.73160
C         -1.52150       -9.26200        1.56900
C         -1.73690       -8.08810        0.90480
S         -0.91930       -8.05710       -0.64880
C         -2.46320       -6.93150        1.32070
C         -3.44850       -6.79060        2.27760
C         -4.07020       -7.87340        3.09970
C         -3.40850       -7.97600        4.47560
C         -3.84040       -5.44480        2.40180
S         -4.98820       -4.64600        3.45170
C         -4.55260       -3.12850        2.74160
C         -4.87040       -1.76210        2.86180
C         -5.84460       -1.05060        3.59850
C         -5.97570        0.37170        3.40420
N         -6.97140        0.88550        4.10860
S         -7.67850       -0.30450        4.94830
N         -6.74320       -1.52570        4.44600
C         -5.03510        1.04680        2.59340
C         -4.77710        2.40780        2.34390
S         -5.43400        3.96080        2.72590
C         -4.09720        4.72650        1.88260
C         -3.70500        6.06160        1.64600
O         -4.26350        7.21590        2.06050
C         -5.61590        7.21710        2.48530
C         -6.58480        7.03110        1.32510
C         -2.52800        6.12810        0.91190
S         -1.88920        4.54730        0.51700
C         -3.20670        3.79530        1.34000
C         -3.59340        2.47700        1.60480
N         -3.11250        1.21420        1.36010
C         -4.00200        0.32780        1.94060
C         -4.02550       -1.08250        1.94770
N         -3.27190       -2.00060        1.23950
C         -3.58330       -3.24100        1.73940
C         -3.17820       -4.56610        1.54380
S         -2.04680       -5.40460        0.54870
C         -2.80490       -1.85230       -0.12490
C         -3.76140       -2.51800       -1.11400
C         -1.68930        1.00630        1.17890
C         -0.90050        1.49610        2.39310
C         -1.84410        7.30370        0.51300
C         -0.71920        7.37970       -0.26330
C         -0.25780        8.69890       -0.46140
C          0.84140        9.12190       -1.23130
C          1.71860        8.16060       -1.91030
C          2.27330        7.08520       -1.21600
C          3.10130        6.19030       -1.85570
C          3.39490        6.34330       -3.21000
S          4.44860        5.12360       -3.92540
C          4.85920        5.80130       -5.57750
C          5.92880        4.93460       -6.21450
C          2.84630        7.40980       -3.90960
C          2.02270        8.30880       -3.25970
C          1.05460       10.48790       -1.30730
C          0.23640       11.44300       -0.64040
C         -0.87460       11.01530        0.11990
C         -1.76120       11.97230        0.78660
C         -2.29000       13.06270        0.09490
C         -3.15340       13.93570        0.71840
C         -3.50180       13.74990        2.05460
S         -4.60310       14.93740        2.75750
C         -5.32820       14.08420        4.20200
C         -6.18290       12.89820        3.79790
C         -2.95930       12.68260        2.75820
C         -2.10790       11.80030        2.12410
C         -1.08420        9.65030        0.19470
S         -2.40790        8.87220        1.03580
C          0.70660       12.75760       -0.80060
C          1.83730       12.85370       -1.58060
S          2.36300       11.26360       -2.14800
C          2.61660       13.94650       -2.00800
C          2.53840       15.28900       -1.74380
C          1.61270       16.00350       -0.83820
O          0.66340       15.57620       -0.21460
C          2.07500       17.40920       -0.82480
C          1.55860       18.46270       -0.09950
C          2.17120       19.70160       -0.24440
Cl         1.57160       21.05460        0.63800
C          3.26300       19.86890       -1.08900
C          3.77120       18.80350       -1.81610
C          3.17280       17.55770       -1.68690
C          3.45950       16.26620       -2.30540
C          4.40780       16.06130       -3.27450
C          5.26000       17.07130       -3.77040
N          5.98860       17.83600       -4.22050
C          4.67770       14.85380       -3.95390
N          4.96850       13.93360       -4.57750
H          2.67130      -15.66190       -0.51280
H          6.61030      -12.95020       -4.55670
H          8.47180      -16.80220       -4.85980
H          6.72830      -17.80210       -3.45560
H          2.17810      -12.34290       -2.51210
H          3.07710      -10.20870       -2.20730
H          3.82250       -9.28980       -4.31540
H          4.50430       -8.80120       -6.27350
H          4.31640       -7.59960       -7.55860
H          5.64500       -6.65410       -5.64580
H          4.13100       -5.77510       -5.89340
H          4.27130       -6.92830       -4.56640
H         -0.20840       -8.22880       -5.28900
H         -0.96950       -9.20330       -3.16610
H         -1.35490      -13.81780        1.92180
H         -1.96990      -14.63970        4.15720
H         -2.02160      -12.63360        8.83900
H         -0.87610      -11.68090        7.88570
H         -2.82990      -10.78390        6.53160
H         -3.92850      -11.72390        7.54330
H         -2.99950      -10.39410        8.24780
H         -0.48190      -11.02210        5.88870
H          0.11600      -10.21010        3.67580
H         -1.91950       -9.48170        2.54030
H         -4.00490       -8.82690        2.57430
H         -5.12610       -7.62900        3.23820
H         -3.87160       -8.77220        5.05330
H         -3.52780       -7.04090        5.01750
H         -2.34460       -8.18360        4.38150
H         -5.77730        6.44960        3.25080
H         -5.74810        8.20290        2.93780
H         -6.40970        7.79350        0.56970
H         -6.45720        6.05140        0.87060
H         -7.60520        7.11570        1.68660
H         -2.74740       -0.79200       -0.36590
H         -1.81160       -2.30530       -0.20950
H         -4.76130       -2.10280       -1.00650
H         -3.80870       -3.59080       -0.95090
H         -3.41520       -2.33930       -2.12810
H         -1.37190        1.55080        0.28440
H         -1.49340       -0.05550        1.04930
H         -1.02600        2.56570        2.53480
H         -1.23710        0.98190        3.29100
H          0.15580        1.28960        2.24650
H         -0.25260        6.51020       -0.69120
H          2.07370        6.97070       -0.16070
H          3.53690        5.36300       -1.31590
H          3.95000        5.80090       -6.17960
H          5.21630        6.82110       -5.43410
H          5.57200        3.91410       -6.33260
H          6.82240        4.91750       -5.59500
H          6.18920        5.33030       -7.19390
H          3.04610        7.55080       -4.95950
H          1.59170        9.12580       -3.81890
H         -2.04810       13.20380       -0.94760
H         -3.57150       14.77130        0.17860
H         -5.93220       14.85550        4.67960
H         -4.52470       13.80310        4.88200
H         -6.62250       12.44040        4.68220
H         -6.98410       13.22140        3.13740
H         -5.58830       12.15030        3.27680
H         -3.18260       12.53220        3.80260
H         -1.68290       10.98170        2.68560
H          0.24690       13.61380       -0.34300
H          3.42990       13.64410       -2.65740
H          0.71180       18.31870        0.55290
H          3.71870       20.84260       -1.17780
H          4.61920       18.96140       -2.46150
