
  xtb     02112204383D
 energy: -344.282494225694 gnorm: 0.000268819805 xtb: 6.4.1 (unknown)
198219  0     0  0            999 V2000
    2.8571  -14.8094   -1.1562 C   0  0  0  0  0  0  0  0  0  0  0  0
    3.8215  -14.9668   -2.1148 C   0  0  0  0  0  0  0  0  0  0  0  0
    4.4970  -13.9105   -2.9016 C   0  0  0  0  0  0  0  0  0  0  0  0
    4.2202  -12.7338   -3.0019 O   0  0  0  0  0  0  0  0  0  0  0  0
    5.6610  -14.5735   -3.5316 C   0  0  0  0  0  0  0  0  0  0  0  0
    6.6374  -14.0022   -4.3211 C   0  0  0  0  0  0  0  0  0  0  0  0
    7.6466  -14.8316   -4.7954 C   0  0  0  0  0  0  0  0  0  0  0  0
    8.8911  -14.1719   -5.7880 Cl  0  0  0  0  0  0  0  0  0  0  0  0
    7.6716  -16.1859   -4.4811 C   0  0  0  0  0  0  0  0  0  0  0  0
    6.6840  -16.7511   -3.6890 C   0  0  0  0  0  0  0  0  0  0  0  0
    5.6650  -15.9404   -3.2092 C   0  0  0  0  0  0  0  0  0  0  0  0
    4.5009  -16.2256   -2.3770 C   0  0  0  0  0  0  0  0  0  0  0  0
    4.0907  -17.4745   -1.9914 C   0  0  0  0  0  0  0  0  0  0  0  0
    4.7928  -18.6612   -2.2915 C   0  0  0  0  0  0  0  0  0  0  0  0
    5.3204  -19.6602   -2.4947 N   0  0  0  0  0  0  0  0  0  0  0  0
    2.9025  -17.7689   -1.2881 C   0  0  0  0  0  0  0  0  0  0  0  0
    1.9473  -18.1015   -0.7444 N   0  0  0  0  0  0  0  0  0  0  0  0
    2.0853  -13.6765   -0.8231 C   0  0  0  0  0  0  0  0  0  0  0  0
    1.8096  -12.5243   -1.5209 C   0  0  0  0  0  0  0  0  0  0  0  0
    0.9778  -11.6250   -0.8284 C   0  0  0  0  0  0  0  0  0  0  0  0
    0.5526  -10.3476   -1.2534 C   0  0  0  0  0  0  0  0  0  0  0  0
    0.9987   -9.7774   -2.5270 C   0  0  0  0  0  0  0  0  0  0  0  0
    2.3462   -9.7881   -2.8806 C   0  0  0  0  0  0  0  0  0  0  0  0
    2.7721   -9.2481   -4.0778 C   0  0  0  0  0  0  0  0  0  0  0  0
    1.8534   -8.6791   -4.9501 C   0  0  0  0  0  0  0  0  0  0  0  0
    2.2565   -7.9838   -6.5207 S   0  0  0  0  0  0  0  0  0  0  0  0
    4.0766   -7.8304   -6.5205 C   0  0  0  0  0  0  0  0  0  0  0  0
    4.5602   -6.7291   -5.5962 C   0  0  0  0  0  0  0  0  0  0  0  0
    0.5031   -8.6637   -4.6037 C   0  0  0  0  0  0  0  0  0  0  0  0
    0.0825   -9.2026   -3.4088 C   0  0  0  0  0  0  0  0  0  0  0  0
   -0.2826   -9.6608   -0.3897 C   0  0  0  0  0  0  0  0  0  0  0  0
   -0.6842  -10.1667    0.8732 C   0  0  0  0  0  0  0  0  0  0  0  0
   -0.2407  -11.4275    1.3088 C   0  0  0  0  0  0  0  0  0  0  0  0
   -0.5975  -11.9425    2.6370 C   0  0  0  0  0  0  0  0  0  0  0  0
   -1.1651  -13.2060    2.7907 C   0  0  0  0  0  0  0  0  0  0  0  0
   -1.5175  -13.6671    4.0403 C   0  0  0  0  0  0  0  0  0  0  0  0
   -1.2976  -12.8834    5.1714 C   0  0  0  0  0  0  0  0  0  0  0  0
   -1.7753  -13.5865    6.7188 S   0  0  0  0  0  0  0  0  0  0  0  0
   -1.8505  -12.1681    7.8685 C   0  0  0  0  0  0  0  0  0  0  0  0
   -2.9721  -11.2067    7.5241 C   0  0  0  0  0  0  0  0  0  0  0  0
   -0.7007  -11.6373    5.0302 C   0  0  0  0  0  0  0  0  0  0  0  0
   -0.3638  -11.1736    3.7737 C   0  0  0  0  0  0  0  0  0  0  0  0
    0.5665  -12.1356    0.4341 C   0  0  0  0  0  0  0  0  0  0  0  0
    1.2503  -13.7061    0.7316 S   0  0  0  0  0  0  0  0  0  0  0  0
   -1.5215   -9.2620    1.5690 C   0  0  0  0  0  0  0  0  0  0  0  0
   -1.7369   -8.0881    0.9048 C   0  0  0  0  0  0  0  0  0  0  0  0
   -0.9193   -8.0571   -0.6488 S   0  0  0  0  0  0  0  0  0  0  0  0
   -2.4632   -6.9315    1.3207 C   0  0  0  0  0  0  0  0  0  0  0  0
   -3.4485   -6.7906    2.2776 C   0  0  0  0  0  0  0  0  0  0  0  0
   -4.0702   -7.8734    3.0997 C   0  0  0  0  0  0  0  0  0  0  0  0
   -3.4085   -7.9760    4.4756 C   0  0  0  0  0  0  0  0  0  0  0  0
   -3.8404   -5.4448    2.4018 C   0  0  0  0  0  0  0  0  0  0  0  0
   -4.9882   -4.6460    3.4517 S   0  0  0  0  0  0  0  0  0  0  0  0
   -4.5526   -3.1285    2.7416 C   0  0  0  0  0  0  0  0  0  0  0  0
   -4.8704   -1.7621    2.8618 C   0  0  0  0  0  0  0  0  0  0  0  0
   -5.8446   -1.0506    3.5985 C   0  0  0  0  0  0  0  0  0  0  0  0
   -5.9757    0.3717    3.4042 C   0  0  0  0  0  0  0  0  0  0  0  0
   -6.9714    0.8855    4.1086 N   0  0  0  0  0  0  0  0  0  0  0  0
   -7.6785   -0.3045    4.9483 S   0  0  0  0  0  0  0  0  0  0  0  0
   -6.7432   -1.5257    4.4460 N   0  0  0  0  0  0  0  0  0  0  0  0
   -5.0351    1.0468    2.5934 C   0  0  0  0  0  0  0  0  0  0  0  0
   -4.7771    2.4078    2.3439 C   0  0  0  0  0  0  0  0  0  0  0  0
   -5.4340    3.9608    2.7259 S   0  0  0  0  0  0  0  0  0  0  0  0
   -4.0972    4.7265    1.8826 C   0  0  0  0  0  0  0  0  0  0  0  0
   -3.7050    6.0616    1.6460 C   0  0  0  0  0  0  0  0  0  0  0  0
   -4.2635    7.2159    2.0605 O   0  0  0  0  0  0  0  0  0  0  0  0
   -5.6159    7.2171    2.4853 C   0  0  0  0  0  0  0  0  0  0  0  0
   -6.5848    7.0311    1.3251 C   0  0  0  0  0  0  0  0  0  0  0  0
   -2.5280    6.1281    0.9119 C   0  0  0  0  0  0  0  0  0  0  0  0
   -1.8892    4.5473    0.5170 S   0  0  0  0  0  0  0  0  0  0  0  0
   -3.2067    3.7953    1.3400 C   0  0  0  0  0  0  0  0  0  0  0  0
   -3.5934    2.4770    1.6048 C   0  0  0  0  0  0  0  0  0  0  0  0
   -3.1125    1.2142    1.3601 N   0  0  0  0  0  0  0  0  0  0  0  0
   -4.0020    0.3278    1.9406 C   0  0  0  0  0  0  0  0  0  0  0  0
   -4.0255   -1.0825    1.9477 C   0  0  0  0  0  0  0  0  0  0  0  0
   -3.2719   -2.0006    1.2395 N   0  0  0  0  0  0  0  0  0  0  0  0
   -3.5833   -3.2410    1.7394 C   0  0  0  0  0  0  0  0  0  0  0  0
   -3.1782   -4.5661    1.5438 C   0  0  0  0  0  0  0  0  0  0  0  0
   -2.0468   -5.4046    0.5487 S   0  0  0  0  0  0  0  0  0  0  0  0
   -2.8049   -1.8523   -0.1249 C   0  0  0  0  0  0  0  0  0  0  0  0
   -3.7614   -2.5180   -1.1140 C   0  0  0  0  0  0  0  0  0  0  0  0
   -1.6893    1.0063    1.1789 C   0  0  0  0  0  0  0  0  0  0  0  0
   -0.9005    1.4961    2.3931 C   0  0  0  0  0  0  0  0  0  0  0  0
   -1.8441    7.3037    0.5130 C   0  0  0  0  0  0  0  0  0  0  0  0
   -0.7192    7.3797   -0.2633 C   0  0  0  0  0  0  0  0  0  0  0  0
   -0.2578    8.6989   -0.4614 C   0  0  0  0  0  0  0  0  0  0  0  0
    0.8414    9.1219   -1.2313 C   0  0  0  0  0  0  0  0  0  0  0  0
    1.7186    8.1606   -1.9103 C   0  0  0  0  0  0  0  0  0  0  0  0
    2.2733    7.0852   -1.2160 C   0  0  0  0  0  0  0  0  0  0  0  0
    3.1013    6.1903   -1.8557 C   0  0  0  0  0  0  0  0  0  0  0  0
    3.3949    6.3433   -3.2100 C   0  0  0  0  0  0  0  0  0  0  0  0
    4.4486    5.1236   -3.9254 S   0  0  0  0  0  0  0  0  0  0  0  0
    4.8592    5.8013   -5.5775 C   0  0  0  0  0  0  0  0  0  0  0  0
    5.9288    4.9346   -6.2145 C   0  0  0  0  0  0  0  0  0  0  0  0
    2.8463    7.4098   -3.9096 C   0  0  0  0  0  0  0  0  0  0  0  0
    2.0227    8.3088   -3.2597 C   0  0  0  0  0  0  0  0  0  0  0  0
    1.0546   10.4879   -1.3073 C   0  0  0  0  0  0  0  0  0  0  0  0
    0.2364   11.4430   -0.6404 C   0  0  0  0  0  0  0  0  0  0  0  0
   -0.8746   11.0153    0.1199 C   0  0  0  0  0  0  0  0  0  0  0  0
   -1.7612   11.9723    0.7866 C   0  0  0  0  0  0  0  0  0  0  0  0
   -2.2900   13.0627    0.0949 C   0  0  0  0  0  0  0  0  0  0  0  0
   -3.1534   13.9357    0.7184 C   0  0  0  0  0  0  0  0  0  0  0  0
   -3.5018   13.7499    2.0546 C   0  0  0  0  0  0  0  0  0  0  0  0
   -4.6031   14.9374    2.7575 S   0  0  0  0  0  0  0  0  0  0  0  0
   -5.3282   14.0842    4.2020 C   0  0  0  0  0  0  0  0  0  0  0  0
   -6.1829   12.8982    3.7979 C   0  0  0  0  0  0  0  0  0  0  0  0
   -2.9593   12.6826    2.7582 C   0  0  0  0  0  0  0  0  0  0  0  0
   -2.1079   11.8003    2.1241 C   0  0  0  0  0  0  0  0  0  0  0  0
   -1.0842    9.6503    0.1947 C   0  0  0  0  0  0  0  0  0  0  0  0
   -2.4079    8.8722    1.0358 S   0  0  0  0  0  0  0  0  0  0  0  0
    0.7066   12.7576   -0.8006 C   0  0  0  0  0  0  0  0  0  0  0  0
    1.8373   12.8537   -1.5806 C   0  0  0  0  0  0  0  0  0  0  0  0
    2.3630   11.2636   -2.1480 S   0  0  0  0  0  0  0  0  0  0  0  0
    2.6166   13.9465   -2.0080 C   0  0  0  0  0  0  0  0  0  0  0  0
    2.5384   15.2890   -1.7438 C   0  0  0  0  0  0  0  0  0  0  0  0
    1.6127   16.0035   -0.8382 C   0  0  0  0  0  0  0  0  0  0  0  0
    0.6634   15.5762   -0.2146 O   0  0  0  0  0  0  0  0  0  0  0  0
    2.0750   17.4092   -0.8248 C   0  0  0  0  0  0  0  0  0  0  0  0
    1.5586   18.4627   -0.0995 C   0  0  0  0  0  0  0  0  0  0  0  0
    2.1712   19.7016   -0.2444 C   0  0  0  0  0  0  0  0  0  0  0  0
    1.5716   21.0546    0.6380 Cl  0  0  0  0  0  0  0  0  0  0  0  0
    3.2630   19.8689   -1.0890 C   0  0  0  0  0  0  0  0  0  0  0  0
    3.7712   18.8035   -1.8161 C   0  0  0  0  0  0  0  0  0  0  0  0
    3.1728   17.5577   -1.6869 C   0  0  0  0  0  0  0  0  0  0  0  0
    3.4595   16.2662   -2.3054 C   0  0  0  0  0  0  0  0  0  0  0  0
    4.4078   16.0613   -3.2745 C   0  0  0  0  0  0  0  0  0  0  0  0
    5.2600   17.0713   -3.7704 C   0  0  0  0  0  0  0  0  0  0  0  0
    5.9886   17.8360   -4.2205 N   0  0  0  0  0  0  0  0  0  0  0  0
    4.6777   14.8538   -3.9539 C   0  0  0  0  0  0  0  0  0  0  0  0
    4.9685   13.9336   -4.5775 N   0  0  0  0  0  0  0  0  0  0  0  0
    2.6713  -15.6619   -0.5128 H   0  0  0  0  0  0  0  0  0  0  0  0
    6.6103  -12.9502   -4.5567 H   0  0  0  0  0  0  0  0  0  0  0  0
    8.4718  -16.8022   -4.8598 H   0  0  0  0  0  0  0  0  0  0  0  0
    6.7283  -17.8021   -3.4556 H   0  0  0  0  0  0  0  0  0  0  0  0
    2.1781  -12.3429   -2.5121 H   0  0  0  0  0  0  0  0  0  0  0  0
    3.0771  -10.2087   -2.2073 H   0  0  0  0  0  0  0  0  0  0  0  0
    3.8225   -9.2898   -4.3154 H   0  0  0  0  0  0  0  0  0  0  0  0
    4.5043   -8.8012   -6.2735 H   0  0  0  0  0  0  0  0  0  0  0  0
    4.3164   -7.5996   -7.5586 H   0  0  0  0  0  0  0  0  0  0  0  0
    5.6450   -6.6541   -5.6458 H   0  0  0  0  0  0  0  0  0  0  0  0
    4.1310   -5.7751   -5.8934 H   0  0  0  0  0  0  0  0  0  0  0  0
    4.2713   -6.9283   -4.5664 H   0  0  0  0  0  0  0  0  0  0  0  0
   -0.2084   -8.2288   -5.2890 H   0  0  0  0  0  0  0  0  0  0  0  0
   -0.9695   -9.2033   -3.1661 H   0  0  0  0  0  0  0  0  0  0  0  0
   -1.3549  -13.8178    1.9218 H   0  0  0  0  0  0  0  0  0  0  0  0
   -1.9699  -14.6397    4.1572 H   0  0  0  0  0  0  0  0  0  0  0  0
   -2.0216  -12.6336    8.8390 H   0  0  0  0  0  0  0  0  0  0  0  0
   -0.8761  -11.6809    7.8857 H   0  0  0  0  0  0  0  0  0  0  0  0
   -2.8299  -10.7839    6.5316 H   0  0  0  0  0  0  0  0  0  0  0  0
   -3.9285  -11.7239    7.5433 H   0  0  0  0  0  0  0  0  0  0  0  0
   -2.9995  -10.3941    8.2478 H   0  0  0  0  0  0  0  0  0  0  0  0
   -0.4819  -11.0221    5.8887 H   0  0  0  0  0  0  0  0  0  0  0  0
    0.1160  -10.2101    3.6758 H   0  0  0  0  0  0  0  0  0  0  0  0
   -1.9195   -9.4817    2.5403 H   0  0  0  0  0  0  0  0  0  0  0  0
   -4.0049   -8.8269    2.5743 H   0  0  0  0  0  0  0  0  0  0  0  0
   -5.1261   -7.6290    3.2382 H   0  0  0  0  0  0  0  0  0  0  0  0
   -3.8716   -8.7722    5.0533 H   0  0  0  0  0  0  0  0  0  0  0  0
   -3.5278   -7.0409    5.0175 H   0  0  0  0  0  0  0  0  0  0  0  0
   -2.3446   -8.1836    4.3815 H   0  0  0  0  0  0  0  0  0  0  0  0
   -5.7773    6.4496    3.2508 H   0  0  0  0  0  0  0  0  0  0  0  0
   -5.7481    8.2029    2.9378 H   0  0  0  0  0  0  0  0  0  0  0  0
   -6.4097    7.7935    0.5697 H   0  0  0  0  0  0  0  0  0  0  0  0
   -6.4572    6.0514    0.8706 H   0  0  0  0  0  0  0  0  0  0  0  0
   -7.6052    7.1157    1.6866 H   0  0  0  0  0  0  0  0  0  0  0  0
   -2.7474   -0.7920   -0.3659 H   0  0  0  0  0  0  0  0  0  0  0  0
   -1.8116   -2.3053   -0.2095 H   0  0  0  0  0  0  0  0  0  0  0  0
   -4.7613   -2.1028   -1.0065 H   0  0  0  0  0  0  0  0  0  0  0  0
   -3.8087   -3.5908   -0.9509 H   0  0  0  0  0  0  0  0  0  0  0  0
   -3.4152   -2.3393   -2.1281 H   0  0  0  0  0  0  0  0  0  0  0  0
   -1.3719    1.5508    0.2844 H   0  0  0  0  0  0  0  0  0  0  0  0
   -1.4934   -0.0555    1.0493 H   0  0  0  0  0  0  0  0  0  0  0  0
   -1.0260    2.5657    2.5348 H   0  0  0  0  0  0  0  0  0  0  0  0
   -1.2371    0.9819    3.2910 H   0  0  0  0  0  0  0  0  0  0  0  0
    0.1558    1.2896    2.2465 H   0  0  0  0  0  0  0  0  0  0  0  0
   -0.2526    6.5102   -0.6912 H   0  0  0  0  0  0  0  0  0  0  0  0
    2.0737    6.9707   -0.1607 H   0  0  0  0  0  0  0  0  0  0  0  0
    3.5369    5.3630   -1.3159 H   0  0  0  0  0  0  0  0  0  0  0  0
    3.9500    5.8009   -6.1796 H   0  0  0  0  0  0  0  0  0  0  0  0
    5.2163    6.8211   -5.4341 H   0  0  0  0  0  0  0  0  0  0  0  0
    5.5720    3.9141   -6.3326 H   0  0  0  0  0  0  0  0  0  0  0  0
    6.8224    4.9175   -5.5950 H   0  0  0  0  0  0  0  0  0  0  0  0
    6.1892    5.3303   -7.1939 H   0  0  0  0  0  0  0  0  0  0  0  0
    3.0461    7.5508   -4.9595 H   0  0  0  0  0  0  0  0  0  0  0  0
    1.5917    9.1258   -3.8189 H   0  0  0  0  0  0  0  0  0  0  0  0
   -2.0481   13.2038   -0.9476 H   0  0  0  0  0  0  0  0  0  0  0  0
   -3.5715   14.7713    0.1786 H   0  0  0  0  0  0  0  0  0  0  0  0
   -5.9322   14.8555    4.6796 H   0  0  0  0  0  0  0  0  0  0  0  0
   -4.5247   13.8031    4.8820 H   0  0  0  0  0  0  0  0  0  0  0  0
   -6.6225   12.4404    4.6822 H   0  0  0  0  0  0  0  0  0  0  0  0
   -6.9841   13.2214    3.1374 H   0  0  0  0  0  0  0  0  0  0  0  0
   -5.5883   12.1503    3.2768 H   0  0  0  0  0  0  0  0  0  0  0  0
   -3.1826   12.5322    3.8026 H   0  0  0  0  0  0  0  0  0  0  0  0
   -1.6829   10.9817    2.6856 H   0  0  0  0  0  0  0  0  0  0  0  0
    0.2469   13.6138   -0.3430 H   0  0  0  0  0  0  0  0  0  0  0  0
    3.4299   13.6441   -2.6574 H   0  0  0  0  0  0  0  0  0  0  0  0
    0.7118   18.3187    0.5529 H   0  0  0  0  0  0  0  0  0  0  0  0
    3.7187   20.8426   -1.1778 H   0  0  0  0  0  0  0  0  0  0  0  0
    4.6192   18.9614   -2.4615 H   0  0  0  0  0  0  0  0  0  0  0  0
  1  2  2  0  0  0  0
  2  3  1  0  0  0  0
  3  4  2  0  0  0  0
  3  5  1  0  0  0  0
  5  6  2  0  0  0  0
  6  7  1  0  0  0  0
  7  8  1  0  0  0  0
  7  9  2  0  0  0  0
  9 10  1  0  0  0  0
 10 11  2  0  0  0  0
 11 12  1  0  0  0  0
 12 13  2  0  0  0  0
 13 14  1  0  0  0  0
 14 15  3  0  0  0  0
 13 16  1  0  0  0  0
 16 17  3  0  0  0  0
  1 18  1  0  0  0  0
 18 19  2  0  0  0  0
 19 20  1  0  0  0  0
 20 21  2  0  0  0  0
 21 22  1  0  0  0  0
 22 23  2  0  0  0  0
 23 24  1  0  0  0  0
 24 25  2  0  0  0  0
 25 26  1  0  0  0  0
 26 27  1  0  0  0  0
 27 28  1  0  0  0  0
 25 29  1  0  0  0  0
 29 30  2  0  0  0  0
 21 31  1  0  0  0  0
 31 32  2  0  0  0  0
 32 33  1  0  0  0  0
 33 34  1  0  0  0  0
 34 35  2  0  0  0  0
 35 36  1  0  0  0  0
 36 37  2  0  0  0  0
 37 38  1  0  0  0  0
 38 39  1  0  0  0  0
 39 40  1  0  0  0  0
 37 41  1  0  0  0  0
 41 42  2  0  0  0  0
 33 43  2  0  0  0  0
 43 44  1  0  0  0  0
 32 45  1  0  0  0  0
 45 46  2  0  0  0  0
 46 47  1  0  0  0  0
 46 48  1  0  0  0  0
 48 49  2  0  0  0  0
 49 50  1  0  0  0  0
 50 51  1  0  0  0  0
 49 52  1  0  0  0  0
 52 53  1  0  0  0  0
 53 54  1  0  0  0  0
 54 55  1  0  0  0  0
 55 56  1  0  0  0  0
 56 57  1  0  0  0  0
 57 58  2  0  0  0  0
 58 59  1  0  0  0  0
 59 60  1  0  0  0  0
 57 61  1  0  0  0  0
 61 62  1  0  0  0  0
 62 63  1  0  0  0  0
 63 64  1  0  0  0  0
 64 65  1  0  0  0  0
 65 66  1  0  0  0  0
 66 67  1  0  0  0  0
 67 68  1  0  0  0  0
 65 69  2  0  0  0  0
 69 70  1  0  0  0  0
 70 71  1  0  0  0  0
 71 72  1  0  0  0  0
 72 73  1  0  0  0  0
 73 74  1  0  0  0  0
 74 75  1  0  0  0  0
 75 76  1  0  0  0  0
 76 77  1  0  0  0  0
 77 78  1  0  0  0  0
 78 79  1  0  0  0  0
 76 80  1  0  0  0  0
 80 81  1  0  0  0  0
 73 82  1  0  0  0  0
 82 83  1  0  0  0  0
 69 84  1  0  0  0  0
 84 85  2  0  0  0  0
 85 86  1  0  0  0  0
 86 87  2  0  0  0  0
 87 88  1  0  0  0  0
 88 89  2  0  0  0  0
 89 90  1  0  0  0  0
 90 91  2  0  0  0  0
 91 92  1  0  0  0  0
 92 93  1  0  0  0  0
 93 94  1  0  0  0  0
 91 95  1  0  0  0  0
 95 96  2  0  0  0  0
 87 97  1  0  0  0  0
 97 98  2  0  0  0  0
 98 99  1  0  0  0  0
 99100  1  0  0  0  0
100101  2  0  0  0  0
101102  1  0  0  0  0
102103  2  0  0  0  0
103104  1  0  0  0  0
104105  1  0  0  0  0
105106  1  0  0  0  0
103107  1  0  0  0  0
107108  2  0  0  0  0
 99109  2  0  0  0  0
109110  1  0  0  0  0
 98111  1  0  0  0  0
111112  2  0  0  0  0
112113  1  0  0  0  0
112114  1  0  0  0  0
114115  2  0  0  0  0
115116  1  0  0  0  0
116117  2  0  0  0  0
116118  1  0  0  0  0
118119  2  0  0  0  0
119120  1  0  0  0  0
120121  1  0  0  0  0
120122  2  0  0  0  0
122123  1  0  0  0  0
123124  2  0  0  0  0
124125  1  0  0  0  0
125126  2  0  0  0  0
126127  1  0  0  0  0
127128  3  0  0  0  0
126129  1  0  0  0  0
129130  3  0  0  0  0
 12  2  1  0  0  0  0
 44 18  1  0  0  0  0
 79 48  1  0  0  0  0
110 84  1  0  0  0  0
125115  1  0  0  0  0
 11  5  1  0  0  0  0
 43 20  1  0  0  0  0
 78 52  2  0  0  0  0
109 86  1  0  0  0  0
124118  1  0  0  0  0
 30 22  1  0  0  0  0
 47 31  1  0  0  0  0
 77 54  2  0  0  0  0
 96 88  1  0  0  0  0
113 97  1  0  0  0  0
 42 34  1  0  0  0  0
 75 55  2  0  0  0  0
108100  1  0  0  0  0
 60 56  2  0  0  0  0
 74 61  2  0  0  0  0
 72 62  2  0  0  0  0
 71 64  2  0  0  0  0
  1131  1  0  0  0  0
  6132  1  0  0  0  0
  9133  1  0  0  0  0
 10134  1  0  0  0  0
 19135  1  0  0  0  0
 23136  1  0  0  0  0
 24137  1  0  0  0  0
 27138  1  0  0  0  0
 27139  1  0  0  0  0
 28140  1  0  0  0  0
 28141  1  0  0  0  0
 28142  1  0  0  0  0
 29143  1  0  0  0  0
 30144  1  0  0  0  0
 35145  1  0  0  0  0
 36146  1  0  0  0  0
 39147  1  0  0  0  0
 39148  1  0  0  0  0
 40149  1  0  0  0  0
 40150  1  0  0  0  0
 40151  1  0  0  0  0
 41152  1  0  0  0  0
 42153  1  0  0  0  0
 45154  1  0  0  0  0
 50155  1  0  0  0  0
 50156  1  0  0  0  0
 51157  1  0  0  0  0
 51158  1  0  0  0  0
 51159  1  0  0  0  0
 67160  1  0  0  0  0
 67161  1  0  0  0  0
 68162  1  0  0  0  0
 68163  1  0  0  0  0
 68164  1  0  0  0  0
 80165  1  0  0  0  0
 80166  1  0  0  0  0
 81167  1  0  0  0  0
 81168  1  0  0  0  0
 81169  1  0  0  0  0
 82170  1  0  0  0  0
 82171  1  0  0  0  0
 83172  1  0  0  0  0
 83173  1  0  0  0  0
 83174  1  0  0  0  0
 85175  1  0  0  0  0
 89176  1  0  0  0  0
 90177  1  0  0  0  0
 93178  1  0  0  0  0
 93179  1  0  0  0  0
 94180  1  0  0  0  0
 94181  1  0  0  0  0
 94182  1  0  0  0  0
 95183  1  0  0  0  0
 96184  1  0  0  0  0
101185  1  0  0  0  0
102186  1  0  0  0  0
105187  1  0  0  0  0
105188  1  0  0  0  0
106189  1  0  0  0  0
106190  1  0  0  0  0
106191  1  0  0  0  0
107192  1  0  0  0  0
108193  1  0  0  0  0
111194  1  0  0  0  0
114195  1  0  0  0  0
119196  1  0  0  0  0
122197  1  0  0  0  0
123198  1  0  0  0  0
M  END
