
  xtb     02102221183D
 energy: -305.668062497352 gnorm: 0.000305601403 xtb: 6.4.1 (unknown)
187204  0     0  0            999 V2000
    3.1655    3.9696   -9.1440 C   0  0  0  0  0  0  0  0  0  0  0  0
    2.4429    3.8494  -10.3082 C   0  0  0  0  0  0  0  0  0  0  0  0
    0.9913    3.9589  -10.4279 C   0  0  0  0  0  0  0  0  0  0  0  0
    0.1767    4.1359   -9.5380 O   0  0  0  0  0  0  0  0  0  0  0  0
    0.6901    3.8165  -11.8682 C   0  0  0  0  0  0  0  0  0  0  0  0
   -0.5361    3.8625  -12.4968 C   0  0  0  0  0  0  0  0  0  0  0  0
   -0.5544    3.7008  -13.8775 C   0  0  0  0  0  0  0  0  0  0  0  0
   -2.0595    3.7482  -14.7162 Cl  0  0  0  0  0  0  0  0  0  0  0  0
    0.6193    3.5019  -14.5942 C   0  0  0  0  0  0  0  0  0  0  0  0
    1.8477    3.4560  -13.9509 C   0  0  0  0  0  0  0  0  0  0  0  0
    1.8889    3.6135  -12.5739 C   0  0  0  0  0  0  0  0  0  0  0  0
    2.9993    3.6048  -11.6210 C   0  0  0  0  0  0  0  0  0  0  0  0
    4.3110    3.3521  -11.9355 C   0  0  0  0  0  0  0  0  0  0  0  0
    5.3836    3.2699  -11.0227 C   0  0  0  0  0  0  0  0  0  0  0  0
    6.3153    3.1643  -10.3580 N   0  0  0  0  0  0  0  0  0  0  0  0
    4.7714    3.1032  -13.2450 C   0  0  0  0  0  0  0  0  0  0  0  0
    5.2121    2.8936  -14.2845 N   0  0  0  0  0  0  0  0  0  0  0  0
    2.7375    4.0972   -7.8214 C   0  0  0  0  0  0  0  0  0  0  0  0
    3.6505    4.0952   -6.7487 C   0  0  0  0  0  0  0  0  0  0  0  0
    5.1080    4.1283   -6.9562 C   0  0  0  0  0  0  0  0  0  0  0  0
    5.8674    2.9690   -6.7863 C   0  0  0  0  0  0  0  0  0  0  0  0
    7.2326    3.0171   -7.0217 C   0  0  0  0  0  0  0  0  0  0  0  0
    7.8596    4.1861   -7.4208 C   0  0  0  0  0  0  0  0  0  0  0  0
    9.3432    4.2294   -7.6415 C   0  0  0  0  0  0  0  0  0  0  0  0
   10.0624    4.6691   -6.3646 C   0  0  0  0  0  0  0  0  0  0  0  0
    7.0909    5.3303   -7.5714 C   0  0  0  0  0  0  0  0  0  0  0  0
    5.7234    5.3204   -7.3524 C   0  0  0  0  0  0  0  0  0  0  0  0
    4.9427    6.6000   -7.4839 C   0  0  0  0  0  0  0  0  0  0  0  0
    4.7691    7.2700   -6.1196 C   0  0  0  0  0  0  0  0  0  0  0  0
    5.2256    1.6556   -6.4335 C   0  0  0  0  0  0  0  0  0  0  0  0
    4.7631    0.9282   -7.6978 C   0  0  0  0  0  0  0  0  0  0  0  0
    3.0230    4.0570   -5.5155 C   0  0  0  0  0  0  0  0  0  0  0  0
    1.6352    4.0814   -5.5990 C   0  0  0  0  0  0  0  0  0  0  0  0
    1.0882    4.1342   -7.2400 S   0  0  0  0  0  0  0  0  0  0  0  0
    0.7619    4.0117   -4.4810 C   0  0  0  0  0  0  0  0  0  0  0  0
   -0.5382    4.4561   -4.3158 C   0  0  0  0  0  0  0  0  0  0  0  0
   -1.3581    5.1685   -5.3043 C   0  0  0  0  0  0  0  0  0  0  0  0
   -1.7744    6.4657   -5.0168 C   0  0  0  0  0  0  0  0  0  0  0  0
   -2.5657    7.1475   -5.9201 C   0  0  0  0  0  0  0  0  0  0  0  0
   -2.9543    6.5413   -7.1028 C   0  0  0  0  0  0  0  0  0  0  0  0
   -2.5632    5.2423   -7.3952 C   0  0  0  0  0  0  0  0  0  0  0  0
   -3.0063    4.5585   -8.6549 C   0  0  0  0  0  0  0  0  0  0  0  0
   -4.1467    3.5795   -8.3722 C   0  0  0  0  0  0  0  0  0  0  0  0
   -1.7683    4.5612   -6.4828 C   0  0  0  0  0  0  0  0  0  0  0  0
   -1.0036    4.2032   -3.0125 C   0  0  0  0  0  0  0  0  0  0  0  0
   -2.5408    4.5020   -2.2369 S   0  0  0  0  0  0  0  0  0  0  0  0
   -1.9575    3.6864   -0.8250 C   0  0  0  0  0  0  0  0  0  0  0  0
   -2.4126    3.3002    0.4483 C   0  0  0  0  0  0  0  0  0  0  0  0
   -3.6023    3.5753    1.1589 C   0  0  0  0  0  0  0  0  0  0  0  0
   -3.7563    3.0555    2.4907 C   0  0  0  0  0  0  0  0  0  0  0  0
   -4.8935    3.4348    3.0511 N   0  0  0  0  0  0  0  0  0  0  0  0
   -5.7032    4.3604    1.9985 S   0  0  0  0  0  0  0  0  0  0  0  0
   -4.6348    4.3130    0.7833 N   0  0  0  0  0  0  0  0  0  0  0  0
   -2.7810    2.1662    2.9963 C   0  0  0  0  0  0  0  0  0  0  0  0
   -2.7812    1.3167    4.1138 C   0  0  0  0  0  0  0  0  0  0  0  0
   -3.7872    0.9460    5.4728 S   0  0  0  0  0  0  0  0  0  0  0  0
   -2.7245   -0.3865    5.8589 C   0  0  0  0  0  0  0  0  0  0  0  0
   -2.7669   -1.3660    6.8617 C   0  0  0  0  0  0  0  0  0  0  0  0
   -3.7739   -1.3833    7.9271 C   0  0  0  0  0  0  0  0  0  0  0  0
   -5.1276   -1.3833    7.6138 C   0  0  0  0  0  0  0  0  0  0  0  0
   -6.0655   -1.3972    8.6293 C   0  0  0  0  0  0  0  0  0  0  0  0
   -5.6626   -1.4041    9.9520 C   0  0  0  0  0  0  0  0  0  0  0  0
   -4.3131   -1.3797   10.2819 C   0  0  0  0  0  0  0  0  0  0  0  0
   -3.8679   -1.4328   11.7148 C   0  0  0  0  0  0  0  0  0  0  0  0
   -3.6310   -2.8848   12.1345 C   0  0  0  0  0  0  0  0  0  0  0  0
   -3.3778   -1.3638    9.2608 C   0  0  0  0  0  0  0  0  0  0  0  0
   -1.7216   -2.2717    6.7330 C   0  0  0  0  0  0  0  0  0  0  0  0
   -0.6449   -1.8588    5.3988 S   0  0  0  0  0  0  0  0  0  0  0  0
   -1.6391   -0.5076    4.9843 C   0  0  0  0  0  0  0  0  0  0  0  0
   -1.6646    0.4802    3.9939 C   0  0  0  0  0  0  0  0  0  0  0  0
   -0.9530    0.8117    2.8718 N   0  0  0  0  0  0  0  0  0  0  0  0
   -1.6128    1.8523    2.2481 C   0  0  0  0  0  0  0  0  0  0  0  0
   -1.3637    2.5452    1.0390 C   0  0  0  0  0  0  0  0  0  0  0  0
   -0.2731    2.5415    0.1846 N   0  0  0  0  0  0  0  0  0  0  0  0
   -0.6445    3.2209   -0.9485 C   0  0  0  0  0  0  0  0  0  0  0  0
   -0.0916    3.5318   -2.1942 C   0  0  0  0  0  0  0  0  0  0  0  0
    1.4036    3.2677   -3.0116 S   0  0  0  0  0  0  0  0  0  0  0  0
    1.1276    2.4685    0.5419 C   0  0  0  0  0  0  0  0  0  0  0  0
    1.7329    3.8640    0.6951 C   0  0  0  0  0  0  0  0  0  0  0  0
    0.0558   -0.0831    2.3518 C   0  0  0  0  0  0  0  0  0  0  0  0
    1.3625    0.0009    3.1409 C   0  0  0  0  0  0  0  0  0  0  0  0
   -1.5284   -3.4831    7.4431 C   0  0  0  0  0  0  0  0  0  0  0  0
   -0.3901   -4.2994    7.4115 C   0  0  0  0  0  0  0  0  0  0  0  0
    0.8617   -3.9822    6.6954 C   0  0  0  0  0  0  0  0  0  0  0  0
    1.7957   -3.1229    7.2805 C   0  0  0  0  0  0  0  0  0  0  0  0
    3.0045   -2.9046    6.6389 C   0  0  0  0  0  0  0  0  0  0  0  0
    3.3051   -3.5156    5.4307 C   0  0  0  0  0  0  0  0  0  0  0  0
    4.6215   -3.2691    4.7498 C   0  0  0  0  0  0  0  0  0  0  0  0
    4.5064   -2.1303    3.7360 C   0  0  0  0  0  0  0  0  0  0  0  0
    2.3494   -4.3322    4.8464 C   0  0  0  0  0  0  0  0  0  0  0  0
    1.1305   -4.5763    5.4606 C   0  0  0  0  0  0  0  0  0  0  0  0
    0.1347   -5.4828    4.7911 C   0  0  0  0  0  0  0  0  0  0  0  0
    0.4867   -6.9548    5.0090 C   0  0  0  0  0  0  0  0  0  0  0  0
    1.5302   -2.4727    8.6102 C   0  0  0  0  0  0  0  0  0  0  0  0
    1.9448   -3.3894    9.7622 C   0  0  0  0  0  0  0  0  0  0  0  0
   -0.5558   -5.4433    8.1713 C   0  0  0  0  0  0  0  0  0  0  0  0
   -1.8046   -5.5557    8.7893 C   0  0  0  0  0  0  0  0  0  0  0  0
   -2.7993   -4.1718    8.4026 S   0  0  0  0  0  0  0  0  0  0  0  0
   -2.1407   -6.6368    9.6090 C   0  0  0  0  0  0  0  0  0  0  0  0
   -3.2994   -6.8978   10.3036 C   0  0  0  0  0  0  0  0  0  0  0  0
   -4.4990   -6.0588   10.3075 C   0  0  0  0  0  0  0  0  0  0  0  0
   -4.6939   -5.0217    9.6987 O   0  0  0  0  0  0  0  0  0  0  0  0
   -5.4615   -6.7291   11.2068 C   0  0  0  0  0  0  0  0  0  0  0  0
   -6.7335   -6.3250   11.5523 C   0  0  0  0  0  0  0  0  0  0  0  0
   -7.4476   -7.1364   12.4269 C   0  0  0  0  0  0  0  0  0  0  0  0
   -9.0422   -6.6809   12.8959 Cl  0  0  0  0  0  0  0  0  0  0  0  0
   -6.8981   -8.3096   12.9297 C   0  0  0  0  0  0  0  0  0  0  0  0
   -5.6171   -8.7064   12.5743 C   0  0  0  0  0  0  0  0  0  0  0  0
   -4.8865   -7.9106   11.7047 C   0  0  0  0  0  0  0  0  0  0  0  0
   -3.5392   -8.0471   11.1510 C   0  0  0  0  0  0  0  0  0  0  0  0
   -2.6858   -9.0910   11.4081 C   0  0  0  0  0  0  0  0  0  0  0  0
   -1.3863   -9.2458   10.8839 C   0  0  0  0  0  0  0  0  0  0  0  0
   -0.3216   -9.4517   10.5033 N   0  0  0  0  0  0  0  0  0  0  0  0
   -2.9997  -10.1799   12.2475 C   0  0  0  0  0  0  0  0  0  0  0  0
   -3.1876  -11.0951   12.9152 N   0  0  0  0  0  0  0  0  0  0  0  0
    4.2453    3.9296   -9.2342 H   0  0  0  0  0  0  0  0  0  0  0  0
   -1.4418    4.0183  -11.9322 H   0  0  0  0  0  0  0  0  0  0  0  0
    0.5719    3.3816  -15.6651 H   0  0  0  0  0  0  0  0  0  0  0  0
    2.7431    3.3017  -14.5301 H   0  0  0  0  0  0  0  0  0  0  0  0
    7.8159    2.1150   -6.9038 H   0  0  0  0  0  0  0  0  0  0  0  0
    9.7010    3.2419   -7.9368 H   0  0  0  0  0  0  0  0  0  0  0  0
    9.5746    4.9303   -8.4455 H   0  0  0  0  0  0  0  0  0  0  0  0
    9.7266    5.6587   -6.0621 H   0  0  0  0  0  0  0  0  0  0  0  0
    9.8521    3.9751   -5.5536 H   0  0  0  0  0  0  0  0  0  0  0  0
   11.1377    4.7014   -6.5243 H   0  0  0  0  0  0  0  0  0  0  0  0
    7.5657    6.2510   -7.8805 H   0  0  0  0  0  0  0  0  0  0  0  0
    5.4773    7.2795   -8.1505 H   0  0  0  0  0  0  0  0  0  0  0  0
    3.9586    6.4113   -7.9166 H   0  0  0  0  0  0  0  0  0  0  0  0
    4.2045    6.6262   -5.4490 H   0  0  0  0  0  0  0  0  0  0  0  0
    5.7396    7.4681   -5.6701 H   0  0  0  0  0  0  0  0  0  0  0  0
    4.2354    8.2119   -6.2251 H   0  0  0  0  0  0  0  0  0  0  0  0
    4.3706    1.8086   -5.7725 H   0  0  0  0  0  0  0  0  0  0  0  0
    5.9524    1.0310   -5.9102 H   0  0  0  0  0  0  0  0  0  0  0  0
    5.5876    0.8361   -8.4008 H   0  0  0  0  0  0  0  0  0  0  0  0
    4.3974   -0.0663   -7.4518 H   0  0  0  0  0  0  0  0  0  0  0  0
    3.9618    1.4794   -8.1853 H   0  0  0  0  0  0  0  0  0  0  0  0
    3.5510    4.0354   -4.5768 H   0  0  0  0  0  0  0  0  0  0  0  0
   -1.4648    6.9361   -4.0950 H   0  0  0  0  0  0  0  0  0  0  0  0
   -2.8818    8.1568   -5.7010 H   0  0  0  0  0  0  0  0  0  0  0  0
   -3.5714    7.0837   -7.8049 H   0  0  0  0  0  0  0  0  0  0  0  0
   -2.1571    4.0216   -9.0800 H   0  0  0  0  0  0  0  0  0  0  0  0
   -3.3416    5.3042   -9.3783 H   0  0  0  0  0  0  0  0  0  0  0  0
   -3.8292    2.8182   -7.6636 H   0  0  0  0  0  0  0  0  0  0  0  0
   -4.4628    3.0879   -9.2895 H   0  0  0  0  0  0  0  0  0  0  0  0
   -5.0008    4.1043   -7.9487 H   0  0  0  0  0  0  0  0  0  0  0  0
   -1.4815    3.5406   -6.6875 H   0  0  0  0  0  0  0  0  0  0  0  0
   -5.4387   -1.3902    6.5800 H   0  0  0  0  0  0  0  0  0  0  0  0
   -7.1174   -1.4065    8.3854 H   0  0  0  0  0  0  0  0  0  0  0  0
   -6.4017   -1.4236   10.7399 H   0  0  0  0  0  0  0  0  0  0  0  0
   -4.6303   -0.9908   12.3591 H   0  0  0  0  0  0  0  0  0  0  0  0
   -2.9431   -0.8653   11.8395 H   0  0  0  0  0  0  0  0  0  0  0  0
   -4.5422   -3.4647   12.0089 H   0  0  0  0  0  0  0  0  0  0  0  0
   -3.3212   -2.9382   13.1760 H   0  0  0  0  0  0  0  0  0  0  0  0
   -2.8585   -3.3358   11.5152 H   0  0  0  0  0  0  0  0  0  0  0  0
   -2.3233   -1.3362    9.5002 H   0  0  0  0  0  0  0  0  0  0  0  0
    1.6573    1.9192   -0.2432 H   0  0  0  0  0  0  0  0  0  0  0  0
    1.2300    1.9437    1.4853 H   0  0  0  0  0  0  0  0  0  0  0  0
    1.1885    4.4290    1.4488 H   0  0  0  0  0  0  0  0  0  0  0  0
    1.6963    4.4103   -0.2432 H   0  0  0  0  0  0  0  0  0  0  0  0
    2.7713    3.7782    1.0033 H   0  0  0  0  0  0  0  0  0  0  0  0
   -0.3311   -1.1055    2.4310 H   0  0  0  0  0  0  0  0  0  0  0  0
    0.2066    0.1332    1.2938 H   0  0  0  0  0  0  0  0  0  0  0  0
    1.6790    1.0323    3.2819 H   0  0  0  0  0  0  0  0  0  0  0  0
    1.2397   -0.4497    4.1222 H   0  0  0  0  0  0  0  0  0  0  0  0
    2.1446   -0.5365    2.6133 H   0  0  0  0  0  0  0  0  0  0  0  0
    3.7324   -2.2505    7.0988 H   0  0  0  0  0  0  0  0  0  0  0  0
    4.9434   -4.1761    4.2340 H   0  0  0  0  0  0  0  0  0  0  0  0
    5.3785   -3.0133    5.4934 H   0  0  0  0  0  0  0  0  0  0  0  0
    3.7724   -2.3813    2.9732 H   0  0  0  0  0  0  0  0  0  0  0  0
    4.1911   -1.2147    4.2315 H   0  0  0  0  0  0  0  0  0  0  0  0
    5.4639   -1.9529    3.2517 H   0  0  0  0  0  0  0  0  0  0  0  0
    2.5594   -4.7986    3.8939 H   0  0  0  0  0  0  0  0  0  0  0  0
   -0.8684   -5.2899    5.1758 H   0  0  0  0  0  0  0  0  0  0  0  0
    0.1308   -5.2745    3.7184 H   0  0  0  0  0  0  0  0  0  0  0  0
   -0.2188   -7.5938    4.4829 H   0  0  0  0  0  0  0  0  0  0  0  0
    1.4878   -7.1647    4.6399 H   0  0  0  0  0  0  0  0  0  0  0  0
    0.4530   -7.2035    6.0664 H   0  0  0  0  0  0  0  0  0  0  0  0
    2.0963   -1.5410    8.6738 H   0  0  0  0  0  0  0  0  0  0  0  0
    0.4701   -2.2303    8.7076 H   0  0  0  0  0  0  0  0  0  0  0  0
    1.3572   -4.3043    9.7519 H   0  0  0  0  0  0  0  0  0  0  0  0
    2.9957   -3.6552    9.6734 H   0  0  0  0  0  0  0  0  0  0  0  0
    1.7915   -2.8912   10.7169 H   0  0  0  0  0  0  0  0  0  0  0  0
    0.2094   -6.1911    8.2922 H   0  0  0  0  0  0  0  0  0  0  0  0
   -1.3445   -7.3659    9.6990 H   0  0  0  0  0  0  0  0  0  0  0  0
   -7.1502   -5.4139   11.1527 H   0  0  0  0  0  0  0  0  0  0  0  0
   -7.4780   -8.9185   13.6054 H   0  0  0  0  0  0  0  0  0  0  0  0
   -5.2161   -9.6210   12.9788 H   0  0  0  0  0  0  0  0  0  0  0  0
  1  2  2  0  0  0  0
  2  3  1  0  0  0  0
  3  4  2  0  0  0  0
  3  5  1  0  0  0  0
  5  6  2  0  0  0  0
  6  7  1  0  0  0  0
  7  8  1  0  0  0  0
  7  9  2  0  0  0  0
  9 10  1  0  0  0  0
 10 11  2  0  0  0  0
 11 12  1  0  0  0  0
 12 13  2  0  0  0  0
 13 14  1  0  0  0  0
 14 15  3  0  0  0  0
 13 16  1  0  0  0  0
 16 17  3  0  0  0  0
  1 18  1  0  0  0  0
 18 19  2  0  0  0  0
 19 20  1  0  0  0  0
 20 21  2  0  0  0  0
 21 22  1  0  0  0  0
 22 23  2  0  0  0  0
 23 24  1  0  0  0  0
 24 25  1  0  0  0  0
 23 26  1  0  0  0  0
 26 27  2  0  0  0  0
 27 28  1  0  0  0  0
 28 29  1  0  0  0  0
 21 30  1  0  0  0  0
 30 31  1  0  0  0  0
 19 32  1  0  0  0  0
 32 33  2  0  0  0  0
 33 34  1  0  0  0  0
 33 35  1  0  0  0  0
 35 36  2  0  0  0  0
 36 37  1  0  0  0  0
 37 38  2  0  0  0  0
 38 39  1  0  0  0  0
 39 40  2  0  0  0  0
 40 41  1  0  0  0  0
 41 42  1  0  0  0  0
 42 43  1  0  0  0  0
 41 44  2  0  0  0  0
 36 45  1  0  0  0  0
 45 46  1  0  0  0  0
 46 47  1  0  0  0  0
 47 48  1  0  0  0  0
 48 49  1  0  0  0  0
 49 50  1  0  0  0  0
 50 51  2  0  0  0  0
 51 52  1  0  0  0  0
 52 53  1  0  0  0  0
 50 54  1  0  0  0  0
 54 55  1  0  0  0  0
 55 56  1  0  0  0  0
 56 57  1  0  0  0  0
 57 58  1  0  0  0  0
 58 59  1  0  0  0  0
 59 60  2  0  0  0  0
 60 61  1  0  0  0  0
 61 62  2  0  0  0  0
 62 63  1  0  0  0  0
 63 64  1  0  0  0  0
 64 65  1  0  0  0  0
 63 66  2  0  0  0  0
 58 67  2  0  0  0  0
 67 68  1  0  0  0  0
 68 69  1  0  0  0  0
 69 70  1  0  0  0  0
 70 71  1  0  0  0  0
 71 72  1  0  0  0  0
 72 73  1  0  0  0  0
 73 74  1  0  0  0  0
 74 75  1  0  0  0  0
 75 76  1  0  0  0  0
 76 77  1  0  0  0  0
 74 78  1  0  0  0  0
 78 79  1  0  0  0  0
 71 80  1  0  0  0  0
 80 81  1  0  0  0  0
 67 82  1  0  0  0  0
 82 83  2  0  0  0  0
 83 84  1  0  0  0  0
 84 85  2  0  0  0  0
 85 86  1  0  0  0  0
 86 87  2  0  0  0  0
 87 88  1  0  0  0  0
 88 89  1  0  0  0  0
 87 90  1  0  0  0  0
 90 91  2  0  0  0  0
 91 92  1  0  0  0  0
 92 93  1  0  0  0  0
 85 94  1  0  0  0  0
 94 95  1  0  0  0  0
 83 96  1  0  0  0  0
 96 97  2  0  0  0  0
 97 98  1  0  0  0  0
 97 99  1  0  0  0  0
 99100  2  0  0  0  0
100101  1  0  0  0  0
101102  2  0  0  0  0
101103  1  0  0  0  0
103104  2  0  0  0  0
104105  1  0  0  0  0
105106  1  0  0  0  0
105107  2  0  0  0  0
107108  1  0  0  0  0
108109  2  0  0  0  0
109110  1  0  0  0  0
110111  2  0  0  0  0
111112  1  0  0  0  0
112113  3  0  0  0  0
111114  1  0  0  0  0
114115  3  0  0  0  0
 12  2  1  0  0  0  0
 34 18  1  0  0  0  0
 77 35  1  0  0  0  0
 98 82  1  0  0  0  0
110100  1  0  0  0  0
 11  5  1  0  0  0  0
 27 20  1  0  0  0  0
 44 37  1  0  0  0  0
 76 45  2  0  0  0  0
 91 84  1  0  0  0  0
109103  1  0  0  0  0
 75 47  2  0  0  0  0
 73 48  2  0  0  0  0
 53 49  2  0  0  0  0
 72 54  2  0  0  0  0
 70 55  2  0  0  0  0
 69 57  2  0  0  0  0
 66 59  1  0  0  0  0
  1116  1  0  0  0  0
  6117  1  0  0  0  0
  9118  1  0  0  0  0
 10119  1  0  0  0  0
 22120  1  0  0  0  0
 24121  1  0  0  0  0
 24122  1  0  0  0  0
 25123  1  0  0  0  0
 25124  1  0  0  0  0
 25125  1  0  0  0  0
 26126  1  0  0  0  0
 28127  1  0  0  0  0
 28128  1  0  0  0  0
 29129  1  0  0  0  0
 29130  1  0  0  0  0
 29131  1  0  0  0  0
 30132  1  0  0  0  0
 30133  1  0  0  0  0
 31134  1  0  0  0  0
 31135  1  0  0  0  0
 31136  1  0  0  0  0
 32137  1  0  0  0  0
 38138  1  0  0  0  0
 39139  1  0  0  0  0
 40140  1  0  0  0  0
 42141  1  0  0  0  0
 42142  1  0  0  0  0
 43143  1  0  0  0  0
 43144  1  0  0  0  0
 43145  1  0  0  0  0
 44146  1  0  0  0  0
 60147  1  0  0  0  0
 61148  1  0  0  0  0
 62149  1  0  0  0  0
 64150  1  0  0  0  0
 64151  1  0  0  0  0
 65152  1  0  0  0  0
 65153  1  0  0  0  0
 65154  1  0  0  0  0
 66155  1  0  0  0  0
 78156  1  0  0  0  0
 78157  1  0  0  0  0
 79158  1  0  0  0  0
 79159  1  0  0  0  0
 79160  1  0  0  0  0
 80161  1  0  0  0  0
 80162  1  0  0  0  0
 81163  1  0  0  0  0
 81164  1  0  0  0  0
 81165  1  0  0  0  0
 86166  1  0  0  0  0
 88167  1  0  0  0  0
 88168  1  0  0  0  0
 89169  1  0  0  0  0
 89170  1  0  0  0  0
 89171  1  0  0  0  0
 90172  1  0  0  0  0
 92173  1  0  0  0  0
 92174  1  0  0  0  0
 93175  1  0  0  0  0
 93176  1  0  0  0  0
 93177  1  0  0  0  0
 94178  1  0  0  0  0
 94179  1  0  0  0  0
 95180  1  0  0  0  0
 95181  1  0  0  0  0
 95182  1  0  0  0  0
 96183  1  0  0  0  0
 99184  1  0  0  0  0
104185  1  0  0  0  0
107186  1  0  0  0  0
108187  1  0  0  0  0
M  END
