
  xtb     02112201263D
 energy: -304.783041075856 gnorm: 0.000999840791 xtb: 6.4.1 (unknown)
190207  0     0  0            999 V2000
   -7.9494    0.9082    8.2738 C   0  0  0  0  0  0  0  0  0  0  0  0
   -8.4340    1.9372    9.0472 C   0  0  0  0  0  0  0  0  0  0  0  0
   -8.1120    3.3554    8.8881 C   0  0  0  0  0  0  0  0  0  0  0  0
   -7.3448    3.8681    8.0922 O   0  0  0  0  0  0  0  0  0  0  0  0
   -8.9269    4.0692    9.8953 C   0  0  0  0  0  0  0  0  0  0  0  0
   -8.9940    5.4247   10.1373 C   0  0  0  0  0  0  0  0  0  0  0  0
   -9.8505    5.8537   11.1447 C   0  0  0  0  0  0  0  0  0  0  0  0
   -9.9755    7.5377   11.4914 Cl  0  0  0  0  0  0  0  0  0  0  0  0
  -10.6096    4.9496   11.8774 C   0  0  0  0  0  0  0  0  0  0  0  0
  -10.5324    3.5872   11.6266 C   0  0  0  0  0  0  0  0  0  0  0  0
   -9.6831    3.1373   10.6270 C   0  0  0  0  0  0  0  0  0  0  0  0
   -9.3775    1.7941   10.1341 C   0  0  0  0  0  0  0  0  0  0  0  0
   -9.8794    0.6270   10.6539 C   0  0  0  0  0  0  0  0  0  0  0  0
  -10.7985    0.5737   11.7220 C   0  0  0  0  0  0  0  0  0  0  0  0
  -11.5485    0.4594   12.5842 N   0  0  0  0  0  0  0  0  0  0  0  0
   -9.5498   -0.6799   10.2372 C   0  0  0  0  0  0  0  0  0  0  0  0
   -9.3424   -1.7809    9.9801 N   0  0  0  0  0  0  0  0  0  0  0  0
   -7.0139    0.9184    7.2378 C   0  0  0  0  0  0  0  0  0  0  0  0
   -6.6177   -0.2661    6.5866 C   0  0  0  0  0  0  0  0  0  0  0  0
   -7.2029   -1.5781    6.9173 C   0  0  0  0  0  0  0  0  0  0  0  0
   -8.4371   -1.9432    6.3737 C   0  0  0  0  0  0  0  0  0  0  0  0
   -8.9880   -3.1673    6.7170 C   0  0  0  0  0  0  0  0  0  0  0  0
   -8.3506   -4.0283    7.5966 C   0  0  0  0  0  0  0  0  0  0  0  0
   -8.9498   -5.3610    7.9385 C   0  0  0  0  0  0  0  0  0  0  0  0
   -8.4326   -6.4410    6.9862 C   0  0  0  0  0  0  0  0  0  0  0  0
   -7.1252   -3.6496    8.1215 C   0  0  0  0  0  0  0  0  0  0  0  0
   -6.5400   -2.4364    7.7960 C   0  0  0  0  0  0  0  0  0  0  0  0
   -5.2402   -2.0450    8.4439 C   0  0  0  0  0  0  0  0  0  0  0  0
   -5.4911   -1.3281    9.7722 C   0  0  0  0  0  0  0  0  0  0  0  0
   -9.1487   -1.0545    5.3903 C   0  0  0  0  0  0  0  0  0  0  0  0
   -8.6377   -1.2992    3.9692 C   0  0  0  0  0  0  0  0  0  0  0  0
   -5.6416   -0.0498    5.6309 C   0  0  0  0  0  0  0  0  0  0  0  0
   -5.2677    1.2857    5.5175 C   0  0  0  0  0  0  0  0  0  0  0  0
   -6.1443    2.3018    6.6130 S   0  0  0  0  0  0  0  0  0  0  0  0
   -4.3299    1.7941    4.5865 C   0  0  0  0  0  0  0  0  0  0  0  0
   -3.8457    3.0849    4.4414 C   0  0  0  0  0  0  0  0  0  0  0  0
   -4.1167    4.2035    5.3512 C   0  0  0  0  0  0  0  0  0  0  0  0
   -3.7583    4.1228    6.6934 C   0  0  0  0  0  0  0  0  0  0  0  0
   -3.9978    5.1936    7.5317 C   0  0  0  0  0  0  0  0  0  0  0  0
   -4.5873    6.3447    7.0402 C   0  0  0  0  0  0  0  0  0  0  0  0
   -4.9355    6.4463    5.7001 C   0  0  0  0  0  0  0  0  0  0  0  0
   -5.5133    7.7174    5.1488 C   0  0  0  0  0  0  0  0  0  0  0  0
   -4.3943    8.6283    4.6395 C   0  0  0  0  0  0  0  0  0  0  0  0
   -4.6879    5.3701    4.8609 C   0  0  0  0  0  0  0  0  0  0  0  0
   -3.0103    3.1965    3.3182 C   0  0  0  0  0  0  0  0  0  0  0  0
   -2.1224    4.5382    2.6344 S   0  0  0  0  0  0  0  0  0  0  0  0
   -1.4998    3.4745    1.4174 C   0  0  0  0  0  0  0  0  0  0  0  0
   -0.6526    3.5118    0.2957 C   0  0  0  0  0  0  0  0  0  0  0  0
    0.0004    4.5779   -0.3616 C   0  0  0  0  0  0  0  0  0  0  0  0
    0.7618    4.3033   -1.5493 C   0  0  0  0  0  0  0  0  0  0  0  0
    1.2736    5.4000   -2.0854 N   0  0  0  0  0  0  0  0  0  0  0  0
    0.8398    6.6676   -1.1759 S   0  0  0  0  0  0  0  0  0  0  0  0
   -0.0173    5.8665   -0.0604 N   0  0  0  0  0  0  0  0  0  0  0  0
    0.9472    2.9610   -1.9488 C   0  0  0  0  0  0  0  0  0  0  0  0
    1.7975    2.3815   -2.9045 C   0  0  0  0  0  0  0  0  0  0  0  0
    2.9300    2.8682   -4.1192 S   0  0  0  0  0  0  0  0  0  0  0  0
    3.3565    1.1916   -4.3683 C   0  0  0  0  0  0  0  0  0  0  0  0
    4.2676    0.5562   -5.2416 C   0  0  0  0  0  0  0  0  0  0  0  0
    4.9440    1.2670   -6.3228 C   0  0  0  0  0  0  0  0  0  0  0  0
    4.9831    0.7155   -7.6010 C   0  0  0  0  0  0  0  0  0  0  0  0
    5.4792    1.4558   -8.6560 C   0  0  0  0  0  0  0  0  0  0  0  0
    5.9263    2.7493   -8.4526 C   0  0  0  0  0  0  0  0  0  0  0  0
    5.8928    3.3164   -7.1849 C   0  0  0  0  0  0  0  0  0  0  0  0
    6.2602    4.7567   -6.9791 C   0  0  0  0  0  0  0  0  0  0  0  0
    5.0192    5.6364   -7.1497 C   0  0  0  0  0  0  0  0  0  0  0  0
    5.4127    2.5618   -6.1267 C   0  0  0  0  0  0  0  0  0  0  0  0
    4.2660   -0.8125   -5.0459 C   0  0  0  0  0  0  0  0  0  0  0  0
    3.0906   -1.3214   -3.8364 S   0  0  0  0  0  0  0  0  0  0  0  0
    2.6351    0.3185   -3.5526 C   0  0  0  0  0  0  0  0  0  0  0  0
    1.7317    0.9971   -2.7247 C   0  0  0  0  0  0  0  0  0  0  0  0
    0.8454    0.6970   -1.7255 N   0  0  0  0  0  0  0  0  0  0  0  0
    0.3378    1.8876   -1.2416 C   0  0  0  0  0  0  0  0  0  0  0  0
   -0.5800    2.1822   -0.2033 C   0  0  0  0  0  0  0  0  0  0  0  0
   -1.4101    1.3719    0.5553 N   0  0  0  0  0  0  0  0  0  0  0  0
   -1.9544    2.1584    1.5398 C   0  0  0  0  0  0  0  0  0  0  0  0
   -2.8265    1.9988    2.6198 C   0  0  0  0  0  0  0  0  0  0  0  0
   -3.7141    0.7069    3.3394 S   0  0  0  0  0  0  0  0  0  0  0  0
   -2.1436    0.1975    0.1329 C   0  0  0  0  0  0  0  0  0  0  0  0
   -3.4998    0.5793   -0.4606 C   0  0  0  0  0  0  0  0  0  0  0  0
    0.8168   -0.6288   -1.1504 C   0  0  0  0  0  0  0  0  0  0  0  0
    0.0670   -1.6243   -2.0366 C   0  0  0  0  0  0  0  0  0  0  0  0
    5.1248   -1.8279   -5.5663 C   0  0  0  0  0  0  0  0  0  0  0  0
    6.4939   -1.7780   -5.8199 C   0  0  0  0  0  0  0  0  0  0  0  0
    7.3667   -0.6014   -5.6475 C   0  0  0  0  0  0  0  0  0  0  0  0
    7.5751   -0.0605   -4.3735 C   0  0  0  0  0  0  0  0  0  0  0  0
    8.4601    0.9955   -4.2235 C   0  0  0  0  0  0  0  0  0  0  0  0
    9.1512    1.5275   -5.3007 C   0  0  0  0  0  0  0  0  0  0  0  0
   10.1253    2.6551   -5.1101 C   0  0  0  0  0  0  0  0  0  0  0  0
    9.4479    4.0093   -5.3139 C   0  0  0  0  0  0  0  0  0  0  0  0
    8.9283    0.9831   -6.5540 C   0  0  0  0  0  0  0  0  0  0  0  0
    8.0631   -0.0846   -6.7439 C   0  0  0  0  0  0  0  0  0  0  0  0
    7.9521   -0.6641   -8.1280 C   0  0  0  0  0  0  0  0  0  0  0  0
    9.2168   -1.4328   -8.5187 C   0  0  0  0  0  0  0  0  0  0  0  0
    6.9873   -0.6783   -3.1335 C   0  0  0  0  0  0  0  0  0  0  0  0
    7.8317   -1.8757   -2.6922 C   0  0  0  0  0  0  0  0  0  0  0  0
    7.0052   -3.0229   -6.1919 C   0  0  0  0  0  0  0  0  0  0  0  0
    6.0741   -4.0449   -6.2294 C   0  0  0  0  0  0  0  0  0  0  0  0
    4.4915   -3.4250   -5.7964 S   0  0  0  0  0  0  0  0  0  0  0  0
    6.1583   -5.4191   -6.5200 C   0  0  0  0  0  0  0  0  0  0  0  0
    7.2261   -6.2237   -6.8179 C   0  0  0  0  0  0  0  0  0  0  0  0
    8.6644   -5.8770   -6.8773 C   0  0  0  0  0  0  0  0  0  0  0  0
    9.1927   -4.7843   -6.8159 O   0  0  0  0  0  0  0  0  0  0  0  0
    9.3775   -7.1588   -7.0350 C   0  0  0  0  0  0  0  0  0  0  0  0
   10.7391   -7.3767   -7.0807 C   0  0  0  0  0  0  0  0  0  0  0  0
   11.2084   -8.6802   -7.2187 C   0  0  0  0  0  0  0  0  0  0  0  0
   12.6760   -8.9666   -7.2468 C   0  0  0  0  0  0  0  0  0  0  0  0
   10.2870   -9.7225   -7.3074 C   0  0  0  0  0  0  0  0  0  0  0  0
    8.9178   -9.5089   -7.2677 C   0  0  0  0  0  0  0  0  0  0  0  0
    8.4516   -8.2095   -7.1310 C   0  0  0  0  0  0  0  0  0  0  0  0
    7.1040   -7.6549   -7.0552 C   0  0  0  0  0  0  0  0  0  0  0  0
    5.9517   -8.3782   -7.2257 C   0  0  0  0  0  0  0  0  0  0  0  0
    5.9221   -9.7680   -7.4692 C   0  0  0  0  0  0  0  0  0  0  0  0
    5.8166  -10.8947   -7.6633 N   0  0  0  0  0  0  0  0  0  0  0  0
    4.6330   -7.8766   -7.2226 C   0  0  0  0  0  0  0  0  0  0  0  0
    3.5264   -7.5676   -7.2497 N   0  0  0  0  0  0  0  0  0  0  0  0
   -8.3362   -0.0832    8.4820 H   0  0  0  0  0  0  0  0  0  0  0  0
   -8.4008    6.1169    9.5609 H   0  0  0  0  0  0  0  0  0  0  0  0
  -11.2668    5.3144   12.6511 H   0  0  0  0  0  0  0  0  0  0  0  0
  -11.1325    2.9073   12.2084 H   0  0  0  0  0  0  0  0  0  0  0  0
   -9.9446   -3.4475    6.2985 H   0  0  0  0  0  0  0  0  0  0  0  0
  -10.0373   -5.3058    7.8666 H   0  0  0  0  0  0  0  0  0  0  0  0
   -8.6894   -5.6282    8.9640 H   0  0  0  0  0  0  0  0  0  0  0  0
   -7.3491   -6.5146    7.0498 H   0  0  0  0  0  0  0  0  0  0  0  0
   -8.8618   -7.4083    7.2369 H   0  0  0  0  0  0  0  0  0  0  0  0
   -8.6981   -6.1991    5.9593 H   0  0  0  0  0  0  0  0  0  0  0  0
   -6.6171   -4.3075    8.8122 H   0  0  0  0  0  0  0  0  0  0  0  0
   -4.6496   -2.9440    8.6331 H   0  0  0  0  0  0  0  0  0  0  0  0
   -4.6646   -1.3927    7.7843 H   0  0  0  0  0  0  0  0  0  0  0  0
   -5.9869   -0.3743    9.6058 H   0  0  0  0  0  0  0  0  0  0  0  0
   -6.1282   -1.9343   10.4119 H   0  0  0  0  0  0  0  0  0  0  0  0
   -4.5509   -1.1426   10.2871 H   0  0  0  0  0  0  0  0  0  0  0  0
   -9.0021   -0.0035    5.6475 H   0  0  0  0  0  0  0  0  0  0  0  0
  -10.2196   -1.2639    5.4261 H   0  0  0  0  0  0  0  0  0  0  0  0
   -7.5818   -1.0493    3.8965 H   0  0  0  0  0  0  0  0  0  0  0  0
   -8.7632   -2.3451    3.6983 H   0  0  0  0  0  0  0  0  0  0  0  0
   -9.1876   -0.6870    3.2578 H   0  0  0  0  0  0  0  0  0  0  0  0
   -5.2044   -0.8326    5.0336 H   0  0  0  0  0  0  0  0  0  0  0  0
   -3.2899    3.2250    7.0699 H   0  0  0  0  0  0  0  0  0  0  0  0
   -3.7235    5.1299    8.5742 H   0  0  0  0  0  0  0  0  0  0  0  0
   -4.7779    7.1757    7.7039 H   0  0  0  0  0  0  0  0  0  0  0  0
   -6.1944    7.4894    4.3267 H   0  0  0  0  0  0  0  0  0  0  0  0
   -6.0770    8.2364    5.9262 H   0  0  0  0  0  0  0  0  0  0  0  0
   -3.8246    8.1280    3.8596 H   0  0  0  0  0  0  0  0  0  0  0  0
   -4.8072    9.5489    4.2337 H   0  0  0  0  0  0  0  0  0  0  0  0
   -3.7139    8.8802    5.4500 H   0  0  0  0  0  0  0  0  0  0  0  0
   -4.9568    5.4308    3.8157 H   0  0  0  0  0  0  0  0  0  0  0  0
    4.5920   -0.2769   -7.7688 H   0  0  0  0  0  0  0  0  0  0  0  0
    5.4925    1.0300   -9.6488 H   0  0  0  0  0  0  0  0  0  0  0  0
    6.2915    3.3302   -9.2876 H   0  0  0  0  0  0  0  0  0  0  0  0
    6.6614    4.9010   -5.9755 H   0  0  0  0  0  0  0  0  0  0  0  0
    7.0187    5.0593   -7.7038 H   0  0  0  0  0  0  0  0  0  0  0  0
    5.2749    6.6840   -7.0105 H   0  0  0  0  0  0  0  0  0  0  0  0
    4.2611    5.3624   -6.4196 H   0  0  0  0  0  0  0  0  0  0  0  0
    4.5984    5.5101   -8.1447 H   0  0  0  0  0  0  0  0  0  0  0  0
    5.3971    2.9891   -5.1352 H   0  0  0  0  0  0  0  0  0  0  0  0
   -2.2886   -0.4424    1.0089 H   0  0  0  0  0  0  0  0  0  0  0  0
   -1.5769   -0.3418   -0.6161 H   0  0  0  0  0  0  0  0  0  0  0  0
   -4.1189    1.0829    0.2769 H   0  0  0  0  0  0  0  0  0  0  0  0
   -4.0182   -0.3159   -0.7926 H   0  0  0  0  0  0  0  0  0  0  0  0
   -3.3640    1.2430   -1.3122 H   0  0  0  0  0  0  0  0  0  0  0  0
    0.3900   -0.5715   -0.1485 H   0  0  0  0  0  0  0  0  0  0  0  0
    1.8539   -0.9692   -1.0486 H   0  0  0  0  0  0  0  0  0  0  0  0
    0.6226   -1.8023   -2.9531 H   0  0  0  0  0  0  0  0  0  0  0  0
   -0.0439   -2.5706   -1.5150 H   0  0  0  0  0  0  0  0  0  0  0  0
   -0.9186   -1.2555   -2.3125 H   0  0  0  0  0  0  0  0  0  0  0  0
    8.6337    1.3957   -3.2340 H   0  0  0  0  0  0  0  0  0  0  0  0
   10.9450    2.5539   -5.8247 H   0  0  0  0  0  0  0  0  0  0  0  0
   10.5450    2.6100   -4.1030 H   0  0  0  0  0  0  0  0  0  0  0  0
    8.6346    4.1330   -4.6024 H   0  0  0  0  0  0  0  0  0  0  0  0
   10.1607    4.8184   -5.1710 H   0  0  0  0  0  0  0  0  0  0  0  0
    9.0401    4.0754   -6.3192 H   0  0  0  0  0  0  0  0  0  0  0  0
    9.4583    1.3831   -7.4069 H   0  0  0  0  0  0  0  0  0  0  0  0
    7.0883   -1.3251   -8.2021 H   0  0  0  0  0  0  0  0  0  0  0  0
    7.8106    0.1551   -8.8371 H   0  0  0  0  0  0  0  0  0  0  0  0
    9.1297   -1.7980   -9.5398 H   0  0  0  0  0  0  0  0  0  0  0  0
   10.0895   -0.7873   -8.4561 H   0  0  0  0  0  0  0  0  0  0  0  0
    9.3791   -2.2855   -7.8654 H   0  0  0  0  0  0  0  0  0  0  0  0
    6.9730    0.0649   -2.3335 H   0  0  0  0  0  0  0  0  0  0  0  0
    5.9632   -1.0086   -3.2966 H   0  0  0  0  0  0  0  0  0  0  0  0
    7.8489   -2.6364   -3.4696 H   0  0  0  0  0  0  0  0  0  0  0  0
    7.4228   -2.3157   -1.7852 H   0  0  0  0  0  0  0  0  0  0  0  0
    8.8556   -1.5646   -2.4981 H   0  0  0  0  0  0  0  0  0  0  0  0
    8.0456   -3.1907   -6.3956 H   0  0  0  0  0  0  0  0  0  0  0  0
    5.1965   -5.9158   -6.4672 H   0  0  0  0  0  0  0  0  0  0  0  0
   11.4187   -6.5407   -7.0076 H   0  0  0  0  0  0  0  0  0  0  0  0
   12.9043   -9.7487   -7.9675 H   0  0  0  0  0  0  0  0  0  0  0  0
   13.2422   -8.0736   -7.4983 H   0  0  0  0  0  0  0  0  0  0  0  0
   13.0034   -9.3121   -6.2656 H   0  0  0  0  0  0  0  0  0  0  0  0
   10.6533  -10.7336   -7.4107 H   0  0  0  0  0  0  0  0  0  0  0  0
    8.2450  -10.3475   -7.3380 H   0  0  0  0  0  0  0  0  0  0  0  0
  1  2  2  0  0  0  0
  2  3  1  0  0  0  0
  3  4  2  0  0  0  0
  3  5  1  0  0  0  0
  5  6  2  0  0  0  0
  6  7  1  0  0  0  0
  7  8  1  0  0  0  0
  7  9  2  0  0  0  0
  9 10  1  0  0  0  0
 10 11  2  0  0  0  0
 11 12  1  0  0  0  0
 12 13  2  0  0  0  0
 13 14  1  0  0  0  0
 14 15  3  0  0  0  0
 13 16  1  0  0  0  0
 16 17  3  0  0  0  0
  1 18  1  0  0  0  0
 18 19  2  0  0  0  0
 19 20  1  0  0  0  0
 20 21  2  0  0  0  0
 21 22  1  0  0  0  0
 22 23  2  0  0  0  0
 23 24  1  0  0  0  0
 24 25  1  0  0  0  0
 23 26  1  0  0  0  0
 26 27  2  0  0  0  0
 27 28  1  0  0  0  0
 28 29  1  0  0  0  0
 21 30  1  0  0  0  0
 30 31  1  0  0  0  0
 19 32  1  0  0  0  0
 32 33  2  0  0  0  0
 33 34  1  0  0  0  0
 33 35  1  0  0  0  0
 35 36  2  0  0  0  0
 36 37  1  0  0  0  0
 37 38  2  0  0  0  0
 38 39  1  0  0  0  0
 39 40  2  0  0  0  0
 40 41  1  0  0  0  0
 41 42  1  0  0  0  0
 42 43  1  0  0  0  0
 41 44  2  0  0  0  0
 36 45  1  0  0  0  0
 45 46  1  0  0  0  0
 46 47  1  0  0  0  0
 47 48  1  0  0  0  0
 48 49  1  0  0  0  0
 49 50  1  0  0  0  0
 50 51  2  0  0  0  0
 51 52  1  0  0  0  0
 52 53  1  0  0  0  0
 50 54  1  0  0  0  0
 54 55  1  0  0  0  0
 55 56  1  0  0  0  0
 56 57  1  0  0  0  0
 57 58  1  0  0  0  0
 58 59  1  0  0  0  0
 59 60  2  0  0  0  0
 60 61  1  0  0  0  0
 61 62  2  0  0  0  0
 62 63  1  0  0  0  0
 63 64  1  0  0  0  0
 64 65  1  0  0  0  0
 63 66  2  0  0  0  0
 58 67  2  0  0  0  0
 67 68  1  0  0  0  0
 68 69  1  0  0  0  0
 69 70  1  0  0  0  0
 70 71  1  0  0  0  0
 71 72  1  0  0  0  0
 72 73  1  0  0  0  0
 73 74  1  0  0  0  0
 74 75  1  0  0  0  0
 75 76  1  0  0  0  0
 76 77  1  0  0  0  0
 74 78  1  0  0  0  0
 78 79  1  0  0  0  0
 71 80  1  0  0  0  0
 80 81  1  0  0  0  0
 67 82  1  0  0  0  0
 82 83  2  0  0  0  0
 83 84  1  0  0  0  0
 84 85  2  0  0  0  0
 85 86  1  0  0  0  0
 86 87  2  0  0  0  0
 87 88  1  0  0  0  0
 88 89  1  0  0  0  0
 87 90  1  0  0  0  0
 90 91  2  0  0  0  0
 91 92  1  0  0  0  0
 92 93  1  0  0  0  0
 85 94  1  0  0  0  0
 94 95  1  0  0  0  0
 83 96  1  0  0  0  0
 96 97  2  0  0  0  0
 97 98  1  0  0  0  0
 97 99  1  0  0  0  0
 99100  2  0  0  0  0
100101  1  0  0  0  0
101102  2  0  0  0  0
101103  1  0  0  0  0
103104  2  0  0  0  0
104105  1  0  0  0  0
105106  1  0  0  0  0
105107  2  0  0  0  0
107108  1  0  0  0  0
108109  2  0  0  0  0
109110  1  0  0  0  0
110111  2  0  0  0  0
111112  1  0  0  0  0
112113  3  0  0  0  0
111114  1  0  0  0  0
114115  3  0  0  0  0
 12  2  1  0  0  0  0
 34 18  1  0  0  0  0
 77 35  1  0  0  0  0
 98 82  1  0  0  0  0
110100  1  0  0  0  0
 11  5  1  0  0  0  0
 27 20  1  0  0  0  0
 44 37  1  0  0  0  0
 76 45  2  0  0  0  0
 91 84  1  0  0  0  0
109103  1  0  0  0  0
 75 47  2  0  0  0  0
 73 48  2  0  0  0  0
 53 49  2  0  0  0  0
 72 54  2  0  0  0  0
 70 55  2  0  0  0  0
 69 57  2  0  0  0  0
 66 59  1  0  0  0  0
  1116  1  0  0  0  0
  6117  1  0  0  0  0
  9118  1  0  0  0  0
 10119  1  0  0  0  0
 22120  1  0  0  0  0
 24121  1  0  0  0  0
 24122  1  0  0  0  0
 25123  1  0  0  0  0
 25124  1  0  0  0  0
 25125  1  0  0  0  0
 26126  1  0  0  0  0
 28127  1  0  0  0  0
 28128  1  0  0  0  0
 29129  1  0  0  0  0
 29130  1  0  0  0  0
 29131  1  0  0  0  0
 30132  1  0  0  0  0
 30133  1  0  0  0  0
 31134  1  0  0  0  0
 31135  1  0  0  0  0
 31136  1  0  0  0  0
 32137  1  0  0  0  0
 38138  1  0  0  0  0
 39139  1  0  0  0  0
 40140  1  0  0  0  0
 42141  1  0  0  0  0
 42142  1  0  0  0  0
 43143  1  0  0  0  0
 43144  1  0  0  0  0
 43145  1  0  0  0  0
 44146  1  0  0  0  0
 60147  1  0  0  0  0
 61148  1  0  0  0  0
 62149  1  0  0  0  0
 64150  1  0  0  0  0
 64151  1  0  0  0  0
 65152  1  0  0  0  0
 65153  1  0  0  0  0
 65154  1  0  0  0  0
 66155  1  0  0  0  0
 78156  1  0  0  0  0
 78157  1  0  0  0  0
 79158  1  0  0  0  0
 79159  1  0  0  0  0
 79160  1  0  0  0  0
 80161  1  0  0  0  0
 80162  1  0  0  0  0
 81163  1  0  0  0  0
 81164  1  0  0  0  0
 81165  1  0  0  0  0
 86166  1  0  0  0  0
 88167  1  0  0  0  0
 88168  1  0  0  0  0
 89169  1  0  0  0  0
 89170  1  0  0  0  0
 89171  1  0  0  0  0
 90172  1  0  0  0  0
 92173  1  0  0  0  0
 92174  1  0  0  0  0
 93175  1  0  0  0  0
 93176  1  0  0  0  0
 93177  1  0  0  0  0
 94178  1  0  0  0  0
 94179  1  0  0  0  0
 95180  1  0  0  0  0
 95181  1  0  0  0  0
 95182  1  0  0  0  0
 96183  1  0  0  0  0
 99184  1  0  0  0  0
104185  1  0  0  0  0
106186  1  0  0  0  0
106187  1  0  0  0  0
106188  1  0  0  0  0
107189  1  0  0  0  0
108190  1  0  0  0  0
M  END
