132

C         -4.32510        9.91450       -2.84270
C         -3.55560       10.72680       -3.61120
C         -2.39250       10.30520       -4.43490
O         -2.06180        9.18640       -4.75990
C         -1.64940       11.55060       -4.72370
C         -0.45390       11.68680       -5.39950
C          0.06250       12.96950       -5.53950
Cl         1.54990       13.19870       -6.37640
C         -0.60080       14.07380       -5.01270
C         -1.80150       13.92780       -4.33660
C         -2.33620       12.65500       -4.18970
C         -3.55750       12.18340       -3.55090
C         -4.56850       12.96680       -3.06750
C         -5.79950       12.47740       -2.57690
N         -6.83430       12.15310       -2.20160
C         -4.53130       14.37780       -3.04880
N         -4.55130       15.52420       -3.00440
C         -4.40070        8.47770       -2.88220
C         -4.35750        7.73710       -4.06780
C         -4.46000        6.35550       -4.06790
O         -4.42120        5.57610       -5.17270
C         -4.10080        6.12640       -6.43990
C         -2.61910        6.45050       -6.58430
C         -4.60750        5.66830       -2.83960
C         -4.63820        6.39910       -1.65490
C         -4.56830        7.77150       -1.68510
F         -4.60990        8.45190       -0.52150
C         -4.64930        4.21840       -2.77740
C         -5.42700        3.30860       -3.44720
C         -6.58450        3.61650       -4.34020
C         -7.88250        3.62930       -3.53020
C         -5.09960        1.98780       -3.07460
S         -5.70730        0.43780       -3.60410
C         -4.56300       -0.33960       -2.56460
C         -4.09860       -1.63390       -2.27670
C         -4.39020       -2.88710       -2.85980
C         -3.56250       -4.01650       -2.53470
N         -3.89520       -5.09910       -3.21990
S         -5.14570       -4.73600       -4.18100
N         -5.30850       -3.17910       -3.76740
C         -2.56810       -3.87450       -1.54210
C         -1.65640       -4.78860       -0.98110
S         -1.13820       -6.42730       -1.19100
C         -0.01370       -6.21030        0.12500
C          0.95060       -7.06780        0.70620
O          1.11630       -8.32350        0.23210
C          2.42670       -8.73290       -0.13090
C          2.92510       -7.98530       -1.36230
C          1.63290       -6.44200        1.73550
S          1.11680       -4.77100        1.94230
C         -0.05680       -4.93770        0.68990
C         -0.99230       -4.11840        0.04910
N         -1.43910       -2.82340        0.14370
C         -2.38750       -2.64590       -0.85180
C         -3.05740       -1.48840       -1.31990
N         -2.87210       -0.14160       -1.06980
C         -3.77820        0.55150       -1.82760
C         -4.08200        1.88730       -2.12710
S         -3.52490        3.45430       -1.66110
C         -1.74700        0.54220       -0.47310
C         -2.14160        1.30370        0.79270
C         -1.36240       -2.15510        1.42540
C         -2.15870       -2.90850        2.49120
C          2.64760       -6.93200        2.63810
C          3.62450       -6.06000        3.12390
C          4.62670       -6.47190        3.98800
O          5.53580       -5.65660        4.55160
C          5.52080       -4.26620        4.28510
C          4.43100       -3.53080        5.05940
C          4.68290       -7.83660        4.37230
C          3.64550       -8.68540        3.97710
C          2.66020       -8.24600        3.12780
F          1.67220       -9.10060        2.79520
C          5.73390       -8.36100        5.20000
C          7.05360       -8.05210        5.10170
C          7.68020       -7.39210        3.92670
O          7.14370       -6.98190        2.92240
C          9.13750       -7.44590        4.18020
C         10.15770       -6.97210        3.38120
C         11.46140       -7.15010        3.82900
Cl        12.77320       -6.56720        2.87630
C         11.72680       -7.79250        5.03370
C         10.69560       -8.26980        5.82740
C          9.38560       -8.09440        5.40230
C          8.11140       -8.46690        6.00750
C          7.95010       -9.03280        7.24380
C          6.70810       -9.31670        7.85130
N          5.74200       -9.56470        8.42000
C          9.01630       -9.39110        8.09580
N          9.83810       -9.70740        8.83220
H         -4.91680       10.37130       -2.05710
H          0.05360       10.82380       -5.80080
H         -0.17020       15.05540       -5.13340
H         -2.29390       14.79670       -3.93170
H         -4.25870        8.27550       -4.99400
H         -4.38180        5.33520       -7.14110
H         -4.72060        7.00660       -6.64860
H         -2.31830        7.23940       -5.90070
H         -2.41790        6.77150       -7.60260
H         -2.02840        5.56280       -6.37200
H         -4.73370        5.89130       -0.70750
H         -6.64560        2.84190       -5.10740
H         -6.44480        4.58010       -4.82460
H         -8.03960        2.66630       -3.04970
H         -7.84280        4.39910       -2.76230
H         -8.72820        3.83230       -4.18200
H          2.32180       -9.79910       -0.34080
H          3.13360       -8.60220        0.69600
H          3.88800       -8.38410       -1.66790
H          3.03930       -6.92520       -1.14230
H          2.21640       -8.09720       -2.17930
H         -1.36910        1.26440       -1.20610
H         -0.95310       -0.18070       -0.28260
H         -2.79630        2.13270        0.53940
H         -2.66860        0.66600        1.49910
H         -1.25290        1.70250        1.27370
H         -0.30930       -2.09970        1.71910
H         -1.76680       -1.15360        1.33720
H         -3.19990       -2.99790        2.18850
H         -1.75590       -3.90530        2.64710
H         -2.11230       -2.36680        3.43200
H          3.58680       -5.03890        2.77910
H          6.50520       -3.92280        4.61560
H          5.43800       -4.08260        3.20830
H          3.44010       -3.86090        4.75790
H          4.51590       -2.46290        4.87910
H          4.54650       -3.71870        6.12380
H          3.62960       -9.71050        4.31390
H          5.42440       -9.10160        5.92730
H          9.94140       -6.48010        2.44610
H         12.74990       -7.92050        5.35060
H         10.92710       -8.76990        6.75350
