137

C         -7.67660       -4.28870       -8.03440
C         -7.83660       -5.49520       -7.44700
C         -7.06110       -5.94770       -6.25010
O         -6.24530       -5.31820       -5.62000
C         -7.41320       -7.37050       -6.07690
C         -6.95450       -8.24510       -5.11280
C         -7.42530       -9.55230       -5.15340
Cl        -6.89610      -10.68280       -3.96960
C         -8.31940       -9.96350       -6.13840
C         -8.77110       -9.08020       -7.10510
C         -8.31900       -7.76670       -7.07780
C         -8.61940       -6.62510       -7.93190
C         -9.53040       -6.59740       -8.95050
C         -9.85850       -5.45120       -9.70800
N        -10.18620       -4.55810      -10.34950
C        -10.28840       -7.71470       -9.36510
N        -10.92690       -8.58680       -9.74940
C         -6.98250       -3.18080       -7.40960
C         -6.06020       -2.41060       -8.12550
F         -5.81010       -2.73270       -9.40140
C         -5.35070       -1.38160       -7.53400
F         -4.40710       -0.75620       -8.24960
C         -5.56110       -1.02330       -6.19420
C         -6.52320       -1.76760       -5.49420
F         -6.80760       -1.43670       -4.22570
C         -7.21070       -2.81310       -6.07800
F         -8.16520       -3.43380       -5.37750
C         -4.79170        0.01010       -5.54150
C         -4.36900        1.22860       -6.04380
C         -4.81020        1.81570       -7.30710
C         -6.13640        1.70270       -7.71980
C         -6.53820        2.28070       -8.90790
C         -5.63090        2.97560       -9.68920
C         -4.30660        3.10290       -9.29010
C         -3.32520        3.89810      -10.10070
C         -3.21540        5.32190       -9.55100
C         -3.90890        2.52200       -8.09580
C         -3.52440        1.88450       -5.12450
S         -2.68210        3.41660       -5.15260
C         -2.04630        3.08040       -3.57730
C         -1.19670        3.66140       -2.61540
C         -0.57390        4.92540       -2.49290
C          0.14560        5.24560       -1.28430
N          0.60650        6.48590       -1.28970
S          0.18710        7.18950       -2.68480
N         -0.60390        5.94000       -3.34180
C          0.34770        4.23980       -0.31030
C          1.12710        4.16220        0.86040
S          2.12160        5.17290        1.85520
C          2.50080        3.79040        2.85670
C          3.29750        3.61880        4.00770
C          3.97000        4.70910        4.71070
C          4.61390        5.71490        3.99590
C          5.24830        6.73990        4.67120
C          5.24270        6.77510        6.05410
C          4.59470        5.78570        6.78440
C          4.54200        5.85140        8.28370
C          3.34640        6.69020        8.73940
C          3.95690        4.76240        6.10240
C          3.27500        2.30020        4.43060
S          2.23820        1.28150        3.44810
C          1.86920        2.61930        2.43010
C          1.08180        2.83250        1.29490
N          0.28260        2.08580        0.46680
C         -0.19460        2.94380       -0.50500
C         -1.09930        2.71740       -1.56170
N         -1.91650        1.63470       -1.82450
C         -2.47600        1.85360       -3.05830
C         -3.32540        1.17530       -3.93750
S         -4.18610       -0.31550       -3.92750
C         -2.60260        0.82560       -0.83540
C         -4.02510        1.33080       -0.59660
C          0.51220        0.66200        0.32030
C          1.93690        0.37900       -0.15550
C          4.04210        1.66830        5.47830
C          3.48610        0.66190        6.28380
F          2.18510        0.36350        6.15130
C          4.22870       -0.01630        7.22990
F          3.62240       -0.92000        8.00650
C          5.58070        0.27780        7.44220
C          6.12590        1.31480        6.67880
F          7.41840        1.62390        6.84780
C          5.39310        1.97090        5.70660
F          6.01340        2.87320        4.93570
C          6.38310       -0.44310        8.41070
C          6.38870       -1.79040        8.51290
C          5.84200       -2.70510        7.46250
O          5.27670       -2.39870        6.44000
C          6.24850       -4.06050        7.88170
C          6.00140       -5.25580        7.23740
C          6.49410       -6.41630        7.82270
Cl         6.20790       -7.93560        7.06820
C          7.21750       -6.36990        9.01160
C          7.46480       -5.16540        9.64930
C          6.97590       -3.99410        9.08420
C          7.06090       -2.60560        9.51690
C          7.60050       -2.15670       10.68970
C          8.21730       -2.99120       11.64770
N          8.73370       -3.61710       12.45870
C          7.59140       -0.81010       11.11600
N          7.60280        0.25940       11.53130
H         -8.04330       -4.10810       -9.03660
H         -6.26060       -7.91440       -4.35630
H         -8.66270      -10.98610       -6.14550
H         -9.45880       -9.42480       -7.85970
H         -6.85120        1.18020       -7.10000
H         -7.56670        2.19190       -9.22560
H         -5.95430        3.42290      -10.61780
H         -3.64740        3.93530      -11.14280
H         -2.34390        3.42150      -10.06220
H         -4.18200        5.81900       -9.59360
H         -2.88550        5.30360       -8.51480
H         -2.50200        5.89970      -10.13370
H         -2.87760        2.59850       -7.78500
H          4.63770        5.67700        2.91800
H          5.75520        7.51350        4.11430
H          5.74620        7.57640        6.57520
H          5.46180        6.29850        8.66520
H          4.45480        4.84450        8.69770
H          2.41760        6.25220        8.38060
H          3.42150        7.70130        8.34570
H          3.31010        6.74140        9.82500
H          3.42970        3.99990        6.66000
H         -2.05760        0.88010        0.10560
H         -2.63130       -0.21110       -1.18600
H         -4.00630        2.37600       -0.29500
H         -4.63160        1.23600       -1.49260
H         -4.48820        0.74710        0.19380
H         -0.18060        0.25950       -0.41530
H          0.33950        0.18160        1.28830
H          2.66810        0.71690        0.57320
H          2.12420        0.88660       -1.09950
H          2.06470       -0.68970       -0.30170
H          7.02070        0.16370        9.04050
H          5.44090       -5.27790        6.31620
H          7.58970       -7.28800        9.43850
H          8.03240       -5.15600       10.56530
