
  xtb     02112206013D
 energy: -275.729682400088 gnorm: 0.000230893235 xtb: 6.4.1 (unknown)
137152  0     0  0            999 V2000
   -7.6766   -4.2887   -8.0344 C   0  0  0  0  0  0  0  0  0  0  0  0
   -7.8366   -5.4952   -7.4470 C   0  0  0  0  0  0  0  0  0  0  0  0
   -7.0611   -5.9477   -6.2501 C   0  0  0  0  0  0  0  0  0  0  0  0
   -6.2453   -5.3182   -5.6200 O   0  0  0  0  0  0  0  0  0  0  0  0
   -7.4132   -7.3705   -6.0769 C   0  0  0  0  0  0  0  0  0  0  0  0
   -6.9545   -8.2451   -5.1128 C   0  0  0  0  0  0  0  0  0  0  0  0
   -7.4253   -9.5523   -5.1534 C   0  0  0  0  0  0  0  0  0  0  0  0
   -6.8961  -10.6828   -3.9696 Cl  0  0  0  0  0  0  0  0  0  0  0  0
   -8.3194   -9.9635   -6.1384 C   0  0  0  0  0  0  0  0  0  0  0  0
   -8.7711   -9.0802   -7.1051 C   0  0  0  0  0  0  0  0  0  0  0  0
   -8.3190   -7.7667   -7.0778 C   0  0  0  0  0  0  0  0  0  0  0  0
   -8.6194   -6.6251   -7.9319 C   0  0  0  0  0  0  0  0  0  0  0  0
   -9.5304   -6.5974   -8.9505 C   0  0  0  0  0  0  0  0  0  0  0  0
   -9.8585   -5.4512   -9.7080 C   0  0  0  0  0  0  0  0  0  0  0  0
  -10.1862   -4.5581  -10.3495 N   0  0  0  0  0  0  0  0  0  0  0  0
  -10.2884   -7.7147   -9.3651 C   0  0  0  0  0  0  0  0  0  0  0  0
  -10.9269   -8.5868   -9.7494 N   0  0  0  0  0  0  0  0  0  0  0  0
   -6.9825   -3.1808   -7.4096 C   0  0  0  0  0  0  0  0  0  0  0  0
   -6.0602   -2.4106   -8.1255 C   0  0  0  0  0  0  0  0  0  0  0  0
   -5.8101   -2.7327   -9.4014 F   0  0  0  0  0  0  0  0  0  0  0  0
   -5.3507   -1.3816   -7.5340 C   0  0  0  0  0  0  0  0  0  0  0  0
   -4.4071   -0.7562   -8.2496 F   0  0  0  0  0  0  0  0  0  0  0  0
   -5.5611   -1.0233   -6.1942 C   0  0  0  0  0  0  0  0  0  0  0  0
   -6.5232   -1.7676   -5.4942 C   0  0  0  0  0  0  0  0  0  0  0  0
   -6.8076   -1.4367   -4.2257 F   0  0  0  0  0  0  0  0  0  0  0  0
   -7.2107   -2.8131   -6.0780 C   0  0  0  0  0  0  0  0  0  0  0  0
   -8.1652   -3.4338   -5.3775 F   0  0  0  0  0  0  0  0  0  0  0  0
   -4.7917    0.0101   -5.5415 C   0  0  0  0  0  0  0  0  0  0  0  0
   -4.3690    1.2286   -6.0438 C   0  0  0  0  0  0  0  0  0  0  0  0
   -4.8102    1.8157   -7.3071 C   0  0  0  0  0  0  0  0  0  0  0  0
   -6.1364    1.7027   -7.7198 C   0  0  0  0  0  0  0  0  0  0  0  0
   -6.5382    2.2807   -8.9079 C   0  0  0  0  0  0  0  0  0  0  0  0
   -5.6309    2.9756   -9.6892 C   0  0  0  0  0  0  0  0  0  0  0  0
   -4.3066    3.1029   -9.2901 C   0  0  0  0  0  0  0  0  0  0  0  0
   -3.3252    3.8981  -10.1007 C   0  0  0  0  0  0  0  0  0  0  0  0
   -3.2154    5.3219   -9.5510 C   0  0  0  0  0  0  0  0  0  0  0  0
   -3.9089    2.5220   -8.0958 C   0  0  0  0  0  0  0  0  0  0  0  0
   -3.5244    1.8845   -5.1245 C   0  0  0  0  0  0  0  0  0  0  0  0
   -2.6821    3.4166   -5.1526 S   0  0  0  0  0  0  0  0  0  0  0  0
   -2.0463    3.0804   -3.5773 C   0  0  0  0  0  0  0  0  0  0  0  0
   -1.1967    3.6614   -2.6154 C   0  0  0  0  0  0  0  0  0  0  0  0
   -0.5739    4.9254   -2.4929 C   0  0  0  0  0  0  0  0  0  0  0  0
    0.1456    5.2456   -1.2843 C   0  0  0  0  0  0  0  0  0  0  0  0
    0.6065    6.4859   -1.2897 N   0  0  0  0  0  0  0  0  0  0  0  0
    0.1871    7.1895   -2.6848 S   0  0  0  0  0  0  0  0  0  0  0  0
   -0.6039    5.9400   -3.3418 N   0  0  0  0  0  0  0  0  0  0  0  0
    0.3477    4.2398   -0.3103 C   0  0  0  0  0  0  0  0  0  0  0  0
    1.1271    4.1622    0.8604 C   0  0  0  0  0  0  0  0  0  0  0  0
    2.1216    5.1729    1.8552 S   0  0  0  0  0  0  0  0  0  0  0  0
    2.5008    3.7904    2.8567 C   0  0  0  0  0  0  0  0  0  0  0  0
    3.2975    3.6188    4.0077 C   0  0  0  0  0  0  0  0  0  0  0  0
    3.9700    4.7091    4.7107 C   0  0  0  0  0  0  0  0  0  0  0  0
    4.6139    5.7149    3.9959 C   0  0  0  0  0  0  0  0  0  0  0  0
    5.2483    6.7399    4.6712 C   0  0  0  0  0  0  0  0  0  0  0  0
    5.2427    6.7751    6.0541 C   0  0  0  0  0  0  0  0  0  0  0  0
    4.5947    5.7857    6.7844 C   0  0  0  0  0  0  0  0  0  0  0  0
    4.5420    5.8514    8.2837 C   0  0  0  0  0  0  0  0  0  0  0  0
    3.3464    6.6902    8.7394 C   0  0  0  0  0  0  0  0  0  0  0  0
    3.9569    4.7624    6.1024 C   0  0  0  0  0  0  0  0  0  0  0  0
    3.2750    2.3002    4.4306 C   0  0  0  0  0  0  0  0  0  0  0  0
    2.2382    1.2815    3.4481 S   0  0  0  0  0  0  0  0  0  0  0  0
    1.8692    2.6193    2.4301 C   0  0  0  0  0  0  0  0  0  0  0  0
    1.0818    2.8325    1.2949 C   0  0  0  0  0  0  0  0  0  0  0  0
    0.2826    2.0858    0.4668 N   0  0  0  0  0  0  0  0  0  0  0  0
   -0.1946    2.9438   -0.5050 C   0  0  0  0  0  0  0  0  0  0  0  0
   -1.0993    2.7174   -1.5617 C   0  0  0  0  0  0  0  0  0  0  0  0
   -1.9165    1.6347   -1.8245 N   0  0  0  0  0  0  0  0  0  0  0  0
   -2.4760    1.8536   -3.0583 C   0  0  0  0  0  0  0  0  0  0  0  0
   -3.3254    1.1753   -3.9375 C   0  0  0  0  0  0  0  0  0  0  0  0
   -4.1861   -0.3155   -3.9275 S   0  0  0  0  0  0  0  0  0  0  0  0
   -2.6026    0.8256   -0.8354 C   0  0  0  0  0  0  0  0  0  0  0  0
   -4.0251    1.3308   -0.5966 C   0  0  0  0  0  0  0  0  0  0  0  0
    0.5122    0.6620    0.3203 C   0  0  0  0  0  0  0  0  0  0  0  0
    1.9369    0.3790   -0.1555 C   0  0  0  0  0  0  0  0  0  0  0  0
    4.0421    1.6683    5.4783 C   0  0  0  0  0  0  0  0  0  0  0  0
    3.4861    0.6619    6.2838 C   0  0  0  0  0  0  0  0  0  0  0  0
    2.1851    0.3635    6.1513 F   0  0  0  0  0  0  0  0  0  0  0  0
    4.2287   -0.0163    7.2299 C   0  0  0  0  0  0  0  0  0  0  0  0
    3.6224   -0.9200    8.0065 F   0  0  0  0  0  0  0  0  0  0  0  0
    5.5807    0.2778    7.4422 C   0  0  0  0  0  0  0  0  0  0  0  0
    6.1259    1.3148    6.6788 C   0  0  0  0  0  0  0  0  0  0  0  0
    7.4184    1.6239    6.8478 F   0  0  0  0  0  0  0  0  0  0  0  0
    5.3931    1.9709    5.7066 C   0  0  0  0  0  0  0  0  0  0  0  0
    6.0134    2.8732    4.9357 F   0  0  0  0  0  0  0  0  0  0  0  0
    6.3831   -0.4431    8.4107 C   0  0  0  0  0  0  0  0  0  0  0  0
    6.3887   -1.7904    8.5129 C   0  0  0  0  0  0  0  0  0  0  0  0
    5.8420   -2.7051    7.4625 C   0  0  0  0  0  0  0  0  0  0  0  0
    5.2767   -2.3987    6.4400 O   0  0  0  0  0  0  0  0  0  0  0  0
    6.2485   -4.0605    7.8817 C   0  0  0  0  0  0  0  0  0  0  0  0
    6.0014   -5.2558    7.2374 C   0  0  0  0  0  0  0  0  0  0  0  0
    6.4941   -6.4163    7.8227 C   0  0  0  0  0  0  0  0  0  0  0  0
    6.2079   -7.9356    7.0682 Cl  0  0  0  0  0  0  0  0  0  0  0  0
    7.2175   -6.3699    9.0116 C   0  0  0  0  0  0  0  0  0  0  0  0
    7.4648   -5.1654    9.6493 C   0  0  0  0  0  0  0  0  0  0  0  0
    6.9759   -3.9941    9.0842 C   0  0  0  0  0  0  0  0  0  0  0  0
    7.0609   -2.6056    9.5169 C   0  0  0  0  0  0  0  0  0  0  0  0
    7.6005   -2.1567   10.6897 C   0  0  0  0  0  0  0  0  0  0  0  0
    8.2173   -2.9912   11.6477 C   0  0  0  0  0  0  0  0  0  0  0  0
    8.7337   -3.6171   12.4587 N   0  0  0  0  0  0  0  0  0  0  0  0
    7.5914   -0.8101   11.1160 C   0  0  0  0  0  0  0  0  0  0  0  0
    7.6028    0.2594   11.5313 N   0  0  0  0  0  0  0  0  0  0  0  0
   -8.0433   -4.1081   -9.0366 H   0  0  0  0  0  0  0  0  0  0  0  0
   -6.2606   -7.9144   -4.3563 H   0  0  0  0  0  0  0  0  0  0  0  0
   -8.6627  -10.9861   -6.1455 H   0  0  0  0  0  0  0  0  0  0  0  0
   -9.4588   -9.4248   -7.8597 H   0  0  0  0  0  0  0  0  0  0  0  0
   -6.8512    1.1802   -7.1000 H   0  0  0  0  0  0  0  0  0  0  0  0
   -7.5667    2.1919   -9.2256 H   0  0  0  0  0  0  0  0  0  0  0  0
   -5.9543    3.4229  -10.6178 H   0  0  0  0  0  0  0  0  0  0  0  0
   -3.6474    3.9353  -11.1428 H   0  0  0  0  0  0  0  0  0  0  0  0
   -2.3439    3.4215  -10.0622 H   0  0  0  0  0  0  0  0  0  0  0  0
   -4.1820    5.8190   -9.5936 H   0  0  0  0  0  0  0  0  0  0  0  0
   -2.8855    5.3036   -8.5148 H   0  0  0  0  0  0  0  0  0  0  0  0
   -2.5020    5.8997  -10.1337 H   0  0  0  0  0  0  0  0  0  0  0  0
   -2.8776    2.5985   -7.7850 H   0  0  0  0  0  0  0  0  0  0  0  0
    4.6377    5.6770    2.9180 H   0  0  0  0  0  0  0  0  0  0  0  0
    5.7552    7.5135    4.1143 H   0  0  0  0  0  0  0  0  0  0  0  0
    5.7462    7.5764    6.5752 H   0  0  0  0  0  0  0  0  0  0  0  0
    5.4618    6.2985    8.6652 H   0  0  0  0  0  0  0  0  0  0  0  0
    4.4548    4.8445    8.6977 H   0  0  0  0  0  0  0  0  0  0  0  0
    2.4176    6.2522    8.3806 H   0  0  0  0  0  0  0  0  0  0  0  0
    3.4215    7.7013    8.3457 H   0  0  0  0  0  0  0  0  0  0  0  0
    3.3101    6.7414    9.8250 H   0  0  0  0  0  0  0  0  0  0  0  0
    3.4297    3.9999    6.6600 H   0  0  0  0  0  0  0  0  0  0  0  0
   -2.0576    0.8801    0.1056 H   0  0  0  0  0  0  0  0  0  0  0  0
   -2.6313   -0.2111   -1.1860 H   0  0  0  0  0  0  0  0  0  0  0  0
   -4.0063    2.3760   -0.2950 H   0  0  0  0  0  0  0  0  0  0  0  0
   -4.6316    1.2360   -1.4926 H   0  0  0  0  0  0  0  0  0  0  0  0
   -4.4882    0.7471    0.1938 H   0  0  0  0  0  0  0  0  0  0  0  0
   -0.1806    0.2595   -0.4153 H   0  0  0  0  0  0  0  0  0  0  0  0
    0.3395    0.1816    1.2883 H   0  0  0  0  0  0  0  0  0  0  0  0
    2.6681    0.7169    0.5732 H   0  0  0  0  0  0  0  0  0  0  0  0
    2.1242    0.8866   -1.0995 H   0  0  0  0  0  0  0  0  0  0  0  0
    2.0647   -0.6897   -0.3017 H   0  0  0  0  0  0  0  0  0  0  0  0
    7.0207    0.1637    9.0405 H   0  0  0  0  0  0  0  0  0  0  0  0
    5.4409   -5.2779    6.3162 H   0  0  0  0  0  0  0  0  0  0  0  0
    7.5897   -7.2880    9.4385 H   0  0  0  0  0  0  0  0  0  0  0  0
    8.0324   -5.1560   10.5653 H   0  0  0  0  0  0  0  0  0  0  0  0
  1  2  2  0  0  0  0
  2  3  1  0  0  0  0
  3  4  2  0  0  0  0
  3  5  1  0  0  0  0
  5  6  2  0  0  0  0
  6  7  1  0  0  0  0
  7  8  1  0  0  0  0
  7  9  2  0  0  0  0
  9 10  1  0  0  0  0
 10 11  2  0  0  0  0
 11 12  1  0  0  0  0
 12 13  2  0  0  0  0
 13 14  1  0  0  0  0
 14 15  3  0  0  0  0
 13 16  1  0  0  0  0
 16 17  3  0  0  0  0
  1 18  1  0  0  0  0
 18 19  2  0  0  0  0
 19 20  1  0  0  0  0
 19 21  1  0  0  0  0
 21 22  1  0  0  0  0
 21 23  2  0  0  0  0
 23 24  1  0  0  0  0
 24 25  1  0  0  0  0
 24 26  2  0  0  0  0
 26 27  1  0  0  0  0
 23 28  1  0  0  0  0
 28 29  2  0  0  0  0
 29 30  1  0  0  0  0
 30 31  2  0  0  0  0
 31 32  1  0  0  0  0
 32 33  2  0  0  0  0
 33 34  1  0  0  0  0
 34 35  1  0  0  0  0
 35 36  1  0  0  0  0
 34 37  2  0  0  0  0
 29 38  1  0  0  0  0
 38 39  1  0  0  0  0
 39 40  1  0  0  0  0
 40 41  1  0  0  0  0
 41 42  1  0  0  0  0
 42 43  1  0  0  0  0
 43 44  2  0  0  0  0
 44 45  1  0  0  0  0
 45 46  1  0  0  0  0
 43 47  1  0  0  0  0
 47 48  1  0  0  0  0
 48 49  1  0  0  0  0
 49 50  1  0  0  0  0
 50 51  1  0  0  0  0
 51 52  1  0  0  0  0
 52 53  2  0  0  0  0
 53 54  1  0  0  0  0
 54 55  2  0  0  0  0
 55 56  1  0  0  0  0
 56 57  1  0  0  0  0
 57 58  1  0  0  0  0
 56 59  2  0  0  0  0
 51 60  2  0  0  0  0
 60 61  1  0  0  0  0
 61 62  1  0  0  0  0
 62 63  1  0  0  0  0
 63 64  1  0  0  0  0
 64 65  1  0  0  0  0
 65 66  1  0  0  0  0
 66 67  1  0  0  0  0
 67 68  1  0  0  0  0
 68 69  1  0  0  0  0
 69 70  1  0  0  0  0
 67 71  1  0  0  0  0
 71 72  1  0  0  0  0
 64 73  1  0  0  0  0
 73 74  1  0  0  0  0
 60 75  1  0  0  0  0
 75 76  2  0  0  0  0
 76 77  1  0  0  0  0
 76 78  1  0  0  0  0
 78 79  1  0  0  0  0
 78 80  2  0  0  0  0
 80 81  1  0  0  0  0
 81 82  1  0  0  0  0
 81 83  2  0  0  0  0
 83 84  1  0  0  0  0
 80 85  1  0  0  0  0
 85 86  2  0  0  0  0
 86 87  1  0  0  0  0
 87 88  2  0  0  0  0
 87 89  1  0  0  0  0
 89 90  2  0  0  0  0
 90 91  1  0  0  0  0
 91 92  1  0  0  0  0
 91 93  2  0  0  0  0
 93 94  1  0  0  0  0
 94 95  2  0  0  0  0
 95 96  1  0  0  0  0
 96 97  2  0  0  0  0
 97 98  1  0  0  0  0
 98 99  3  0  0  0  0
 97100  1  0  0  0  0
100101  3  0  0  0  0
 12  2  1  0  0  0  0
 26 18  1  0  0  0  0
 70 28  1  0  0  0  0
 83 75  1  0  0  0  0
 96 86  1  0  0  0  0
 11  5  1  0  0  0  0
 37 30  1  0  0  0  0
 69 38  2  0  0  0  0
 95 89  1  0  0  0  0
 68 40  2  0  0  0  0
 66 41  2  0  0  0  0
 46 42  2  0  0  0  0
 65 47  2  0  0  0  0
 63 48  2  0  0  0  0
 62 50  2  0  0  0  0
 59 52  1  0  0  0  0
  1102  1  0  0  0  0
  6103  1  0  0  0  0
  9104  1  0  0  0  0
 10105  1  0  0  0  0
 31106  1  0  0  0  0
 32107  1  0  0  0  0
 33108  1  0  0  0  0
 35109  1  0  0  0  0
 35110  1  0  0  0  0
 36111  1  0  0  0  0
 36112  1  0  0  0  0
 36113  1  0  0  0  0
 37114  1  0  0  0  0
 53115  1  0  0  0  0
 54116  1  0  0  0  0
 55117  1  0  0  0  0
 57118  1  0  0  0  0
 57119  1  0  0  0  0
 58120  1  0  0  0  0
 58121  1  0  0  0  0
 58122  1  0  0  0  0
 59123  1  0  0  0  0
 71124  1  0  0  0  0
 71125  1  0  0  0  0
 72126  1  0  0  0  0
 72127  1  0  0  0  0
 72128  1  0  0  0  0
 73129  1  0  0  0  0
 73130  1  0  0  0  0
 74131  1  0  0  0  0
 74132  1  0  0  0  0
 74133  1  0  0  0  0
 85134  1  0  0  0  0
 90135  1  0  0  0  0
 93136  1  0  0  0  0
 94137  1  0  0  0  0
M  END
