
  xtb     02112212033D
 energy: -256.140805368687 gnorm: 0.000883255234 xtb: 6.4.1 (unknown)
148163  0     0  0            999 V2000
   -5.9943   -8.9452   -0.4552 C   0  0  0  0  0  0  0  0  0  0  0  0
   -7.0806   -8.1130   -0.5685 C   0  0  0  0  0  0  0  0  0  0  0  0
   -7.0550   -6.6576   -0.4079 C   0  0  0  0  0  0  0  0  0  0  0  0
   -6.0944   -5.9504   -0.1596 O   0  0  0  0  0  0  0  0  0  0  0  0
   -8.4455   -6.2004   -0.6058 C   0  0  0  0  0  0  0  0  0  0  0  0
   -8.9406   -4.9145   -0.5528 C   0  0  0  0  0  0  0  0  0  0  0  0
  -10.3015   -4.7420   -0.7783 C   0  0  0  0  0  0  0  0  0  0  0  0
  -10.9757   -3.1571   -0.7253 Cl  0  0  0  0  0  0  0  0  0  0  0  0
  -11.1290   -5.8262   -1.0462 C   0  0  0  0  0  0  0  0  0  0  0  0
  -10.6202   -7.1156   -1.0968 C   0  0  0  0  0  0  0  0  0  0  0  0
   -9.2648   -7.3105   -0.8753 C   0  0  0  0  0  0  0  0  0  0  0  0
   -8.4414   -8.5190   -0.8626 C   0  0  0  0  0  0  0  0  0  0  0  0
   -8.9012   -9.7884   -1.1018 C   0  0  0  0  0  0  0  0  0  0  0  0
   -8.1212  -10.9638   -1.1054 C   0  0  0  0  0  0  0  0  0  0  0  0
   -7.5650  -11.9687   -1.1278 N   0  0  0  0  0  0  0  0  0  0  0  0
  -10.2468  -10.1003   -1.3896 C   0  0  0  0  0  0  0  0  0  0  0  0
  -11.3216  -10.4232   -1.6317 N   0  0  0  0  0  0  0  0  0  0  0  0
   -4.6500   -8.6440   -0.1992 C   0  0  0  0  0  0  0  0  0  0  0  0
   -3.6570   -9.6201   -0.1831 C   0  0  0  0  0  0  0  0  0  0  0  0
   -2.3750   -9.1404    0.0504 C   0  0  0  0  0  0  0  0  0  0  0  0
   -1.0021  -10.2473   -0.0244 S   0  0  0  0  0  0  0  0  0  0  0  0
    0.1528   -9.3593   -1.1294 C   0  0  0  0  0  0  0  0  0  0  0  0
   -0.4798   -9.0059   -2.4602 C   0  0  0  0  0  0  0  0  0  0  0  0
   -2.3595   -7.7602    0.2671 C   0  0  0  0  0  0  0  0  0  0  0  0
   -3.9477   -7.0708    0.0902 S   0  0  0  0  0  0  0  0  0  0  0  0
   -1.2846   -6.8778    0.5641 C   0  0  0  0  0  0  0  0  0  0  0  0
   -0.1356   -7.0781    1.3174 C   0  0  0  0  0  0  0  0  0  0  0  0
    0.1379   -8.2609    2.1311 C   0  0  0  0  0  0  0  0  0  0  0  0
    1.4242   -8.7887    2.2069 C   0  0  0  0  0  0  0  0  0  0  0  0
    1.6634   -9.9049    2.9848 C   0  0  0  0  0  0  0  0  0  0  0  0
    0.6325  -10.4998    3.6908 C   0  0  0  0  0  0  0  0  0  0  0  0
   -0.6528   -9.9752    3.6412 C   0  0  0  0  0  0  0  0  0  0  0  0
   -1.7924  -10.6422    4.3543 C   0  0  0  0  0  0  0  0  0  0  0  0
   -2.5428  -11.5610    3.3879 C   0  0  0  0  0  0  0  0  0  0  0  0
   -0.8861   -8.8522    2.8646 C   0  0  0  0  0  0  0  0  0  0  0  0
    0.6879   -5.9352    1.3000 C   0  0  0  0  0  0  0  0  0  0  0  0
    2.2396   -5.5821    2.0242 S   0  0  0  0  0  0  0  0  0  0  0  0
    2.1506   -3.9789    1.3793 C   0  0  0  0  0  0  0  0  0  0  0  0
    2.9158   -2.8010    1.3417 C   0  0  0  0  0  0  0  0  0  0  0  0
    4.2269   -2.5132    1.7811 C   0  0  0  0  0  0  0  0  0  0  0  0
    4.7825   -1.2167    1.5085 C   0  0  0  0  0  0  0  0  0  0  0  0
    6.0353   -1.1079    1.9206 N   0  0  0  0  0  0  0  0  0  0  0  0
    6.4780   -2.5105    2.5973 S   0  0  0  0  0  0  0  0  0  0  0  0
    5.0871   -3.3132    2.3908 N   0  0  0  0  0  0  0  0  0  0  0  0
    3.9521   -0.2224    0.9444 C   0  0  0  0  0  0  0  0  0  0  0  0
    4.1366    1.1591    0.7814 C   0  0  0  0  0  0  0  0  0  0  0  0
    5.3748    2.3451    1.0079 S   0  0  0  0  0  0  0  0  0  0  0  0
    4.2147    3.5922    0.6151 C   0  0  0  0  0  0  0  0  0  0  0  0
    4.3239    4.9926    0.5394 C   0  0  0  0  0  0  0  0  0  0  0  0
    5.5994    5.6886    0.7226 C   0  0  0  0  0  0  0  0  0  0  0  0
    6.4125    5.3801    1.8082 C   0  0  0  0  0  0  0  0  0  0  0  0
    7.6280    6.0214    1.9623 C   0  0  0  0  0  0  0  0  0  0  0  0
    8.0379    6.9715    1.0451 C   0  0  0  0  0  0  0  0  0  0  0  0
    7.2424    7.2853   -0.0518 C   0  0  0  0  0  0  0  0  0  0  0  0
    7.6554    8.3658   -1.0089 C   0  0  0  0  0  0  0  0  0  0  0  0
    7.3363    9.7411   -0.4175 C   0  0  0  0  0  0  0  0  0  0  0  0
    6.0330    6.6285   -0.2092 C   0  0  0  0  0  0  0  0  0  0  0  0
    3.1026    5.5730    0.2220 C   0  0  0  0  0  0  0  0  0  0  0  0
    1.8405    4.3749   -0.0342 S   0  0  0  0  0  0  0  0  0  0  0  0
    2.9435    3.0929    0.3142 C   0  0  0  0  0  0  0  0  0  0  0  0
    2.9047    1.6951    0.3901 C   0  0  0  0  0  0  0  0  0  0  0  0
    1.9817    0.6915    0.2593 N   0  0  0  0  0  0  0  0  0  0  0  0
    2.6055   -0.4993    0.5784 C   0  0  0  0  0  0  0  0  0  0  0  0
    2.1427   -1.8378    0.6370 C   0  0  0  0  0  0  0  0  0  0  0  0
    0.9722   -2.4364    0.2000 N   0  0  0  0  0  0  0  0  0  0  0  0
    0.9814   -3.7305    0.6557 C   0  0  0  0  0  0  0  0  0  0  0  0
    0.1508   -4.8547    0.5944 C   0  0  0  0  0  0  0  0  0  0  0  0
   -1.3812   -5.2474   -0.0967 S   0  0  0  0  0  0  0  0  0  0  0  0
    0.1859   -2.1163   -0.9718 C   0  0  0  0  0  0  0  0  0  0  0  0
    0.6845   -2.8849   -2.1957 C   0  0  0  0  0  0  0  0  0  0  0  0
    0.5728    1.0020    0.1615 C   0  0  0  0  0  0  0  0  0  0  0  0
    0.1842    1.4809   -1.2376 C   0  0  0  0  0  0  0  0  0  0  0  0
    2.7275    6.9402    0.1449 C   0  0  0  0  0  0  0  0  0  0  0  0
    3.4447    8.0573    0.5365 C   0  0  0  0  0  0  0  0  0  0  0  0
    2.7729    9.2460    0.2888 C   0  0  0  0  0  0  0  0  0  0  0  0
    3.5632   10.7745    0.6617 S   0  0  0  0  0  0  0  0  0  0  0  0
    3.5758   11.6770   -0.9430 C   0  0  0  0  0  0  0  0  0  0  0  0
    3.7820   10.7719   -2.1384 C   0  0  0  0  0  0  0  0  0  0  0  0
    1.4744    9.0759   -0.2274 C   0  0  0  0  0  0  0  0  0  0  0  0
    1.1711    7.3722   -0.4976 S   0  0  0  0  0  0  0  0  0  0  0  0
    0.5583   10.1193   -0.3823 C   0  0  0  0  0  0  0  0  0  0  0  0
   -0.7666   10.0887   -0.7513 C   0  0  0  0  0  0  0  0  0  0  0  0
   -1.5337    8.8862   -1.0903 C   0  0  0  0  0  0  0  0  0  0  0  0
   -1.1142    7.7502   -1.2354 O   0  0  0  0  0  0  0  0  0  0  0  0
   -2.9363    9.3193   -1.2255 C   0  0  0  0  0  0  0  0  0  0  0  0
   -4.0547    8.5576   -1.4861 C   0  0  0  0  0  0  0  0  0  0  0  0
   -5.2985    9.1854   -1.5489 C   0  0  0  0  0  0  0  0  0  0  0  0
   -6.5332    8.3812   -1.8048 C   0  0  0  0  0  0  0  0  0  0  0  0
   -5.3704   10.5607   -1.3478 C   0  0  0  0  0  0  0  0  0  0  0  0
   -4.2465   11.3337   -1.0910 C   0  0  0  0  0  0  0  0  0  0  0  0
   -3.0114   10.7093   -1.0293 C   0  0  0  0  0  0  0  0  0  0  0  0
   -1.6652   11.2238   -0.7886 C   0  0  0  0  0  0  0  0  0  0  0  0
   -1.3421   12.5535   -0.6805 C   0  0  0  0  0  0  0  0  0  0  0  0
   -0.0397   13.0704   -0.5548 C   0  0  0  0  0  0  0  0  0  0  0  0
    0.9963   13.5657   -0.4944 N   0  0  0  0  0  0  0  0  0  0  0  0
   -2.2813   13.6042   -0.7311 C   0  0  0  0  0  0  0  0  0  0  0  0
   -2.9878   14.5090   -0.7597 N   0  0  0  0  0  0  0  0  0  0  0  0
   -6.1711  -10.0061   -0.5841 H   0  0  0  0  0  0  0  0  0  0  0  0
   -8.2893   -4.0807   -0.3438 H   0  0  0  0  0  0  0  0  0  0  0  0
  -12.1811   -5.6597   -1.2166 H   0  0  0  0  0  0  0  0  0  0  0  0
  -11.2842   -7.9379   -1.3060 H   0  0  0  0  0  0  0  0  0  0  0  0
   -3.8623  -10.6601   -0.3666 H   0  0  0  0  0  0  0  0  0  0  0  0
    0.9710  -10.0674   -1.2562 H   0  0  0  0  0  0  0  0  0  0  0  0
    0.5244   -8.4774   -0.6105 H   0  0  0  0  0  0  0  0  0  0  0  0
    0.2664   -8.5593   -3.1144 H   0  0  0  0  0  0  0  0  0  0  0  0
   -1.2914   -8.2929   -2.3264 H   0  0  0  0  0  0  0  0  0  0  0  0
   -0.8781   -9.8965   -2.9408 H   0  0  0  0  0  0  0  0  0  0  0  0
    2.2265   -8.3380    1.6419 H   0  0  0  0  0  0  0  0  0  0  0  0
    2.6601  -10.3172    3.0354 H   0  0  0  0  0  0  0  0  0  0  0  0
    0.8268  -11.3779    4.2892 H   0  0  0  0  0  0  0  0  0  0  0  0
   -1.4163  -11.2282    5.1947 H   0  0  0  0  0  0  0  0  0  0  0  0
   -2.4805   -9.8881    4.7424 H   0  0  0  0  0  0  0  0  0  0  0  0
   -3.3713  -12.0520    3.8927 H   0  0  0  0  0  0  0  0  0  0  0  0
   -2.9334  -10.9894    2.5488 H   0  0  0  0  0  0  0  0  0  0  0  0
   -1.8726  -12.3210    2.9935 H   0  0  0  0  0  0  0  0  0  0  0  0
   -1.8779   -8.4237    2.8324 H   0  0  0  0  0  0  0  0  0  0  0  0
    6.0850    4.6530    2.5354 H   0  0  0  0  0  0  0  0  0  0  0  0
    8.2560    5.7804    2.8070 H   0  0  0  0  0  0  0  0  0  0  0  0
    8.9852    7.4739    1.1758 H   0  0  0  0  0  0  0  0  0  0  0  0
    8.7273    8.2995   -1.2065 H   0  0  0  0  0  0  0  0  0  0  0  0
    7.1258    8.2442   -1.9561 H   0  0  0  0  0  0  0  0  0  0  0  0
    7.5957   10.5282   -1.1218 H   0  0  0  0  0  0  0  0  0  0  0  0
    6.2777    9.8190   -0.1796 H   0  0  0  0  0  0  0  0  0  0  0  0
    7.8978    9.8993    0.5001 H   0  0  0  0  0  0  0  0  0  0  0  0
    5.4133    6.8436   -1.0686 H   0  0  0  0  0  0  0  0  0  0  0  0
    0.2510   -1.0548   -1.1783 H   0  0  0  0  0  0  0  0  0  0  0  0
   -0.8553   -2.3828   -0.7651 H   0  0  0  0  0  0  0  0  0  0  0  0
    0.0950   -2.6083   -3.0654 H   0  0  0  0  0  0  0  0  0  0  0  0
    1.7288   -2.6477   -2.3891 H   0  0  0  0  0  0  0  0  0  0  0  0
    0.5937   -3.9571   -2.0445 H   0  0  0  0  0  0  0  0  0  0  0  0
   -0.0039    0.1288    0.4687 H   0  0  0  0  0  0  0  0  0  0  0  0
    0.3593    1.8072    0.8738 H   0  0  0  0  0  0  0  0  0  0  0  0
    0.5257    0.7932   -2.0084 H   0  0  0  0  0  0  0  0  0  0  0  0
   -0.8956    1.5781   -1.3053 H   0  0  0  0  0  0  0  0  0  0  0  0
    0.6277    2.4523   -1.4373 H   0  0  0  0  0  0  0  0  0  0  0  0
    4.4199    8.0273    0.9847 H   0  0  0  0  0  0  0  0  0  0  0  0
    2.6648   12.2681   -1.0276 H   0  0  0  0  0  0  0  0  0  0  0  0
    4.4180   12.3576   -0.8185 H   0  0  0  0  0  0  0  0  0  0  0  0
    4.6734   10.1605   -2.0138 H   0  0  0  0  0  0  0  0  0  0  0  0
    2.9270   10.1152   -2.2880 H   0  0  0  0  0  0  0  0  0  0  0  0
    3.9019   11.3831   -3.0306 H   0  0  0  0  0  0  0  0  0  0  0  0
    0.9585   11.0855   -0.0996 H   0  0  0  0  0  0  0  0  0  0  0  0
   -3.9591    7.4925   -1.6358 H   0  0  0  0  0  0  0  0  0  0  0  0
   -6.8381    7.8719   -0.8900 H   0  0  0  0  0  0  0  0  0  0  0  0
   -6.3476    7.6215   -2.5611 H   0  0  0  0  0  0  0  0  0  0  0  0
   -7.3538    9.0150   -2.1307 H   0  0  0  0  0  0  0  0  0  0  0  0
   -6.3344   11.0463   -1.3930 H   0  0  0  0  0  0  0  0  0  0  0  0
   -4.3525   12.3954   -0.9404 H   0  0  0  0  0  0  0  0  0  0  0  0
  1  2  2  0  0  0  0
  2  3  1  0  0  0  0
  3  4  2  0  0  0  0
  3  5  1  0  0  0  0
  5  6  2  0  0  0  0
  6  7  1  0  0  0  0
  7  8  1  0  0  0  0
  7  9  2  0  0  0  0
  9 10  1  0  0  0  0
 10 11  2  0  0  0  0
 11 12  1  0  0  0  0
 12 13  2  0  0  0  0
 13 14  1  0  0  0  0
 14 15  3  0  0  0  0
 13 16  1  0  0  0  0
 16 17  3  0  0  0  0
  1 18  1  0  0  0  0
 18 19  2  0  0  0  0
 19 20  1  0  0  0  0
 20 21  1  0  0  0  0
 21 22  1  0  0  0  0
 22 23  1  0  0  0  0
 20 24  2  0  0  0  0
 24 25  1  0  0  0  0
 24 26  1  0  0  0  0
 26 27  2  0  0  0  0
 27 28  1  0  0  0  0
 28 29  2  0  0  0  0
 29 30  1  0  0  0  0
 30 31  2  0  0  0  0
 31 32  1  0  0  0  0
 32 33  1  0  0  0  0
 33 34  1  0  0  0  0
 32 35  2  0  0  0  0
 27 36  1  0  0  0  0
 36 37  1  0  0  0  0
 37 38  1  0  0  0  0
 38 39  1  0  0  0  0
 39 40  1  0  0  0  0
 40 41  1  0  0  0  0
 41 42  2  0  0  0  0
 42 43  1  0  0  0  0
 43 44  1  0  0  0  0
 41 45  1  0  0  0  0
 45 46  1  0  0  0  0
 46 47  1  0  0  0  0
 47 48  1  0  0  0  0
 48 49  1  0  0  0  0
 49 50  1  0  0  0  0
 50 51  2  0  0  0  0
 51 52  1  0  0  0  0
 52 53  2  0  0  0  0
 53 54  1  0  0  0  0
 54 55  1  0  0  0  0
 55 56  1  0  0  0  0
 54 57  2  0  0  0  0
 49 58  2  0  0  0  0
 58 59  1  0  0  0  0
 59 60  1  0  0  0  0
 60 61  1  0  0  0  0
 61 62  1  0  0  0  0
 62 63  1  0  0  0  0
 63 64  1  0  0  0  0
 64 65  1  0  0  0  0
 65 66  1  0  0  0  0
 66 67  1  0  0  0  0
 67 68  1  0  0  0  0
 65 69  1  0  0  0  0
 69 70  1  0  0  0  0
 62 71  1  0  0  0  0
 71 72  1  0  0  0  0
 58 73  1  0  0  0  0
 73 74  2  0  0  0  0
 74 75  1  0  0  0  0
 75 76  1  0  0  0  0
 76 77  1  0  0  0  0
 77 78  1  0  0  0  0
 75 79  2  0  0  0  0
 79 80  1  0  0  0  0
 79 81  1  0  0  0  0
 81 82  2  0  0  0  0
 82 83  1  0  0  0  0
 83 84  2  0  0  0  0
 83 85  1  0  0  0  0
 85 86  2  0  0  0  0
 86 87  1  0  0  0  0
 87 88  1  0  0  0  0
 87 89  2  0  0  0  0
 89 90  1  0  0  0  0
 90 91  2  0  0  0  0
 91 92  1  0  0  0  0
 92 93  2  0  0  0  0
 93 94  1  0  0  0  0
 94 95  3  0  0  0  0
 93 96  1  0  0  0  0
 96 97  3  0  0  0  0
 12  2  1  0  0  0  0
 25 18  1  0  0  0  0
 68 26  1  0  0  0  0
 80 73  1  0  0  0  0
 92 82  1  0  0  0  0
 11  5  1  0  0  0  0
 35 28  1  0  0  0  0
 67 36  2  0  0  0  0
 91 85  1  0  0  0  0
 66 38  2  0  0  0  0
 64 39  2  0  0  0  0
 44 40  2  0  0  0  0
 63 45  2  0  0  0  0
 61 46  2  0  0  0  0
 60 48  2  0  0  0  0
 57 50  1  0  0  0  0
  1 98  1  0  0  0  0
  6 99  1  0  0  0  0
  9100  1  0  0  0  0
 10101  1  0  0  0  0
 19102  1  0  0  0  0
 22103  1  0  0  0  0
 22104  1  0  0  0  0
 23105  1  0  0  0  0
 23106  1  0  0  0  0
 23107  1  0  0  0  0
 29108  1  0  0  0  0
 30109  1  0  0  0  0
 31110  1  0  0  0  0
 33111  1  0  0  0  0
 33112  1  0  0  0  0
 34113  1  0  0  0  0
 34114  1  0  0  0  0
 34115  1  0  0  0  0
 35116  1  0  0  0  0
 51117  1  0  0  0  0
 52118  1  0  0  0  0
 53119  1  0  0  0  0
 55120  1  0  0  0  0
 55121  1  0  0  0  0
 56122  1  0  0  0  0
 56123  1  0  0  0  0
 56124  1  0  0  0  0
 57125  1  0  0  0  0
 69126  1  0  0  0  0
 69127  1  0  0  0  0
 70128  1  0  0  0  0
 70129  1  0  0  0  0
 70130  1  0  0  0  0
 71131  1  0  0  0  0
 71132  1  0  0  0  0
 72133  1  0  0  0  0
 72134  1  0  0  0  0
 72135  1  0  0  0  0
 74136  1  0  0  0  0
 77137  1  0  0  0  0
 77138  1  0  0  0  0
 78139  1  0  0  0  0
 78140  1  0  0  0  0
 78141  1  0  0  0  0
 81142  1  0  0  0  0
 86143  1  0  0  0  0
 88144  1  0  0  0  0
 88145  1  0  0  0  0
 88146  1  0  0  0  0
 89147  1  0  0  0  0
 90148  1  0  0  0  0
M  END
