
  xtb     02112218413D
 energy: -313.511122163003 gnorm: 0.000970174373 xtb: 6.4.1 (unknown)
181200  0     0  0            999 V2000
  -11.8109   -4.6682   -5.6353 C   0  0  0  0  0  0  0  0  0  0  0  0
  -12.0636   -5.3951   -6.7746 C   0  0  0  0  0  0  0  0  0  0  0  0
  -11.0569   -5.8346   -7.7432 C   0  0  0  0  0  0  0  0  0  0  0  0
   -9.8528   -5.6530   -7.7095 O   0  0  0  0  0  0  0  0  0  0  0  0
  -11.7929   -6.5742   -8.7887 C   0  0  0  0  0  0  0  0  0  0  0  0
  -11.2926   -7.1720   -9.9259 C   0  0  0  0  0  0  0  0  0  0  0  0
  -12.1996   -7.8035  -10.7694 C   0  0  0  0  0  0  0  0  0  0  0  0
  -11.6326   -8.5628  -12.2086 Cl  0  0  0  0  0  0  0  0  0  0  0  0
  -13.5570   -7.8325  -10.4721 C   0  0  0  0  0  0  0  0  0  0  0  0
  -14.0486   -7.2302   -9.3232 C   0  0  0  0  0  0  0  0  0  0  0  0
  -13.1613   -6.5917   -8.4694 C   0  0  0  0  0  0  0  0  0  0  0  0
  -13.3605   -5.8701   -7.2126 C   0  0  0  0  0  0  0  0  0  0  0  0
  -14.5719   -5.6823   -6.5967 C   0  0  0  0  0  0  0  0  0  0  0  0
  -14.7882   -4.9727   -5.3974 C   0  0  0  0  0  0  0  0  0  0  0  0
  -15.0542   -4.4086   -4.4323 N   0  0  0  0  0  0  0  0  0  0  0  0
  -15.7958   -6.1789   -7.0920 C   0  0  0  0  0  0  0  0  0  0  0  0
  -16.8248   -6.5549   -7.4353 N   0  0  0  0  0  0  0  0  0  0  0  0
  -10.6131   -4.1135   -5.1709 C   0  0  0  0  0  0  0  0  0  0  0  0
  -10.5389   -3.3617   -3.9978 C   0  0  0  0  0  0  0  0  0  0  0  0
   -9.2847   -2.8402   -3.7452 C   0  0  0  0  0  0  0  0  0  0  0  0
   -8.9385   -1.8385   -2.3265 S   0  0  0  0  0  0  0  0  0  0  0  0
   -9.0440   -0.1834   -3.1108 C   0  0  0  0  0  0  0  0  0  0  0  0
  -10.4533    0.1466   -3.5565 C   0  0  0  0  0  0  0  0  0  0  0  0
   -8.3393   -3.1795   -4.7196 C   0  0  0  0  0  0  0  0  0  0  0  0
   -9.0485   -4.1692   -5.9565 S   0  0  0  0  0  0  0  0  0  0  0  0
   -6.9633   -2.8589   -4.7339 C   0  0  0  0  0  0  0  0  0  0  0  0
   -6.0389   -3.1482   -5.7321 C   0  0  0  0  0  0  0  0  0  0  0  0
   -6.3569   -3.7256   -7.0445 C   0  0  0  0  0  0  0  0  0  0  0  0
   -5.8579   -4.9741   -7.3934 C   0  0  0  0  0  0  0  0  0  0  0  0
   -6.1546   -5.5069   -8.6341 C   0  0  0  0  0  0  0  0  0  0  0  0
   -6.9317   -4.7970   -9.5300 C   0  0  0  0  0  0  0  0  0  0  0  0
   -7.4175   -3.5365   -9.2051 C   0  0  0  0  0  0  0  0  0  0  0  0
   -8.2899   -2.7789  -10.1642 C   0  0  0  0  0  0  0  0  0  0  0  0
   -9.7584   -3.1465   -9.9441 C   0  0  0  0  0  0  0  0  0  0  0  0
   -7.1234   -3.0098   -7.9580 C   0  0  0  0  0  0  0  0  0  0  0  0
   -4.7399   -2.7949   -5.3502 C   0  0  0  0  0  0  0  0  0  0  0  0
   -3.2016   -2.9073   -6.1745 S   0  0  0  0  0  0  0  0  0  0  0  0
   -2.4467   -2.1803   -4.7962 C   0  0  0  0  0  0  0  0  0  0  0  0
   -1.1812   -1.7281   -4.3941 C   0  0  0  0  0  0  0  0  0  0  0  0
    0.0390   -1.6309   -5.0982 C   0  0  0  0  0  0  0  0  0  0  0  0
    1.1412   -0.9492   -4.4822 C   0  0  0  0  0  0  0  0  0  0  0  0
    2.1966   -0.8713   -5.2778 N   0  0  0  0  0  0  0  0  0  0  0  0
    1.8366   -1.5984   -6.6791 S   0  0  0  0  0  0  0  0  0  0  0  0
    0.3194   -2.0386   -6.3259 N   0  0  0  0  0  0  0  0  0  0  0  0
    1.0139   -0.5148   -3.1449 C   0  0  0  0  0  0  0  0  0  0  0  0
    1.9498    0.0512   -2.2641 C   0  0  0  0  0  0  0  0  0  0  0  0
    3.5865    0.6097   -2.2710 S   0  0  0  0  0  0  0  0  0  0  0  0
    3.4585    0.9468   -0.5601 C   0  0  0  0  0  0  0  0  0  0  0  0
    4.3587    1.5047    0.3766 C   0  0  0  0  0  0  0  0  0  0  0  0
    5.6589    2.0499   -0.0156 C   0  0  0  0  0  0  0  0  0  0  0  0
    6.1175    3.2616    0.5000 C   0  0  0  0  0  0  0  0  0  0  0  0
    7.2994    3.8061    0.0377 C   0  0  0  0  0  0  0  0  0  0  0  0
    8.0222    3.1722   -0.9590 C   0  0  0  0  0  0  0  0  0  0  0  0
    7.5777    1.9695   -1.4910 C   0  0  0  0  0  0  0  0  0  0  0  0
    8.2995    1.3016   -2.6258 C   0  0  0  0  0  0  0  0  0  0  0  0
    7.5782    1.5828   -3.9456 C   0  0  0  0  0  0  0  0  0  0  0  0
    6.4059    1.4117   -1.0004 C   0  0  0  0  0  0  0  0  0  0  0  0
    3.7788    1.5779    1.6294 C   0  0  0  0  0  0  0  0  0  0  0  0
    2.1173    1.0072    1.6474 S   0  0  0  0  0  0  0  0  0  0  0  0
    2.2028    0.6375   -0.0361 C   0  0  0  0  0  0  0  0  0  0  0  0
    1.3356    0.1325   -1.0139 C   0  0  0  0  0  0  0  0  0  0  0  0
    0.0417   -0.3164   -1.0891 N   0  0  0  0  0  0  0  0  0  0  0  0
   -0.1822   -0.7134   -2.4013 C   0  0  0  0  0  0  0  0  0  0  0  0
   -1.3296   -1.2031   -3.0774 C   0  0  0  0  0  0  0  0  0  0  0  0
   -2.6615   -1.2898   -2.7221 N   0  0  0  0  0  0  0  0  0  0  0  0
   -3.3353   -1.8824   -3.7567 C   0  0  0  0  0  0  0  0  0  0  0  0
   -4.6530   -2.2218   -4.0760 C   0  0  0  0  0  0  0  0  0  0  0  0
   -6.2058   -2.1111   -3.3266 S   0  0  0  0  0  0  0  0  0  0  0  0
   -3.3999   -0.6057   -1.6856 C   0  0  0  0  0  0  0  0  0  0  0  0
   -3.9378   -1.5683   -0.6279 C   0  0  0  0  0  0  0  0  0  0  0  0
   -0.5870   -0.7959    0.1238 C   0  0  0  0  0  0  0  0  0  0  0  0
   -0.3211   -2.2863    0.3244 C   0  0  0  0  0  0  0  0  0  0  0  0
    4.3318    2.0184    2.8707 C   0  0  0  0  0  0  0  0  0  0  0  0
    5.6189    1.9461    3.3200 C   0  0  0  0  0  0  0  0  0  0  0  0
    5.8036    2.5041    4.6095 C   0  0  0  0  0  0  0  0  0  0  0  0
    6.9914    2.6213    5.3530 C   0  0  0  0  0  0  0  0  0  0  0  0
    8.2854    2.1318    4.8561 C   0  0  0  0  0  0  0  0  0  0  0  0
    9.0938    1.3565    5.6865 C   0  0  0  0  0  0  0  0  0  0  0  0
   10.3390    0.9325    5.2636 C   0  0  0  0  0  0  0  0  0  0  0  0
   10.7893    1.2541    3.9953 C   0  0  0  0  0  0  0  0  0  0  0  0
    9.9695    1.9850    3.1502 C   0  0  0  0  0  0  0  0  0  0  0  0
   10.5034    2.3174    1.4768 S   0  0  0  0  0  0  0  0  0  0  0  0
    9.8699    0.7887    0.6912 C   0  0  0  0  0  0  0  0  0  0  0  0
   10.5741   -0.4676    1.1610 C   0  0  0  0  0  0  0  0  0  0  0  0
    8.7340    2.4404    3.5746 C   0  0  0  0  0  0  0  0  0  0  0  0
    6.8892    3.2256    6.5991 C   0  0  0  0  0  0  0  0  0  0  0  0
    5.6648    3.7127    7.1343 C   0  0  0  0  0  0  0  0  0  0  0  0
    4.4725    3.5771    6.3972 C   0  0  0  0  0  0  0  0  0  0  0  0
    3.1813    4.0659    6.8963 C   0  0  0  0  0  0  0  0  0  0  0  0
    3.0314    5.3706    7.3597 C   0  0  0  0  0  0  0  0  0  0  0  0
    1.7936    5.8225    7.7804 C   0  0  0  0  0  0  0  0  0  0  0  0
    0.6896    4.9891    7.7372 C   0  0  0  0  0  0  0  0  0  0  0  0
    0.8362    3.6921    7.2712 C   0  0  0  0  0  0  0  0  0  0  0  0
   -0.5773    2.6051    7.1688 S   0  0  0  0  0  0  0  0  0  0  0  0
   -1.3844    3.3616    5.7091 C   0  0  0  0  0  0  0  0  0  0  0  0
   -0.5792    3.1468    4.4428 C   0  0  0  0  0  0  0  0  0  0  0  0
    2.0719    3.2253    6.8641 C   0  0  0  0  0  0  0  0  0  0  0  0
    4.5799    2.9741    5.1585 C   0  0  0  0  0  0  0  0  0  0  0  0
    3.2565    2.7423    4.0487 S   0  0  0  0  0  0  0  0  0  0  0  0
    5.8201    4.2833    8.4115 C   0  0  0  0  0  0  0  0  0  0  0  0
    7.1196    4.2894    8.8585 C   0  0  0  0  0  0  0  0  0  0  0  0
    8.2068    3.5337    7.6910 S   0  0  0  0  0  0  0  0  0  0  0  0
    7.7053    4.7233   10.0675 C   0  0  0  0  0  0  0  0  0  0  0  0
    7.1978    5.4701   11.0948 C   0  0  0  0  0  0  0  0  0  0  0  0
    5.9242    6.2251   11.1398 C   0  0  0  0  0  0  0  0  0  0  0  0
    5.0080    6.2291   10.3453 O   0  0  0  0  0  0  0  0  0  0  0  0
    5.9948    7.0457   12.3688 C   0  0  0  0  0  0  0  0  0  0  0  0
    5.0673    7.9546   12.8345 C   0  0  0  0  0  0  0  0  0  0  0  0
    5.3585    8.6188   14.0200 C   0  0  0  0  0  0  0  0  0  0  0  0
    4.2361    9.7627   14.6505 Cl  0  0  0  0  0  0  0  0  0  0  0  0
    6.5437    8.3768   14.7068 C   0  0  0  0  0  0  0  0  0  0  0  0
    7.4679    7.4595   14.2317 C   0  0  0  0  0  0  0  0  0  0  0  0
    7.1935    6.7821   13.0515 C   0  0  0  0  0  0  0  0  0  0  0  0
    7.9391    5.7690   12.3123 C   0  0  0  0  0  0  0  0  0  0  0  0
    9.0899    5.1661   12.7467 C   0  0  0  0  0  0  0  0  0  0  0  0
    9.7494    5.5007   13.9493 C   0  0  0  0  0  0  0  0  0  0  0  0
   10.3374    5.7236   14.9095 N   0  0  0  0  0  0  0  0  0  0  0  0
    9.7702    4.1087   12.1040 C   0  0  0  0  0  0  0  0  0  0  0  0
   10.3795    3.2377   11.6684 N   0  0  0  0  0  0  0  0  0  0  0  0
  -12.6537   -4.4654   -4.9857 H   0  0  0  0  0  0  0  0  0  0  0  0
  -10.2364   -7.1467  -10.1431 H   0  0  0  0  0  0  0  0  0  0  0  0
  -14.2357   -8.3314  -11.1460 H   0  0  0  0  0  0  0  0  0  0  0  0
  -15.1054   -7.2690   -9.1170 H   0  0  0  0  0  0  0  0  0  0  0  0
  -11.3849   -3.2005   -3.3532 H   0  0  0  0  0  0  0  0  0  0  0  0
   -8.3412   -0.1664   -3.9438 H   0  0  0  0  0  0  0  0  0  0  0  0
   -8.7011    0.5018   -2.3370 H   0  0  0  0  0  0  0  0  0  0  0  0
  -11.1387    0.0957   -2.7140 H   0  0  0  0  0  0  0  0  0  0  0  0
  -10.4833    1.1524   -3.9711 H   0  0  0  0  0  0  0  0  0  0  0  0
  -10.7901   -0.5523   -4.3200 H   0  0  0  0  0  0  0  0  0  0  0  0
   -5.2550   -5.5262   -6.6878 H   0  0  0  0  0  0  0  0  0  0  0  0
   -5.7763   -6.4824   -8.9013 H   0  0  0  0  0  0  0  0  0  0  0  0
   -7.1608   -5.2207  -10.4972 H   0  0  0  0  0  0  0  0  0  0  0  0
   -8.1602   -1.7047  -10.0168 H   0  0  0  0  0  0  0  0  0  0  0  0
   -8.0090   -3.0196  -11.1915 H   0  0  0  0  0  0  0  0  0  0  0  0
   -9.9056   -4.2129  -10.0958 H   0  0  0  0  0  0  0  0  0  0  0  0
  -10.0585   -2.9079   -8.9259 H   0  0  0  0  0  0  0  0  0  0  0  0
  -10.3982   -2.6023  -10.6356 H   0  0  0  0  0  0  0  0  0  0  0  0
   -7.4926   -2.0298   -7.6875 H   0  0  0  0  0  0  0  0  0  0  0  0
    5.5337    3.7849    1.2425 H   0  0  0  0  0  0  0  0  0  0  0  0
    7.6545    4.7417    0.4438 H   0  0  0  0  0  0  0  0  0  0  0  0
    8.9368    3.6167   -1.3222 H   0  0  0  0  0  0  0  0  0  0  0  0
    8.3343    0.2221   -2.4604 H   0  0  0  0  0  0  0  0  0  0  0  0
    9.3236    1.6747   -2.6892 H   0  0  0  0  0  0  0  0  0  0  0  0
    8.0957    1.0998   -4.7711 H   0  0  0  0  0  0  0  0  0  0  0  0
    7.5446    2.6533   -4.1353 H   0  0  0  0  0  0  0  0  0  0  0  0
    6.5573    1.2097   -3.9084 H   0  0  0  0  0  0  0  0  0  0  0  0
    6.0706    0.4628   -1.3924 H   0  0  0  0  0  0  0  0  0  0  0  0
   -2.7657    0.1712   -1.2566 H   0  0  0  0  0  0  0  0  0  0  0  0
   -4.2510   -0.1066   -2.1631 H   0  0  0  0  0  0  0  0  0  0  0  0
   -4.6873   -2.2205   -1.0679 H   0  0  0  0  0  0  0  0  0  0  0  0
   -4.4067   -1.0078    0.1762 H   0  0  0  0  0  0  0  0  0  0  0  0
   -3.1482   -2.1893   -0.2143 H   0  0  0  0  0  0  0  0  0  0  0  0
   -0.1483   -0.2284    0.9486 H   0  0  0  0  0  0  0  0  0  0  0  0
   -1.6553   -0.6016    0.1195 H   0  0  0  0  0  0  0  0  0  0  0  0
   -0.7809   -2.6247    1.2490 H   0  0  0  0  0  0  0  0  0  0  0  0
   -0.7271   -2.8620   -0.5051 H   0  0  0  0  0  0  0  0  0  0  0  0
    0.7488   -2.4739    0.3800 H   0  0  0  0  0  0  0  0  0  0  0  0
    6.4055    1.4903    2.7475 H   0  0  0  0  0  0  0  0  0  0  0  0
    8.7388    1.0750    6.6662 H   0  0  0  0  0  0  0  0  0  0  0  0
   10.9607    0.3477    5.9244 H   0  0  0  0  0  0  0  0  0  0  0  0
   11.7663    0.9443    3.6584 H   0  0  0  0  0  0  0  0  0  0  0  0
    8.7967    0.7460    0.8800 H   0  0  0  0  0  0  0  0  0  0  0  0
   10.0364    0.9530   -0.3713 H   0  0  0  0  0  0  0  0  0  0  0  0
   10.3835   -0.6490    2.2171 H   0  0  0  0  0  0  0  0  0  0  0  0
   10.2102   -1.3225    0.5940 H   0  0  0  0  0  0  0  0  0  0  0  0
   11.6474   -0.3804    1.0081 H   0  0  0  0  0  0  0  0  0  0  0  0
    8.1387    3.0522    2.9133 H   0  0  0  0  0  0  0  0  0  0  0  0
    3.8806    6.0364    7.3735 H   0  0  0  0  0  0  0  0  0  0  0  0
    1.6895    6.8335    8.1440 H   0  0  0  0  0  0  0  0  0  0  0  0
   -0.2785    5.3372    8.0648 H   0  0  0  0  0  0  0  0  0  0  0  0
   -2.3562    2.8732    5.6493 H   0  0  0  0  0  0  0  0  0  0  0  0
   -1.5256    4.4215    5.9199 H   0  0  0  0  0  0  0  0  0  0  0  0
    0.3931    3.6301    4.5186 H   0  0  0  0  0  0  0  0  0  0  0  0
   -0.4203    2.0851    4.2684 H   0  0  0  0  0  0  0  0  0  0  0  0
   -1.1092    3.5665    3.5899 H   0  0  0  0  0  0  0  0  0  0  0  0
    2.1680    2.2015    6.5360 H   0  0  0  0  0  0  0  0  0  0  0  0
    5.0022    4.6679    8.9905 H   0  0  0  0  0  0  0  0  0  0  0  0
    8.7397    4.4152   10.1674 H   0  0  0  0  0  0  0  0  0  0  0  0
    4.1525    8.1347   12.2923 H   0  0  0  0  0  0  0  0  0  0  0  0
    6.7432    8.9120   15.6219 H   0  0  0  0  0  0  0  0  0  0  0  0
    8.3796    7.2932   14.7812 H   0  0  0  0  0  0  0  0  0  0  0  0
  1  2  2  0  0  0  0
  2  3  1  0  0  0  0
  3  4  2  0  0  0  0
  3  5  1  0  0  0  0
  5  6  2  0  0  0  0
  6  7  1  0  0  0  0
  7  8  1  0  0  0  0
  7  9  2  0  0  0  0
  9 10  1  0  0  0  0
 10 11  2  0  0  0  0
 11 12  1  0  0  0  0
 12 13  2  0  0  0  0
 13 14  1  0  0  0  0
 14 15  3  0  0  0  0
 13 16  1  0  0  0  0
 16 17  3  0  0  0  0
  1 18  1  0  0  0  0
 18 19  2  0  0  0  0
 19 20  1  0  0  0  0
 20 21  1  0  0  0  0
 21 22  1  0  0  0  0
 22 23  1  0  0  0  0
 20 24  2  0  0  0  0
 24 25  1  0  0  0  0
 24 26  1  0  0  0  0
 26 27  2  0  0  0  0
 27 28  1  0  0  0  0
 28 29  2  0  0  0  0
 29 30  1  0  0  0  0
 30 31  2  0  0  0  0
 31 32  1  0  0  0  0
 32 33  1  0  0  0  0
 33 34  1  0  0  0  0
 32 35  2  0  0  0  0
 27 36  1  0  0  0  0
 36 37  1  0  0  0  0
 37 38  1  0  0  0  0
 38 39  1  0  0  0  0
 39 40  1  0  0  0  0
 40 41  1  0  0  0  0
 41 42  2  0  0  0  0
 42 43  1  0  0  0  0
 43 44  1  0  0  0  0
 41 45  1  0  0  0  0
 45 46  1  0  0  0  0
 46 47  1  0  0  0  0
 47 48  1  0  0  0  0
 48 49  1  0  0  0  0
 49 50  1  0  0  0  0
 50 51  2  0  0  0  0
 51 52  1  0  0  0  0
 52 53  2  0  0  0  0
 53 54  1  0  0  0  0
 54 55  1  0  0  0  0
 55 56  1  0  0  0  0
 54 57  2  0  0  0  0
 49 58  2  0  0  0  0
 58 59  1  0  0  0  0
 59 60  1  0  0  0  0
 60 61  1  0  0  0  0
 61 62  1  0  0  0  0
 62 63  1  0  0  0  0
 63 64  1  0  0  0  0
 64 65  1  0  0  0  0
 65 66  1  0  0  0  0
 66 67  1  0  0  0  0
 67 68  1  0  0  0  0
 65 69  1  0  0  0  0
 69 70  1  0  0  0  0
 62 71  1  0  0  0  0
 71 72  1  0  0  0  0
 58 73  1  0  0  0  0
 73 74  2  0  0  0  0
 74 75  1  0  0  0  0
 75 76  2  0  0  0  0
 76 77  1  0  0  0  0
 77 78  2  0  0  0  0
 78 79  1  0  0  0  0
 79 80  2  0  0  0  0
 80 81  1  0  0  0  0
 81 82  1  0  0  0  0
 82 83  1  0  0  0  0
 83 84  1  0  0  0  0
 81 85  2  0  0  0  0
 76 86  1  0  0  0  0
 86 87  2  0  0  0  0
 87 88  1  0  0  0  0
 88 89  1  0  0  0  0
 89 90  2  0  0  0  0
 90 91  1  0  0  0  0
 91 92  2  0  0  0  0
 92 93  1  0  0  0  0
 93 94  1  0  0  0  0
 94 95  1  0  0  0  0
 95 96  1  0  0  0  0
 93 97  2  0  0  0  0
 88 98  2  0  0  0  0
 98 99  1  0  0  0  0
 87100  1  0  0  0  0
100101  2  0  0  0  0
101102  1  0  0  0  0
101103  1  0  0  0  0
103104  2  0  0  0  0
104105  1  0  0  0  0
105106  2  0  0  0  0
105107  1  0  0  0  0
107108  2  0  0  0  0
108109  1  0  0  0  0
109110  1  0  0  0  0
109111  2  0  0  0  0
111112  1  0  0  0  0
112113  2  0  0  0  0
113114  1  0  0  0  0
114115  2  0  0  0  0
115116  1  0  0  0  0
116117  3  0  0  0  0
115118  1  0  0  0  0
118119  3  0  0  0  0
 12  2  1  0  0  0  0
 25 18  1  0  0  0  0
 68 26  1  0  0  0  0
 99 73  1  0  0  0  0
114104  1  0  0  0  0
 11  5  1  0  0  0  0
 35 28  1  0  0  0  0
 67 36  2  0  0  0  0
 98 75  1  0  0  0  0
113107  1  0  0  0  0
 66 38  2  0  0  0  0
 85 77  1  0  0  0  0
102 86  1  0  0  0  0
 64 39  2  0  0  0  0
 97 89  1  0  0  0  0
 44 40  2  0  0  0  0
 63 45  2  0  0  0  0
 61 46  2  0  0  0  0
 60 48  2  0  0  0  0
 57 50  1  0  0  0  0
  1120  1  0  0  0  0
  6121  1  0  0  0  0
  9122  1  0  0  0  0
 10123  1  0  0  0  0
 19124  1  0  0  0  0
 22125  1  0  0  0  0
 22126  1  0  0  0  0
 23127  1  0  0  0  0
 23128  1  0  0  0  0
 23129  1  0  0  0  0
 29130  1  0  0  0  0
 30131  1  0  0  0  0
 31132  1  0  0  0  0
 33133  1  0  0  0  0
 33134  1  0  0  0  0
 34135  1  0  0  0  0
 34136  1  0  0  0  0
 34137  1  0  0  0  0
 35138  1  0  0  0  0
 51139  1  0  0  0  0
 52140  1  0  0  0  0
 53141  1  0  0  0  0
 55142  1  0  0  0  0
 55143  1  0  0  0  0
 56144  1  0  0  0  0
 56145  1  0  0  0  0
 56146  1  0  0  0  0
 57147  1  0  0  0  0
 69148  1  0  0  0  0
 69149  1  0  0  0  0
 70150  1  0  0  0  0
 70151  1  0  0  0  0
 70152  1  0  0  0  0
 71153  1  0  0  0  0
 71154  1  0  0  0  0
 72155  1  0  0  0  0
 72156  1  0  0  0  0
 72157  1  0  0  0  0
 74158  1  0  0  0  0
 78159  1  0  0  0  0
 79160  1  0  0  0  0
 80161  1  0  0  0  0
 83162  1  0  0  0  0
 83163  1  0  0  0  0
 84164  1  0  0  0  0
 84165  1  0  0  0  0
 84166  1  0  0  0  0
 85167  1  0  0  0  0
 90168  1  0  0  0  0
 91169  1  0  0  0  0
 92170  1  0  0  0  0
 95171  1  0  0  0  0
 95172  1  0  0  0  0
 96173  1  0  0  0  0
 96174  1  0  0  0  0
 96175  1  0  0  0  0
 97176  1  0  0  0  0
100177  1  0  0  0  0
103178  1  0  0  0  0
108179  1  0  0  0  0
111180  1  0  0  0  0
112181  1  0  0  0  0
M  END
