144

C          8.35120       -3.41440        6.42120
C          9.24850       -3.63570        5.40500
C          9.14640       -3.08990        4.05050
O          8.26110       -2.38760        3.59450
C         10.34450       -3.56480        3.32840
C         10.71460       -3.31580        2.02370
C         11.90080       -3.88530        1.57400
Cl        12.41150       -3.61020       -0.04860
C         12.68210       -4.67400        2.41030
C         12.30000       -4.91830        3.72120
C         11.11930       -4.36130        4.18980
C         10.45540       -4.43320        5.49080
C         10.90930       -5.14790        6.57020
C         10.27080       -5.24300        7.82370
N          9.81460       -5.37630        8.87000
C         12.09680       -5.90960        6.57160
N         13.04830       -6.54780        6.64520
C          7.16390       -2.67190        6.43110
C          6.36850       -2.56690        7.57180
C          5.21430       -1.81600        7.40160
S          3.95060       -1.60450        8.60260
C          4.15320       -3.09020        9.65490
C          3.87490       -4.37870        8.90690
C          5.11810       -1.29640        6.10510
S          6.45240       -1.78210        5.10900
C          4.07660       -0.51820        5.53290
C          3.27290        0.45890        6.09950
C          3.48610        1.06620        7.41030
C          4.77360        1.38270        7.84010
C          4.96040        1.98230        9.06980
C          3.87520        2.26500        9.88080
C          2.58440        1.96580        9.46370
C          1.40660        2.21230       10.36100
C          1.09940        0.95420       11.17580
C          2.40090        1.37570        8.22340
C          2.29170        0.89820        5.18900
S          1.01040        2.08030        5.31410
C          0.58050        1.75250        3.67040
C         -0.35040        2.17210        2.70990
C         -1.33750        3.17990        2.76550
C         -2.11150        3.45510        1.59180
N         -2.96770        4.44890        1.77040
S         -2.81480        4.98870        3.28920
N         -1.64990        3.97560        3.77640
C         -1.92380        2.64790        0.44880
C         -2.62060        2.61330       -0.76640
S         -3.92140        3.43630       -1.55800
C         -3.77280        2.32530       -2.89960
C         -4.49530        2.17030       -4.09240
C         -5.68730        2.94540       -4.43520
C         -6.84720        2.30130       -4.86040
C         -7.96130        3.04410       -5.19930
C         -7.92770        4.42590       -5.12220
C         -6.78530        5.08150       -4.68070
C         -6.72180        6.58090       -4.65500
C         -6.18660        7.10350       -5.99020
C         -5.67450        4.33070       -4.32760
C         -4.00510        1.10990       -4.84380
S         -2.67350        0.28340       -4.05420
C         -2.75540        1.37880       -2.72470
C         -2.09880        1.54410       -1.50180
N         -1.09400        0.93510       -0.80050
C         -0.96220        1.59410        0.41100
C         -0.10260        1.41430        1.52760
N          0.97850        0.57980        1.77070
C          1.38620        0.78800        3.05980
C          2.36980        0.29950        3.92880
S          3.66670       -0.83850        3.85250
C          1.86900       -0.09510        0.85220
C          2.50280        0.88390       -0.13280
C         -0.64440       -0.37690       -1.21120
C         -1.19260       -1.46810       -0.29550
C         -4.43590        0.71240       -6.15020
C         -4.46330       -0.61440       -6.59450
C         -4.04900       -1.67980       -5.76200
N         -3.73860       -2.56530       -5.10280
C         -4.97010       -0.97490       -7.86790
C         -4.86810       -2.33540       -8.24750
N         -4.73670       -3.42470       -8.57820
C         -5.47970       -0.03950       -8.76740
C         -5.36750        1.31860       -8.38280
C         -4.84640        1.68980       -7.09740
N         -4.77800        3.01170       -6.95790
S         -5.35340        3.71110       -8.28030
N         -5.70160        2.38040       -9.11300
C         -6.00490       -0.38820      -10.05900
C         -6.79940       -1.45880      -10.30630
C         -7.55510       -2.20470       -9.25690
O         -7.57400       -1.98860       -8.06660
C         -8.38500       -3.17710       -9.99270
C         -9.25060       -4.11770       -9.47300
C         -9.92640       -4.93460      -10.37170
Cl       -11.00980       -6.13310       -9.78050
C         -9.74130       -4.80060      -11.74490
C         -8.87390       -3.84990      -12.25770
C         -8.18410       -3.02710      -11.37680
C         -7.20870       -1.96860      -11.60570
C         -6.70890       -1.58280      -12.81960
C         -7.12550       -2.12390      -14.05510
N         -7.42910       -2.51560      -15.09000
C         -5.70530       -0.60820      -13.00970
N         -4.88500        0.15980      -13.24410
H          8.57250       -3.87280        7.37730
H         10.10110       -2.70180        1.38370
H         13.59760       -5.10100        2.03200
H         12.92480       -5.53250        4.34840
H          6.65070       -3.04780        8.49110
H          3.42120       -2.93280       10.44700
H          5.14910       -3.07240       10.09460
H          3.96240       -5.22430        9.58580
H          2.86900       -4.36460        8.49380
H          4.58110       -4.51680        8.09080
H          5.61890        1.17150        7.20170
H          5.95900        2.22970        9.39900
H          4.03070        2.72600       10.84570
H          1.62060        3.03990       11.03970
H          0.53360        2.47610        9.76130
H          0.23960        1.11760       11.82120
H          0.88550        0.11950       10.51220
H          1.95370        0.68730       11.79410
H          1.40300        1.12670        7.89430
H         -6.87530        1.22230       -4.91730
H         -8.85910        2.54210       -5.52920
H         -8.79890        5.00070       -5.40180
H         -6.06400        6.90980       -3.84870
H         -7.71630        6.99400       -4.47730
H         -6.12520        8.18890       -5.97690
H         -5.19480        6.70010       -6.18270
H         -6.84230        6.80310       -6.80490
H         -4.77550        4.82740       -3.99430
H          2.65460       -0.54940        1.46090
H          1.35350       -0.90760        0.34040
H          1.74580        1.41190       -0.70830
H          3.09360        1.62100        0.40610
H          3.15730        0.34970       -0.81620
H         -1.02710       -0.53520       -2.22230
H          0.44290       -0.40730       -1.27380
H         -2.27920       -1.47580       -0.33910
H         -0.89500       -1.30430        0.73770
H         -0.82950       -2.43940       -0.61980
H         -5.74850        0.29990      -10.85450
H         -9.38280       -4.21290       -8.40690
H        -10.28260       -5.44890      -12.41600
H         -8.75050       -3.76390      -13.32480
