145

C         10.81750        4.35680       -0.39030
C         12.04070        3.94670       -0.83820
C         13.25400        4.64900       -0.34740
O         13.29420        5.69190        0.26390
C         14.38540        3.76880       -0.71870
C         15.72090        3.90240       -0.40100
C         16.59110        2.91650       -0.85310
Cl        18.27010        3.03440       -0.48380
C         16.13210        1.83470       -1.59600
C         14.78880        1.71250       -1.91830
C         13.90570        2.68700       -1.47950
C         12.46720        2.85430       -1.68140
C         11.73430        2.25460       -2.67410
C         12.23480        1.24570       -3.52110
N         12.58840        0.40570       -4.21900
C         10.42730        2.64850       -3.02360
N          9.38100        2.96880       -3.37050
C          9.59170        3.66500       -0.36160
C          9.31850        2.31050       -0.42770
C          7.97600        2.00470       -0.23430
S          7.38730        0.33870       -0.24720
C          7.15850        0.09030        1.55770
C          8.47820        0.08800        2.30120
C          7.16190        3.12070       -0.03890
S          8.12370        4.56340       -0.04390
C          5.75160        3.16080        0.08100
C          4.94400        4.25980        0.35060
C          5.41300        5.59430        0.73720
C          5.02880        6.70580       -0.00440
C          5.46190        7.96320        0.37210
C          6.27190        8.11940        1.48270
C          6.64670        7.02120        2.24680
C          7.56890        7.17340        3.42120
C          9.01180        6.89780        2.99180
C          6.20350        5.76310        1.86900
C          3.58430        3.93790        0.24680
S          2.13420        4.88260        0.49350
C          1.19530        3.46670        0.16350
C         -0.14760        3.06260        0.16610
C         -1.32170        3.74120        0.56110
C         -2.54530        2.99990        0.67380
N         -3.54430        3.73970        1.12880
S         -2.99630        5.24070        1.38530
N         -1.46060        5.00460        0.93060
C         -2.56670        1.64990        0.25990
C         -3.61630        0.72050        0.17860
S         -5.29430        0.60150        0.58470
C         -5.30790       -1.01410       -0.07700
C         -6.32370       -1.97350       -0.20210
C         -7.69820       -1.78000        0.28090
C         -7.94560       -1.69640        1.64600
C         -9.24340       -1.54550        2.09870
C        -10.29110       -1.47630        1.19780
C        -10.05750       -1.53500       -0.17060
C        -11.19730       -1.51170       -1.14760
C        -11.74460       -2.92640       -1.35020
C         -8.75370       -1.68150       -0.61940
C         -5.85760       -3.13060       -0.80360
S         -4.15210       -3.01940       -1.23290
C         -4.06980       -1.41940       -0.58790
C         -3.09800       -0.42670       -0.42990
N         -1.76390       -0.25740       -0.70450
C         -1.40960        1.01040       -0.26620
C         -0.16280        1.68140       -0.18290
N          1.14250        1.25790       -0.34370
C          1.96260        2.33470       -0.13510
C          3.33450        2.60040       -0.07780
S          4.80550        1.71460       -0.27010
C          1.69810       -0.07620       -0.36870
C          2.34620       -0.40290       -1.71460
C         -1.18800       -1.04360       -1.77440
C         -1.76200       -0.63000       -3.12950
C         -6.53900       -4.35730       -1.00280
C         -6.00240       -5.53220       -1.49030
C         -6.91020       -6.59540       -1.51210
S         -6.59830       -8.21920       -2.06120
C         -4.77370       -8.29190       -2.14620
C         -4.14450       -8.27830       -0.76670
C         -8.16790       -6.24920       -1.00760
S         -8.20440       -4.55680       -0.56850
C         -9.31130       -7.05750       -0.92830
C        -10.45650       -6.81320       -0.21790
C        -11.73700       -7.43070       -0.63080
O        -11.89840       -8.33610       -1.41710
C        -12.78190       -6.65410        0.08210
C        -14.15300       -6.73610       -0.04120
C        -14.92080       -5.86730        0.72650
Cl       -16.63960       -5.92670        0.60860
C        -14.33090       -4.94910        1.58740
C        -12.95150       -4.88070        1.71370
C        -12.16930       -5.73870        0.95630
C        -10.72160       -5.92300        0.88690
C         -9.83370       -5.55050        1.86610
C         -8.50510       -6.01750        1.92490
N         -7.43500       -6.41930        2.03880
C        -10.17220       -4.74580        2.96900
N        -10.39030       -4.07650        3.87640
H         10.81620        5.33340        0.08540
H         16.06910        4.74430        0.17590
H         16.83280        1.08360       -1.92510
H         14.45280        0.86360       -2.49150
H         10.06760        1.55030       -0.55780
H          6.65830       -0.87380        1.63380
H          6.49100        0.87130        1.92110
H          8.97820        1.05000        2.20270
H          9.13330       -0.68510        1.90690
H          8.30630       -0.10550        3.35810
H          4.40660        6.57810       -0.87720
H          5.16810        8.82590       -0.20670
H          6.61300        9.10480        1.76480
H          7.28690        6.47210        4.20940
H          7.49800        8.18580        3.82250
H          9.31190        7.59000        2.20860
H          9.68940        7.01230        3.83440
H          9.10480        5.88520        2.60510
H          6.47160        4.90040        2.46330
H         -7.12570       -1.76690        2.34480
H         -9.43920       -1.49590        3.15860
H        -11.30330       -1.36980        1.56010
H        -10.85620       -1.11590       -2.10590
H        -11.99570       -0.86750       -0.77470
H        -12.13510       -3.31890       -0.41400
H        -10.95630       -3.59220       -1.69650
H        -12.54640       -2.92480       -2.08450
H         -8.55190       -1.72480       -1.68070
H          0.91790       -0.79030       -0.10160
H          2.47000       -0.12750        0.40770
H          1.67480       -0.19520       -2.54490
H          3.24200        0.19630       -1.85250
H          2.63090       -1.45100       -1.74260
H         -0.11230       -0.92230       -1.79630
H         -1.42540       -2.09330       -1.57560
H         -1.55520        0.42090       -3.32130
H         -1.30890       -1.22600       -3.91690
H         -2.83800       -0.78200       -3.15570
H         -4.98000       -5.58740       -1.81730
H         -4.57700       -9.23480       -2.65620
H         -4.42430       -7.47500       -2.77590
H         -4.39910       -7.36890       -0.22710
H         -4.49620       -9.12680       -0.18510
H         -3.06170       -8.34050       -0.85530
H         -9.32690       -7.93200       -1.57170
H        -14.60530       -7.45130       -0.70970
H        -14.95710       -4.28520        2.16270
H        -12.50830       -4.16050        2.38280
