
  xtb     02112218383D
 energy: -256.542779780402 gnorm: 0.000536810266 xtb: 6.4.1 (unknown)
145160  0     0  0            999 V2000
   -9.5560    4.1687   -3.7191 C   0  0  0  0  0  0  0  0  0  0  0  0
  -10.2134    3.1496   -3.0742 C   0  0  0  0  0  0  0  0  0  0  0  0
   -9.5721    2.0227   -2.3942 C   0  0  0  0  0  0  0  0  0  0  0  0
   -8.3802    1.7859   -2.3042 O   0  0  0  0  0  0  0  0  0  0  0  0
  -10.6687    1.2108   -1.8280 C   0  0  0  0  0  0  0  0  0  0  0  0
  -10.5826    0.0501   -1.0889 C   0  0  0  0  0  0  0  0  0  0  0  0
  -11.7731   -0.5281   -0.6622 C   0  0  0  0  0  0  0  0  0  0  0  0
  -11.7261   -1.9785    0.2664 Cl  0  0  0  0  0  0  0  0  0  0  0  0
  -13.0014    0.0444   -0.9713 C   0  0  0  0  0  0  0  0  0  0  0  0
  -13.0763    1.2118   -1.7167 C   0  0  0  0  0  0  0  0  0  0  0  0
  -11.9008    1.8054   -2.1521 C   0  0  0  0  0  0  0  0  0  0  0  0
  -11.6497    3.0140   -2.9363 C   0  0  0  0  0  0  0  0  0  0  0  0
  -12.6192    3.8453   -3.4371 C   0  0  0  0  0  0  0  0  0  0  0  0
  -12.3944    5.0086   -4.2016 C   0  0  0  0  0  0  0  0  0  0  0  0
  -12.2997    5.9669   -4.8287 N   0  0  0  0  0  0  0  0  0  0  0  0
  -14.0038    3.6449   -3.2557 C   0  0  0  0  0  0  0  0  0  0  0  0
  -15.1425    3.5428   -3.1506 N   0  0  0  0  0  0  0  0  0  0  0  0
   -8.1839    4.3949   -3.8857 C   0  0  0  0  0  0  0  0  0  0  0  0
   -7.6935    5.5371   -4.5176 C   0  0  0  0  0  0  0  0  0  0  0  0
   -6.3097    5.6062   -4.5825 C   0  0  0  0  0  0  0  0  0  0  0  0
   -5.3944    6.9984   -5.1447 S   0  0  0  0  0  0  0  0  0  0  0  0
   -6.4299    7.6147   -6.5265 C   0  0  0  0  0  0  0  0  0  0  0  0
   -7.2995    8.7919   -6.1292 C   0  0  0  0  0  0  0  0  0  0  0  0
   -5.7019    4.4839   -4.0117 C   0  0  0  0  0  0  0  0  0  0  0  0
   -6.8657    3.3850   -3.3457 S   0  0  0  0  0  0  0  0  0  0  0  0
   -4.3171    4.1735   -3.9083 C   0  0  0  0  0  0  0  0  0  0  0  0
   -3.2883    4.3939   -4.8096 C   0  0  0  0  0  0  0  0  0  0  0  0
   -3.4636    4.8838   -6.1753 C   0  0  0  0  0  0  0  0  0  0  0  0
   -4.4936    4.3905   -6.9730 C   0  0  0  0  0  0  0  0  0  0  0  0
   -4.6470    4.8569   -8.2640 C   0  0  0  0  0  0  0  0  0  0  0  0
   -3.7846    5.8161   -8.7666 C   0  0  0  0  0  0  0  0  0  0  0  0
   -2.7437    6.3077   -7.9886 C   0  0  0  0  0  0  0  0  0  0  0  0
   -1.8442    7.3927   -8.5048 C   0  0  0  0  0  0  0  0  0  0  0  0
   -2.4387    8.7645   -8.1779 C   0  0  0  0  0  0  0  0  0  0  0  0
   -2.5862    5.8267   -6.6982 C   0  0  0  0  0  0  0  0  0  0  0  0
   -2.0552    3.9586   -4.2891 C   0  0  0  0  0  0  0  0  0  0  0  0
   -0.4376    3.9452   -4.9489 S   0  0  0  0  0  0  0  0  0  0  0  0
    0.1125    3.1372   -3.5207 C   0  0  0  0  0  0  0  0  0  0  0  0
    1.2824    2.5442   -3.0210 C   0  0  0  0  0  0  0  0  0  0  0  0
    2.5428    2.3141   -3.6165 C   0  0  0  0  0  0  0  0  0  0  0  0
    3.4776    1.4471   -2.9542 C   0  0  0  0  0  0  0  0  0  0  0  0
    4.5778    1.2540   -3.6642 N   0  0  0  0  0  0  0  0  0  0  0  0
    4.4549    2.0959   -5.0416 S   0  0  0  0  0  0  0  0  0  0  0  0
    2.9894    2.7358   -4.7888 N   0  0  0  0  0  0  0  0  0  0  0  0
    3.1626    0.9558   -1.6681 C   0  0  0  0  0  0  0  0  0  0  0  0
    3.8765    0.1430   -0.7709 C   0  0  0  0  0  0  0  0  0  0  0  0
    5.3491   -0.7643   -0.7072 S   0  0  0  0  0  0  0  0  0  0  0  0
    4.9489   -1.2535    0.9228 C   0  0  0  0  0  0  0  0  0  0  0  0
    5.5792   -2.1160    1.8373 C   0  0  0  0  0  0  0  0  0  0  0  0
    6.8124   -2.8412    1.5186 C   0  0  0  0  0  0  0  0  0  0  0  0
    7.9116   -2.1538    1.0135 C   0  0  0  0  0  0  0  0  0  0  0  0
    9.0727   -2.8417    0.7118 C   0  0  0  0  0  0  0  0  0  0  0  0
    9.1451   -4.2098    0.9057 C   0  0  0  0  0  0  0  0  0  0  0  0
    8.0502   -4.9150    1.3929 C   0  0  0  0  0  0  0  0  0  0  0  0
    8.1036   -6.4052    1.5664 C   0  0  0  0  0  0  0  0  0  0  0  0
    7.5578   -7.1068    0.3214 C   0  0  0  0  0  0  0  0  0  0  0  0
    6.8859   -4.2212    1.6848 C   0  0  0  0  0  0  0  0  0  0  0  0
    4.8494   -2.2168    3.0132 C   0  0  0  0  0  0  0  0  0  0  0  0
    3.3717   -1.2645    2.9732 S   0  0  0  0  0  0  0  0  0  0  0  0
    3.7382   -0.7216    1.3774 C   0  0  0  0  0  0  0  0  0  0  0  0
    3.1237    0.0728    0.4046 C   0  0  0  0  0  0  0  0  0  0  0  0
    1.9653    0.7965    0.2706 N   0  0  0  0  0  0  0  0  0  0  0  0
    1.9539    1.3188   -1.0128 C   0  0  0  0  0  0  0  0  0  0  0  0
    0.9525    2.0005   -1.7480 C   0  0  0  0  0  0  0  0  0  0  0  0
   -0.3893    2.2258   -1.5070 N   0  0  0  0  0  0  0  0  0  0  0  0
   -0.8968    2.9091   -2.5796 C   0  0  0  0  0  0  0  0  0  0  0  0
   -2.1419    3.3728   -3.0229 C   0  0  0  0  0  0  0  0  0  0  0  0
   -3.7698    3.3685   -2.4460 S   0  0  0  0  0  0  0  0  0  0  0  0
   -1.2818    1.5964   -0.5588 C   0  0  0  0  0  0  0  0  0  0  0  0
   -1.8675    2.6002    0.4343 C   0  0  0  0  0  0  0  0  0  0  0  0
    1.3399    1.3352    1.4600 C   0  0  0  0  0  0  0  0  0  0  0  0
    2.2868    2.2772    2.2038 C   0  0  0  0  0  0  0  0  0  0  0  0
    5.1491   -2.9442    4.1977 C   0  0  0  0  0  0  0  0  0  0  0  0
    6.3513   -3.4964    4.5831 C   0  0  0  0  0  0  0  0  0  0  0  0
    6.2889   -4.2265    5.7751 C   0  0  0  0  0  0  0  0  0  0  0  0
    7.6615   -4.9706    6.5328 S   0  0  0  0  0  0  0  0  0  0  0  0
    9.0661   -3.9934    5.8724 C   0  0  0  0  0  0  0  0  0  0  0  0
    9.0248   -2.5421    6.3075 C   0  0  0  0  0  0  0  0  0  0  0  0
    5.0086   -4.2253    6.3503 C   0  0  0  0  0  0  0  0  0  0  0  0
    3.9150   -3.2578    5.3776 S   0  0  0  0  0  0  0  0  0  0  0  0
    4.5082   -4.7470    7.5468 C   0  0  0  0  0  0  0  0  0  0  0  0
    4.9537   -5.8563    8.2299 C   0  0  0  0  0  0  0  0  0  0  0  0
    5.7252   -6.9459    7.6277 C   0  0  0  0  0  0  0  0  0  0  0  0
    6.1714   -7.0032    6.4946 O   0  0  0  0  0  0  0  0  0  0  0  0
    5.7593   -8.0208    8.6437 C   0  0  0  0  0  0  0  0  0  0  0  0
    6.3508   -9.2629    8.5593 C   0  0  0  0  0  0  0  0  0  0  0  0
    6.2206  -10.1044    9.6563 C   0  0  0  0  0  0  0  0  0  0  0  0
    7.0218  -11.8274    9.6021 Br  0  0  0  0  0  0  0  0  0  0  0  0
    5.5200   -9.7224   10.7912 C   0  0  0  0  0  0  0  0  0  0  0  0
    4.9260   -8.4704   10.8646 C   0  0  0  0  0  0  0  0  0  0  0  0
    5.0464   -7.6103    9.7840 C   0  0  0  0  0  0  0  0  0  0  0  0
    4.5513   -6.2531    9.5600 C   0  0  0  0  0  0  0  0  0  0  0  0
    3.8980   -5.4766   10.4824 C   0  0  0  0  0  0  0  0  0  0  0  0
    3.5221   -4.1328   10.2771 C   0  0  0  0  0  0  0  0  0  0  0  0
    3.2079   -3.0314   10.1915 N   0  0  0  0  0  0  0  0  0  0  0  0
    3.5432   -5.9138   11.7746 C   0  0  0  0  0  0  0  0  0  0  0  0
    3.2220   -6.2163   12.8346 N   0  0  0  0  0  0  0  0  0  0  0  0
  -10.1701    4.9371   -4.1725 H   0  0  0  0  0  0  0  0  0  0  0  0
   -9.6240   -0.3851   -0.8548 H   0  0  0  0  0  0  0  0  0  0  0  0
  -13.9073   -0.4277   -0.6250 H   0  0  0  0  0  0  0  0  0  0  0  0
  -14.0416    1.6344   -1.9418 H   0  0  0  0  0  0  0  0  0  0  0  0
   -8.3551    6.2975   -4.8921 H   0  0  0  0  0  0  0  0  0  0  0  0
   -7.0132    6.7703   -6.8886 H   0  0  0  0  0  0  0  0  0  0  0  0
   -5.7127    7.9033   -7.2948 H   0  0  0  0  0  0  0  0  0  0  0  0
   -7.8784    9.1271   -6.9876 H   0  0  0  0  0  0  0  0  0  0  0  0
   -6.6810    9.6161   -5.7826 H   0  0  0  0  0  0  0  0  0  0  0  0
   -7.9875    8.5247   -5.3308 H   0  0  0  0  0  0  0  0  0  0  0  0
   -5.1614    3.6370   -6.5813 H   0  0  0  0  0  0  0  0  0  0  0  0
   -5.4445    4.4713   -8.8827 H   0  0  0  0  0  0  0  0  0  0  0  0
   -3.9173    6.1830   -9.7745 H   0  0  0  0  0  0  0  0  0  0  0  0
   -0.8597    7.3069   -8.0421 H   0  0  0  0  0  0  0  0  0  0  0  0
   -1.7257    7.2981   -9.5859 H   0  0  0  0  0  0  0  0  0  0  0  0
   -2.5831    8.8663   -7.1044 H   0  0  0  0  0  0  0  0  0  0  0  0
   -3.4035    8.8860   -8.6666 H   0  0  0  0  0  0  0  0  0  0  0  0
   -1.7776    9.5578   -8.5181 H   0  0  0  0  0  0  0  0  0  0  0  0
   -1.7898    6.2101   -6.0778 H   0  0  0  0  0  0  0  0  0  0  0  0
    7.8582   -1.0846    0.8751 H   0  0  0  0  0  0  0  0  0  0  0  0
    9.9270   -2.3056    0.3260 H   0  0  0  0  0  0  0  0  0  0  0  0
   10.0587   -4.7386    0.6753 H   0  0  0  0  0  0  0  0  0  0  0  0
    9.1350   -6.7212    1.7347 H   0  0  0  0  0  0  0  0  0  0  0  0
    7.5098   -6.6980    2.4350 H   0  0  0  0  0  0  0  0  0  0  0  0
    8.1458   -6.8378   -0.5535 H   0  0  0  0  0  0  0  0  0  0  0  0
    6.5258   -6.8133    0.1429 H   0  0  0  0  0  0  0  0  0  0  0  0
    7.5951   -8.1860    0.4478 H   0  0  0  0  0  0  0  0  0  0  0  0
    6.0230   -4.7578    2.0529 H   0  0  0  0  0  0  0  0  0  0  0  0
   -2.1071    1.1503   -1.1253 H   0  0  0  0  0  0  0  0  0  0  0  0
   -0.7521    0.7867   -0.0561 H   0  0  0  0  0  0  0  0  0  0  0  0
   -1.0917    3.1885    0.9198 H   0  0  0  0  0  0  0  0  0  0  0  0
   -2.4374    2.0737    1.1945 H   0  0  0  0  0  0  0  0  0  0  0  0
   -2.5341    3.2875   -0.0789 H   0  0  0  0  0  0  0  0  0  0  0  0
    1.0618    0.4993    2.1096 H   0  0  0  0  0  0  0  0  0  0  0  0
    0.4510    1.8894    1.1832 H   0  0  0  0  0  0  0  0  0  0  0  0
    1.7796    2.6933    3.0698 H   0  0  0  0  0  0  0  0  0  0  0  0
    3.1737    1.7505    2.5449 H   0  0  0  0  0  0  0  0  0  0  0  0
    2.5948    3.0923    1.5521 H   0  0  0  0  0  0  0  0  0  0  0  0
    7.2428   -3.3822    3.9974 H   0  0  0  0  0  0  0  0  0  0  0  0
    9.0942   -4.1022    4.7889 H   0  0  0  0  0  0  0  0  0  0  0  0
    9.9350   -4.4987    6.2936 H   0  0  0  0  0  0  0  0  0  0  0  0
    8.9985   -2.4742    7.3925 H   0  0  0  0  0  0  0  0  0  0  0  0
    8.1472   -2.0378    5.9090 H   0  0  0  0  0  0  0  0  0  0  0  0
    9.9123   -2.0253    5.9480 H   0  0  0  0  0  0  0  0  0  0  0  0
    3.6394   -4.2307    7.9379 H   0  0  0  0  0  0  0  0  0  0  0  0
    6.8926   -9.5581    7.6743 H   0  0  0  0  0  0  0  0  0  0  0  0
    5.4356  -10.4055   11.6224 H   0  0  0  0  0  0  0  0  0  0  0  0
    4.3814   -8.1935   11.7524 H   0  0  0  0  0  0  0  0  0  0  0  0
  1  2  2  0  0  0  0
  2  3  1  0  0  0  0
  3  4  2  0  0  0  0
  3  5  1  0  0  0  0
  5  6  2  0  0  0  0
  6  7  1  0  0  0  0
  7  8  1  0  0  0  0
  7  9  2  0  0  0  0
  9 10  1  0  0  0  0
 10 11  2  0  0  0  0
 11 12  1  0  0  0  0
 12 13  2  0  0  0  0
 13 14  1  0  0  0  0
 14 15  3  0  0  0  0
 13 16  1  0  0  0  0
 16 17  3  0  0  0  0
  1 18  1  0  0  0  0
 18 19  2  0  0  0  0
 19 20  1  0  0  0  0
 20 21  1  0  0  0  0
 21 22  1  0  0  0  0
 22 23  1  0  0  0  0
 20 24  2  0  0  0  0
 24 25  1  0  0  0  0
 24 26  1  0  0  0  0
 26 27  2  0  0  0  0
 27 28  1  0  0  0  0
 28 29  2  0  0  0  0
 29 30  1  0  0  0  0
 30 31  2  0  0  0  0
 31 32  1  0  0  0  0
 32 33  1  0  0  0  0
 33 34  1  0  0  0  0
 32 35  2  0  0  0  0
 27 36  1  0  0  0  0
 36 37  1  0  0  0  0
 37 38  1  0  0  0  0
 38 39  1  0  0  0  0
 39 40  1  0  0  0  0
 40 41  1  0  0  0  0
 41 42  2  0  0  0  0
 42 43  1  0  0  0  0
 43 44  1  0  0  0  0
 41 45  1  0  0  0  0
 45 46  1  0  0  0  0
 46 47  1  0  0  0  0
 47 48  1  0  0  0  0
 48 49  1  0  0  0  0
 49 50  1  0  0  0  0
 50 51  2  0  0  0  0
 51 52  1  0  0  0  0
 52 53  2  0  0  0  0
 53 54  1  0  0  0  0
 54 55  1  0  0  0  0
 55 56  1  0  0  0  0
 54 57  2  0  0  0  0
 49 58  2  0  0  0  0
 58 59  1  0  0  0  0
 59 60  1  0  0  0  0
 60 61  1  0  0  0  0
 61 62  1  0  0  0  0
 62 63  1  0  0  0  0
 63 64  1  0  0  0  0
 64 65  1  0  0  0  0
 65 66  1  0  0  0  0
 66 67  1  0  0  0  0
 67 68  1  0  0  0  0
 65 69  1  0  0  0  0
 69 70  1  0  0  0  0
 62 71  1  0  0  0  0
 71 72  1  0  0  0  0
 58 73  1  0  0  0  0
 73 74  2  0  0  0  0
 74 75  1  0  0  0  0
 75 76  1  0  0  0  0
 76 77  1  0  0  0  0
 77 78  1  0  0  0  0
 75 79  2  0  0  0  0
 79 80  1  0  0  0  0
 79 81  1  0  0  0  0
 81 82  2  0  0  0  0
 82 83  1  0  0  0  0
 83 84  2  0  0  0  0
 83 85  1  0  0  0  0
 85 86  2  0  0  0  0
 86 87  1  0  0  0  0
 87 88  1  0  0  0  0
 87 89  2  0  0  0  0
 89 90  1  0  0  0  0
 90 91  2  0  0  0  0
 91 92  1  0  0  0  0
 92 93  2  0  0  0  0
 93 94  1  0  0  0  0
 94 95  3  0  0  0  0
 93 96  1  0  0  0  0
 96 97  3  0  0  0  0
 12  2  1  0  0  0  0
 25 18  1  0  0  0  0
 68 26  1  0  0  0  0
 80 73  1  0  0  0  0
 92 82  1  0  0  0  0
 11  5  1  0  0  0  0
 35 28  1  0  0  0  0
 67 36  2  0  0  0  0
 91 85  1  0  0  0  0
 66 38  2  0  0  0  0
 64 39  2  0  0  0  0
 44 40  2  0  0  0  0
 63 45  2  0  0  0  0
 61 46  2  0  0  0  0
 60 48  2  0  0  0  0
 57 50  1  0  0  0  0
  1 98  1  0  0  0  0
  6 99  1  0  0  0  0
  9100  1  0  0  0  0
 10101  1  0  0  0  0
 19102  1  0  0  0  0
 22103  1  0  0  0  0
 22104  1  0  0  0  0
 23105  1  0  0  0  0
 23106  1  0  0  0  0
 23107  1  0  0  0  0
 29108  1  0  0  0  0
 30109  1  0  0  0  0
 31110  1  0  0  0  0
 33111  1  0  0  0  0
 33112  1  0  0  0  0
 34113  1  0  0  0  0
 34114  1  0  0  0  0
 34115  1  0  0  0  0
 35116  1  0  0  0  0
 51117  1  0  0  0  0
 52118  1  0  0  0  0
 53119  1  0  0  0  0
 55120  1  0  0  0  0
 55121  1  0  0  0  0
 56122  1  0  0  0  0
 56123  1  0  0  0  0
 56124  1  0  0  0  0
 57125  1  0  0  0  0
 69126  1  0  0  0  0
 69127  1  0  0  0  0
 70128  1  0  0  0  0
 70129  1  0  0  0  0
 70130  1  0  0  0  0
 71131  1  0  0  0  0
 71132  1  0  0  0  0
 72133  1  0  0  0  0
 72134  1  0  0  0  0
 72135  1  0  0  0  0
 74136  1  0  0  0  0
 77137  1  0  0  0  0
 77138  1  0  0  0  0
 78139  1  0  0  0  0
 78140  1  0  0  0  0
 78141  1  0  0  0  0
 81142  1  0  0  0  0
 86143  1  0  0  0  0
 89144  1  0  0  0  0
 90145  1  0  0  0  0
M  END
