184

C        -11.85720        2.82860        7.94630
C        -12.32070        4.11720        8.07540
C        -12.20610        5.23630        7.12210
O        -11.85220        5.22840        5.95880
C        -12.60700        6.44510        7.87710
C        -12.60920        7.75440        7.44370
C        -13.01490        8.72810        8.34850
Cl       -13.03410       10.38230        7.86320
C        -13.40280        8.39270        9.64030
C        -13.40210        7.07200       10.06350
C        -13.00200        6.08460        9.17490
C        -12.89320        4.63370        9.30650
C        -13.32190        3.91280       10.39180
C        -13.33100        2.50640       10.50690
N        -13.40070        1.37320       10.68270
C        -13.86540        4.49290       11.55710
N        -14.30740        4.89700       12.53680
C        -11.25290        2.16270        6.87220
S        -10.54790        0.57360        7.24890
C         -9.96300        0.43690        5.64310
C         -9.18640       -0.37620        4.82630
C         -9.11190        0.26020        3.56380
N         -9.84500        1.41270        3.58030
C         -9.93460        2.39330        2.52810
C         -8.87530        3.48200        2.68370
C        -10.34440        1.55640        4.85050
C        -11.06580        2.51540        5.54000
C         -8.28560       -0.40450        2.65490
C         -7.72470       -1.53560        3.21110
S         -8.24480       -1.82300        4.86690
C         -6.73090       -2.36840        2.63570
C         -6.08140       -3.43130        3.22270
C         -5.03200       -3.90230        2.43180
S         -3.77690       -5.07880        2.68630
C         -3.03390       -4.58470        1.19990
C         -1.76480       -4.82110        0.57830
C         -1.71070       -3.97540       -0.56170
C         -3.01550       -3.21520       -0.74080
C         -2.69510       -1.74050       -0.86210
C         -2.43760       -1.18930       -2.11120
C         -2.04650        0.13050       -2.22920
C         -1.89990        0.93430       -1.10660
C         -1.50300        2.37650       -1.24020
C         -2.74160        3.26910       -1.33680
C         -2.16720        0.38170        0.13870
C         -2.55220       -0.94040        0.26260
C         -3.86060       -3.70490       -1.90360
C         -5.02870       -3.02000       -2.21780
C         -5.84400       -3.45780       -3.24260
C         -5.51570       -4.58860       -3.98060
C         -6.42470       -5.08820       -5.06640
C         -7.45320       -6.06570       -4.49390
C         -4.35180       -5.27190       -3.65740
C         -3.53260       -4.83990       -2.62930
C         -3.73390       -3.60300        0.52350
C         -4.87590       -3.21190        1.22100
S         -6.07080       -1.97820        1.05150
C         -0.54860       -3.81770       -1.26860
C          0.57650       -4.50380       -0.81270
C          1.95240       -4.41350       -1.17320
C          2.61790       -3.60060       -2.08870
C          3.98730       -3.59970       -2.05180
C          4.69440       -4.42330       -1.13560
C          4.05110       -5.28500       -0.26120
C          2.66340       -5.25080       -0.27140
N          1.76880       -5.84980        0.58290
C          2.09780       -6.80570        1.60680
C          2.03600       -8.23760        1.07730
C          0.50670       -5.38450        0.29920
C         -0.67830       -5.56940        0.99980
C          6.07410       -4.05240       -1.23550
S          7.52530       -4.49340       -0.39790
C          8.36910       -3.21340       -1.22460
C          9.65220       -2.68980       -1.11950
C          9.83040       -1.57600       -1.92370
S          8.37670       -1.21220       -2.85410
C          7.54100       -2.52130       -2.12510
C          6.23470       -3.00550       -2.12590
C          4.93320       -2.67800       -2.80440
C          5.09400       -3.00750       -4.27710
C          4.60130       -4.18170       -4.82580
C          4.80810       -4.46650       -6.16390
C          5.51770       -3.59590       -6.97930
C          5.69790       -3.88600       -8.44150
C          4.53730       -3.29910       -9.24760
C          6.01630       -2.42530       -6.42060
C          5.81070       -2.13390       -5.08650
C          4.45640       -1.25490       -2.59310
C          3.50660       -0.71140       -3.44950
C          2.98290        0.54400       -3.21010
C          3.39290        1.29140       -2.11340
C          2.84060        2.66720       -1.87570
C          3.63190        3.70890       -2.66890
C          4.35180        0.74990       -1.26910
C          4.87150       -0.51100       -1.49850
C         10.97070       -0.70800       -1.98890
C         12.15760       -0.93940       -1.26430
F         12.30690       -2.05870       -0.53780
C         13.20760       -0.04260       -1.25830
F         14.29300       -0.32010       -0.52290
C         13.15410        1.17670       -1.94180
C         12.01020        1.38740       -2.72150
F         11.94360        2.46200       -3.51390
C         10.97380        0.47710       -2.75370
F          9.93110        0.75940       -3.55010
C         14.23440        2.13260       -1.85540
C         14.04680        3.46260       -1.68940
C         12.75500        4.07090       -1.24810
O         11.70370        3.50930       -1.05000
C         13.06780        5.48880       -0.97860
C         12.21340        6.47390       -0.52690
C         12.74250        7.74420       -0.33140
Cl        11.72110        9.01350        0.22280
C         14.08750        8.00810       -0.57490
C         14.93890        7.01200       -1.02460
C         14.42880        5.73690       -1.23290
C         15.05970        4.50870       -1.69940
C         16.34820        4.38090       -2.13890
C         16.90830        3.19330       -2.65900
N         17.42460        2.27160       -3.10660
C         17.28690        5.43560       -2.15510
N         18.09450        6.24980       -2.18640
H        -11.91420        2.21880        8.84060
H        -12.30410        8.00350        6.43970
H        -13.70750        9.17230       10.32080
H        -13.70420        6.83930       11.07110
H        -10.93290        2.83780        2.56040
H         -9.81110        1.87660        1.57320
H         -8.95680        4.19690        1.86990
H         -7.87890        3.04610        2.66920
H         -9.01330        4.00830        3.62490
H        -11.43140        3.44040        5.13560
H         -8.06780       -0.08420        1.65220
H         -6.34040       -3.81480        4.19270
H         -2.54560       -1.79840       -2.99730
H         -1.84460        0.54030       -3.20890
H         -0.90730        2.67780       -0.37610
H         -0.89490        2.50910       -2.13740
H         -2.45270        4.31310       -1.43420
H         -3.34030        2.99170       -2.20170
H         -3.35660        3.16000       -0.44640
H         -2.06100        0.99020        1.02560
H         -2.73390       -1.35290        1.24460
H         -5.29360       -2.13450       -1.65740
H         -6.74770       -2.91270       -3.47530
H         -5.83880       -5.59340       -5.83700
H         -6.94600       -4.24780       -5.52910
H         -8.05430       -5.57760       -3.73000
H         -6.95260       -6.91870       -4.04090
H         -8.11390       -6.42680       -5.27860
H         -4.07890       -6.15460       -4.21830
H         -2.63160       -5.38780       -2.39540
H         -0.48320       -3.14650       -2.11050
H          2.06770       -2.95720       -2.75690
H          4.61740       -5.89540        0.42510
H          3.10200       -6.58610        1.97810
H          1.39650       -6.68230        2.43600
H          2.28600       -8.94040        1.86710
H          2.73920       -8.36680        0.25780
H          1.03590       -8.46120        0.71310
H         -0.75240       -6.20570        1.86810
H         10.39840       -3.09720       -0.46600
H          4.05110       -4.87630       -4.20780
H          4.41460       -5.38390       -6.57860
H          5.73930       -4.96500       -8.60370
H          6.63560       -3.45080       -8.79240
H          3.59380       -3.73120       -8.92150
H          4.48660       -2.22160       -9.10680
H          4.66640       -3.50550      -10.30750
H          6.57570       -1.73550       -7.03600
H          6.20360       -1.21830       -4.66790
H          3.17800       -1.27520       -4.31090
H          2.23850        0.94770       -3.88180
H          2.89260        2.90770       -0.81200
H          1.79260        2.70050       -2.18120
H          3.57900        3.49420       -3.73390
H          3.23210        4.70530       -2.49440
H          4.67760        3.69620       -2.37050
H          4.69010        1.31620       -0.41310
H          5.60080       -0.91820       -0.81310
H         15.23370        1.71750       -1.88470
H         11.17380        6.25630       -0.33970
H         14.46850        9.00340       -0.40860
H         15.97750        7.24010       -1.19990
