
  xtb     02112208353D
 energy: -284.565491614010 gnorm: 0.000316200270 xtb: 6.4.1 (unknown)
160180  0     0  0            999 V2000
    0.0782    7.1332   12.8695 C   0  0  0  0  0  0  0  0  0  0  0  0
   -1.2485    7.0957   13.1932 C   0  0  0  0  0  0  0  0  0  0  0  0
   -1.6608    7.0133   14.6143 C   0  0  0  0  0  0  0  0  0  0  0  0
   -0.9717    7.2067   15.5902 O   0  0  0  0  0  0  0  0  0  0  0  0
   -3.0793    6.5828   14.5746 C   0  0  0  0  0  0  0  0  0  0  0  0
   -3.9057    6.2378   15.6236 C   0  0  0  0  0  0  0  0  0  0  0  0
   -5.2008    5.8358   15.3159 C   0  0  0  0  0  0  0  0  0  0  0  0
   -6.2742    5.3922   16.5899 Cl  0  0  0  0  0  0  0  0  0  0  0  0
   -5.6483    5.7816   14.0008 C   0  0  0  0  0  0  0  0  0  0  0  0
   -4.8146    6.1410   12.9523 C   0  0  0  0  0  0  0  0  0  0  0  0
   -3.5209    6.5461   13.2391 C   0  0  0  0  0  0  0  0  0  0  0  0
   -2.4373    7.0120   12.3774 C   0  0  0  0  0  0  0  0  0  0  0  0
   -2.5928    7.5513   11.1257 C   0  0  0  0  0  0  0  0  0  0  0  0
   -3.8020    7.5255   10.4052 C   0  0  0  0  0  0  0  0  0  0  0  0
   -4.7612    7.5136    9.7742 N   0  0  0  0  0  0  0  0  0  0  0  0
   -1.5774    8.2864   10.4801 C   0  0  0  0  0  0  0  0  0  0  0  0
   -0.7925    8.9434    9.9598 N   0  0  0  0  0  0  0  0  0  0  0  0
    0.7141    6.7628   11.6700 C   0  0  0  0  0  0  0  0  0  0  0  0
   -0.0640    5.7293   10.4653 S   0  0  0  0  0  0  0  0  0  0  0  0
    1.3714    5.7248    9.5219 C   0  0  0  0  0  0  0  0  0  0  0  0
    1.8941    5.2152    8.3394 C   0  0  0  0  0  0  0  0  0  0  0  0
    3.2274    5.6793    8.2518 C   0  0  0  0  0  0  0  0  0  0  0  0
    3.5309    6.4368    9.3486 N   0  0  0  0  0  0  0  0  0  0  0  0
    4.7470    7.1847    9.5409 C   0  0  0  0  0  0  0  0  0  0  0  0
    4.7375    8.4800    8.7323 C   0  0  0  0  0  0  0  0  0  0  0  0
    2.4034    6.4891   10.1282 C   0  0  0  0  0  0  0  0  0  0  0  0
    2.0339    7.0474   11.3432 C   0  0  0  0  0  0  0  0  0  0  0  0
    3.8993    5.2484    7.1066 C   0  0  0  0  0  0  0  0  0  0  0  0
    3.0880    4.4721    6.3044 C   0  0  0  0  0  0  0  0  0  0  0  0
    1.4754    4.2446    6.9766 S   0  0  0  0  0  0  0  0  0  0  0  0
    3.4184    3.8456    5.0708 C   0  0  0  0  0  0  0  0  0  0  0  0
    4.5161    4.0555    4.2509 C   0  0  0  0  0  0  0  0  0  0  0  0
    5.5033    5.1310    4.3823 C   0  0  0  0  0  0  0  0  0  0  0  0
    6.8632    4.8457    4.3318 C   0  0  0  0  0  0  0  0  0  0  0  0
    7.7855    5.8722    4.4279 C   0  0  0  0  0  0  0  0  0  0  0  0
    7.3616    7.1817    4.5622 C   0  0  0  0  0  0  0  0  0  0  0  0
    6.0049    7.4869    4.5946 C   0  0  0  0  0  0  0  0  0  0  0  0
    5.5450    8.9145    4.6756 C   0  0  0  0  0  0  0  0  0  0  0  0
    5.5125    9.5430    3.2812 C   0  0  0  0  0  0  0  0  0  0  0  0
    5.0859    6.4543    4.5004 C   0  0  0  0  0  0  0  0  0  0  0  0
    4.5367    3.1380    3.1835 C   0  0  0  0  0  0  0  0  0  0  0  0
    5.6493    2.8945    1.8578 S   0  0  0  0  0  0  0  0  0  0  0  0
    4.6306    1.6251    1.2674 C   0  0  0  0  0  0  0  0  0  0  0  0
    4.5854    0.6984    0.2110 C   0  0  0  0  0  0  0  0  0  0  0  0
    5.5163    0.3648   -0.7973 C   0  0  0  0  0  0  0  0  0  0  0  0
    5.2094   -0.7109   -1.7003 C   0  0  0  0  0  0  0  0  0  0  0  0
    6.1936   -0.9512   -2.5517 N   0  0  0  0  0  0  0  0  0  0  0  0
    7.3999    0.0855   -2.2494 S   0  0  0  0  0  0  0  0  0  0  0  0
    6.7134    0.8839   -1.0193 N   0  0  0  0  0  0  0  0  0  0  0  0
    3.9275   -1.3025   -1.6486 C   0  0  0  0  0  0  0  0  0  0  0  0
    3.2684   -2.1758   -2.5290 C   0  0  0  0  0  0  0  0  0  0  0  0
    3.5991   -3.0593   -3.9800 S   0  0  0  0  0  0  0  0  0  0  0  0
    1.9095   -3.4902   -4.0699 C   0  0  0  0  0  0  0  0  0  0  0  0
    1.1734   -4.2337   -5.0124 C   0  0  0  0  0  0  0  0  0  0  0  0
    1.7937   -4.9347   -6.1393 C   0  0  0  0  0  0  0  0  0  0  0  0
    1.5687   -6.2961   -6.3264 C   0  0  0  0  0  0  0  0  0  0  0  0
    2.1947   -6.9594   -7.3635 C   0  0  0  0  0  0  0  0  0  0  0  0
    3.0438   -6.2757   -8.2160 C   0  0  0  0  0  0  0  0  0  0  0  0
    3.2874   -4.9200   -8.0362 C   0  0  0  0  0  0  0  0  0  0  0  0
    4.1734   -4.1685   -8.9867 C   0  0  0  0  0  0  0  0  0  0  0  0
    3.3562   -3.6467  -10.1704 C   0  0  0  0  0  0  0  0  0  0  0  0
    2.6594   -4.2596   -6.9910 C   0  0  0  0  0  0  0  0  0  0  0  0
   -0.1719   -4.2586   -4.6960 C   0  0  0  0  0  0  0  0  0  0  0  0
   -0.5160   -3.4120   -3.1887 S   0  0  0  0  0  0  0  0  0  0  0  0
    1.1504   -2.9841   -3.0131 C   0  0  0  0  0  0  0  0  0  0  0  0
    1.9336   -2.2448   -2.1172 C   0  0  0  0  0  0  0  0  0  0  0  0
    1.7548   -1.4875   -0.9892 N   0  0  0  0  0  0  0  0  0  0  0  0
    2.9702   -0.9085   -0.6746 C   0  0  0  0  0  0  0  0  0  0  0  0
    3.3643   -0.0148    0.3518 C   0  0  0  0  0  0  0  0  0  0  0  0
    2.7214    0.4171    1.5009 N   0  0  0  0  0  0  0  0  0  0  0  0
    3.4908    1.4137    2.0472 C   0  0  0  0  0  0  0  0  0  0  0  0
    3.4445    2.2677    3.1548 C   0  0  0  0  0  0  0  0  0  0  0  0
    2.3854    2.5467    4.4894 S   0  0  0  0  0  0  0  0  0  0  0  0
    1.8407   -0.3413    2.3628 C   0  0  0  0  0  0  0  0  0  0  0  0
    2.6276   -1.0721    3.4507 C   0  0  0  0  0  0  0  0  0  0  0  0
    0.4246   -1.1300   -0.5507 C   0  0  0  0  0  0  0  0  0  0  0  0
   -0.2744   -2.2845    0.1675 C   0  0  0  0  0  0  0  0  0  0  0  0
   -1.2740   -4.7268   -5.4630 C   0  0  0  0  0  0  0  0  0  0  0  0
   -1.1053   -5.0277   -7.1875 S   0  0  0  0  0  0  0  0  0  0  0  0
   -2.8013   -5.3319   -7.3036 C   0  0  0  0  0  0  0  0  0  0  0  0
   -3.7847   -5.6399   -8.2399 C   0  0  0  0  0  0  0  0  0  0  0  0
   -5.0084   -5.7111   -7.5167 C   0  0  0  0  0  0  0  0  0  0  0  0
   -4.7775   -5.4805   -6.1820 N   0  0  0  0  0  0  0  0  0  0  0  0
   -5.7781   -5.3566   -5.1542 C   0  0  0  0  0  0  0  0  0  0  0  0
   -6.2997   -3.9249   -5.0461 C   0  0  0  0  0  0  0  0  0  0  0  0
   -3.4403   -5.2212   -6.0480 C   0  0  0  0  0  0  0  0  0  0  0  0
   -2.5719   -4.8713   -5.0129 C   0  0  0  0  0  0  0  0  0  0  0  0
   -6.0949   -5.9787   -8.3236 C   0  0  0  0  0  0  0  0  0  0  0  0
   -5.7333   -6.1081   -9.6714 C   0  0  0  0  0  0  0  0  0  0  0  0
   -3.9970   -5.9068   -9.9254 S   0  0  0  0  0  0  0  0  0  0  0  0
   -6.6951   -6.3462  -10.6591 C   0  0  0  0  0  0  0  0  0  0  0  0
   -6.5730   -6.4620  -12.0231 C   0  0  0  0  0  0  0  0  0  0  0  0
   -5.3230   -6.3642  -12.7825 C   0  0  0  0  0  0  0  0  0  0  0  0
   -4.1964   -6.2008  -12.3462 O   0  0  0  0  0  0  0  0  0  0  0  0
   -5.6919   -6.5051  -14.2013 C   0  0  0  0  0  0  0  0  0  0  0  0
   -4.8685   -6.4660  -15.2994 C   0  0  0  0  0  0  0  0  0  0  0  0
   -5.4551   -6.6201  -16.5597 C   0  0  0  0  0  0  0  0  0  0  0  0
   -4.8403   -6.6169  -17.8436 C   0  0  0  0  0  0  0  0  0  0  0  0
   -5.7282   -6.7944  -18.8458 C   0  0  0  0  0  0  0  0  0  0  0  0
   -7.3602   -6.9765  -18.3014 S   0  0  0  0  0  0  0  0  0  0  0  0
   -6.8538   -6.8094  -16.6492 C   0  0  0  0  0  0  0  0  0  0  0  0
   -7.6870   -6.8494  -15.5364 C   0  0  0  0  0  0  0  0  0  0  0  0
   -7.0929   -6.6937  -14.2990 C   0  0  0  0  0  0  0  0  0  0  0  0
   -7.6611   -6.6773  -12.9536 C   0  0  0  0  0  0  0  0  0  0  0  0
   -8.9935   -6.8383  -12.6591 C   0  0  0  0  0  0  0  0  0  0  0  0
   -9.9989   -7.0425  -13.6258 C   0  0  0  0  0  0  0  0  0  0  0  0
  -10.8692   -7.2110  -14.3564 N   0  0  0  0  0  0  0  0  0  0  0  0
   -9.5641   -6.8270  -11.3710 C   0  0  0  0  0  0  0  0  0  0  0  0
  -10.1149   -6.8319  -10.3617 N   0  0  0  0  0  0  0  0  0  0  0  0
    0.7428    7.3972   13.6870 H   0  0  0  0  0  0  0  0  0  0  0  0
   -3.5534    6.2814   16.6419 H   0  0  0  0  0  0  0  0  0  0  0  0
   -6.6568    5.4568   13.7980 H   0  0  0  0  0  0  0  0  0  0  0  0
   -5.1756    6.0890   11.9377 H   0  0  0  0  0  0  0  0  0  0  0  0
    4.8451    7.4028   10.6066 H   0  0  0  0  0  0  0  0  0  0  0  0
    5.5892    6.5576    9.2334 H   0  0  0  0  0  0  0  0  0  0  0  0
    5.6527    9.0373    8.9109 H   0  0  0  0  0  0  0  0  0  0  0  0
    4.6657    8.2582    7.6702 H   0  0  0  0  0  0  0  0  0  0  0  0
    3.8886    9.0967    9.0181 H   0  0  0  0  0  0  0  0  0  0  0  0
    2.6572    7.6616   11.9675 H   0  0  0  0  0  0  0  0  0  0  0  0
    4.9226    5.4692    6.8700 H   0  0  0  0  0  0  0  0  0  0  0  0
    7.1929    3.8228    4.2312 H   0  0  0  0  0  0  0  0  0  0  0  0
    8.8412    5.6476    4.3964 H   0  0  0  0  0  0  0  0  0  0  0  0
    8.0874    7.9785    4.6383 H   0  0  0  0  0  0  0  0  0  0  0  0
    6.2234    9.4868    5.3122 H   0  0  0  0  0  0  0  0  0  0  0  0
    4.5445    8.9601    5.1113 H   0  0  0  0  0  0  0  0  0  0  0  0
    5.1815   10.5771    3.3387 H   0  0  0  0  0  0  0  0  0  0  0  0
    4.8300    8.9944    2.6362 H   0  0  0  0  0  0  0  0  0  0  0  0
    6.5021    9.5184    2.8309 H   0  0  0  0  0  0  0  0  0  0  0  0
    4.0276    6.6740    4.5155 H   0  0  0  0  0  0  0  0  0  0  0  0
    0.9155   -6.8285   -5.6504 H   0  0  0  0  0  0  0  0  0  0  0  0
    2.0226   -8.0160   -7.5058 H   0  0  0  0  0  0  0  0  0  0  0  0
    3.5289   -6.8009   -9.0261 H   0  0  0  0  0  0  0  0  0  0  0  0
    4.9628   -4.8263   -9.3557 H   0  0  0  0  0  0  0  0  0  0  0  0
    4.6413   -3.3279   -8.4708 H   0  0  0  0  0  0  0  0  0  0  0  0
    2.5727   -2.9772   -9.8229 H   0  0  0  0  0  0  0  0  0  0  0  0
    3.9946   -3.1054  -10.8647 H   0  0  0  0  0  0  0  0  0  0  0  0
    2.8871   -4.4728  -10.7000 H   0  0  0  0  0  0  0  0  0  0  0  0
    2.8360   -3.2042   -6.8410 H   0  0  0  0  0  0  0  0  0  0  0  0
    1.1303    0.3535    2.8219 H   0  0  0  0  0  0  0  0  0  0  0  0
    1.3003   -1.0743    1.7751 H   0  0  0  0  0  0  0  0  0  0  0  0
    3.1543   -0.3679    4.0888 H   0  0  0  0  0  0  0  0  0  0  0  0
    1.9460   -1.6520    4.0668 H   0  0  0  0  0  0  0  0  0  0  0  0
    3.3544   -1.7455    3.0007 H   0  0  0  0  0  0  0  0  0  0  0  0
   -0.1618   -0.8706   -1.4400 H   0  0  0  0  0  0  0  0  0  0  0  0
    0.4853   -0.2393    0.0756 H   0  0  0  0  0  0  0  0  0  0  0  0
    0.3387   -2.6899    0.9695 H   0  0  0  0  0  0  0  0  0  0  0  0
   -1.2166   -1.9406    0.5848 H   0  0  0  0  0  0  0  0  0  0  0  0
   -0.4812   -3.0887   -0.5331 H   0  0  0  0  0  0  0  0  0  0  0  0
   -5.3332   -5.6675   -4.2050 H   0  0  0  0  0  0  0  0  0  0  0  0
   -6.5981   -6.0383   -5.3939 H   0  0  0  0  0  0  0  0  0  0  0  0
   -7.0515   -3.8596   -4.2647 H   0  0  0  0  0  0  0  0  0  0  0  0
   -6.7459   -3.6148   -5.9879 H   0  0  0  0  0  0  0  0  0  0  0  0
   -5.4856   -3.2442   -4.8079 H   0  0  0  0  0  0  0  0  0  0  0  0
   -2.8497   -4.7184   -3.9853 H   0  0  0  0  0  0  0  0  0  0  0  0
   -7.1153   -6.0726   -7.9971 H   0  0  0  0  0  0  0  0  0  0  0  0
   -7.6970   -6.4352  -10.2569 H   0  0  0  0  0  0  0  0  0  0  0  0
   -3.8053   -6.3196  -15.1886 H   0  0  0  0  0  0  0  0  0  0  0  0
   -3.7834   -6.4863  -17.9910 H   0  0  0  0  0  0  0  0  0  0  0  0
   -5.5330   -6.8323  -19.8999 H   0  0  0  0  0  0  0  0  0  0  0  0
   -8.7469   -6.9950  -15.6606 H   0  0  0  0  0  0  0  0  0  0  0  0
  1  2  2  0  0  0  0
  2  3  1  0  0  0  0
  3  4  2  0  0  0  0
  3  5  1  0  0  0  0
  5  6  2  0  0  0  0
  6  7  1  0  0  0  0
  7  8  1  0  0  0  0
  7  9  2  0  0  0  0
  9 10  1  0  0  0  0
 10 11  2  0  0  0  0
 11 12  1  0  0  0  0
 12 13  2  0  0  0  0
 13 14  1  0  0  0  0
 14 15  3  0  0  0  0
 13 16  1  0  0  0  0
 16 17  3  0  0  0  0
  1 18  1  0  0  0  0
 18 19  1  0  0  0  0
 19 20  1  0  0  0  0
 20 21  1  0  0  0  0
 21 22  2  0  0  0  0
 22 23  1  0  0  0  0
 23 24  1  0  0  0  0
 24 25  1  0  0  0  0
 23 26  1  0  0  0  0
 26 27  1  0  0  0  0
 22 28  1  0  0  0  0
 28 29  2  0  0  0  0
 29 30  1  0  0  0  0
 29 31  1  0  0  0  0
 31 32  2  0  0  0  0
 32 33  1  0  0  0  0
 33 34  2  0  0  0  0
 34 35  1  0  0  0  0
 35 36  2  0  0  0  0
 36 37  1  0  0  0  0
 37 38  1  0  0  0  0
 38 39  1  0  0  0  0
 37 40  2  0  0  0  0
 32 41  1  0  0  0  0
 41 42  1  0  0  0  0
 42 43  1  0  0  0  0
 43 44  1  0  0  0  0
 44 45  1  0  0  0  0
 45 46  1  0  0  0  0
 46 47  2  0  0  0  0
 47 48  1  0  0  0  0
 48 49  1  0  0  0  0
 46 50  1  0  0  0  0
 50 51  1  0  0  0  0
 51 52  1  0  0  0  0
 52 53  1  0  0  0  0
 53 54  1  0  0  0  0
 54 55  1  0  0  0  0
 55 56  2  0  0  0  0
 56 57  1  0  0  0  0
 57 58  2  0  0  0  0
 58 59  1  0  0  0  0
 59 60  1  0  0  0  0
 60 61  1  0  0  0  0
 59 62  2  0  0  0  0
 54 63  2  0  0  0  0
 63 64  1  0  0  0  0
 64 65  1  0  0  0  0
 65 66  1  0  0  0  0
 66 67  1  0  0  0  0
 67 68  1  0  0  0  0
 68 69  1  0  0  0  0
 69 70  1  0  0  0  0
 70 71  1  0  0  0  0
 71 72  1  0  0  0  0
 72 73  1  0  0  0  0
 70 74  1  0  0  0  0
 74 75  1  0  0  0  0
 67 76  1  0  0  0  0
 76 77  1  0  0  0  0
 63 78  1  0  0  0  0
 78 79  1  0  0  0  0
 79 80  1  0  0  0  0
 80 81  1  0  0  0  0
 81 82  2  0  0  0  0
 82 83  1  0  0  0  0
 83 84  1  0  0  0  0
 84 85  1  0  0  0  0
 83 86  1  0  0  0  0
 86 87  1  0  0  0  0
 82 88  1  0  0  0  0
 88 89  2  0  0  0  0
 89 90  1  0  0  0  0
 89 91  1  0  0  0  0
 91 92  2  0  0  0  0
 92 93  1  0  0  0  0
 93 94  2  0  0  0  0
 93 95  1  0  0  0  0
 95 96  2  0  0  0  0
 96 97  1  0  0  0  0
 97 98  1  0  0  0  0
 98 99  2  0  0  0  0
 99100  1  0  0  0  0
100101  1  0  0  0  0
101102  1  0  0  0  0
102103  2  0  0  0  0
103104  1  0  0  0  0
104105  2  0  0  0  0
105106  1  0  0  0  0
106107  3  0  0  0  0
105108  1  0  0  0  0
108109  3  0  0  0  0
 12  2  1  0  0  0  0
 27 18  2  0  0  0  0
 73 31  1  0  0  0  0
 87 78  2  0  0  0  0
104 92  1  0  0  0  0
 11  5  1  0  0  0  0
 26 20  2  0  0  0  0
 40 33  1  0  0  0  0
 72 41  2  0  0  0  0
 86 80  2  0  0  0  0
103 95  1  0  0  0  0
 30 21  1  0  0  0  0
 71 43  2  0  0  0  0
 90 81  1  0  0  0  0
101 97  2  0  0  0  0
 69 44  2  0  0  0  0
 49 45  2  0  0  0  0
 68 50  2  0  0  0  0
 66 51  2  0  0  0  0
 65 53  2  0  0  0  0
 62 55  1  0  0  0  0
  1110  1  0  0  0  0
  6111  1  0  0  0  0
  9112  1  0  0  0  0
 10113  1  0  0  0  0
 24114  1  0  0  0  0
 24115  1  0  0  0  0
 25116  1  0  0  0  0
 25117  1  0  0  0  0
 25118  1  0  0  0  0
 27119  1  0  0  0  0
 28120  1  0  0  0  0
 34121  1  0  0  0  0
 35122  1  0  0  0  0
 36123  1  0  0  0  0
 38124  1  0  0  0  0
 38125  1  0  0  0  0
 39126  1  0  0  0  0
 39127  1  0  0  0  0
 39128  1  0  0  0  0
 40129  1  0  0  0  0
 56130  1  0  0  0  0
 57131  1  0  0  0  0
 58132  1  0  0  0  0
 60133  1  0  0  0  0
 60134  1  0  0  0  0
 61135  1  0  0  0  0
 61136  1  0  0  0  0
 61137  1  0  0  0  0
 62138  1  0  0  0  0
 74139  1  0  0  0  0
 74140  1  0  0  0  0
 75141  1  0  0  0  0
 75142  1  0  0  0  0
 75143  1  0  0  0  0
 76144  1  0  0  0  0
 76145  1  0  0  0  0
 77146  1  0  0  0  0
 77147  1  0  0  0  0
 77148  1  0  0  0  0
 84149  1  0  0  0  0
 84150  1  0  0  0  0
 85151  1  0  0  0  0
 85152  1  0  0  0  0
 85153  1  0  0  0  0
 87154  1  0  0  0  0
 88155  1  0  0  0  0
 91156  1  0  0  0  0
 96157  1  0  0  0  0
 98158  1  0  0  0  0
 99159  1  0  0  0  0
102160  1  0  0  0  0
M  END
