170

C         10.12200        4.21480       -7.94580
C         11.11360        3.49670       -8.57350
C         10.92350        2.26230       -9.33730
O          9.88030        1.68170       -9.57540
C         12.27280        1.84660       -9.77850
C         12.62940        0.73840      -10.51660
C         13.97980        0.56330      -10.79760
Cl        14.48450       -0.80610      -11.71460
C         14.93130        1.47210      -10.35090
C         14.56070        2.58480       -9.61000
C         13.21880        2.77860       -9.31820
C         12.52300        3.82480       -8.56890
C         13.13110        4.90390       -7.97590
C         12.48460        5.92070       -7.24470
N         12.04290        6.78830       -6.63330
C         14.51890        5.15010       -8.01540
N         15.63660        5.41400       -8.00510
C          8.75020        3.97540       -7.83230
S          7.85660        2.61880       -8.52850
C          6.41570        3.18510       -7.77960
C          5.07730        2.84610       -7.59790
C          4.51160        3.82800       -6.75270
N          5.44860        4.77510       -6.44280
C          5.28340        5.86280       -5.51370
C          5.54470        5.41920       -4.07550
C          6.62380        4.38170       -7.03480
C          7.92890        4.82250       -7.07450
C          3.17960        3.57800       -6.42400
C          2.71500        2.42180       -7.01940
S          3.92520        1.62640       -8.01690
C          1.45860        1.81070       -6.74870
C          0.78430        0.80420       -7.41570
C          1.13160        0.29900       -8.74420
C          1.40200        1.18090       -9.78760
C          1.69670        0.68910      -11.04410
C          1.72170       -0.67600      -11.27100
C          1.44180       -1.56910      -10.24450
C          1.50430       -3.05110      -10.47590
C          2.91750       -3.57160      -10.20560
C          1.14720       -1.07010       -8.98500
C         -0.31760        0.34170       -6.66650
S         -1.48850       -0.92940       -6.93520
C         -2.17820       -0.59890       -5.38010
C         -3.10090       -1.16340       -4.48150
C         -3.84640       -2.36370       -4.52140
C         -4.45280       -2.85340       -3.31080
N         -5.03080       -4.03200       -3.47890
S         -4.84230       -4.48410       -5.02190
N         -4.00600       -3.19700       -5.53690
C         -4.39280       -2.06280       -2.14170
C         -4.82630       -2.27050       -0.81710
S         -5.49580       -3.52700        0.17270
C         -5.34180       -2.48520        1.56990
C         -5.51180       -2.70580        2.95650
C         -5.90870       -4.01340        3.48660
C         -5.18540       -4.62110        4.50980
C         -5.54800       -5.87720        4.95500
C         -6.62300       -6.53850        4.38530
C         -7.34540       -5.95370        3.35350
C         -8.53020       -6.65050        2.74930
C         -9.81830       -6.23110        3.46050
C         -6.97850       -4.69070        2.91260
C         -5.14670       -1.59690        3.69060
S         -4.59880       -0.27220        2.67090
C         -4.83810       -1.22550        1.25510
C         -4.54070       -1.10330       -0.10660
N         -3.95230       -0.17540       -0.92840
C         -3.80360       -0.77160       -2.17010
C         -3.04080       -0.38210       -3.29590
N         -2.09490        0.61030       -3.46250
C         -1.56440        0.46780       -4.71660
C         -0.49900        1.00090       -5.44990
S          0.69410        2.22670       -5.21640
C         -1.41790        1.42330       -2.47760
C         -1.68080        2.91440       -2.68430
C         -4.11000        1.23770       -0.65610
C         -5.57950        1.60630       -0.45220
C         -5.11250       -1.38960        5.12160
C         -4.15210       -0.51660        5.65000
C         -4.05540       -0.35360        7.00810
C         -3.10710        0.53200        7.78340
C         -3.52730        1.99380        7.49480
C         -2.84360        3.05680        8.34420
C         -1.63830        0.28130        7.41470
C         -1.22000       -1.16670        7.64090
C         -3.42720        0.13070        9.20320
C         -4.52750       -0.74910        9.23350
C         -4.91890       -1.04580        7.87400
C         -5.90760       -1.87360        7.35660
C         -6.00200       -2.03590        5.98900
C         -5.02720       -1.20880       10.44710
C         -4.39640       -0.82820       11.61100
C         -3.23590       -0.03540       11.58620
C         -2.77480        0.47200       10.36000
C         -2.57570        0.25690       12.82520
C         -1.24090        0.43750       13.03250
C         -0.15010        0.02870       12.10810
O         -0.22980       -0.36830       10.96640
C          1.09090        0.11570       12.90570
C          2.38100       -0.19780       12.52220
C          3.40230       -0.04230       13.44610
C          3.11060        0.41150       14.72490
I          4.68550        0.62600       16.11610
C          1.81990        0.72850       15.12510
C          0.80000        0.58040       14.19850
C         -0.63640        0.83060       14.29460
C         -1.27350        1.41750       15.35400
C         -0.62890        1.80760       16.54750
N         -0.15950        2.13970       17.54070
C         -2.64550        1.74880       15.39140
N         -3.74360        2.06860       15.49180
H         10.43650        5.11100       -7.42470
H         11.88240        0.03890      -10.85710
H         15.97150        1.30740      -10.58440
H         15.31880        3.27340       -9.27530
H          5.97820        6.65810       -5.79450
H          4.26250        6.24230       -5.61040
H          4.85430        4.62740       -3.79410
H          5.41260        6.25730       -3.39700
H          6.56050        5.04470       -3.97550
H          8.31490        5.69650       -6.58090
H          2.56840        4.18530       -5.78050
H          1.36310        2.24620       -9.61270
H          1.90400        1.37420      -11.85280
H          1.95320       -1.05290      -12.25670
H          1.22820       -3.27680      -11.50770
H          0.79970       -3.55790       -9.81390
H          3.63280       -3.08550      -10.86510
H          3.20660       -3.36420       -9.17780
H          2.96530       -4.64540      -10.37090
H          0.93690       -1.75440       -8.17590
H         -4.33710       -4.11180        4.94250
H         -4.98390       -6.34760        5.74700
H         -6.89740       -7.52230        4.73790
H         -8.40680       -7.73170        2.83550
H         -8.60460       -6.39780        1.68980
H         -9.76670       -6.48360        4.51750
H         -9.96750       -5.15720        3.37230
H        -10.67590       -6.73760        3.02410
H         -7.53600       -4.22290        2.11370
H         -1.71130        1.09550       -1.48100
H         -0.34140        1.24530       -2.58380
H         -1.25980        3.23860       -3.63200
H         -1.21190        3.48290       -1.88630
H         -2.74490        3.13900       -2.69550
H         -3.73240        1.79820       -1.50590
H         -3.53800        1.49520        0.24190
H         -6.16570        1.30670       -1.31840
H         -5.98660        1.11970        0.42940
H         -5.66910        2.68160       -0.32350
H         -3.47620       -0.00280        4.98170
H         -4.60790        2.06880        7.64430
H         -3.32690        2.19280        6.43950
H         -3.10410        2.94220        9.39290
H         -1.76270        3.01300        8.24150
H         -3.17280        4.04210        8.02060
H         -1.49300        0.54840        6.36540
H         -0.99930        0.92520        8.01880
H         -1.87920       -1.84950        7.10850
H         -0.20400       -1.31990        7.28470
H         -1.24760       -1.40630        8.70060
H         -6.59430       -2.38860        8.01140
H         -6.77080       -2.67060        5.57640
H         -5.88880       -1.85850       10.47680
H         -4.76350       -1.18370       12.56310
H         -1.92410        1.13150       10.34210
H         -3.22490        0.28720       13.69320
H          2.57930       -0.55300       11.52280
H          4.42030       -0.27470       13.17400
H          1.62990        1.07220       16.12860
