
  xtb     02112205533D
 energy: -248.131965152417 gnorm: 0.000895598456 xtb: 6.4.1 (unknown)
140154  0     0  0            999 V2000
   -5.5297    6.6777   -2.7478 C   0  0  0  0  0  0  0  0  0  0  0  0
   -6.7480    7.2476   -2.5228 C   0  0  0  0  0  0  0  0  0  0  0  0
   -7.5667    7.6506   -3.6981 C   0  0  0  0  0  0  0  0  0  0  0  0
   -7.3656    7.3607   -4.8542 O   0  0  0  0  0  0  0  0  0  0  0  0
   -8.6375    8.5102   -3.1481 C   0  0  0  0  0  0  0  0  0  0  0  0
   -9.5985    9.2290   -3.8280 C   0  0  0  0  0  0  0  0  0  0  0  0
  -10.4841    9.9914   -3.0743 C   0  0  0  0  0  0  0  0  0  0  0  0
  -11.7059   10.9065   -3.8717 Cl  0  0  0  0  0  0  0  0  0  0  0  0
  -10.3993   10.0318   -1.6868 C   0  0  0  0  0  0  0  0  0  0  0  0
   -9.4353    9.2992   -1.0112 C   0  0  0  0  0  0  0  0  0  0  0  0
   -8.5479    8.5257   -1.7444 C   0  0  0  0  0  0  0  0  0  0  0  0
   -7.4655    7.6339   -1.3277 C   0  0  0  0  0  0  0  0  0  0  0  0
   -7.3486    7.0907   -0.0737 C   0  0  0  0  0  0  0  0  0  0  0  0
   -6.4638    6.0550    0.2828 C   0  0  0  0  0  0  0  0  0  0  0  0
   -5.7911    5.1963    0.6429 N   0  0  0  0  0  0  0  0  0  0  0  0
   -8.1704    7.4475    1.0165 C   0  0  0  0  0  0  0  0  0  0  0  0
   -8.7973    7.7013    1.9439 N   0  0  0  0  0  0  0  0  0  0  0  0
   -4.4371    6.5234   -1.8700 C   0  0  0  0  0  0  0  0  0  0  0  0
   -4.1267    7.2004   -0.7050 C   0  0  0  0  0  0  0  0  0  0  0  0
   -2.9620    6.7562   -0.0746 C   0  0  0  0  0  0  0  0  0  0  0  0
   -2.6505    7.2544    1.2968 C   0  0  0  0  0  0  0  0  0  0  0  0
   -2.5780    8.4303    1.5489 O   0  0  0  0  0  0  0  0  0  0  0  0
   -2.6260    6.1605    2.3381 C   0  0  0  0  0  0  0  0  0  0  0  0
   -2.3262    6.7005    3.7282 C   0  0  0  0  0  0  0  0  0  0  0  0
   -2.3282    5.7402   -0.7799 C   0  0  0  0  0  0  0  0  0  0  0  0
   -3.1913    5.3588   -2.2351 S   0  0  0  0  0  0  0  0  0  0  0  0
   -1.1271    5.0374   -0.4729 C   0  0  0  0  0  0  0  0  0  0  0  0
   -0.0050    5.4775    0.2120 C   0  0  0  0  0  0  0  0  0  0  0  0
    0.2227    6.8534    0.6538 C   0  0  0  0  0  0  0  0  0  0  0  0
    0.7611    7.1008    1.9130 C   0  0  0  0  0  0  0  0  0  0  0  0
    0.9661    8.4029    2.3281 C   0  0  0  0  0  0  0  0  0  0  0  0
    0.6450    9.4591    1.4958 C   0  0  0  0  0  0  0  0  0  0  0  0
    0.1294    9.2293    0.2257 C   0  0  0  0  0  0  0  0  0  0  0  0
   -0.1737   10.3764   -0.6930 C   0  0  0  0  0  0  0  0  0  0  0  0
    1.0895   10.8258   -1.4294 C   0  0  0  0  0  0  0  0  0  0  0  0
   -0.0673    7.9230   -0.1884 C   0  0  0  0  0  0  0  0  0  0  0  0
    0.9284    4.4351    0.3723 C   0  0  0  0  0  0  0  0  0  0  0  0
    2.5037    4.3581    1.1251 S   0  0  0  0  0  0  0  0  0  0  0  0
    2.6103    2.6874    0.6857 C   0  0  0  0  0  0  0  0  0  0  0  0
    3.4991    1.6044    0.8148 C   0  0  0  0  0  0  0  0  0  0  0  0
    4.8308    1.4897    1.2773 C   0  0  0  0  0  0  0  0  0  0  0  0
    5.5181    0.2307    1.1390 C   0  0  0  0  0  0  0  0  0  0  0  0
    6.7764    0.2988    1.5421 N   0  0  0  0  0  0  0  0  0  0  0  0
    7.0740    1.8043    2.0580 S   0  0  0  0  0  0  0  0  0  0  0  0
    5.6076    2.4322    1.7856 N   0  0  0  0  0  0  0  0  0  0  0  0
    4.7988   -0.9042    0.6966 C   0  0  0  0  0  0  0  0  0  0  0  0
    5.1079   -2.2734    0.6314 C   0  0  0  0  0  0  0  0  0  0  0  0
    6.4581   -3.3358    0.8597 S   0  0  0  0  0  0  0  0  0  0  0  0
    5.4085   -4.7076    0.5607 C   0  0  0  0  0  0  0  0  0  0  0  0
    5.6173   -6.0939    0.5368 C   0  0  0  0  0  0  0  0  0  0  0  0
    6.9345   -6.7009    0.7258 C   0  0  0  0  0  0  0  0  0  0  0  0
    7.4155   -7.6643   -0.1587 C   0  0  0  0  0  0  0  0  0  0  0  0
    8.6781   -8.1961    0.0231 C   0  0  0  0  0  0  0  0  0  0  0  0
    9.4685   -7.7763    1.0787 C   0  0  0  0  0  0  0  0  0  0  0  0
    9.0111   -6.8056    1.9618 C   0  0  0  0  0  0  0  0  0  0  0  0
    9.8496   -6.3704    3.1283 C   0  0  0  0  0  0  0  0  0  0  0  0
    9.5552   -7.2426    4.3505 C   0  0  0  0  0  0  0  0  0  0  0  0
    7.7444   -6.2748    1.7743 C   0  0  0  0  0  0  0  0  0  0  0  0
    4.4254   -6.7967    0.3144 C   0  0  0  0  0  0  0  0  0  0  0  0
    3.0769   -5.6943    0.0405 S   0  0  0  0  0  0  0  0  0  0  0  0
    4.0885   -4.3287    0.2908 C   0  0  0  0  0  0  0  0  0  0  0  0
    3.9177   -2.9452    0.3184 C   0  0  0  0  0  0  0  0  0  0  0  0
    2.8942   -2.0498    0.1495 N   0  0  0  0  0  0  0  0  0  0  0  0
    3.4251   -0.7926    0.3475 C   0  0  0  0  0  0  0  0  0  0  0  0
    2.8417    0.4875    0.2379 C   0  0  0  0  0  0  0  0  0  0  0  0
    1.6323    0.8862   -0.3003 N   0  0  0  0  0  0  0  0  0  0  0  0
    1.4895    2.2202   -0.0119 C   0  0  0  0  0  0  0  0  0  0  0  0
    0.5333    3.2228   -0.2014 C   0  0  0  0  0  0  0  0  0  0  0  0
   -1.0126    3.3517   -0.9569 S   0  0  0  0  0  0  0  0  0  0  0  0
    0.9781    0.3081   -1.4580 C   0  0  0  0  0  0  0  0  0  0  0  0
    1.3275    1.0768   -2.7321 C   0  0  0  0  0  0  0  0  0  0  0  0
    1.5140   -2.4677    0.3110 C   0  0  0  0  0  0  0  0  0  0  0  0
    1.2558   -3.0490    1.6995 C   0  0  0  0  0  0  0  0  0  0  0  0
    4.2832   -8.1986    0.3949 C   0  0  0  0  0  0  0  0  0  0  0  0
    3.1536   -8.9752    0.3790 C   0  0  0  0  0  0  0  0  0  0  0  0
    1.8285   -8.5149    0.3173 C   0  0  0  0  0  0  0  0  0  0  0  0
    0.6977   -9.2833    0.3919 C   0  0  0  0  0  0  0  0  0  0  0  0
   -0.5516   -8.6449    0.4273 C   0  0  0  0  0  0  0  0  0  0  0  0
   -1.7817   -9.2408    0.5491 C   0  0  0  0  0  0  0  0  0  0  0  0
   -2.0220  -10.6965    0.5989 C   0  0  0  0  0  0  0  0  0  0  0  0
   -1.2052  -11.5930    0.5744 O   0  0  0  0  0  0  0  0  0  0  0  0
   -3.4951  -10.8466    0.6811 C   0  0  0  0  0  0  0  0  0  0  0  0
   -4.2348  -12.0086    0.7383 C   0  0  0  0  0  0  0  0  0  0  0  0
   -5.6182  -11.8876    0.8087 C   0  0  0  0  0  0  0  0  0  0  0  0
   -6.5916  -13.3080    0.8831 Cl  0  0  0  0  0  0  0  0  0  0  0  0
   -6.2319  -10.6407    0.8201 C   0  0  0  0  0  0  0  0  0  0  0  0
   -5.4790   -9.4774    0.7634 C   0  0  0  0  0  0  0  0  0  0  0  0
   -4.0971   -9.5759    0.6938 C   0  0  0  0  0  0  0  0  0  0  0  0
   -3.0511   -8.5564    0.6321 C   0  0  0  0  0  0  0  0  0  0  0  0
   -3.2622   -7.1987    0.6787 C   0  0  0  0  0  0  0  0  0  0  0  0
   -4.5366   -6.6003    0.7576 C   0  0  0  0  0  0  0  0  0  0  0  0
   -5.5388   -6.0429    0.8221 N   0  0  0  0  0  0  0  0  0  0  0  0
   -2.2688   -6.1993    0.6736 C   0  0  0  0  0  0  0  0  0  0  0  0
   -1.5383   -5.3107    0.6843 N   0  0  0  0  0  0  0  0  0  0  0  0
   -5.3701    6.3476   -3.7704 H   0  0  0  0  0  0  0  0  0  0  0  0
   -9.6542    9.1950   -4.9045 H   0  0  0  0  0  0  0  0  0  0  0  0
  -11.0950   10.6413   -1.1319 H   0  0  0  0  0  0  0  0  0  0  0  0
   -9.3844    9.3514    0.0642 H   0  0  0  0  0  0  0  0  0  0  0  0
   -4.7167    8.0103   -0.3137 H   0  0  0  0  0  0  0  0  0  0  0  0
   -1.9007    5.4000    2.0474 H   0  0  0  0  0  0  0  0  0  0  0  0
   -3.6138    5.6872    2.3103 H   0  0  0  0  0  0  0  0  0  0  0  0
   -3.0693    7.4411    4.0103 H   0  0  0  0  0  0  0  0  0  0  0  0
   -2.3361    5.8957    4.4583 H   0  0  0  0  0  0  0  0  0  0  0  0
   -1.3504    7.1797    3.7389 H   0  0  0  0  0  0  0  0  0  0  0  0
    0.9942    6.2755    2.5692 H   0  0  0  0  0  0  0  0  0  0  0  0
    1.3705    8.5936    3.3113 H   0  0  0  0  0  0  0  0  0  0  0  0
    0.7915   10.4743    1.8338 H   0  0  0  0  0  0  0  0  0  0  0  0
   -0.9308   10.0764   -1.4198 H   0  0  0  0  0  0  0  0  0  0  0  0
   -0.5713   11.2107   -0.1126 H   0  0  0  0  0  0  0  0  0  0  0  0
    1.8510   11.1402   -0.7194 H   0  0  0  0  0  0  0  0  0  0  0  0
    0.8672   11.6590   -2.0919 H   0  0  0  0  0  0  0  0  0  0  0  0
    1.4932   10.0082   -2.0229 H   0  0  0  0  0  0  0  0  0  0  0  0
   -0.4531    7.7290   -1.1795 H   0  0  0  0  0  0  0  0  0  0  0  0
    6.8141   -7.9676   -1.0032 H   0  0  0  0  0  0  0  0  0  0  0  0
    9.0505   -8.9384   -0.6674 H   0  0  0  0  0  0  0  0  0  0  0  0
   10.4542   -8.1973    1.2132 H   0  0  0  0  0  0  0  0  0  0  0  0
   10.9079   -6.4522    2.8739 H   0  0  0  0  0  0  0  0  0  0  0  0
    9.6341   -5.3277    3.3686 H   0  0  0  0  0  0  0  0  0  0  0  0
   10.1630   -6.9293    5.1959 H   0  0  0  0  0  0  0  0  0  0  0  0
    9.7737   -8.2859    4.1334 H   0  0  0  0  0  0  0  0  0  0  0  0
    8.5065   -7.1638    4.6285 H   0  0  0  0  0  0  0  0  0  0  0  0
    7.3738   -5.5265    2.4598 H   0  0  0  0  0  0  0  0  0  0  0  0
   -0.1046    0.3268   -1.2976 H   0  0  0  0  0  0  0  0  0  0  0  0
    1.3126   -0.7207   -1.5780 H   0  0  0  0  0  0  0  0  0  0  0  0
    2.4058    1.0940   -2.8767 H   0  0  0  0  0  0  0  0  0  0  0  0
    0.9652    2.0997   -2.6859 H   0  0  0  0  0  0  0  0  0  0  0  0
    0.8679    0.5878   -3.5864 H   0  0  0  0  0  0  0  0  0  0  0  0
    0.8589   -1.6108    0.1761 H   0  0  0  0  0  0  0  0  0  0  0  0
    1.2898   -3.2223   -0.4492 H   0  0  0  0  0  0  0  0  0  0  0  0
    1.4082   -2.2900    2.4637 H   0  0  0  0  0  0  0  0  0  0  0  0
    0.2301   -3.4034    1.7468 H   0  0  0  0  0  0  0  0  0  0  0  0
    1.9147   -3.8876    1.9048 H   0  0  0  0  0  0  0  0  0  0  0  0
    5.2239   -8.7166    0.5362 H   0  0  0  0  0  0  0  0  0  0  0  0
    3.2927  -10.0442    0.4739 H   0  0  0  0  0  0  0  0  0  0  0  0
    1.6651   -7.4493    0.2527 H   0  0  0  0  0  0  0  0  0  0  0  0
    0.7478  -10.3599    0.4499 H   0  0  0  0  0  0  0  0  0  0  0  0
   -0.5259   -7.5639    0.3656 H   0  0  0  0  0  0  0  0  0  0  0  0
   -3.7493  -12.9716    0.7287 H   0  0  0  0  0  0  0  0  0  0  0  0
   -7.3075  -10.5803    0.8743 H   0  0  0  0  0  0  0  0  0  0  0  0
   -5.9787   -8.5227    0.7731 H   0  0  0  0  0  0  0  0  0  0  0  0
  1  2  2  0  0  0  0
  2  3  1  0  0  0  0
  3  4  2  0  0  0  0
  3  5  1  0  0  0  0
  5  6  2  0  0  0  0
  6  7  1  0  0  0  0
  7  8  1  0  0  0  0
  7  9  2  0  0  0  0
  9 10  1  0  0  0  0
 10 11  2  0  0  0  0
 11 12  1  0  0  0  0
 12 13  2  0  0  0  0
 13 14  1  0  0  0  0
 14 15  3  0  0  0  0
 13 16  1  0  0  0  0
 16 17  3  0  0  0  0
  1 18  1  0  0  0  0
 18 19  2  0  0  0  0
 19 20  1  0  0  0  0
 20 21  1  0  0  0  0
 21 22  2  0  0  0  0
 21 23  1  0  0  0  0
 23 24  1  0  0  0  0
 20 25  2  0  0  0  0
 25 26  1  0  0  0  0
 25 27  1  0  0  0  0
 27 28  2  0  0  0  0
 28 29  1  0  0  0  0
 29 30  2  0  0  0  0
 30 31  1  0  0  0  0
 31 32  2  0  0  0  0
 32 33  1  0  0  0  0
 33 34  1  0  0  0  0
 34 35  1  0  0  0  0
 33 36  2  0  0  0  0
 28 37  1  0  0  0  0
 37 38  1  0  0  0  0
 38 39  1  0  0  0  0
 39 40  1  0  0  0  0
 40 41  1  0  0  0  0
 41 42  1  0  0  0  0
 42 43  2  0  0  0  0
 43 44  1  0  0  0  0
 44 45  1  0  0  0  0
 42 46  1  0  0  0  0
 46 47  1  0  0  0  0
 47 48  1  0  0  0  0
 48 49  1  0  0  0  0
 49 50  1  0  0  0  0
 50 51  1  0  0  0  0
 51 52  2  0  0  0  0
 52 53  1  0  0  0  0
 53 54  2  0  0  0  0
 54 55  1  0  0  0  0
 55 56  1  0  0  0  0
 56 57  1  0  0  0  0
 55 58  2  0  0  0  0
 50 59  2  0  0  0  0
 59 60  1  0  0  0  0
 60 61  1  0  0  0  0
 61 62  1  0  0  0  0
 62 63  1  0  0  0  0
 63 64  1  0  0  0  0
 64 65  1  0  0  0  0
 65 66  1  0  0  0  0
 66 67  1  0  0  0  0
 67 68  1  0  0  0  0
 68 69  1  0  0  0  0
 66 70  1  0  0  0  0
 70 71  1  0  0  0  0
 63 72  1  0  0  0  0
 72 73  1  0  0  0  0
 59 74  1  0  0  0  0
 74 75  2  0  0  0  0
 75 76  1  0  0  0  0
 76 77  2  0  0  0  0
 77 78  1  0  0  0  0
 78 79  2  0  0  0  0
 79 80  1  0  0  0  0
 80 81  2  0  0  0  0
 80 82  1  0  0  0  0
 82 83  2  0  0  0  0
 83 84  1  0  0  0  0
 84 85  1  0  0  0  0
 84 86  2  0  0  0  0
 86 87  1  0  0  0  0
 87 88  2  0  0  0  0
 88 89  1  0  0  0  0
 89 90  2  0  0  0  0
 90 91  1  0  0  0  0
 91 92  3  0  0  0  0
 90 93  1  0  0  0  0
 93 94  3  0  0  0  0
 12  2  1  0  0  0  0
 26 18  1  0  0  0  0
 69 27  1  0  0  0  0
 89 79  1  0  0  0  0
 11  5  1  0  0  0  0
 36 29  1  0  0  0  0
 68 37  2  0  0  0  0
 88 82  1  0  0  0  0
 67 39  2  0  0  0  0
 65 40  2  0  0  0  0
 45 41  2  0  0  0  0
 64 46  2  0  0  0  0
 62 47  2  0  0  0  0
 61 49  2  0  0  0  0
 58 51  1  0  0  0  0
  1 95  1  0  0  0  0
  6 96  1  0  0  0  0
  9 97  1  0  0  0  0
 10 98  1  0  0  0  0
 19 99  1  0  0  0  0
 23100  1  0  0  0  0
 23101  1  0  0  0  0
 24102  1  0  0  0  0
 24103  1  0  0  0  0
 24104  1  0  0  0  0
 30105  1  0  0  0  0
 31106  1  0  0  0  0
 32107  1  0  0  0  0
 34108  1  0  0  0  0
 34109  1  0  0  0  0
 35110  1  0  0  0  0
 35111  1  0  0  0  0
 35112  1  0  0  0  0
 36113  1  0  0  0  0
 52114  1  0  0  0  0
 53115  1  0  0  0  0
 54116  1  0  0  0  0
 56117  1  0  0  0  0
 56118  1  0  0  0  0
 57119  1  0  0  0  0
 57120  1  0  0  0  0
 57121  1  0  0  0  0
 58122  1  0  0  0  0
 70123  1  0  0  0  0
 70124  1  0  0  0  0
 71125  1  0  0  0  0
 71126  1  0  0  0  0
 71127  1  0  0  0  0
 72128  1  0  0  0  0
 72129  1  0  0  0  0
 73130  1  0  0  0  0
 73131  1  0  0  0  0
 73132  1  0  0  0  0
 74133  1  0  0  0  0
 75134  1  0  0  0  0
 76135  1  0  0  0  0
 77136  1  0  0  0  0
 78137  1  0  0  0  0
 83138  1  0  0  0  0
 86139  1  0  0  0  0
 87140  1  0  0  0  0
M  END
