140

C          6.20410        1.45470       11.56680
C          5.98370        0.60140       12.61760
C          6.82530        0.76320       13.82950
O          7.57000        1.68310       14.08130
C          6.59220       -0.45840       14.63360
C          7.20740       -0.85170       15.80310
C          6.82470       -2.07100       16.35160
Cl         7.56060       -2.61130       17.81340
C          5.86120       -2.86500       15.74120
C          5.24120       -2.45610       14.56970
C          5.60460       -1.24100       14.01040
C          5.11750       -0.53060       12.82590
C          3.91490       -0.79110       12.21330
C          3.30070        0.03530       11.25510
N          2.72450        0.65960       10.48140
C          3.09730       -1.89830       12.51510
N          2.39660       -2.79260       12.68410
C          5.85800        1.34990       10.21320
S          6.00730        2.80240        9.21290
C          5.43140        1.94080        7.84680
C          5.07280        2.11650        6.51480
C          4.61990        0.86110        6.04630
N          4.72560       -0.07540        7.03790
C          4.15670       -1.39950        7.02060
C          2.68620       -1.37350        7.43190
C          5.18760        0.57420        8.15400
C          5.43490        0.24750        9.47690
C          4.18070        0.89210        4.72280
C          4.29680        2.15410        4.17210
S          4.97080        3.33200        5.29150
C          3.83020        2.53480        2.88470
C          3.93830        3.74140        2.21710
C          4.77130        4.87590        2.62530
C          4.21930        6.14850        2.72170
C          5.02030        7.21800        3.07540
C          6.36790        7.02880        3.32440
C          6.93770        5.76580        3.21890
C          8.40960        5.56520        3.43640
C          9.17360        5.74020        2.12240
C          6.13050        4.69730        2.86210
C          3.16820        3.74820        1.03800
S          2.88620        4.97300       -0.17540
C          1.85490        3.86480       -1.01520
C          1.06750        3.81340       -2.17720
C          0.89340        4.74540       -3.22340
C          0.09340        4.37720       -4.35600
N          0.06110        5.32310       -5.28180
S          0.95550        6.57180       -4.76970
N          1.42000        5.95370       -3.34820
C         -0.58840        3.14110       -4.33520
C         -1.54340        2.59830       -5.20770
S         -2.32930        2.99160       -6.69880
C         -3.30200        1.54880       -6.53470
C         -4.32780        1.00630       -7.32380
C         -4.85040        1.68070       -8.51410
C         -6.20910        1.96650       -8.62430
C         -6.67640        2.66110       -9.72290
C         -5.79950        3.08150      -10.70800
C         -4.43990        2.81690      -10.60560
C         -3.47200        3.33550      -11.62850
C         -2.89110        4.67460      -11.16870
C         -3.97590        2.11730       -9.50150
C         -4.80370       -0.18040       -6.78200
S         -4.00900       -0.59190       -5.26550
C         -3.01400        0.81130       -5.38000
C         -2.00450        1.41440       -4.62280
N         -1.36100        1.19980       -3.43300
C         -0.46860        2.23700       -3.24030
C          0.46190        2.52640       -2.20940
N          0.90460        1.80150       -1.10940
C          1.74570        2.61770       -0.39610
C          2.50040        2.54970        0.78030
S          2.80960        1.38560        2.01830
C          1.07950        0.37000       -0.97690
C          2.08850       -0.15290       -1.99730
C         -1.89690        0.24030       -2.49430
C         -1.47080       -1.18960       -2.82260
C         -5.72460       -1.10520       -7.33670
C         -6.25080       -2.22970       -6.71860
F         -6.01930       -2.52160       -5.43070
C         -7.05210       -3.02260       -7.54590
F         -7.73380       -4.06700       -7.08540
C         -7.16880       -2.53370       -8.83640
S         -6.28040       -1.03640       -8.98020
C         -7.90770       -3.03370       -9.93650
C         -8.18950       -4.33680      -10.19640
C         -9.12210       -4.73830      -11.27170
O         -9.73920       -4.00720      -12.01150
C         -9.15300       -6.22230      -11.23580
C         -9.89990       -7.10080      -11.99660
C         -9.74300       -8.46380      -11.77090
Cl       -10.65630       -9.58450      -12.69900
C         -8.84860       -8.93080      -10.80050
Cl        -8.67600      -10.62030      -10.54270
C         -8.09480       -8.04250      -10.04130
C         -8.25980       -6.68970      -10.26430
C         -7.57480       -5.54400       -9.60770
O         -6.63720       -5.60660       -8.84690
H          6.80000        2.32480       11.82870
H          7.95500       -0.22980       16.26930
H          5.59300       -3.80970       16.18750
H          4.49950       -3.09060       14.11230
H          4.73140       -2.02430        7.70920
H          4.26450       -1.80480        6.01100
H          2.29030       -2.38430        7.47170
H          2.57710       -0.91330        8.41180
H          2.10560       -0.79620        6.71640
H          5.35890       -0.74020        9.89350
H          3.78310        0.05530        4.17700
H          3.16580        6.29200        2.53410
H          4.58990        8.20500        3.15700
H          6.98670        7.86960        3.60280
H          8.59100        4.56280        3.82920
H          8.77670        6.28940        4.16590
H          9.01980        6.74100        1.72560
H          8.82440        5.02290        1.38300
H         10.23900        5.58800        2.27850
H          6.56150        3.71110        2.75830
H         -6.88700        1.66260       -7.84050
H         -7.72950        2.88440       -9.80710
H         -6.17330        3.62720      -11.56210
H         -2.65960        2.61950      -11.76680
H         -3.97820        3.46940      -12.58610
H         -2.18590        5.05550      -11.90340
H         -3.68570        5.40570      -11.03800
H         -2.37580        4.55780      -10.21800
H         -2.92150        1.90070       -9.40980
H          1.45350        0.19500        0.03510
H          0.13570       -0.15740       -1.07650
H          2.22990       -1.22230       -1.86630
H          3.04770        0.34290       -1.86640
H          1.74100        0.03720       -3.01080
H         -2.98980        0.29760       -2.55250
H         -1.60960        0.53830       -1.48540
H         -1.82850       -1.86600       -2.05130
H         -1.90420       -1.49670       -3.77060
H         -0.39080       -1.27780       -2.89950
H         -8.27840       -2.29900      -10.64410
H        -10.58530       -6.74040      -12.74750
H         -7.40420       -8.40080       -9.29430
