
  xtb     02112205393D
 energy: -263.823456057159 gnorm: 0.000405310307 xtb: 6.4.1 (unknown)
140157  0     0  0            999 V2000
    6.2041    1.4547   11.5668 C   0  0  0  0  0  0  0  0  0  0  0  0
    5.9837    0.6014   12.6176 C   0  0  0  0  0  0  0  0  0  0  0  0
    6.8253    0.7632   13.8295 C   0  0  0  0  0  0  0  0  0  0  0  0
    7.5700    1.6831   14.0813 O   0  0  0  0  0  0  0  0  0  0  0  0
    6.5922   -0.4584   14.6336 C   0  0  0  0  0  0  0  0  0  0  0  0
    7.2074   -0.8517   15.8031 C   0  0  0  0  0  0  0  0  0  0  0  0
    6.8247   -2.0710   16.3516 C   0  0  0  0  0  0  0  0  0  0  0  0
    7.5606   -2.6113   17.8134 Cl  0  0  0  0  0  0  0  0  0  0  0  0
    5.8612   -2.8650   15.7412 C   0  0  0  0  0  0  0  0  0  0  0  0
    5.2412   -2.4561   14.5697 C   0  0  0  0  0  0  0  0  0  0  0  0
    5.6046   -1.2410   14.0104 C   0  0  0  0  0  0  0  0  0  0  0  0
    5.1175   -0.5306   12.8259 C   0  0  0  0  0  0  0  0  0  0  0  0
    3.9149   -0.7911   12.2133 C   0  0  0  0  0  0  0  0  0  0  0  0
    3.3007    0.0353   11.2551 C   0  0  0  0  0  0  0  0  0  0  0  0
    2.7245    0.6596   10.4814 N   0  0  0  0  0  0  0  0  0  0  0  0
    3.0973   -1.8983   12.5151 C   0  0  0  0  0  0  0  0  0  0  0  0
    2.3966   -2.7926   12.6841 N   0  0  0  0  0  0  0  0  0  0  0  0
    5.8580    1.3499   10.2132 C   0  0  0  0  0  0  0  0  0  0  0  0
    6.0073    2.8024    9.2129 S   0  0  0  0  0  0  0  0  0  0  0  0
    5.4314    1.9408    7.8468 C   0  0  0  0  0  0  0  0  0  0  0  0
    5.0728    2.1165    6.5148 C   0  0  0  0  0  0  0  0  0  0  0  0
    4.6199    0.8611    6.0463 C   0  0  0  0  0  0  0  0  0  0  0  0
    4.7256   -0.0754    7.0379 N   0  0  0  0  0  0  0  0  0  0  0  0
    4.1567   -1.3995    7.0206 C   0  0  0  0  0  0  0  0  0  0  0  0
    2.6862   -1.3735    7.4319 C   0  0  0  0  0  0  0  0  0  0  0  0
    5.1876    0.5742    8.1540 C   0  0  0  0  0  0  0  0  0  0  0  0
    5.4349    0.2475    9.4769 C   0  0  0  0  0  0  0  0  0  0  0  0
    4.1807    0.8921    4.7228 C   0  0  0  0  0  0  0  0  0  0  0  0
    4.2968    2.1541    4.1721 C   0  0  0  0  0  0  0  0  0  0  0  0
    4.9708    3.3320    5.2915 S   0  0  0  0  0  0  0  0  0  0  0  0
    3.8302    2.5348    2.8847 C   0  0  0  0  0  0  0  0  0  0  0  0
    3.9383    3.7414    2.2171 C   0  0  0  0  0  0  0  0  0  0  0  0
    4.7713    4.8759    2.6253 C   0  0  0  0  0  0  0  0  0  0  0  0
    4.2193    6.1485    2.7217 C   0  0  0  0  0  0  0  0  0  0  0  0
    5.0203    7.2180    3.0754 C   0  0  0  0  0  0  0  0  0  0  0  0
    6.3679    7.0288    3.3244 C   0  0  0  0  0  0  0  0  0  0  0  0
    6.9377    5.7658    3.2189 C   0  0  0  0  0  0  0  0  0  0  0  0
    8.4096    5.5652    3.4364 C   0  0  0  0  0  0  0  0  0  0  0  0
    9.1736    5.7402    2.1224 C   0  0  0  0  0  0  0  0  0  0  0  0
    6.1305    4.6973    2.8621 C   0  0  0  0  0  0  0  0  0  0  0  0
    3.1682    3.7482    1.0380 C   0  0  0  0  0  0  0  0  0  0  0  0
    2.8862    4.9730   -0.1754 S   0  0  0  0  0  0  0  0  0  0  0  0
    1.8549    3.8648   -1.0152 C   0  0  0  0  0  0  0  0  0  0  0  0
    1.0675    3.8134   -2.1772 C   0  0  0  0  0  0  0  0  0  0  0  0
    0.8934    4.7454   -3.2234 C   0  0  0  0  0  0  0  0  0  0  0  0
    0.0934    4.3772   -4.3560 C   0  0  0  0  0  0  0  0  0  0  0  0
    0.0611    5.3231   -5.2818 N   0  0  0  0  0  0  0  0  0  0  0  0
    0.9555    6.5718   -4.7697 S   0  0  0  0  0  0  0  0  0  0  0  0
    1.4200    5.9537   -3.3482 N   0  0  0  0  0  0  0  0  0  0  0  0
   -0.5884    3.1411   -4.3352 C   0  0  0  0  0  0  0  0  0  0  0  0
   -1.5434    2.5983   -5.2077 C   0  0  0  0  0  0  0  0  0  0  0  0
   -2.3293    2.9916   -6.6988 S   0  0  0  0  0  0  0  0  0  0  0  0
   -3.3020    1.5488   -6.5347 C   0  0  0  0  0  0  0  0  0  0  0  0
   -4.3278    1.0063   -7.3238 C   0  0  0  0  0  0  0  0  0  0  0  0
   -4.8504    1.6807   -8.5141 C   0  0  0  0  0  0  0  0  0  0  0  0
   -6.2091    1.9665   -8.6243 C   0  0  0  0  0  0  0  0  0  0  0  0
   -6.6764    2.6611   -9.7229 C   0  0  0  0  0  0  0  0  0  0  0  0
   -5.7995    3.0815  -10.7080 C   0  0  0  0  0  0  0  0  0  0  0  0
   -4.4399    2.8169  -10.6056 C   0  0  0  0  0  0  0  0  0  0  0  0
   -3.4720    3.3355  -11.6285 C   0  0  0  0  0  0  0  0  0  0  0  0
   -2.8911    4.6746  -11.1687 C   0  0  0  0  0  0  0  0  0  0  0  0
   -3.9759    2.1173   -9.5015 C   0  0  0  0  0  0  0  0  0  0  0  0
   -4.8037   -0.1804   -6.7820 C   0  0  0  0  0  0  0  0  0  0  0  0
   -4.0090   -0.5919   -5.2655 S   0  0  0  0  0  0  0  0  0  0  0  0
   -3.0140    0.8113   -5.3800 C   0  0  0  0  0  0  0  0  0  0  0  0
   -2.0045    1.4144   -4.6228 C   0  0  0  0  0  0  0  0  0  0  0  0
   -1.3610    1.1998   -3.4330 N   0  0  0  0  0  0  0  0  0  0  0  0
   -0.4686    2.2370   -3.2403 C   0  0  0  0  0  0  0  0  0  0  0  0
    0.4619    2.5264   -2.2094 C   0  0  0  0  0  0  0  0  0  0  0  0
    0.9046    1.8015   -1.1094 N   0  0  0  0  0  0  0  0  0  0  0  0
    1.7457    2.6177   -0.3961 C   0  0  0  0  0  0  0  0  0  0  0  0
    2.5004    2.5497    0.7803 C   0  0  0  0  0  0  0  0  0  0  0  0
    2.8096    1.3856    2.0183 S   0  0  0  0  0  0  0  0  0  0  0  0
    1.0795    0.3700   -0.9769 C   0  0  0  0  0  0  0  0  0  0  0  0
    2.0885   -0.1529   -1.9973 C   0  0  0  0  0  0  0  0  0  0  0  0
   -1.8969    0.2403   -2.4943 C   0  0  0  0  0  0  0  0  0  0  0  0
   -1.4708   -1.1896   -2.8226 C   0  0  0  0  0  0  0  0  0  0  0  0
   -5.7246   -1.1052   -7.3367 C   0  0  0  0  0  0  0  0  0  0  0  0
   -6.2508   -2.2297   -6.7186 C   0  0  0  0  0  0  0  0  0  0  0  0
   -6.0193   -2.5216   -5.4307 F   0  0  0  0  0  0  0  0  0  0  0  0
   -7.0521   -3.0226   -7.5459 C   0  0  0  0  0  0  0  0  0  0  0  0
   -7.7338   -4.0670   -7.0854 F   0  0  0  0  0  0  0  0  0  0  0  0
   -7.1688   -2.5337   -8.8364 C   0  0  0  0  0  0  0  0  0  0  0  0
   -6.2804   -1.0364   -8.9802 S   0  0  0  0  0  0  0  0  0  0  0  0
   -7.9077   -3.0337   -9.9365 C   0  0  0  0  0  0  0  0  0  0  0  0
   -8.1895   -4.3368  -10.1964 C   0  0  0  0  0  0  0  0  0  0  0  0
   -9.1221   -4.7383  -11.2717 C   0  0  0  0  0  0  0  0  0  0  0  0
   -9.7392   -4.0072  -12.0115 O   0  0  0  0  0  0  0  0  0  0  0  0
   -9.1530   -6.2223  -11.2358 C   0  0  0  0  0  0  0  0  0  0  0  0
   -9.8999   -7.1008  -11.9966 C   0  0  0  0  0  0  0  0  0  0  0  0
   -9.7430   -8.4638  -11.7709 C   0  0  0  0  0  0  0  0  0  0  0  0
  -10.6563   -9.5845  -12.6990 Cl  0  0  0  0  0  0  0  0  0  0  0  0
   -8.8486   -8.9308  -10.8005 C   0  0  0  0  0  0  0  0  0  0  0  0
   -8.6760  -10.6203  -10.5427 Cl  0  0  0  0  0  0  0  0  0  0  0  0
   -8.0948   -8.0425  -10.0413 C   0  0  0  0  0  0  0  0  0  0  0  0
   -8.2598   -6.6897  -10.2643 C   0  0  0  0  0  0  0  0  0  0  0  0
   -7.5748   -5.5440   -9.6077 C   0  0  0  0  0  0  0  0  0  0  0  0
   -6.6372   -5.6066   -8.8469 O   0  0  0  0  0  0  0  0  0  0  0  0
    6.8000    2.3248   11.8287 H   0  0  0  0  0  0  0  0  0  0  0  0
    7.9550   -0.2298   16.2693 H   0  0  0  0  0  0  0  0  0  0  0  0
    5.5930   -3.8097   16.1875 H   0  0  0  0  0  0  0  0  0  0  0  0
    4.4995   -3.0906   14.1123 H   0  0  0  0  0  0  0  0  0  0  0  0
    4.7314   -2.0243    7.7092 H   0  0  0  0  0  0  0  0  0  0  0  0
    4.2645   -1.8048    6.0110 H   0  0  0  0  0  0  0  0  0  0  0  0
    2.2903   -2.3843    7.4717 H   0  0  0  0  0  0  0  0  0  0  0  0
    2.5771   -0.9133    8.4118 H   0  0  0  0  0  0  0  0  0  0  0  0
    2.1056   -0.7962    6.7164 H   0  0  0  0  0  0  0  0  0  0  0  0
    5.3589   -0.7402    9.8935 H   0  0  0  0  0  0  0  0  0  0  0  0
    3.7831    0.0553    4.1770 H   0  0  0  0  0  0  0  0  0  0  0  0
    3.1658    6.2920    2.5341 H   0  0  0  0  0  0  0  0  0  0  0  0
    4.5899    8.2050    3.1570 H   0  0  0  0  0  0  0  0  0  0  0  0
    6.9867    7.8696    3.6028 H   0  0  0  0  0  0  0  0  0  0  0  0
    8.5910    4.5628    3.8292 H   0  0  0  0  0  0  0  0  0  0  0  0
    8.7767    6.2894    4.1659 H   0  0  0  0  0  0  0  0  0  0  0  0
    9.0198    6.7410    1.7256 H   0  0  0  0  0  0  0  0  0  0  0  0
    8.8244    5.0229    1.3830 H   0  0  0  0  0  0  0  0  0  0  0  0
   10.2390    5.5880    2.2785 H   0  0  0  0  0  0  0  0  0  0  0  0
    6.5615    3.7111    2.7583 H   0  0  0  0  0  0  0  0  0  0  0  0
   -6.8870    1.6626   -7.8405 H   0  0  0  0  0  0  0  0  0  0  0  0
   -7.7295    2.8844   -9.8071 H   0  0  0  0  0  0  0  0  0  0  0  0
   -6.1733    3.6272  -11.5621 H   0  0  0  0  0  0  0  0  0  0  0  0
   -2.6596    2.6195  -11.7668 H   0  0  0  0  0  0  0  0  0  0  0  0
   -3.9782    3.4694  -12.5861 H   0  0  0  0  0  0  0  0  0  0  0  0
   -2.1859    5.0555  -11.9034 H   0  0  0  0  0  0  0  0  0  0  0  0
   -3.6857    5.4057  -11.0380 H   0  0  0  0  0  0  0  0  0  0  0  0
   -2.3758    4.5578  -10.2180 H   0  0  0  0  0  0  0  0  0  0  0  0
   -2.9215    1.9007   -9.4098 H   0  0  0  0  0  0  0  0  0  0  0  0
    1.4535    0.1950    0.0351 H   0  0  0  0  0  0  0  0  0  0  0  0
    0.1357   -0.1574   -1.0765 H   0  0  0  0  0  0  0  0  0  0  0  0
    2.2299   -1.2223   -1.8663 H   0  0  0  0  0  0  0  0  0  0  0  0
    3.0477    0.3429   -1.8664 H   0  0  0  0  0  0  0  0  0  0  0  0
    1.7410    0.0372   -3.0108 H   0  0  0  0  0  0  0  0  0  0  0  0
   -2.9898    0.2976   -2.5525 H   0  0  0  0  0  0  0  0  0  0  0  0
   -1.6096    0.5383   -1.4854 H   0  0  0  0  0  0  0  0  0  0  0  0
   -1.8285   -1.8660   -2.0513 H   0  0  0  0  0  0  0  0  0  0  0  0
   -1.9042   -1.4967   -3.7706 H   0  0  0  0  0  0  0  0  0  0  0  0
   -0.3908   -1.2778   -2.8995 H   0  0  0  0  0  0  0  0  0  0  0  0
   -8.2784   -2.2990  -10.6441 H   0  0  0  0  0  0  0  0  0  0  0  0
  -10.5853   -6.7404  -12.7475 H   0  0  0  0  0  0  0  0  0  0  0  0
   -7.4042   -8.4008   -9.2943 H   0  0  0  0  0  0  0  0  0  0  0  0
  1  2  2  0  0  0  0
  2  3  1  0  0  0  0
  3  4  2  0  0  0  0
  3  5  1  0  0  0  0
  5  6  2  0  0  0  0
  6  7  1  0  0  0  0
  7  8  1  0  0  0  0
  7  9  2  0  0  0  0
  9 10  1  0  0  0  0
 10 11  2  0  0  0  0
 11 12  1  0  0  0  0
 12 13  2  0  0  0  0
 13 14  1  0  0  0  0
 14 15  3  0  0  0  0
 13 16  1  0  0  0  0
 16 17  3  0  0  0  0
  1 18  1  0  0  0  0
 18 19  1  0  0  0  0
 19 20  1  0  0  0  0
 20 21  1  0  0  0  0
 21 22  2  0  0  0  0
 22 23  1  0  0  0  0
 23 24  1  0  0  0  0
 24 25  1  0  0  0  0
 23 26  1  0  0  0  0
 26 27  1  0  0  0  0
 22 28  1  0  0  0  0
 28 29  2  0  0  0  0
 29 30  1  0  0  0  0
 29 31  1  0  0  0  0
 31 32  2  0  0  0  0
 32 33  1  0  0  0  0
 33 34  2  0  0  0  0
 34 35  1  0  0  0  0
 35 36  2  0  0  0  0
 36 37  1  0  0  0  0
 37 38  1  0  0  0  0
 38 39  1  0  0  0  0
 37 40  2  0  0  0  0
 32 41  1  0  0  0  0
 41 42  1  0  0  0  0
 42 43  1  0  0  0  0
 43 44  1  0  0  0  0
 44 45  1  0  0  0  0
 45 46  1  0  0  0  0
 46 47  2  0  0  0  0
 47 48  1  0  0  0  0
 48 49  1  0  0  0  0
 46 50  1  0  0  0  0
 50 51  1  0  0  0  0
 51 52  1  0  0  0  0
 52 53  1  0  0  0  0
 53 54  1  0  0  0  0
 54 55  1  0  0  0  0
 55 56  2  0  0  0  0
 56 57  1  0  0  0  0
 57 58  2  0  0  0  0
 58 59  1  0  0  0  0
 59 60  1  0  0  0  0
 60 61  1  0  0  0  0
 59 62  2  0  0  0  0
 54 63  2  0  0  0  0
 63 64  1  0  0  0  0
 64 65  1  0  0  0  0
 65 66  1  0  0  0  0
 66 67  1  0  0  0  0
 67 68  1  0  0  0  0
 68 69  1  0  0  0  0
 69 70  1  0  0  0  0
 70 71  1  0  0  0  0
 71 72  1  0  0  0  0
 72 73  1  0  0  0  0
 70 74  1  0  0  0  0
 74 75  1  0  0  0  0
 67 76  1  0  0  0  0
 76 77  1  0  0  0  0
 63 78  1  0  0  0  0
 78 79  2  0  0  0  0
 79 80  1  0  0  0  0
 79 81  1  0  0  0  0
 81 82  1  0  0  0  0
 81 83  2  0  0  0  0
 83 84  1  0  0  0  0
 83 85  1  0  0  0  0
 85 86  2  0  0  0  0
 86 87  1  0  0  0  0
 87 88  2  0  0  0  0
 87 89  1  0  0  0  0
 89 90  2  0  0  0  0
 90 91  1  0  0  0  0
 91 92  1  0  0  0  0
 91 93  2  0  0  0  0
 93 94  1  0  0  0  0
 93 95  1  0  0  0  0
 95 96  2  0  0  0  0
 96 97  1  0  0  0  0
 97 98  2  0  0  0  0
 12  2  1  0  0  0  0
 27 18  2  0  0  0  0
 73 31  1  0  0  0  0
 84 78  1  0  0  0  0
 97 86  1  0  0  0  0
 11  5  1  0  0  0  0
 26 20  2  0  0  0  0
 40 33  1  0  0  0  0
 72 41  2  0  0  0  0
 96 89  1  0  0  0  0
 30 21  1  0  0  0  0
 71 43  2  0  0  0  0
 69 44  2  0  0  0  0
 49 45  2  0  0  0  0
 68 50  2  0  0  0  0
 66 51  2  0  0  0  0
 65 53  2  0  0  0  0
 62 55  1  0  0  0  0
  1 99  1  0  0  0  0
  6100  1  0  0  0  0
  9101  1  0  0  0  0
 10102  1  0  0  0  0
 24103  1  0  0  0  0
 24104  1  0  0  0  0
 25105  1  0  0  0  0
 25106  1  0  0  0  0
 25107  1  0  0  0  0
 27108  1  0  0  0  0
 28109  1  0  0  0  0
 34110  1  0  0  0  0
 35111  1  0  0  0  0
 36112  1  0  0  0  0
 38113  1  0  0  0  0
 38114  1  0  0  0  0
 39115  1  0  0  0  0
 39116  1  0  0  0  0
 39117  1  0  0  0  0
 40118  1  0  0  0  0
 56119  1  0  0  0  0
 57120  1  0  0  0  0
 58121  1  0  0  0  0
 60122  1  0  0  0  0
 60123  1  0  0  0  0
 61124  1  0  0  0  0
 61125  1  0  0  0  0
 61126  1  0  0  0  0
 62127  1  0  0  0  0
 74128  1  0  0  0  0
 74129  1  0  0  0  0
 75130  1  0  0  0  0
 75131  1  0  0  0  0
 75132  1  0  0  0  0
 76133  1  0  0  0  0
 76134  1  0  0  0  0
 77135  1  0  0  0  0
 77136  1  0  0  0  0
 77137  1  0  0  0  0
 85138  1  0  0  0  0
 90139  1  0  0  0  0
 95140  1  0  0  0  0
M  END
