171

C         -3.65910       14.23750        0.96660
C         -4.93190       14.72640        0.76480
C         -6.04440       13.98380        0.16620
O         -6.02790       12.85450       -0.28650
C         -7.21020       14.89180        0.22310
C         -8.51810       14.70180       -0.18050
F         -8.91080       13.54650       -0.72980
C         -9.45090       15.71860       -0.01510
C         -9.05910       16.91680        0.55450
C         -7.74910       17.13090        0.96760
C         -6.82350       16.11480        0.80090
C         -5.39870       16.03970        1.13890
C         -4.67300       17.05980        1.70420
C         -5.20060       18.32430        2.03590
N         -5.55750       19.37550        2.33100
C         -3.30380       17.01450        2.03690
N         -2.19640       17.06860        2.34020
C         -3.10620       12.99090        0.67270
S         -3.90020       11.64160       -0.11910
C         -2.47850       10.70040        0.04590
C         -2.25460        9.35740       -0.31510
C         -1.03370        8.77300        0.01210
Ge         0.11290       10.14520        0.84880
C          0.61340        9.70500        2.74070
C          1.35420       10.84130        3.42810
C          1.65790       10.66260       -0.32050
C          2.69060        9.55290       -0.44360
C         -1.42280       11.37540        0.68350
C         -1.78480       12.65760        1.01900
C         -0.99370        7.43030       -0.34080
C         -2.15950        6.97760       -0.94160
S         -3.33480        8.25400       -1.08530
C         -2.40530        5.65660       -1.40150
C         -3.46260        5.14830       -2.13590
C         -4.65410        5.89430       -2.56270
C         -4.91720        6.05500       -3.91820
C         -6.03830        6.75720       -4.31930
C         -6.89630        7.29900       -3.37880
C         -6.66020        7.12730       -2.02050
C         -7.55870        7.75650       -0.99660
C         -7.02880        9.13850       -0.60650
C         -5.53990        6.41140       -1.62440
C         -3.26570        3.79120       -2.44810
S         -4.23170        2.63690       -3.33410
C         -3.05320        1.41710       -2.98210
C         -2.82760        0.04950       -3.22680
C         -3.46550       -0.91210       -4.04390
C         -2.88080       -2.22330       -4.17800
N         -3.54450       -2.98400       -5.03350
S         -4.79670       -2.13810       -5.61430
N         -4.54180       -0.76370       -4.79920
C         -1.77300       -2.57150       -3.37130
C         -1.08940       -3.77910       -3.13560
S         -1.05930       -5.40770       -3.72260
C          0.15180       -5.79720       -2.52350
C          0.85530       -6.98070       -2.22750
C          0.70260       -8.21070       -3.00760
C         -0.56770       -8.68560       -3.31880
C         -0.70740       -9.83830       -4.06950
C          0.40980      -10.52150       -4.51520
C          1.68660      -10.05470       -4.22420
C          2.90270      -10.76740       -4.74260
C          3.30830      -10.21020       -6.10820
C          1.82010       -8.89370       -3.47970
C          1.72870       -6.78980       -1.16660
S          1.70940       -5.13550       -0.56820
C          0.50340       -4.70600       -1.72520
C         -0.20080       -3.55120       -2.07880
N         -0.27730       -2.24290       -1.66740
C         -1.21820       -1.62580       -2.47210
C         -1.63550       -0.28070       -2.53380
N         -1.10450        0.85600       -1.95220
C         -1.97490        1.88370       -2.22020
C         -2.09020        3.24600       -1.92750
S         -1.17670        4.43400       -1.06950
C          0.30170        1.11560       -1.71780
C          0.91620        1.91840       -2.86410
C          0.03540       -1.88950       -0.29670
C         -0.82810       -2.67690        0.68850
C          2.54740       -7.73600       -0.49160
S          3.85200       -7.18320        0.52850
C          4.26220       -8.81310        0.91850
C          5.27690       -9.31430        1.75580
C          5.41410      -10.70180        1.85280
Ge         3.97330      -11.55640        0.80980
C          2.65700      -12.44590        2.03110
C          2.24200      -11.52570        3.16940
C          4.62040      -12.59360       -0.78380
C          5.65540      -11.81390       -1.57990
C          3.42280       -9.73280        0.29620
C          2.45540       -9.11840       -0.48750
C          6.43630      -11.06220        2.70990
C          7.06140       -9.98170        3.32620
S          6.39630       -8.46540        2.74280
C          8.10470      -10.03950        4.26460
C          8.48240       -9.07950        5.16550
C          9.85390       -9.07280        5.71920
O         10.68070       -9.95120        5.63190
C         10.00310       -7.73690        6.35030
C          8.77390       -7.05260        6.29300
C          8.66620       -5.76420        6.78720
C          9.79250       -5.17170        7.33980
C         10.99820       -5.85180        7.40850
Br        12.49270       -4.99250        8.18400
C         11.12710       -7.15440        6.91230
Cl        12.61680       -7.99430        6.99680
C          7.77830       -7.93680        5.68810
C          6.41980       -7.82620        5.86130
C          5.51010       -8.85350        5.53820
N          4.74200       -9.68470        5.34130
C          5.79150       -6.72200        6.46740
N          5.23030       -5.83620        6.93590
H         -2.95750       14.90760        1.44850
H        -10.46840       15.55610       -0.33370
H         -9.78640       17.70350        0.68240
H         -7.47700       18.07470        1.40910
H         -0.30120        9.46800        3.28390
H          1.22820        8.80490        2.73070
H          0.74280       11.74090        3.44660
H          2.28090       11.07020        2.90590
H          1.59860       10.57240        4.45420
H          2.11580       11.56190        0.09060
H          1.26270       10.91950       -1.30310
H          2.23920        8.65730       -0.86560
H          3.50910        9.86230       -1.09100
H          3.10380        9.29960        0.53080
H         -1.13930       13.36450        1.51230
H         -0.14940        6.78400       -0.16970
H         -4.23830        5.64030       -4.64870
H         -6.24080        6.88600       -5.37230
H         -7.76320        7.85750       -3.70050
H         -8.56780        7.85820       -1.40020
H         -7.60720        7.12450       -0.10730
H         -7.67950        9.60270        0.12980
H         -6.97660        9.79010       -1.47450
H         -6.02950        9.05930       -0.18490
H         -5.35340        6.24870       -0.57180
H         -1.43970       -8.16110       -2.95910
H         -1.69470      -10.20670       -4.30500
H          0.29290      -11.42520       -5.09580
H          3.73090      -10.64220       -4.04190
H          2.69300      -11.83480       -4.83690
H          3.53450       -9.14910       -6.03160
H          2.49870      -10.33570       -6.82350
H          4.18800      -10.72720       -6.48430
H          2.80630       -8.50980       -3.25970
H          0.82900        0.16600       -1.64300
H          0.40610        1.67020       -0.77950
H          1.98120        2.04330       -2.68930
H          0.46140        2.90190       -2.93970
H          0.77500        1.39390       -3.80670
H         -0.15540       -0.82870       -0.14800
H          1.09400       -2.10080       -0.11530
H         -0.60990       -2.35340        1.70230
H         -1.88250       -2.50280        0.48420
H         -0.63010       -3.74260        0.61710
H          1.78790      -12.74590        1.44560
H          3.11500      -13.35300        2.42420
H          3.10300      -11.22250        3.76170
H          1.76490      -10.62750        2.78110
H          1.53640      -12.03080        3.82590
H          5.03740      -13.54060       -0.44380
H          3.75710      -12.82240       -1.40840
H          6.53400      -11.61040       -0.97080
H          5.96800      -12.37680       -2.45740
H          5.24490      -10.86080       -1.90920
H          1.69400       -9.65210       -1.02710
H          6.70690      -12.07890        2.93710
H          8.73290      -10.92430        4.23000
H          7.73980       -5.21590        6.74040
H          9.73610       -4.16560        7.72580
