
  xtb     02052215213D
 energy: -394.513165213193 gnorm: 0.000396560480 xtb: 6.4.1 (unknown)
213236  0     0  0            999 V2000
    4.7282    6.2619  -11.5387 C   0  0  0  0  0  0  0  0  0  0  0  0
    5.7648    7.1419  -11.4056 C   0  0  0  0  0  0  0  0  0  0  0  0
    6.8937    7.0772  -10.4434 C   0  0  0  0  0  0  0  0  0  0  0  0
    7.0520    6.3106   -9.5208 O   0  0  0  0  0  0  0  0  0  0  0  0
    7.8209    8.1523  -10.8556 C   0  0  0  0  0  0  0  0  0  0  0  0
    9.0509    8.5144  -10.3350 C   0  0  0  0  0  0  0  0  0  0  0  0
    9.5751    7.8660   -9.2917 F   0  0  0  0  0  0  0  0  0  0  0  0
    9.7603    9.5675  -10.8986 C   0  0  0  0  0  0  0  0  0  0  0  0
    9.2294   10.2456  -11.9822 C   0  0  0  0  0  0  0  0  0  0  0  0
    7.9951    9.9026  -12.5200 C   0  0  0  0  0  0  0  0  0  0  0  0
    7.2886    8.8549  -11.9513 C   0  0  0  0  0  0  0  0  0  0  0  0
    5.9843    8.2806  -12.2815 C   0  0  0  0  0  0  0  0  0  0  0  0
    5.1159    8.7921  -13.2089 C   0  0  0  0  0  0  0  0  0  0  0  0
    3.8144    8.3163  -13.4824 C   0  0  0  0  0  0  0  0  0  0  0  0
    2.7413    8.0191  -13.7627 N   0  0  0  0  0  0  0  0  0  0  0  0
    5.3860    9.9192  -14.0153 C   0  0  0  0  0  0  0  0  0  0  0  0
    5.5371   10.8235  -14.7058 N   0  0  0  0  0  0  0  0  0  0  0  0
    4.3535    5.1437  -10.7610 C   0  0  0  0  0  0  0  0  0  0  0  0
    4.7893    4.5908   -9.5727 C   0  0  0  0  0  0  0  0  0  0  0  0
    3.9536    3.4887   -9.3005 C   0  0  0  0  0  0  0  0  0  0  0  0
    3.8987    2.5696   -8.2331 C   0  0  0  0  0  0  0  0  0  0  0  0
    4.8673    2.5345   -7.1372 C   0  0  0  0  0  0  0  0  0  0  0  0
    6.2236    2.7505   -7.3739 C   0  0  0  0  0  0  0  0  0  0  0  0
    7.1178    2.6695   -6.3260 C   0  0  0  0  0  0  0  0  0  0  0  0
    8.4256    2.8565   -6.5869 F   0  0  0  0  0  0  0  0  0  0  0  0
    6.7412    2.3821   -5.0173 C   0  0  0  0  0  0  0  0  0  0  0  0
    7.7355    2.3386   -3.8959 C   0  0  0  0  0  0  0  0  0  0  0  0
    8.0044    3.7485   -3.3638 C   0  0  0  0  0  0  0  0  0  0  0  0
    5.3803    2.1766   -4.8230 C   0  0  0  0  0  0  0  0  0  0  0  0
    4.9404    1.8884   -3.5784 F   0  0  0  0  0  0  0  0  0  0  0  0
    4.4511    2.2388   -5.8405 C   0  0  0  0  0  0  0  0  0  0  0  0
    2.8409    1.6804   -8.3160 C   0  0  0  0  0  0  0  0  0  0  0  0
    1.9134    1.6260   -9.3946 C   0  0  0  0  0  0  0  0  0  0  0  0
    1.9933    2.5134  -10.4806 C   0  0  0  0  0  0  0  0  0  0  0  0
    1.0750    2.4433  -11.6182 C   0  0  0  0  0  0  0  0  0  0  0  0
    0.6743    1.2053  -12.1181 C   0  0  0  0  0  0  0  0  0  0  0  0
   -0.2119    1.1501  -13.1733 C   0  0  0  0  0  0  0  0  0  0  0  0
   -0.7393    2.2801  -13.7879 C   0  0  0  0  0  0  0  0  0  0  0  0
   -1.7426    2.1923  -14.8987 C   0  0  0  0  0  0  0  0  0  0  0  0
   -3.1606    2.0951  -14.3301 C   0  0  0  0  0  0  0  0  0  0  0  0
   -0.3041    3.4960  -13.2702 C   0  0  0  0  0  0  0  0  0  0  0  0
    0.5850    3.6000  -12.2193 C   0  0  0  0  0  0  0  0  0  0  0  0
   -0.7787    4.6304  -13.8190 F   0  0  0  0  0  0  0  0  0  0  0  0
   -0.5784   -0.0664  -13.6318 F   0  0  0  0  0  0  0  0  0  0  0  0
    3.0129    3.4513  -10.3714 C   0  0  0  0  0  0  0  0  0  0  0  0
    3.2761    4.4413  -11.2444 O   0  0  0  0  0  0  0  0  0  0  0  0
    1.0040    0.5934   -9.0557 C   0  0  0  0  0  0  0  0  0  0  0  0
    1.4234    0.0808   -7.8542 C   0  0  0  0  0  0  0  0  0  0  0  0
    2.5356    0.7280   -7.4052 O   0  0  0  0  0  0  0  0  0  0  0  0
    0.8765   -0.9025   -6.9832 C   0  0  0  0  0  0  0  0  0  0  0  0
   -0.1412   -1.8187   -7.1860 C   0  0  0  0  0  0  0  0  0  0  0  0
   -0.7889   -2.1014   -8.4674 C   0  0  0  0  0  0  0  0  0  0  0  0
   -0.0359   -2.2897   -9.6248 C   0  0  0  0  0  0  0  0  0  0  0  0
   -0.6695   -2.5610  -10.8219 C   0  0  0  0  0  0  0  0  0  0  0  0
   -2.0501   -2.6573  -10.8758 C   0  0  0  0  0  0  0  0  0  0  0  0
   -2.8148   -2.4919   -9.7286 C   0  0  0  0  0  0  0  0  0  0  0  0
   -4.3059   -2.6620   -9.7576 C   0  0  0  0  0  0  0  0  0  0  0  0
   -4.6837   -4.0751   -9.3086 C   0  0  0  0  0  0  0  0  0  0  0  0
   -2.1728   -2.2158   -8.5299 C   0  0  0  0  0  0  0  0  0  0  0  0
   -0.4684   -2.4723   -5.9813 C   0  0  0  0  0  0  0  0  0  0  0  0
   -1.6636   -3.6820   -5.5739 S   0  0  0  0  0  0  0  0  0  0  0  0
   -1.1389   -3.6159   -3.9250 C   0  0  0  0  0  0  0  0  0  0  0  0
   -1.5127   -4.1183   -2.6671 C   0  0  0  0  0  0  0  0  0  0  0  0
   -2.6271   -4.8814   -2.2492 C   0  0  0  0  0  0  0  0  0  0  0  0
   -2.9171   -4.9857   -0.8438 C   0  0  0  0  0  0  0  0  0  0  0  0
   -4.0419   -5.6424   -0.6091 N   0  0  0  0  0  0  0  0  0  0  0  0
   -4.6761   -6.1017   -2.0257 S   0  0  0  0  0  0  0  0  0  0  0  0
   -3.5451   -5.4718   -2.9975 N   0  0  0  0  0  0  0  0  0  0  0  0
   -2.0050   -4.4396    0.0864 C   0  0  0  0  0  0  0  0  0  0  0  0
   -1.9961   -4.3650    1.4914 C   0  0  0  0  0  0  0  0  0  0  0  0
   -3.0527   -4.6816    2.8249 S   0  0  0  0  0  0  0  0  0  0  0  0
   -1.8705   -3.9792    3.9023 C   0  0  0  0  0  0  0  0  0  0  0  0
   -1.8764   -3.7124    5.2857 C   0  0  0  0  0  0  0  0  0  0  0  0
   -2.9568   -4.1019    6.1917 C   0  0  0  0  0  0  0  0  0  0  0  0
   -2.6738   -4.7156    7.4102 C   0  0  0  0  0  0  0  0  0  0  0  0
   -3.7066   -5.1053    8.2383 C   0  0  0  0  0  0  0  0  0  0  0  0
   -5.0227   -4.9073    7.8555 C   0  0  0  0  0  0  0  0  0  0  0  0
   -5.3241   -4.3048    6.6419 C   0  0  0  0  0  0  0  0  0  0  0  0
   -6.7423   -4.1326    6.1828 C   0  0  0  0  0  0  0  0  0  0  0  0
   -7.0989   -5.1942    5.1408 C   0  0  0  0  0  0  0  0  0  0  0  0
   -4.2808   -3.9021    5.8204 C   0  0  0  0  0  0  0  0  0  0  0  0
   -0.7110   -3.0694    5.6678 C   0  0  0  0  0  0  0  0  0  0  0  0
    0.4165   -2.8433    4.3436 S   0  0  0  0  0  0  0  0  0  0  0  0
   -0.7065   -3.5680    3.2476 C   0  0  0  0  0  0  0  0  0  0  0  0
   -0.7790   -3.7861    1.8675 C   0  0  0  0  0  0  0  0  0  0  0  0
   -0.0302   -3.5015    0.7528 N   0  0  0  0  0  0  0  0  0  0  0  0
   -0.7942   -3.8406   -0.3495 C   0  0  0  0  0  0  0  0  0  0  0  0
   -0.6203   -3.5443   -1.7218 C   0  0  0  0  0  0  0  0  0  0  0  0
    0.2510   -2.6932   -2.3811 N   0  0  0  0  0  0  0  0  0  0  0  0
   -0.0797   -2.7285   -3.7106 C   0  0  0  0  0  0  0  0  0  0  0  0
    0.3033   -2.0730   -4.8864 C   0  0  0  0  0  0  0  0  0  0  0  0
    1.4635   -0.8754   -5.3298 S   0  0  0  0  0  0  0  0  0  0  0  0
    0.9882   -1.5603   -1.8571 C   0  0  0  0  0  0  0  0  0  0  0  0
    0.0830   -0.5987   -1.0935 C   0  0  0  0  0  0  0  0  0  0  0  0
    1.4156   -3.4555    0.8063 C   0  0  0  0  0  0  0  0  0  0  0  0
    1.9898   -4.6497    1.5669 C   0  0  0  0  0  0  0  0  0  0  0  0
   -0.4227   -2.4393    6.9129 C   0  0  0  0  0  0  0  0  0  0  0  0
    0.7468   -1.8970    7.3835 C   0  0  0  0  0  0  0  0  0  0  0  0
    0.4405   -1.2899    8.6281 C   0  0  0  0  0  0  0  0  0  0  0  0
    1.1927   -0.5428    9.5487 C   0  0  0  0  0  0  0  0  0  0  0  0
    2.6327   -0.3200    9.4112 C   0  0  0  0  0  0  0  0  0  0  0  0
    3.1948    0.9166    9.7186 C   0  0  0  0  0  0  0  0  0  0  0  0
    4.5561    1.0975    9.5836 C   0  0  0  0  0  0  0  0  0  0  0  0
    5.0713    2.3073    9.8807 F   0  0  0  0  0  0  0  0  0  0  0  0
    5.4240    0.0958    9.1606 C   0  0  0  0  0  0  0  0  0  0  0  0
    6.8958    0.3281    8.9917 C   0  0  0  0  0  0  0  0  0  0  0  0
    7.2023    0.8210    7.5753 C   0  0  0  0  0  0  0  0  0  0  0  0
    4.8244   -1.1241    8.8686 C   0  0  0  0  0  0  0  0  0  0  0  0
    5.6061   -2.1457    8.4576 F   0  0  0  0  0  0  0  0  0  0  0  0
    3.4683   -1.3501    8.9849 C   0  0  0  0  0  0  0  0  0  0  0  0
    0.4466   -0.0180   10.5972 C   0  0  0  0  0  0  0  0  0  0  0  0
   -0.9459   -0.2488   10.7842 C   0  0  0  0  0  0  0  0  0  0  0  0
   -1.6911   -1.0390    9.8874 C   0  0  0  0  0  0  0  0  0  0  0  0
   -3.1221   -1.2987   10.0424 C   0  0  0  0  0  0  0  0  0  0  0  0
   -3.6719   -1.5212   11.3032 C   0  0  0  0  0  0  0  0  0  0  0  0
   -5.0307   -1.7241   11.4294 C   0  0  0  0  0  0  0  0  0  0  0  0
   -5.9090   -1.7172   10.3518 C   0  0  0  0  0  0  0  0  0  0  0  0
   -7.3840   -1.9304   10.5193 C   0  0  0  0  0  0  0  0  0  0  0  0
   -7.7332   -3.4174   10.4365 C   0  0  0  0  0  0  0  0  0  0  0  0
   -5.3174   -1.5267    9.1074 C   0  0  0  0  0  0  0  0  0  0  0  0
   -3.9646   -1.3217    8.9329 C   0  0  0  0  0  0  0  0  0  0  0  0
   -6.1093   -1.5151    8.0168 F   0  0  0  0  0  0  0  0  0  0  0  0
   -5.5295   -1.9246   12.6682 F   0  0  0  0  0  0  0  0  0  0  0  0
   -0.9544   -1.5076    8.8125 C   0  0  0  0  0  0  0  0  0  0  0  0
   -1.4493   -2.2222    7.7788 O   0  0  0  0  0  0  0  0  0  0  0  0
   -1.2996    0.5274   11.9085 C   0  0  0  0  0  0  0  0  0  0  0  0
   -0.1489    1.1491   12.3468 C   0  0  0  0  0  0  0  0  0  0  0  0
    0.9141    0.7864   11.5733 O   0  0  0  0  0  0  0  0  0  0  0  0
    0.1084    1.9985   13.4506 C   0  0  0  0  0  0  0  0  0  0  0  0
   -0.7617    2.7287   14.1987 C   0  0  0  0  0  0  0  0  0  0  0  0
   -0.3224    3.2123   15.5421 C   0  0  0  0  0  0  0  0  0  0  0  0
    0.8058    3.2179   15.9667 O   0  0  0  0  0  0  0  0  0  0  0  0
   -1.5697    3.6247   16.2223 C   0  0  0  0  0  0  0  0  0  0  0  0
   -1.7921    4.0450   17.5217 C   0  0  0  0  0  0  0  0  0  0  0  0
   -0.7843    4.1586   18.3899 F   0  0  0  0  0  0  0  0  0  0  0  0
   -3.0804    4.3546   17.9414 C   0  0  0  0  0  0  0  0  0  0  0  0
   -4.1376    4.2327   17.0564 C   0  0  0  0  0  0  0  0  0  0  0  0
   -3.9405    3.8203   15.7442 C   0  0  0  0  0  0  0  0  0  0  0  0
   -2.6537    3.5240   15.3282 C   0  0  0  0  0  0  0  0  0  0  0  0
   -2.1427    3.1138   14.0185 C   0  0  0  0  0  0  0  0  0  0  0  0
   -2.7894    3.3205   12.8282 C   0  0  0  0  0  0  0  0  0  0  0  0
   -2.1794    3.1840   11.5646 C   0  0  0  0  0  0  0  0  0  0  0  0
   -1.7245    3.1261   10.5125 N   0  0  0  0  0  0  0  0  0  0  0  0
   -4.1174    3.7830   12.7184 C   0  0  0  0  0  0  0  0  0  0  0  0
   -5.1987    4.1362   12.5664 N   0  0  0  0  0  0  0  0  0  0  0  0
    4.0596    6.4065  -12.3791 H   0  0  0  0  0  0  0  0  0  0  0  0
   10.7172    9.8397  -10.4820 H   0  0  0  0  0  0  0  0  0  0  0  0
    9.7860   11.0601  -12.4193 H   0  0  0  0  0  0  0  0  0  0  0  0
    7.6115   10.4483  -13.3652 H   0  0  0  0  0  0  0  0  0  0  0  0
    5.5957    4.9603   -8.9754 H   0  0  0  0  0  0  0  0  0  0  0  0
    6.5948    2.9518   -8.3651 H   0  0  0  0  0  0  0  0  0  0  0  0
    7.3487    1.7119   -3.0910 H   0  0  0  0  0  0  0  0  0  0  0  0
    8.6702    1.9079   -4.2596 H   0  0  0  0  0  0  0  0  0  0  0  0
    8.7262    3.7086   -2.5522 H   0  0  0  0  0  0  0  0  0  0  0  0
    8.4038    4.3812   -4.1528 H   0  0  0  0  0  0  0  0  0  0  0  0
    7.0854    4.1952   -2.9904 H   0  0  0  0  0  0  0  0  0  0  0  0
    3.4124    2.0659   -5.6133 H   0  0  0  0  0  0  0  0  0  0  0  0
    1.0634    0.2868  -11.7107 H   0  0  0  0  0  0  0  0  0  0  0  0
   -1.5349    1.3092  -15.5053 H   0  0  0  0  0  0  0  0  0  0  0  0
   -1.6642    3.0791  -15.5291 H   0  0  0  0  0  0  0  0  0  0  0  0
   -3.2586    1.2107  -13.7042 H   0  0  0  0  0  0  0  0  0  0  0  0
   -3.8830    2.0302  -15.1394 H   0  0  0  0  0  0  0  0  0  0  0  0
   -3.3892    2.9732  -13.7303 H   0  0  0  0  0  0  0  0  0  0  0  0
    0.8752    4.5771  -11.8702 H   0  0  0  0  0  0  0  0  0  0  0  0
    0.1317    0.2922   -9.5952 H   0  0  0  0  0  0  0  0  0  0  0  0
    1.0415   -2.2336   -9.5749 H   0  0  0  0  0  0  0  0  0  0  0  0
   -0.0875   -2.6996  -11.7208 H   0  0  0  0  0  0  0  0  0  0  0  0
   -2.5353   -2.8653  -11.8180 H   0  0  0  0  0  0  0  0  0  0  0  0
   -4.6807   -2.4897  -10.7681 H   0  0  0  0  0  0  0  0  0  0  0  0
   -4.7743   -1.9362   -9.0894 H   0  0  0  0  0  0  0  0  0  0  0  0
   -4.3282   -4.2593   -8.2973 H   0  0  0  0  0  0  0  0  0  0  0  0
   -5.7632   -4.2037   -9.3275 H   0  0  0  0  0  0  0  0  0  0  0  0
   -4.2340   -4.8134   -9.9687 H   0  0  0  0  0  0  0  0  0  0  0  0
   -2.7588   -2.0708   -7.6341 H   0  0  0  0  0  0  0  0  0  0  0  0
   -1.6485   -4.9021    7.6934 H   0  0  0  0  0  0  0  0  0  0  0  0
   -3.4869   -5.5789    9.1840 H   0  0  0  0  0  0  0  0  0  0  0  0
   -5.8212   -5.2348    8.5054 H   0  0  0  0  0  0  0  0  0  0  0  0
   -7.4227   -4.2171    7.0318 H   0  0  0  0  0  0  0  0  0  0  0  0
   -6.8674   -3.1394    5.7480 H   0  0  0  0  0  0  0  0  0  0  0  0
   -6.4407   -5.1191    4.2784 H   0  0  0  0  0  0  0  0  0  0  0  0
   -8.1259   -5.0671    4.8067 H   0  0  0  0  0  0  0  0  0  0  0  0
   -6.9928   -6.1905    5.5649 H   0  0  0  0  0  0  0  0  0  0  0  0
   -4.5031   -3.4145    4.8825 H   0  0  0  0  0  0  0  0  0  0  0  0
    1.8165   -1.8803   -1.2246 H   0  0  0  0  0  0  0  0  0  0  0  0
    1.4194   -1.0473   -2.7197 H   0  0  0  0  0  0  0  0  0  0  0  0
   -0.7311   -0.2623   -1.7315 H   0  0  0  0  0  0  0  0  0  0  0  0
   -0.3416   -1.0762   -0.2144 H   0  0  0  0  0  0  0  0  0  0  0  0
    0.6578    0.2672   -0.7774 H   0  0  0  0  0  0  0  0  0  0  0  0
    1.7887   -3.4986   -0.2153 H   0  0  0  0  0  0  0  0  0  0  0  0
    1.7342   -2.5225    1.2831 H   0  0  0  0  0  0  0  0  0  0  0  0
    1.6345   -5.5803    1.1296 H   0  0  0  0  0  0  0  0  0  0  0  0
    3.0743   -4.6270    1.5054 H   0  0  0  0  0  0  0  0  0  0  0  0
    1.7061   -4.6240    2.6146 H   0  0  0  0  0  0  0  0  0  0  0  0
    1.6904   -1.9107    6.8783 H   0  0  0  0  0  0  0  0  0  0  0  0
    2.5822    1.7396   10.0471 H   0  0  0  0  0  0  0  0  0  0  0  0
    7.4328   -0.6039    9.1751 H   0  0  0  0  0  0  0  0  0  0  0  0
    7.2290    1.0744    9.7144 H   0  0  0  0  0  0  0  0  0  0  0  0
    6.8870    0.0838    6.8403 H   0  0  0  0  0  0  0  0  0  0  0  0
    8.2702    0.9886    7.4627 H   0  0  0  0  0  0  0  0  0  0  0  0
    6.6815    1.7552    7.3780 H   0  0  0  0  0  0  0  0  0  0  0  0
    3.0771   -2.3315    8.7720 H   0  0  0  0  0  0  0  0  0  0  0  0
   -3.0502   -1.5641   12.1827 H   0  0  0  0  0  0  0  0  0  0  0  0
   -7.6958   -1.5391   11.4891 H   0  0  0  0  0  0  0  0  0  0  0  0
   -7.9162   -1.3902    9.7348 H   0  0  0  0  0  0  0  0  0  0  0  0
   -8.8018   -3.5581   10.5766 H   0  0  0  0  0  0  0  0  0  0  0  0
   -7.4542   -3.8125    9.4630 H   0  0  0  0  0  0  0  0  0  0  0  0
   -7.2047   -3.9758   11.2060 H   0  0  0  0  0  0  0  0  0  0  0  0
   -3.5823   -1.1631    7.9390 H   0  0  0  0  0  0  0  0  0  0  0  0
   -2.2708    0.6137   12.3504 H   0  0  0  0  0  0  0  0  0  0  0  0
    1.1422    2.0209   13.7816 H   0  0  0  0  0  0  0  0  0  0  0  0
   -3.2364    4.6841   18.9564 H   0  0  0  0  0  0  0  0  0  0  0  0
   -5.1365    4.4652   17.3917 H   0  0  0  0  0  0  0  0  0  0  0  0
   -4.7813    3.7274   15.0769 H   0  0  0  0  0  0  0  0  0  0  0  0
  1  2  2  0  0  0  0
  2  3  1  0  0  0  0
  3  4  2  0  0  0  0
  3  5  1  0  0  0  0
  5  6  2  0  0  0  0
  6  7  1  0  0  0  0
  6  8  1  0  0  0  0
  8  9  2  0  0  0  0
  9 10  1  0  0  0  0
 10 11  2  0  0  0  0
 11 12  1  0  0  0  0
 12 13  2  0  0  0  0
 13 14  1  0  0  0  0
 14 15  3  0  0  0  0
 13 16  1  0  0  0  0
 16 17  3  0  0  0  0
  1 18  1  0  0  0  0
 18 19  2  0  0  0  0
 19 20  1  0  0  0  0
 20 21  2  0  0  0  0
 21 22  1  0  0  0  0
 22 23  2  0  0  0  0
 23 24  1  0  0  0  0
 24 25  1  0  0  0  0
 24 26  2  0  0  0  0
 26 27  1  0  0  0  0
 27 28  1  0  0  0  0
 26 29  1  0  0  0  0
 29 30  1  0  0  0  0
 29 31  2  0  0  0  0
 21 32  1  0  0  0  0
 32 33  2  0  0  0  0
 33 34  1  0  0  0  0
 34 35  1  0  0  0  0
 35 36  2  0  0  0  0
 36 37  1  0  0  0  0
 37 38  2  0  0  0  0
 38 39  1  0  0  0  0
 39 40  1  0  0  0  0
 38 41  1  0  0  0  0
 41 42  2  0  0  0  0
 41 43  1  0  0  0  0
 37 44  1  0  0  0  0
 34 45  2  0  0  0  0
 45 46  1  0  0  0  0
 33 47  1  0  0  0  0
 47 48  2  0  0  0  0
 48 49  1  0  0  0  0
 48 50  1  0  0  0  0
 50 51  2  0  0  0  0
 51 52  1  0  0  0  0
 52 53  2  0  0  0  0
 53 54  1  0  0  0  0
 54 55  2  0  0  0  0
 55 56  1  0  0  0  0
 56 57  1  0  0  0  0
 57 58  1  0  0  0  0
 56 59  2  0  0  0  0
 51 60  1  0  0  0  0
 60 61  1  0  0  0  0
 61 62  1  0  0  0  0
 62 63  1  0  0  0  0
 63 64  1  0  0  0  0
 64 65  1  0  0  0  0
 65 66  2  0  0  0  0
 66 67  1  0  0  0  0
 67 68  1  0  0  0  0
 65 69  1  0  0  0  0
 69 70  1  0  0  0  0
 70 71  1  0  0  0  0
 71 72  1  0  0  0  0
 72 73  1  0  0  0  0
 73 74  1  0  0  0  0
 74 75  2  0  0  0  0
 75 76  1  0  0  0  0
 76 77  2  0  0  0  0
 77 78  1  0  0  0  0
 78 79  1  0  0  0  0
 79 80  1  0  0  0  0
 78 81  2  0  0  0  0
 73 82  2  0  0  0  0
 82 83  1  0  0  0  0
 83 84  1  0  0  0  0
 84 85  1  0  0  0  0
 85 86  1  0  0  0  0
 86 87  1  0  0  0  0
 87 88  1  0  0  0  0
 88 89  1  0  0  0  0
 89 90  1  0  0  0  0
 90 91  1  0  0  0  0
 91 92  1  0  0  0  0
 89 93  1  0  0  0  0
 93 94  1  0  0  0  0
 86 95  1  0  0  0  0
 95 96  1  0  0  0  0
 82 97  1  0  0  0  0
 97 98  2  0  0  0  0
 98 99  1  0  0  0  0
 99100  2  0  0  0  0
100101  1  0  0  0  0
101102  2  0  0  0  0
102103  1  0  0  0  0
103104  1  0  0  0  0
103105  2  0  0  0  0
105106  1  0  0  0  0
106107  1  0  0  0  0
105108  1  0  0  0  0
108109  1  0  0  0  0
108110  2  0  0  0  0
100111  1  0  0  0  0
111112  2  0  0  0  0
112113  1  0  0  0  0
113114  1  0  0  0  0
114115  2  0  0  0  0
115116  1  0  0  0  0
116117  2  0  0  0  0
117118  1  0  0  0  0
118119  1  0  0  0  0
117120  1  0  0  0  0
120121  2  0  0  0  0
120122  1  0  0  0  0
116123  1  0  0  0  0
113124  2  0  0  0  0
124125  1  0  0  0  0
112126  1  0  0  0  0
126127  2  0  0  0  0
127128  1  0  0  0  0
127129  1  0  0  0  0
129130  2  0  0  0  0
130131  1  0  0  0  0
131132  2  0  0  0  0
131133  1  0  0  0  0
133134  2  0  0  0  0
134135  1  0  0  0  0
134136  1  0  0  0  0
136137  2  0  0  0  0
137138  1  0  0  0  0
138139  2  0  0  0  0
139140  1  0  0  0  0
140141  2  0  0  0  0
141142  1  0  0  0  0
142143  3  0  0  0  0
141144  1  0  0  0  0
144145  3  0  0  0  0
 12  2  1  0  0  0  0
 46 18  1  0  0  0  0
 92 50  1  0  0  0  0
125 97  1  0  0  0  0
140130  1  0  0  0  0
 11  5  1  0  0  0  0
 45 20  1  0  0  0  0
 59 52  1  0  0  0  0
 91 60  2  0  0  0  0
124 99  1  0  0  0  0
139133  1  0  0  0  0
 31 22  1  0  0  0  0
 49 32  1  0  0  0  0
 90 62  2  0  0  0  0
110101  1  0  0  0  0
128111  1  0  0  0  0
 42 35  1  0  0  0  0
 88 63  2  0  0  0  0
121114  1  0  0  0  0
 68 64  2  0  0  0  0
 87 69  2  0  0  0  0
 85 70  2  0  0  0  0
 84 72  2  0  0  0  0
 81 74  1  0  0  0  0
  1146  1  0  0  0  0
  8147  1  0  0  0  0
  9148  1  0  0  0  0
 10149  1  0  0  0  0
 19150  1  0  0  0  0
 23151  1  0  0  0  0
 27152  1  0  0  0  0
 27153  1  0  0  0  0
 28154  1  0  0  0  0
 28155  1  0  0  0  0
 28156  1  0  0  0  0
 31157  1  0  0  0  0
 36158  1  0  0  0  0
 39159  1  0  0  0  0
 39160  1  0  0  0  0
 40161  1  0  0  0  0
 40162  1  0  0  0  0
 40163  1  0  0  0  0
 42164  1  0  0  0  0
 47165  1  0  0  0  0
 53166  1  0  0  0  0
 54167  1  0  0  0  0
 55168  1  0  0  0  0
 57169  1  0  0  0  0
 57170  1  0  0  0  0
 58171  1  0  0  0  0
 58172  1  0  0  0  0
 58173  1  0  0  0  0
 59174  1  0  0  0  0
 75175  1  0  0  0  0
 76176  1  0  0  0  0
 77177  1  0  0  0  0
 79178  1  0  0  0  0
 79179  1  0  0  0  0
 80180  1  0  0  0  0
 80181  1  0  0  0  0
 80182  1  0  0  0  0
 81183  1  0  0  0  0
 93184  1  0  0  0  0
 93185  1  0  0  0  0
 94186  1  0  0  0  0
 94187  1  0  0  0  0
 94188  1  0  0  0  0
 95189  1  0  0  0  0
 95190  1  0  0  0  0
 96191  1  0  0  0  0
 96192  1  0  0  0  0
 96193  1  0  0  0  0
 98194  1  0  0  0  0
102195  1  0  0  0  0
106196  1  0  0  0  0
106197  1  0  0  0  0
107198  1  0  0  0  0
107199  1  0  0  0  0
107200  1  0  0  0  0
110201  1  0  0  0  0
115202  1  0  0  0  0
118203  1  0  0  0  0
118204  1  0  0  0  0
119205  1  0  0  0  0
119206  1  0  0  0  0
119207  1  0  0  0  0
121208  1  0  0  0  0
126209  1  0  0  0  0
129210  1  0  0  0  0
136211  1  0  0  0  0
137212  1  0  0  0  0
138213  1  0  0  0  0
M  END
