175

C         -9.56910       -4.42780       -6.78630
C        -10.54100       -3.62000       -6.28920
C        -10.44610       -2.92510       -4.97170
O         -9.76550       -3.23520       -4.02110
C        -11.54630       -1.93420       -4.98810
C        -11.85150       -0.91410       -4.10670
F        -11.04560       -0.63580       -3.07230
C        -12.98330       -0.13540       -4.30630
C        -13.80770       -0.39660       -5.38830
C        -13.52040       -1.41190       -6.29100
C        -12.38340       -2.18040       -6.09220
C        -11.81580       -3.27340       -6.88450
C        -12.38110       -3.82320       -8.00330
C        -13.62780       -3.43690       -8.53960
N        -14.63380       -3.17200       -9.02480
C        -11.81040       -4.86200       -8.77070
N        -11.40900       -5.69360       -9.45220
C         -8.22890       -4.41230       -6.27980
C         -7.42150       -5.54200       -6.27160
F         -7.93360       -6.70740       -6.69230
C         -6.12150       -5.54660       -5.76650
F         -5.50620       -6.73750       -5.69070
C         -5.51330       -4.39360       -5.27370
C         -6.32950       -3.21940       -5.26360
N         -5.85370       -2.11490       -4.67830
C         -6.56390       -1.01670       -4.64300
C         -6.02120        0.10240       -3.81170
C         -6.53590       -0.04950       -2.37720
C         -7.80420       -0.96200       -5.34000
N         -8.30140       -2.04520       -5.87850
C         -7.63710       -3.20770       -5.79850
C         -8.57580        0.30570       -5.54260
C         -7.97390        1.12720       -6.68530
C         -4.20760       -4.33830       -4.69660
C         -3.11430       -5.17980       -4.88300
C         -2.93480       -6.13420       -5.97440
C         -3.30950       -5.79200       -7.27300
C         -3.06760       -6.66830       -8.31170
C         -2.44700       -7.88250       -8.07150
C         -2.06330       -8.23750       -6.78500
C         -1.33850       -9.52440       -6.51790
C          0.17020       -9.27670       -6.45440
C         -2.31020       -7.35450       -5.74500
C         -2.08380       -4.87750       -3.97710
S         -0.50400       -5.58280       -3.71320
C         -0.21310       -4.40000       -2.48590
C          0.77170       -4.06400       -1.54780
C          1.97910       -4.71450       -1.21320
C          2.75850       -4.20600       -0.12400
N          3.83580       -4.93750        0.11330
S          3.86730       -6.16100       -0.94690
N          2.50670       -5.80360       -1.74960
C          2.35030       -3.00860        0.50290
C          3.00140       -2.21740        1.45910
S          4.45940       -2.21620        2.39070
C          4.06990       -0.60270        2.94800
C          4.74160        0.30180        3.78940
C          5.91440       -0.06140        4.58030
C          6.94160       -0.82220        4.03020
C          8.01990       -1.18830        4.81240
C          8.08100       -0.81010        6.14180
C          7.06030       -0.05740        6.71070
C          7.09890        0.31240        8.16590
C          6.45470       -0.78610        9.01380
C          5.98090        0.30570        5.92290
C          4.05360        1.50830        3.87540
S          2.50400        1.46200        3.05310
C          2.85910       -0.11810        2.44340
C          2.24050       -1.05450        1.60850
N          1.13230       -1.11610        0.80920
C          1.16230       -2.31520        0.12060
C          0.30630       -2.91200       -0.84560
N         -0.95730       -2.60660       -1.32030
C         -1.26860       -3.50010       -2.30980
C         -2.35440       -3.78640       -3.14480
S         -3.90170       -3.09440       -3.49720
C         -1.99090       -1.73340       -0.81550
C         -2.25290       -0.55050       -1.74800
C          0.30170        0.05700        0.68330
C         -0.62530        0.23080        1.88670
C          4.46790        2.76670        4.41350
C          5.78830        3.19010        4.53210
F          6.80390        2.40420        4.14320
C          6.12350        4.46700        4.98680
F          7.42580        4.74710        5.12040
C          5.17320        5.40950        5.35450
C          3.81240        5.00230        5.28680
N          2.84260        5.85220        5.66030
C          1.58600        5.50520        5.51640
C          0.57010        6.51080        5.96500
C          0.22440        7.46240        4.81670
C          1.24240        4.26170        4.91900
N          2.18620        3.41380        4.58850
C          3.47270        3.72850        4.77280
C         -0.16240        3.80420        4.67160
C         -0.65570        2.96210        5.85110
C          5.49790        6.74750        5.76850
C          6.42620        7.52770        5.15900
C          6.97610        7.25070        3.79970
O          6.73250        6.30710        3.08130
C          7.77140        8.43980        3.44860
C          8.47490        8.67780        2.30320
C          9.16750        9.90010        2.16220
C          9.91470       10.19500        1.00350
C         10.57460       11.38530        0.87530
C         10.50010       12.31730        1.91970
F         11.15490       13.48380        1.77450
C          9.79190       12.08110        3.06490
C          9.10570       10.85980        3.21450
C          8.36520       10.58620        4.38780
C          7.70850        9.38930        4.50690
C          6.88810        8.83840        5.58020
C          6.65330        9.42810        6.79370
C          7.14580       10.69710        7.16410
N          7.51020       11.72610        7.51900
C          5.90290        8.85180        7.84060
N          5.31450        8.44950        8.74080
H         -9.76380       -5.08330       -7.62460
H        -13.20520        0.66140       -3.61410
H        -14.69030        0.20620       -5.53610
H        -14.17710       -1.58550       -7.12690
H         -6.31700        1.07050       -4.21310
H         -4.93300        0.03260       -3.81130
H         -6.16480        0.76290       -1.75730
H         -7.62320       -0.03870       -2.35400
H         -6.19450       -0.99430       -1.96220
H         -9.60200        0.03950       -5.79940
H         -8.58650        0.89090       -4.62270
H         -8.00800        0.55800       -7.61110
H         -8.53980        2.04510       -6.82240
H         -6.93730        1.38530       -6.48040
H         -3.77530       -4.83490       -7.46260
H         -3.36000       -6.40160       -9.31680
H         -2.26050       -8.56110       -8.89130
H         -1.55560      -10.24520       -7.30830
H         -1.67350       -9.94570       -5.56820
H          0.52640       -8.87060       -7.39870
H          0.40450       -8.56470       -5.66620
H          0.69970      -10.20510       -6.25410
H         -2.03400       -7.62880       -4.73770
H          6.90570       -1.10030        2.98840
H          8.82080       -1.76980        4.38060
H          8.92950       -1.09730        6.74590
H          6.56400        1.25120        8.32490
H          8.13400        0.45220        8.48340
H          5.41790       -0.93320        8.71880
H          6.98410       -1.72680        8.87990
H          6.48170       -0.51870       10.06760
H          5.17180        0.87830        6.35710
H         -1.72900       -1.40790        0.18760
H         -2.91150       -2.32360       -0.74590
H         -1.33920       -0.00520       -1.97470
H         -2.67220       -0.90560       -2.68510
H         -2.96430        0.12850       -1.28630
H          0.96920        0.92470        0.63530
H         -0.25170        0.01110       -0.24970
H         -0.03930        0.43300        2.77930
H         -1.29650        1.06800        1.71570
H         -1.21770       -0.66350        2.06830
H          1.00530        7.08750        6.78180
H         -0.33110        6.01350        6.32340
H         -0.19430        6.92060        3.97110
H          1.12030        7.97960        4.48270
H         -0.50050        8.20070        5.14980
H         -0.15810        3.18510        3.77320
H         -0.82580        4.65390        4.51610
H         -0.00790        2.09970        5.98540
H         -0.65170        3.54220        6.77130
H         -1.66830        2.61340        5.66510
H          4.88980        7.13970        6.57270
H          8.50510        7.93840        1.51690
H          9.95670        9.46060        0.21320
H         11.14940       11.62740       -0.00450
H          9.75860       12.82150        3.84880
H          8.33390       11.33540        5.16250
