200

C         13.15630        2.29070        1.63790
C         13.93560        2.91530        2.57060
C         13.44520        3.91220        3.55420
O         12.30290        4.25570        3.75880
C         14.66920        4.48260        4.16550
C         14.81250        5.45250        5.14030
F         13.74450        6.02160        5.71070
C         16.08070        5.84300        5.55310
C         17.19620        5.26180        4.97620
C         17.07870        4.28510        3.99500
C         15.81200        3.89410        3.59320
C         15.38050        2.89750        2.61330
C         16.20450        2.04110        1.92890
C         15.76490        1.01150        1.06970
N         15.49230        0.13550        0.37890
C         17.61140        2.04990        2.01720
N         18.75860        2.00710        2.04420
C         11.73800        2.16930        1.63110
C         10.94100        1.97470        2.78250
C         11.35830        1.74990        4.12040
C         10.33540        1.61070        4.99820
C         10.40970        1.36420        6.46380
C          9.84110       -0.00800        6.82960
S          8.78330        1.72090        4.22130
C          9.53540        1.92290        2.66430
C          8.85870        2.02480        1.45110
C          9.65550        2.10810        0.28810
C         11.05600        2.17170        0.40350
S         11.81170        2.29560       -1.15420
C         10.26330        2.17500       -1.95760
C         10.19510        2.14300       -3.44450
C         10.69660        0.80540       -3.99190
C          9.24230        2.08440       -1.07780
C          7.42330        1.99320        1.33430
S          6.45650        0.86170        2.26070
C          5.05560        1.32870        1.38270
C          3.69800        0.88420        1.27520
C          3.11220        1.61240        0.20510
C          4.10550        2.60670       -0.38100
C          4.55520        2.29470       -1.79680
C          5.26820        3.25470       -2.50620
C          5.81510        2.95610       -3.73910
C          5.67260        1.69050       -4.29380
C          6.24610        1.37200       -5.64490
C          5.19760        1.59410       -6.73660
C          4.95080        0.73870       -3.58620
C          4.40280        1.03170       -2.35020
C          3.53850        4.00290       -0.24860
C          3.82710        4.79390        0.85440
C          3.26910        6.05290        0.97970
C          2.40560        6.55070        0.01330
C          1.76990        7.90200        0.17300
C          0.46770        7.79180        0.96860
C          2.11090        5.75060       -1.08320
C          2.66980        4.49390       -1.21530
C          5.31770        2.33230        0.47160
C          6.65910        2.71200        0.44250
C          1.81400        1.38490       -0.17360
C          1.09790        0.41120        0.52410
C         -0.23370       -0.08980        0.39210
C         -1.27110        0.20730       -0.49260
C         -2.44970       -0.47760       -0.34290
C         -2.60110       -1.45510        0.67560
C         -1.58590       -1.76720        1.56280
C         -0.39400       -1.07540        1.40280
N          0.77970       -1.19700        2.10510
C          0.98770       -2.04780        3.24610
C          0.60530       -1.34600        4.54850
C          1.69030       -0.30180        1.60060
C          3.00170       -0.07230        1.99150
C         -3.92420       -1.98200        0.54330
S         -4.88150       -3.15500        1.35570
C         -6.20370       -2.85820        0.23980
C         -5.88370       -1.89230       -0.69380
C         -4.59040       -1.40260       -0.52000
C         -3.71410       -0.37100       -1.18480
C         -4.41570        0.96990       -1.08420
C         -4.12130        1.87730       -0.07730
C         -4.81040        3.07380        0.01040
C         -5.81150        3.39140       -0.89680
C         -6.58370        4.67350       -0.77490
C         -7.81500        4.47470        0.11110
C         -6.11450        2.47120       -1.89270
C         -5.42930        1.27570       -1.98510
C         -3.35460       -0.71510       -2.61730
C         -2.88180        0.27280       -3.47250
C         -2.50270       -0.03830       -4.76420
C         -2.57900       -1.34210       -5.23640
C         -2.21640       -1.66890       -6.65660
C         -3.43980       -1.53060       -7.56510
C         -3.04490       -2.32700       -4.37660
C         -3.42240       -2.02100       -3.08210
C         -7.41430       -3.58760        0.36180
S         -8.71710       -3.31140       -0.78830
C         -9.68260       -4.49930        0.01020
C        -10.92820       -5.11610       -0.05490
C        -10.97460       -6.04610        1.01730
N         -9.80130       -5.99250        1.72420
C         -9.45460       -6.80490        2.86100
C         -8.80120       -8.11820        2.43470
C         -9.00400       -5.06430        1.11410
C         -7.72150       -4.54480        1.30580
C        -12.16890       -6.74720        1.09620
C        -13.05970       -6.36650        0.10050
S        -12.37940       -5.13610       -0.96990
C        -14.34480       -6.85300       -0.19700
C        -15.16930       -7.65980        0.53440
C        -16.26690       -8.37920       -0.15860
O        -16.68180       -8.17170       -1.27690
C        -16.69530       -9.43740        0.78340
C        -17.60180      -10.45900        0.58620
C        -17.78220      -11.36970        1.61770
C        -17.04630      -11.28350        2.78740
C        -16.11780      -10.25790        2.99190
O        -15.29870      -10.16120        4.05940
C        -15.48850      -11.01730        5.16250
C        -15.98370       -9.29570        1.98560
C        -15.18690       -8.07390        1.92100
C        -14.81600       -7.29830        2.99020
C        -15.04600       -7.58770        4.35100
N        -15.20390       -7.69220        5.48390
C        -14.27140       -6.00510        2.85170
N        -13.84290       -4.94050        2.80720
H         13.64540        1.89190        0.75510
H         16.17510        6.59660        6.31890
H         18.17890        5.57270        5.29580
H         17.96450        3.85190        3.56140
H         12.38920        1.67240        4.41510
H         11.45240        1.43310        6.77990
H          9.84300        2.13780        6.98850
H          9.90860       -0.16860        7.90240
H          8.79730       -0.07470        6.53140
H         10.39630       -0.79510        6.32410
H         10.80480        2.95060       -3.85690
H          9.15760        2.30020       -3.74820
H         10.08560       -0.00980       -3.61130
H         10.64680        0.80090       -5.07770
H         11.72760        0.63650       -3.68980
H          8.21960        1.97420       -1.39030
H          5.39600        4.24250       -2.08690
H          6.37010        3.71450       -4.27390
H          7.11000        2.01070       -5.84170
H          6.57770        0.33170       -5.67040
H          4.86270        2.62910       -6.73320
H          5.61220        1.36590       -7.71570
H          4.33410        0.95500       -6.56660
H          4.82600       -0.25150       -4.00130
H          3.85930        0.27030       -1.81000
H          4.49670        4.42650        1.61860
H          3.51220        6.65940        1.84070
H          1.55610        8.32890       -0.80910
H          2.45420        8.57350        0.69580
H          0.66260        7.38530        1.95850
H          0.00500        8.76990        1.07900
H         -0.23130        7.13130        0.46010
H          1.43920        6.11860       -1.84600
H          2.44200        3.89300       -2.08420
H          7.06280        3.49400       -0.17430
H          1.35590        1.92760       -0.98560
H         -1.14130        0.95000       -1.26420
H         -1.73180       -2.51440        2.32740
H          2.04070       -2.34010        3.27250
H          0.38830       -2.95290        3.11690
H         -0.44300       -1.05730        4.52620
H          1.20670       -0.45000        4.68320
H          0.76870       -2.00840        5.39420
H          3.47230       -0.60220        2.80500
H         -6.57240       -1.57890       -1.45750
H         -3.34650        1.65300        0.64120
H         -4.56260        3.77260        0.79710
H         -5.94880        5.44830       -0.33990
H         -6.90320        5.00870       -1.76390
H         -7.51650        4.15120        1.10580
H         -8.46750        3.71490       -0.31320
H         -8.37440        5.40310        0.20030
H         -6.89510        2.69530       -2.60610
H         -5.67360        0.57560       -2.77110
H         -2.82240        1.29530       -3.12820
H         -2.13980        0.74400       -5.41610
H         -1.83800       -2.69150       -6.71640
H         -1.43200       -0.99320       -7.00380
H         -3.82430       -0.51370       -7.52880
H         -4.22890       -2.20570       -7.24140
H         -3.17980       -1.76760       -8.59420
H         -3.11070       -3.34910       -4.72220
H         -3.77540       -2.80740       -2.43100
H         -8.77060       -6.23260        3.49280
H        -10.36730       -7.00260        3.42960
H         -8.54970       -8.71030        3.31010
H         -7.89180       -7.92130        1.87160
H         -9.47910       -8.69190        1.80700
H         -7.03520       -4.83510        2.08060
H        -12.37940       -7.52760        1.80450
H        -14.71440       -6.62060       -1.19130
H        -18.14640      -10.53400       -0.34110
H        -18.49390      -12.17390        1.50660
H        -17.19160      -12.03230        3.55000
H        -15.25060      -12.05500        4.90830
H        -16.51060      -10.95290        5.54440
H        -14.79990      -10.65790        5.92470
