
  xtb     02062223573D
 energy: -296.396830164319 gnorm: 0.000389722883 xtb: 6.4.1 (unknown)
171190  0     0  0            999 V2000
   -3.6591   14.2375    0.9666 C   0  0  0  0  0  0  0  0  0  0  0  0
   -4.9319   14.7264    0.7648 C   0  0  0  0  0  0  0  0  0  0  0  0
   -6.0444   13.9838    0.1662 C   0  0  0  0  0  0  0  0  0  0  0  0
   -6.0279   12.8545   -0.2865 O   0  0  0  0  0  0  0  0  0  0  0  0
   -7.2102   14.8918    0.2231 C   0  0  0  0  0  0  0  0  0  0  0  0
   -8.5181   14.7018   -0.1805 C   0  0  0  0  0  0  0  0  0  0  0  0
   -8.9108   13.5465   -0.7298 F   0  0  0  0  0  0  0  0  0  0  0  0
   -9.4509   15.7186   -0.0151 C   0  0  0  0  0  0  0  0  0  0  0  0
   -9.0591   16.9168    0.5545 C   0  0  0  0  0  0  0  0  0  0  0  0
   -7.7491   17.1309    0.9676 C   0  0  0  0  0  0  0  0  0  0  0  0
   -6.8235   16.1148    0.8009 C   0  0  0  0  0  0  0  0  0  0  0  0
   -5.3987   16.0397    1.1389 C   0  0  0  0  0  0  0  0  0  0  0  0
   -4.6730   17.0598    1.7042 C   0  0  0  0  0  0  0  0  0  0  0  0
   -5.2006   18.3243    2.0359 C   0  0  0  0  0  0  0  0  0  0  0  0
   -5.5575   19.3755    2.3310 N   0  0  0  0  0  0  0  0  0  0  0  0
   -3.3038   17.0145    2.0369 C   0  0  0  0  0  0  0  0  0  0  0  0
   -2.1964   17.0686    2.3402 N   0  0  0  0  0  0  0  0  0  0  0  0
   -3.1062   12.9909    0.6727 C   0  0  0  0  0  0  0  0  0  0  0  0
   -3.9002   11.6416   -0.1191 S   0  0  0  0  0  0  0  0  0  0  0  0
   -2.4785   10.7004    0.0459 C   0  0  0  0  0  0  0  0  0  0  0  0
   -2.2546    9.3574   -0.3151 C   0  0  0  0  0  0  0  0  0  0  0  0
   -1.0337    8.7730    0.0121 C   0  0  0  0  0  0  0  0  0  0  0  0
    0.1129   10.1452    0.8488 Ge  0  0  0  0  0  4  0  0  0  0  0  0
    0.6134    9.7050    2.7407 C   0  0  0  0  0  0  0  0  0  0  0  0
    1.3542   10.8413    3.4281 C   0  0  0  0  0  0  0  0  0  0  0  0
    1.6579   10.6626   -0.3205 C   0  0  0  0  0  0  0  0  0  0  0  0
    2.6906    9.5529   -0.4436 C   0  0  0  0  0  0  0  0  0  0  0  0
   -1.4228   11.3754    0.6835 C   0  0  0  0  0  0  0  0  0  0  0  0
   -1.7848   12.6576    1.0190 C   0  0  0  0  0  0  0  0  0  0  0  0
   -0.9937    7.4303   -0.3408 C   0  0  0  0  0  0  0  0  0  0  0  0
   -2.1595    6.9776   -0.9416 C   0  0  0  0  0  0  0  0  0  0  0  0
   -3.3348    8.2540   -1.0853 S   0  0  0  0  0  0  0  0  0  0  0  0
   -2.4053    5.6566   -1.4015 C   0  0  0  0  0  0  0  0  0  0  0  0
   -3.4626    5.1483   -2.1359 C   0  0  0  0  0  0  0  0  0  0  0  0
   -4.6541    5.8943   -2.5627 C   0  0  0  0  0  0  0  0  0  0  0  0
   -4.9172    6.0550   -3.9182 C   0  0  0  0  0  0  0  0  0  0  0  0
   -6.0383    6.7572   -4.3193 C   0  0  0  0  0  0  0  0  0  0  0  0
   -6.8963    7.2990   -3.3788 C   0  0  0  0  0  0  0  0  0  0  0  0
   -6.6602    7.1273   -2.0205 C   0  0  0  0  0  0  0  0  0  0  0  0
   -7.5587    7.7565   -0.9966 C   0  0  0  0  0  0  0  0  0  0  0  0
   -7.0288    9.1385   -0.6065 C   0  0  0  0  0  0  0  0  0  0  0  0
   -5.5399    6.4114   -1.6244 C   0  0  0  0  0  0  0  0  0  0  0  0
   -3.2657    3.7912   -2.4481 C   0  0  0  0  0  0  0  0  0  0  0  0
   -4.2317    2.6369   -3.3341 S   0  0  0  0  0  0  0  0  0  0  0  0
   -3.0532    1.4171   -2.9821 C   0  0  0  0  0  0  0  0  0  0  0  0
   -2.8276    0.0495   -3.2268 C   0  0  0  0  0  0  0  0  0  0  0  0
   -3.4655   -0.9121   -4.0439 C   0  0  0  0  0  0  0  0  0  0  0  0
   -2.8808   -2.2233   -4.1780 C   0  0  0  0  0  0  0  0  0  0  0  0
   -3.5445   -2.9840   -5.0335 N   0  0  0  0  0  0  0  0  0  0  0  0
   -4.7967   -2.1381   -5.6143 S   0  0  0  0  0  0  0  0  0  0  0  0
   -4.5418   -0.7637   -4.7992 N   0  0  0  0  0  0  0  0  0  0  0  0
   -1.7730   -2.5715   -3.3713 C   0  0  0  0  0  0  0  0  0  0  0  0
   -1.0894   -3.7791   -3.1356 C   0  0  0  0  0  0  0  0  0  0  0  0
   -1.0593   -5.4077   -3.7226 S   0  0  0  0  0  0  0  0  0  0  0  0
    0.1518   -5.7972   -2.5235 C   0  0  0  0  0  0  0  0  0  0  0  0
    0.8553   -6.9807   -2.2275 C   0  0  0  0  0  0  0  0  0  0  0  0
    0.7026   -8.2107   -3.0076 C   0  0  0  0  0  0  0  0  0  0  0  0
   -0.5677   -8.6856   -3.3188 C   0  0  0  0  0  0  0  0  0  0  0  0
   -0.7074   -9.8383   -4.0695 C   0  0  0  0  0  0  0  0  0  0  0  0
    0.4098  -10.5215   -4.5152 C   0  0  0  0  0  0  0  0  0  0  0  0
    1.6866  -10.0547   -4.2242 C   0  0  0  0  0  0  0  0  0  0  0  0
    2.9027  -10.7674   -4.7426 C   0  0  0  0  0  0  0  0  0  0  0  0
    3.3083  -10.2102   -6.1082 C   0  0  0  0  0  0  0  0  0  0  0  0
    1.8201   -8.8937   -3.4797 C   0  0  0  0  0  0  0  0  0  0  0  0
    1.7287   -6.7898   -1.1666 C   0  0  0  0  0  0  0  0  0  0  0  0
    1.7094   -5.1355   -0.5682 S   0  0  0  0  0  0  0  0  0  0  0  0
    0.5034   -4.7060   -1.7252 C   0  0  0  0  0  0  0  0  0  0  0  0
   -0.2008   -3.5512   -2.0788 C   0  0  0  0  0  0  0  0  0  0  0  0
   -0.2773   -2.2429   -1.6674 N   0  0  0  0  0  0  0  0  0  0  0  0
   -1.2182   -1.6258   -2.4721 C   0  0  0  0  0  0  0  0  0  0  0  0
   -1.6355   -0.2807   -2.5338 C   0  0  0  0  0  0  0  0  0  0  0  0
   -1.1045    0.8560   -1.9522 N   0  0  0  0  0  0  0  0  0  0  0  0
   -1.9749    1.8837   -2.2202 C   0  0  0  0  0  0  0  0  0  0  0  0
   -2.0902    3.2460   -1.9275 C   0  0  0  0  0  0  0  0  0  0  0  0
   -1.1767    4.4340   -1.0695 S   0  0  0  0  0  0  0  0  0  0  0  0
    0.3017    1.1156   -1.7178 C   0  0  0  0  0  0  0  0  0  0  0  0
    0.9162    1.9184   -2.8641 C   0  0  0  0  0  0  0  0  0  0  0  0
    0.0354   -1.8895   -0.2967 C   0  0  0  0  0  0  0  0  0  0  0  0
   -0.8281   -2.6769    0.6885 C   0  0  0  0  0  0  0  0  0  0  0  0
    2.5474   -7.7360   -0.4916 C   0  0  0  0  0  0  0  0  0  0  0  0
    3.8520   -7.1832    0.5285 S   0  0  0  0  0  0  0  0  0  0  0  0
    4.2622   -8.8131    0.9185 C   0  0  0  0  0  0  0  0  0  0  0  0
    5.2769   -9.3143    1.7558 C   0  0  0  0  0  0  0  0  0  0  0  0
    5.4141  -10.7018    1.8528 C   0  0  0  0  0  0  0  0  0  0  0  0
    3.9733  -11.5564    0.8098 Ge  0  0  0  0  0  4  0  0  0  0  0  0
    2.6570  -12.4459    2.0311 C   0  0  0  0  0  0  0  0  0  0  0  0
    2.2420  -11.5257    3.1694 C   0  0  0  0  0  0  0  0  0  0  0  0
    4.6204  -12.5936   -0.7838 C   0  0  0  0  0  0  0  0  0  0  0  0
    5.6554  -11.8139   -1.5799 C   0  0  0  0  0  0  0  0  0  0  0  0
    3.4228   -9.7328    0.2962 C   0  0  0  0  0  0  0  0  0  0  0  0
    2.4554   -9.1184   -0.4875 C   0  0  0  0  0  0  0  0  0  0  0  0
    6.4363  -11.0622    2.7099 C   0  0  0  0  0  0  0  0  0  0  0  0
    7.0614   -9.9817    3.3262 C   0  0  0  0  0  0  0  0  0  0  0  0
    6.3963   -8.4654    2.7428 S   0  0  0  0  0  0  0  0  0  0  0  0
    8.1047  -10.0395    4.2646 C   0  0  0  0  0  0  0  0  0  0  0  0
    8.4824   -9.0795    5.1655 C   0  0  0  0  0  0  0  0  0  0  0  0
    9.8539   -9.0728    5.7192 C   0  0  0  0  0  0  0  0  0  0  0  0
   10.6807   -9.9512    5.6319 O   0  0  0  0  0  0  0  0  0  0  0  0
   10.0031   -7.7369    6.3503 C   0  0  0  0  0  0  0  0  0  0  0  0
    8.7739   -7.0526    6.2930 C   0  0  0  0  0  0  0  0  0  0  0  0
    8.6662   -5.7642    6.7872 C   0  0  0  0  0  0  0  0  0  0  0  0
    9.7925   -5.1717    7.3398 C   0  0  0  0  0  0  0  0  0  0  0  0
   10.9982   -5.8518    7.4085 C   0  0  0  0  0  0  0  0  0  0  0  0
   12.4927   -4.9925    8.1840 Br  0  0  0  0  0  0  0  0  0  0  0  0
   11.1271   -7.1544    6.9123 C   0  0  0  0  0  0  0  0  0  0  0  0
   12.6168   -7.9943    6.9968 Cl  0  0  0  0  0  0  0  0  0  0  0  0
    7.7783   -7.9368    5.6881 C   0  0  0  0  0  0  0  0  0  0  0  0
    6.4198   -7.8262    5.8613 C   0  0  0  0  0  0  0  0  0  0  0  0
    5.5101   -8.8535    5.5382 C   0  0  0  0  0  0  0  0  0  0  0  0
    4.7420   -9.6847    5.3413 N   0  0  0  0  0  0  0  0  0  0  0  0
    5.7915   -6.7220    6.4674 C   0  0  0  0  0  0  0  0  0  0  0  0
    5.2303   -5.8362    6.9359 N   0  0  0  0  0  0  0  0  0  0  0  0
   -2.9575   14.9076    1.4485 H   0  0  0  0  0  0  0  0  0  0  0  0
  -10.4684   15.5561   -0.3337 H   0  0  0  0  0  0  0  0  0  0  0  0
   -9.7864   17.7035    0.6824 H   0  0  0  0  0  0  0  0  0  0  0  0
   -7.4770   18.0747    1.4091 H   0  0  0  0  0  0  0  0  0  0  0  0
   -0.3012    9.4680    3.2839 H   0  0  0  0  0  0  0  0  0  0  0  0
    1.2282    8.8049    2.7307 H   0  0  0  0  0  0  0  0  0  0  0  0
    0.7428   11.7409    3.4466 H   0  0  0  0  0  0  0  0  0  0  0  0
    2.2809   11.0702    2.9059 H   0  0  0  0  0  0  0  0  0  0  0  0
    1.5986   10.5724    4.4542 H   0  0  0  0  0  0  0  0  0  0  0  0
    2.1158   11.5619    0.0906 H   0  0  0  0  0  0  0  0  0  0  0  0
    1.2627   10.9195   -1.3031 H   0  0  0  0  0  0  0  0  0  0  0  0
    2.2392    8.6573   -0.8656 H   0  0  0  0  0  0  0  0  0  0  0  0
    3.5091    9.8623   -1.0910 H   0  0  0  0  0  0  0  0  0  0  0  0
    3.1038    9.2996    0.5308 H   0  0  0  0  0  0  0  0  0  0  0  0
   -1.1393   13.3645    1.5123 H   0  0  0  0  0  0  0  0  0  0  0  0
   -0.1494    6.7840   -0.1697 H   0  0  0  0  0  0  0  0  0  0  0  0
   -4.2383    5.6403   -4.6487 H   0  0  0  0  0  0  0  0  0  0  0  0
   -6.2408    6.8860   -5.3723 H   0  0  0  0  0  0  0  0  0  0  0  0
   -7.7632    7.8575   -3.7005 H   0  0  0  0  0  0  0  0  0  0  0  0
   -8.5678    7.8582   -1.4002 H   0  0  0  0  0  0  0  0  0  0  0  0
   -7.6072    7.1245   -0.1073 H   0  0  0  0  0  0  0  0  0  0  0  0
   -7.6795    9.6027    0.1298 H   0  0  0  0  0  0  0  0  0  0  0  0
   -6.9766    9.7901   -1.4745 H   0  0  0  0  0  0  0  0  0  0  0  0
   -6.0295    9.0593   -0.1849 H   0  0  0  0  0  0  0  0  0  0  0  0
   -5.3534    6.2487   -0.5718 H   0  0  0  0  0  0  0  0  0  0  0  0
   -1.4397   -8.1611   -2.9591 H   0  0  0  0  0  0  0  0  0  0  0  0
   -1.6947  -10.2067   -4.3050 H   0  0  0  0  0  0  0  0  0  0  0  0
    0.2929  -11.4252   -5.0958 H   0  0  0  0  0  0  0  0  0  0  0  0
    3.7309  -10.6422   -4.0419 H   0  0  0  0  0  0  0  0  0  0  0  0
    2.6930  -11.8348   -4.8369 H   0  0  0  0  0  0  0  0  0  0  0  0
    3.5345   -9.1491   -6.0316 H   0  0  0  0  0  0  0  0  0  0  0  0
    2.4987  -10.3357   -6.8235 H   0  0  0  0  0  0  0  0  0  0  0  0
    4.1880  -10.7272   -6.4843 H   0  0  0  0  0  0  0  0  0  0  0  0
    2.8063   -8.5098   -3.2597 H   0  0  0  0  0  0  0  0  0  0  0  0
    0.8290    0.1660   -1.6430 H   0  0  0  0  0  0  0  0  0  0  0  0
    0.4061    1.6702   -0.7795 H   0  0  0  0  0  0  0  0  0  0  0  0
    1.9812    2.0433   -2.6893 H   0  0  0  0  0  0  0  0  0  0  0  0
    0.4614    2.9019   -2.9397 H   0  0  0  0  0  0  0  0  0  0  0  0
    0.7750    1.3939   -3.8067 H   0  0  0  0  0  0  0  0  0  0  0  0
   -0.1554   -0.8287   -0.1480 H   0  0  0  0  0  0  0  0  0  0  0  0
    1.0940   -2.1008   -0.1153 H   0  0  0  0  0  0  0  0  0  0  0  0
   -0.6099   -2.3534    1.7023 H   0  0  0  0  0  0  0  0  0  0  0  0
   -1.8825   -2.5028    0.4842 H   0  0  0  0  0  0  0  0  0  0  0  0
   -0.6301   -3.7426    0.6171 H   0  0  0  0  0  0  0  0  0  0  0  0
    1.7879  -12.7459    1.4456 H   0  0  0  0  0  0  0  0  0  0  0  0
    3.1150  -13.3530    2.4242 H   0  0  0  0  0  0  0  0  0  0  0  0
    3.1030  -11.2225    3.7617 H   0  0  0  0  0  0  0  0  0  0  0  0
    1.7649  -10.6275    2.7811 H   0  0  0  0  0  0  0  0  0  0  0  0
    1.5364  -12.0308    3.8259 H   0  0  0  0  0  0  0  0  0  0  0  0
    5.0374  -13.5406   -0.4438 H   0  0  0  0  0  0  0  0  0  0  0  0
    3.7571  -12.8224   -1.4084 H   0  0  0  0  0  0  0  0  0  0  0  0
    6.5340  -11.6104   -0.9708 H   0  0  0  0  0  0  0  0  0  0  0  0
    5.9680  -12.3768   -2.4574 H   0  0  0  0  0  0  0  0  0  0  0  0
    5.2449  -10.8608   -1.9092 H   0  0  0  0  0  0  0  0  0  0  0  0
    1.6940   -9.6521   -1.0271 H   0  0  0  0  0  0  0  0  0  0  0  0
    6.7069  -12.0789    2.9371 H   0  0  0  0  0  0  0  0  0  0  0  0
    8.7329  -10.9243    4.2300 H   0  0  0  0  0  0  0  0  0  0  0  0
    7.7398   -5.2159    6.7404 H   0  0  0  0  0  0  0  0  0  0  0  0
    9.7361   -4.1656    7.7258 H   0  0  0  0  0  0  0  0  0  0  0  0
  1  2  2  0  0  0  0
  2  3  1  0  0  0  0
  3  4  2  0  0  0  0
  3  5  1  0  0  0  0
  5  6  2  0  0  0  0
  6  7  1  0  0  0  0
  6  8  1  0  0  0  0
  8  9  2  0  0  0  0
  9 10  1  0  0  0  0
 10 11  2  0  0  0  0
 11 12  1  0  0  0  0
 12 13  2  0  0  0  0
 13 14  1  0  0  0  0
 14 15  3  0  0  0  0
 13 16  1  0  0  0  0
 16 17  3  0  0  0  0
  1 18  1  0  0  0  0
 18 19  1  0  0  0  0
 19 20  1  0  0  0  0
 20 21  1  0  0  0  0
 21 22  2  0  0  0  0
 22 23  1  0  0  0  0
 23 24  1  0  0  0  0
 24 25  1  0  0  0  0
 23 26  1  0  0  0  0
 26 27  1  0  0  0  0
 23 28  1  0  0  0  0
 28 29  1  0  0  0  0
 22 30  1  0  0  0  0
 30 31  2  0  0  0  0
 31 32  1  0  0  0  0
 31 33  1  0  0  0  0
 33 34  2  0  0  0  0
 34 35  1  0  0  0  0
 35 36  2  0  0  0  0
 36 37  1  0  0  0  0
 37 38  2  0  0  0  0
 38 39  1  0  0  0  0
 39 40  1  0  0  0  0
 40 41  1  0  0  0  0
 39 42  2  0  0  0  0
 34 43  1  0  0  0  0
 43 44  1  0  0  0  0
 44 45  1  0  0  0  0
 45 46  1  0  0  0  0
 46 47  1  0  0  0  0
 47 48  1  0  0  0  0
 48 49  2  0  0  0  0
 49 50  1  0  0  0  0
 50 51  1  0  0  0  0
 48 52  1  0  0  0  0
 52 53  1  0  0  0  0
 53 54  1  0  0  0  0
 54 55  1  0  0  0  0
 55 56  1  0  0  0  0
 56 57  1  0  0  0  0
 57 58  2  0  0  0  0
 58 59  1  0  0  0  0
 59 60  2  0  0  0  0
 60 61  1  0  0  0  0
 61 62  1  0  0  0  0
 62 63  1  0  0  0  0
 61 64  2  0  0  0  0
 56 65  2  0  0  0  0
 65 66  1  0  0  0  0
 66 67  1  0  0  0  0
 67 68  1  0  0  0  0
 68 69  1  0  0  0  0
 69 70  1  0  0  0  0
 70 71  1  0  0  0  0
 71 72  1  0  0  0  0
 72 73  1  0  0  0  0
 73 74  1  0  0  0  0
 74 75  1  0  0  0  0
 72 76  1  0  0  0  0
 76 77  1  0  0  0  0
 69 78  1  0  0  0  0
 78 79  1  0  0  0  0
 65 80  1  0  0  0  0
 80 81  1  0  0  0  0
 81 82  1  0  0  0  0
 82 83  1  0  0  0  0
 83 84  2  0  0  0  0
 84 85  1  0  0  0  0
 85 86  1  0  0  0  0
 86 87  1  0  0  0  0
 85 88  1  0  0  0  0
 88 89  1  0  0  0  0
 85 90  1  0  0  0  0
 90 91  1  0  0  0  0
 84 92  1  0  0  0  0
 92 93  2  0  0  0  0
 93 94  1  0  0  0  0
 93 95  1  0  0  0  0
 95 96  2  0  0  0  0
 96 97  1  0  0  0  0
 97 98  2  0  0  0  0
 97 99  1  0  0  0  0
 99100  2  0  0  0  0
100101  1  0  0  0  0
101102  2  0  0  0  0
102103  1  0  0  0  0
103104  1  0  0  0  0
103105  2  0  0  0  0
105106  1  0  0  0  0
100107  1  0  0  0  0
107108  2  0  0  0  0
108109  1  0  0  0  0
109110  3  0  0  0  0
108111  1  0  0  0  0
111112  3  0  0  0  0
 12  2  1  0  0  0  0
 29 18  2  0  0  0  0
 75 33  1  0  0  0  0
 91 80  2  0  0  0  0
107 96  1  0  0  0  0
 11  5  1  0  0  0  0
 28 20  2  0  0  0  0
 42 35  1  0  0  0  0
 74 43  2  0  0  0  0
 90 82  2  0  0  0  0
105 99  1  0  0  0  0
 32 21  1  0  0  0  0
 73 45  2  0  0  0  0
 94 83  1  0  0  0  0
 71 46  2  0  0  0  0
 51 47  2  0  0  0  0
 70 52  2  0  0  0  0
 68 53  2  0  0  0  0
 67 55  2  0  0  0  0
 64 57  1  0  0  0  0
  1113  1  0  0  0  0
  8114  1  0  0  0  0
  9115  1  0  0  0  0
 10116  1  0  0  0  0
 24117  1  0  0  0  0
 24118  1  0  0  0  0
 25119  1  0  0  0  0
 25120  1  0  0  0  0
 25121  1  0  0  0  0
 26122  1  0  0  0  0
 26123  1  0  0  0  0
 27124  1  0  0  0  0
 27125  1  0  0  0  0
 27126  1  0  0  0  0
 29127  1  0  0  0  0
 30128  1  0  0  0  0
 36129  1  0  0  0  0
 37130  1  0  0  0  0
 38131  1  0  0  0  0
 40132  1  0  0  0  0
 40133  1  0  0  0  0
 41134  1  0  0  0  0
 41135  1  0  0  0  0
 41136  1  0  0  0  0
 42137  1  0  0  0  0
 58138  1  0  0  0  0
 59139  1  0  0  0  0
 60140  1  0  0  0  0
 62141  1  0  0  0  0
 62142  1  0  0  0  0
 63143  1  0  0  0  0
 63144  1  0  0  0  0
 63145  1  0  0  0  0
 64146  1  0  0  0  0
 76147  1  0  0  0  0
 76148  1  0  0  0  0
 77149  1  0  0  0  0
 77150  1  0  0  0  0
 77151  1  0  0  0  0
 78152  1  0  0  0  0
 78153  1  0  0  0  0
 79154  1  0  0  0  0
 79155  1  0  0  0  0
 79156  1  0  0  0  0
 86157  1  0  0  0  0
 86158  1  0  0  0  0
 87159  1  0  0  0  0
 87160  1  0  0  0  0
 87161  1  0  0  0  0
 88162  1  0  0  0  0
 88163  1  0  0  0  0
 89164  1  0  0  0  0
 89165  1  0  0  0  0
 89166  1  0  0  0  0
 91167  1  0  0  0  0
 92168  1  0  0  0  0
 95169  1  0  0  0  0
101170  1  0  0  0  0
102171  1  0  0  0  0
M  END
