169

C          0.64910       -1.11700       10.82710
C          0.90490        0.15640       11.23370
C          1.86740        1.06740       10.55590
O          2.58440        0.82300        9.61280
C          1.89410        2.28820       11.39320
C          2.59650        3.46880       11.23150
F          3.36750        3.66890       10.15520
C          2.49630        4.47710       12.18100
C          1.69950        4.28600       13.29680
C          0.98560        3.10930       13.48440
C          1.08070        2.11110       12.52770
C          0.44350        0.79720       12.44670
C         -0.49550        0.31160       13.31760
C         -0.93630        0.98830       14.47440
N         -1.33390        1.48260       15.43100
C         -1.17720       -0.91610       13.17030
N         -1.79450       -1.88220       13.11310
C          0.90890       -1.59710        9.50590
C          1.25160       -2.92270        9.26210
F          1.36350       -3.76540       10.30020
C          1.53470       -3.41380        7.98940
F          1.80460       -4.72550        7.88390
C          1.50180       -2.59670        6.86090
C          0.99740       -1.27420        7.06770
N          0.78670       -0.50260        5.99740
C          0.32140        0.71450        6.13550
C          0.07640        1.46850        4.86450
C         -1.26940        1.04860        4.26750
C         -0.00790        1.19870        7.43010
N          0.17780        0.44910        8.48900
C          0.71010       -0.77350        8.35820
C         -0.55040        2.57110        7.68540
C          0.59930        3.58060        7.75430
C          1.87270       -3.00020        5.54320
C          2.74220       -4.01200        5.14140
C          3.69540       -4.70630        6.00330
C          3.92920       -6.06920        5.84860
C          4.85320       -6.70340        6.65700
C          5.55150       -5.98940        7.61390
C          5.34110       -4.62400        7.77260
C          6.13330       -3.84000        8.77890
C          7.48490       -3.42790        8.19270
C          4.41790       -3.99190        6.95710
C          2.70200       -4.18750        3.74900
S          3.54820       -5.27220        2.66740
C          2.74340       -4.52700        1.33020
C          2.66280       -4.64990       -0.06740
C          3.17970       -5.59190       -0.98650
C          2.77380       -5.52310       -2.36680
N          3.27490       -6.51310       -3.08760
S          4.18310       -7.44520       -2.12560
N          3.97160       -6.62460       -0.74680
C          1.98870       -4.43040       -2.80150
C          1.55130       -4.00450       -4.06750
S          1.55250       -4.55400       -5.70800
C          0.72300       -3.08650       -6.17480
C          0.28420       -2.59400       -7.41460
C          0.57690       -3.23560       -8.69410
C          0.43090       -4.61040       -8.85400
C          0.70310       -5.19020      -10.07770
C          1.11790       -4.41280      -11.14530
C          1.29140       -3.04240      -10.99720
C          1.69830       -2.17600      -12.15500
C          0.50380       -1.36580      -12.66360
C          1.03080       -2.46830       -9.76340
C         -0.33670       -1.35720       -7.26850
S         -0.26930       -0.75270       -5.62450
C          0.47210       -2.22420       -5.10130
C          0.94930       -2.75070       -3.89770
N          0.97750       -2.38920       -2.57290
C          1.58150       -3.42530       -1.88470
C          1.77840       -3.62750       -0.50310
N          1.28170       -2.94720        0.59320
C          1.87770       -3.49040        1.70540
C          1.84550       -3.29970        3.08900
S          1.11300       -2.18150        4.18910
C         -0.01530       -2.30890        0.69740
C         -1.04310       -3.24120        1.33820
C          0.97030       -0.99150       -2.19120
C          2.09190       -0.21910       -2.88550
C         -1.03270       -0.57290       -8.24100
C         -1.71420       -1.09270       -9.33930
F         -1.82710       -2.41900       -9.51640
C         -2.37790       -0.27320      -10.25040
F         -3.03140       -0.86040      -11.26490
C         -2.46270        1.10610      -10.10780
C         -1.77750        1.67590       -8.99550
N         -1.69550        3.00750       -8.86150
C         -1.14740        3.52230       -7.79290
C         -1.02880        5.01470       -7.71440
C         -1.62510        5.71700       -8.92670
C         -0.65010        2.67300       -6.76000
N         -0.60000        1.38130       -6.95320
C         -1.12510        0.84140       -8.06080
C         -0.18030        3.17130       -5.43010
C         -1.37010        3.25520       -4.47000
C         -3.16680        1.92200      -11.04950
C         -3.87500        3.02960      -10.70180
C         -4.38300        3.29300       -9.32630
O         -4.28700        2.58760       -8.34910
C         -5.18780        4.53020       -9.44670
C         -5.87090        5.24870       -8.48180
F         -5.81420        4.89520       -7.19230
C         -6.61090        6.36810       -8.83990
C         -6.66810        6.75190      -10.16900
C         -5.98600        6.05170      -11.15590
C         -5.23980        4.94220      -10.79160
C         -4.40910        4.04120      -11.58910
C         -4.10670        4.19810      -12.91540
C         -3.20490        3.38510      -13.63620
N         -2.46540        2.79060      -14.28220
C         -4.62780        5.21980      -13.73680
N         -5.01950        6.02240      -14.45800
H          0.21940       -1.83110       11.51820
H          3.04560        5.39380       12.03540
H          1.63140        5.06820       14.03700
H          0.37720        2.98760       14.36490
H          0.86960        1.21140        4.16150
H          0.08990        2.54300        5.03810
H         -1.26770       -0.02130        4.07470
H         -1.44590        1.57490        3.33280
H         -2.08360        1.27570        4.95240
H         -1.06820        2.55220        8.64560
H         -1.25850        2.86030        6.90810
H          1.33820        3.25400        8.48000
H          0.22330        4.55690        8.04980
H          1.09650        3.67650        6.79200
H          3.36750       -6.63110        5.11840
H          5.02460       -7.76340        6.54350
H          6.26560       -6.49390        8.24860
H          6.29750       -4.44780        9.67100
H          5.57970       -2.94570        9.07190
H          8.06020       -2.86450        8.92360
H          8.05630       -4.30670        7.90230
H          7.34080       -2.80710        7.31110
H          4.25720       -2.92680        7.05840
H          0.07860       -5.21210       -8.03050
H          0.57960       -6.25540      -10.20420
H          1.31110       -4.87360      -12.10320
H          2.08400       -2.79810      -12.96430
H          2.49090       -1.49070      -11.84430
H          0.78210       -0.78230      -13.53790
H          0.14980       -0.68240      -11.89390
H         -0.31510       -2.02840      -12.93390
H          1.18360       -1.40580       -9.62690
H          0.08930       -1.40250        1.30260
H         -0.36560       -2.04840       -0.29950
H         -1.11830       -4.16470        0.76830
H         -2.01550       -2.75670        1.34750
H         -0.76710       -3.48210        2.36050
H          1.11970       -0.91700       -1.11560
H          0.00200       -0.55850       -2.46210
H          1.95070       -0.21020       -3.96220
H          2.09830        0.80730       -2.52870
H          3.05470       -0.67310       -2.66100
H         -1.52760        5.35980       -6.80500
H          0.03140        5.27150       -7.62290
H         -1.46870        6.79030       -8.85320
H         -2.69240        5.52250       -8.98570
H         -1.16330        5.35310       -9.84040
H          0.29180        4.14910       -5.52790
H          0.54590        2.45950       -5.03610
H         -1.04750        3.63650       -3.50460
H         -2.14200        3.91200       -4.86400
H         -1.80200        2.26730       -4.33210
H         -3.11370        1.61230      -12.08560
H         -7.13410        6.92030       -8.07520
H         -7.25330        7.61590      -10.44370
H         -6.04950        6.37360      -12.18180
