213

C          4.72820        6.26190      -11.53870
C          5.76480        7.14190      -11.40560
C          6.89370        7.07720      -10.44340
O          7.05200        6.31060       -9.52080
C          7.82090        8.15230      -10.85560
C          9.05090        8.51440      -10.33500
F          9.57510        7.86600       -9.29170
C          9.76030        9.56750      -10.89860
C          9.22940       10.24560      -11.98220
C          7.99510        9.90260      -12.52000
C          7.28860        8.85490      -11.95130
C          5.98430        8.28060      -12.28150
C          5.11590        8.79210      -13.20890
C          3.81440        8.31630      -13.48240
N          2.74130        8.01910      -13.76270
C          5.38600        9.91920      -14.01530
N          5.53710       10.82350      -14.70580
C          4.35350        5.14370      -10.76100
C          4.78930        4.59080       -9.57270
C          3.95360        3.48870       -9.30050
C          3.89870        2.56960       -8.23310
C          4.86730        2.53450       -7.13720
C          6.22360        2.75050       -7.37390
C          7.11780        2.66950       -6.32600
F          8.42560        2.85650       -6.58690
C          6.74120        2.38210       -5.01730
C          7.73550        2.33860       -3.89590
C          8.00440        3.74850       -3.36380
C          5.38030        2.17660       -4.82300
F          4.94040        1.88840       -3.57840
C          4.45110        2.23880       -5.84050
C          2.84090        1.68040       -8.31600
C          1.91340        1.62600       -9.39460
C          1.99330        2.51340      -10.48060
C          1.07500        2.44330      -11.61820
C          0.67430        1.20530      -12.11810
C         -0.21190        1.15010      -13.17330
C         -0.73930        2.28010      -13.78790
C         -1.74260        2.19230      -14.89870
C         -3.16060        2.09510      -14.33010
C         -0.30410        3.49600      -13.27020
C          0.58500        3.60000      -12.21930
F         -0.77870        4.63040      -13.81900
F         -0.57840       -0.06640      -13.63180
C          3.01290        3.45130      -10.37140
O          3.27610        4.44130      -11.24440
C          1.00400        0.59340       -9.05570
C          1.42340        0.08080       -7.85420
O          2.53560        0.72800       -7.40520
C          0.87650       -0.90250       -6.98320
C         -0.14120       -1.81870       -7.18600
C         -0.78890       -2.10140       -8.46740
C         -0.03590       -2.28970       -9.62480
C         -0.66950       -2.56100      -10.82190
C         -2.05010       -2.65730      -10.87580
C         -2.81480       -2.49190       -9.72860
C         -4.30590       -2.66200       -9.75760
C         -4.68370       -4.07510       -9.30860
C         -2.17280       -2.21580       -8.52990
C         -0.46840       -2.47230       -5.98130
S         -1.66360       -3.68200       -5.57390
C         -1.13890       -3.61590       -3.92500
C         -1.51270       -4.11830       -2.66710
C         -2.62710       -4.88140       -2.24920
C         -2.91710       -4.98570       -0.84380
N         -4.04190       -5.64240       -0.60910
S         -4.67610       -6.10170       -2.02570
N         -3.54510       -5.47180       -2.99750
C         -2.00500       -4.43960        0.08640
C         -1.99610       -4.36500        1.49140
S         -3.05270       -4.68160        2.82490
C         -1.87050       -3.97920        3.90230
C         -1.87640       -3.71240        5.28570
C         -2.95680       -4.10190        6.19170
C         -2.67380       -4.71560        7.41020
C         -3.70660       -5.10530        8.23830
C         -5.02270       -4.90730        7.85550
C         -5.32410       -4.30480        6.64190
C         -6.74230       -4.13260        6.18280
C         -7.09890       -5.19420        5.14080
C         -4.28080       -3.90210        5.82040
C         -0.71100       -3.06940        5.66780
S          0.41650       -2.84330        4.34360
C         -0.70650       -3.56800        3.24760
C         -0.77900       -3.78610        1.86750
N         -0.03020       -3.50150        0.75280
C         -0.79420       -3.84060       -0.34950
C         -0.62030       -3.54430       -1.72180
N          0.25100       -2.69320       -2.38110
C         -0.07970       -2.72850       -3.71060
C          0.30330       -2.07300       -4.88640
S          1.46350       -0.87540       -5.32980
C          0.98820       -1.56030       -1.85710
C          0.08300       -0.59870       -1.09350
C          1.41560       -3.45550        0.80630
C          1.98980       -4.64970        1.56690
C         -0.42270       -2.43930        6.91290
C          0.74680       -1.89700        7.38350
C          0.44050       -1.28990        8.62810
C          1.19270       -0.54280        9.54870
C          2.63270       -0.32000        9.41120
C          3.19480        0.91660        9.71860
C          4.55610        1.09750        9.58360
F          5.07130        2.30730        9.88070
C          5.42400        0.09580        9.16060
C          6.89580        0.32810        8.99170
C          7.20230        0.82100        7.57530
C          4.82440       -1.12410        8.86860
F          5.60610       -2.14570        8.45760
C          3.46830       -1.35010        8.98490
C          0.44660       -0.01800       10.59720
C         -0.94590       -0.24880       10.78420
C         -1.69110       -1.03900        9.88740
C         -3.12210       -1.29870       10.04240
C         -3.67190       -1.52120       11.30320
C         -5.03070       -1.72410       11.42940
C         -5.90900       -1.71720       10.35180
C         -7.38400       -1.93040       10.51930
C         -7.73320       -3.41740       10.43650
C         -5.31740       -1.52670        9.10740
C         -3.96460       -1.32170        8.93290
F         -6.10930       -1.51510        8.01680
F         -5.52950       -1.92460       12.66820
C         -0.95440       -1.50760        8.81250
O         -1.44930       -2.22220        7.77880
C         -1.29960        0.52740       11.90850
C         -0.14890        1.14910       12.34680
O          0.91410        0.78640       11.57330
C          0.10840        1.99850       13.45060
C         -0.76170        2.72870       14.19870
C         -0.32240        3.21230       15.54210
O          0.80580        3.21790       15.96670
C         -1.56970        3.62470       16.22230
C         -1.79210        4.04500       17.52170
F         -0.78430        4.15860       18.38990
C         -3.08040        4.35460       17.94140
C         -4.13760        4.23270       17.05640
C         -3.94050        3.82030       15.74420
C         -2.65370        3.52400       15.32820
C         -2.14270        3.11380       14.01850
C         -2.78940        3.32050       12.82820
C         -2.17940        3.18400       11.56460
N         -1.72450        3.12610       10.51250
C         -4.11740        3.78300       12.71840
N         -5.19870        4.13620       12.56640
H          4.05960        6.40650      -12.37910
H         10.71720        9.83970      -10.48200
H          9.78600       11.06010      -12.41930
H          7.61150       10.44830      -13.36520
H          5.59570        4.96030       -8.97540
H          6.59480        2.95180       -8.36510
H          7.34870        1.71190       -3.09100
H          8.67020        1.90790       -4.25960
H          8.72620        3.70860       -2.55220
H          8.40380        4.38120       -4.15280
H          7.08540        4.19520       -2.99040
H          3.41240        2.06590       -5.61330
H          1.06340        0.28680      -11.71070
H         -1.53490        1.30920      -15.50530
H         -1.66420        3.07910      -15.52910
H         -3.25860        1.21070      -13.70420
H         -3.88300        2.03020      -15.13940
H         -3.38920        2.97320      -13.73030
H          0.87520        4.57710      -11.87020
H          0.13170        0.29220       -9.59520
H          1.04150       -2.23360       -9.57490
H         -0.08750       -2.69960      -11.72080
H         -2.53530       -2.86530      -11.81800
H         -4.68070       -2.48970      -10.76810
H         -4.77430       -1.93620       -9.08940
H         -4.32820       -4.25930       -8.29730
H         -5.76320       -4.20370       -9.32750
H         -4.23400       -4.81340       -9.96870
H         -2.75880       -2.07080       -7.63410
H         -1.64850       -4.90210        7.69340
H         -3.48690       -5.57890        9.18400
H         -5.82120       -5.23480        8.50540
H         -7.42270       -4.21710        7.03180
H         -6.86740       -3.13940        5.74800
H         -6.44070       -5.11910        4.27840
H         -8.12590       -5.06710        4.80670
H         -6.99280       -6.19050        5.56490
H         -4.50310       -3.41450        4.88250
H          1.81650       -1.88030       -1.22460
H          1.41940       -1.04730       -2.71970
H         -0.73110       -0.26230       -1.73150
H         -0.34160       -1.07620       -0.21440
H          0.65780        0.26720       -0.77740
H          1.78870       -3.49860       -0.21530
H          1.73420       -2.52250        1.28310
H          1.63450       -5.58030        1.12960
H          3.07430       -4.62700        1.50540
H          1.70610       -4.62400        2.61460
H          1.69040       -1.91070        6.87830
H          2.58220        1.73960       10.04710
H          7.43280       -0.60390        9.17510
H          7.22900        1.07440        9.71440
H          6.88700        0.08380        6.84030
H          8.27020        0.98860        7.46270
H          6.68150        1.75520        7.37800
H          3.07710       -2.33150        8.77200
H         -3.05020       -1.56410       12.18270
H         -7.69580       -1.53910       11.48910
H         -7.91620       -1.39020        9.73480
H         -8.80180       -3.55810       10.57660
H         -7.45420       -3.81250        9.46300
H         -7.20470       -3.97580       11.20600
H         -3.58230       -1.16310        7.93900
H         -2.27080        0.61370       12.35040
H          1.14220        2.02090       13.78160
H         -3.23640        4.68410       18.95640
H         -5.13650        4.46520       17.39170
H         -4.78130        3.72740       15.07690
