169

C          3.63830       -7.46170       -8.08210
C          3.25750       -7.27130       -9.36880
C          2.45940       -6.09760       -9.83640
O          1.67380       -5.44080       -9.19370
C          2.63560       -6.08870      -11.30700
C          2.27720       -5.14640      -12.25230
F          1.74440       -3.97310      -11.88560
C          2.50080       -5.39130      -13.60050
C          3.07570       -6.58970      -13.99000
C          3.44980       -7.55040      -13.06000
C          3.23260       -7.29660      -11.71390
C          3.55050       -8.09400      -10.52780
C          4.05040       -9.36660      -10.52980
C          4.31580      -10.11740      -11.69520
N          4.55330      -10.77900      -12.60240
C          4.34420      -10.11820       -9.37050
N          4.60890      -10.78770       -8.47680
C          3.59690       -6.40470       -7.11070
C          3.41560       -6.64370       -5.75680
F          3.19800       -7.89760       -5.33470
C          3.43340       -5.61900       -4.80620
F          3.27320       -5.95130       -3.51170
C          3.63220       -4.29270       -5.15590
C          3.76880       -4.01030       -6.54680
N          3.72770       -2.74210       -6.97570
C          3.91280       -2.46630       -8.23680
C          3.70080       -1.04990       -8.67190
C          2.71290       -0.32100       -7.76800
C          4.30890       -3.50910       -9.13210
N          4.20380       -4.75420       -8.75400
C          3.84230       -5.05410       -7.49590
C          4.85700       -3.25620      -10.50130
C          6.25180       -2.63190      -10.43840
C          3.67230       -3.21310       -4.20520
C          4.49430       -2.09920       -4.26220
C          5.60260       -1.95820       -5.20560
C          5.86560       -0.73910       -5.82310
C          6.88070       -0.64810       -6.75590
C          7.64130       -1.75930       -7.07840
C          7.42210       -2.97370       -6.44010
C          8.25670       -4.18400       -6.75640
C          7.41970       -5.33170       -7.32290
C          6.41020       -3.05390       -5.49620
C          4.16440       -1.17560       -3.25400
S          4.79630        0.39830       -2.83210
C          3.63110        0.49840       -1.55670
C          3.16660        1.43120       -0.61660
C          3.48170        2.79390       -0.41740
C          2.65380        3.57880        0.45610
N          3.01090        4.85310        0.47980
S          4.28260        5.04880       -0.50300
N          4.42410        3.51530       -1.00300
C          1.63230        2.93700        1.19020
C          0.70670        3.41710        2.13290
S          0.19110        4.91440        2.82990
C         -0.98900        4.04870        3.79100
C         -2.00070        4.46360        4.68810
C         -2.31680        5.86980        4.92770
C         -3.63210        6.29800        5.09920
C         -3.91200        7.64460        5.22700
C         -2.89770        8.58390        5.14460
C         -1.58200        8.18070        4.95070
C         -0.47370        9.18760        4.82320
C          0.15020        9.51700        6.17960
C         -1.30450        6.82470        4.87230
C         -2.72050        3.37450        5.14870
S         -2.17060        1.85310        4.47300
C         -0.95520        2.67070        3.56980
C          0.00970        2.31080        2.62140
N          0.45090        1.16420        2.01160
C          1.42510        1.53270        1.09860
C          2.10010        0.80460        0.08680
N          1.90100       -0.45410       -0.44640
C          2.82180       -0.63650       -1.44340
C          3.11970       -1.59300       -2.42260
S          2.53120       -3.14870       -2.88230
C          0.76890       -1.34660       -0.33110
C          1.14370       -2.66840        0.34000
C          0.30150       -0.09770        2.70450
C          1.02500       -0.07710        4.05130
C         -3.80180        3.31560        6.10280
C         -4.91070        2.51210        5.88240
F         -5.03290        1.84880        4.71850
C         -5.95520        2.39560        6.80230
F         -7.03260        1.69220        6.43360
C         -5.93420        3.06250        8.01610
C         -4.82020        3.91370        8.26620
N         -4.75910        4.55810        9.44340
C         -3.72150        5.31240        9.70860
C         -3.69420        5.91890       11.07830
C         -3.02810        4.94790       12.05770
C         -2.66690        5.45210        8.76040
N         -2.70530        4.81510        7.61640
C         -3.76370        4.03830        7.33180
C         -1.48820        6.34610        8.98670
C         -1.86360        7.79970        8.68910
C         -6.98890        2.97570        8.99090
C         -7.64600        1.83880        9.32630
C         -7.16880        0.46220        8.99870
O         -6.16320        0.15200        8.40280
C         -8.11350       -0.44750        9.67270
C         -8.12460       -1.83020        9.67480
C         -9.11390       -2.48460       10.38950
C        -10.06150       -1.74770       11.09310
Cl       -11.27910       -2.58010       11.98180
C        -10.05830       -0.35670       11.10440
C         -9.07230        0.29660       10.38260
C         -8.80930        1.72110       10.19020
C         -9.56460        2.74890       10.68330
C         -9.32760        4.12070       10.44520
N         -9.21500        5.25310       10.29510
C        -10.70290        2.57790       11.50140
N        -11.63040        2.51030       12.17380
H          4.05750       -8.40480       -7.75760
H          2.22100       -4.64390      -14.32610
H          3.24040       -6.77890      -15.03930
H          3.90220       -8.46960      -13.39260
H          3.34640       -1.03670       -9.70410
H          4.66510       -0.53370       -8.64080
H          1.74100       -0.80570       -7.80880
H          2.60330        0.71210       -8.08780
H          3.06210       -0.34270       -6.74070
H          4.91120       -4.21230      -11.02560
H          4.18320       -2.59580      -11.05100
H          6.94110       -3.29990       -9.92760
H          6.62390       -2.45510      -11.44440
H          6.23360       -1.68690       -9.90260
H          5.26450        0.12500       -5.58710
H          7.08030        0.29740       -7.23970
H          8.42370       -1.67870       -7.81970
H          8.75200       -4.52620       -5.84380
H          9.03220       -3.91290       -7.47560
H          6.68750       -5.67540       -6.59570
H          8.06020       -6.17050       -7.58520
H          6.88210       -5.01580       -8.21480
H          6.24850       -3.98350       -4.96940
H         -4.43820        5.57980        5.10310
H         -4.93350        7.96720        5.36640
H         -3.13130        9.63660        5.21490
H          0.29840        8.78980        4.16180
H         -0.86480       10.10440        4.37780
H          0.97070       10.21990        6.05600
H         -0.59020        9.96270        6.83990
H          0.53450        8.61400        6.64800
H         -0.27890        6.50850        4.75710
H         -0.03490       -0.83410        0.19800
H          0.41240       -1.56240       -1.34480
H          1.65670       -2.50930        1.28610
H          0.24740       -3.25490        0.52060
H          1.80420       -3.24240       -0.30390
H         -0.76650       -0.28030        2.86020
H          0.72150       -0.89420        2.10190
H          0.60670        0.68020        4.70830
H          0.92220       -1.04540        4.53330
H          2.08310        0.13260        3.90690
H         -4.72430        6.08810       11.39360
H         -3.16070        6.86770       11.08010
H         -2.00110        4.74100       11.76330
H         -3.02360        5.37230       13.05830
H         -3.57480        4.00850       12.07920
H         -0.69520        6.03620        8.30570
H         -1.13200        6.25520       10.01350
H         -2.14990        7.89990        7.64580
H         -1.01400        8.44820        8.88600
H         -2.69820        8.12690        9.30490
H         -7.20750        3.90460        9.50020
H         -7.37670       -2.37690        9.12190
H         -9.15840       -3.56210       10.40740
H        -10.80800        0.17570       11.66590
