
  xtb     02052213453D
 energy: -304.656227665021 gnorm: 0.000904343511 xtb: 6.4.1 (unknown)
169186  0     0  0            999 V2000
    3.6383   -7.4617   -8.0821 C   0  0  0  0  0  0  0  0  0  0  0  0
    3.2575   -7.2713   -9.3688 C   0  0  0  0  0  0  0  0  0  0  0  0
    2.4594   -6.0976   -9.8364 C   0  0  0  0  0  0  0  0  0  0  0  0
    1.6738   -5.4408   -9.1937 O   0  0  0  0  0  0  0  0  0  0  0  0
    2.6356   -6.0887  -11.3070 C   0  0  0  0  0  0  0  0  0  0  0  0
    2.2772   -5.1464  -12.2523 C   0  0  0  0  0  0  0  0  0  0  0  0
    1.7444   -3.9731  -11.8856 F   0  0  0  0  0  0  0  0  0  0  0  0
    2.5008   -5.3913  -13.6005 C   0  0  0  0  0  0  0  0  0  0  0  0
    3.0757   -6.5897  -13.9900 C   0  0  0  0  0  0  0  0  0  0  0  0
    3.4498   -7.5504  -13.0600 C   0  0  0  0  0  0  0  0  0  0  0  0
    3.2326   -7.2966  -11.7139 C   0  0  0  0  0  0  0  0  0  0  0  0
    3.5505   -8.0940  -10.5278 C   0  0  0  0  0  0  0  0  0  0  0  0
    4.0504   -9.3666  -10.5298 C   0  0  0  0  0  0  0  0  0  0  0  0
    4.3158  -10.1174  -11.6952 C   0  0  0  0  0  0  0  0  0  0  0  0
    4.5533  -10.7790  -12.6024 N   0  0  0  0  0  0  0  0  0  0  0  0
    4.3442  -10.1182   -9.3705 C   0  0  0  0  0  0  0  0  0  0  0  0
    4.6089  -10.7877   -8.4768 N   0  0  0  0  0  0  0  0  0  0  0  0
    3.5969   -6.4047   -7.1107 C   0  0  0  0  0  0  0  0  0  0  0  0
    3.4156   -6.6437   -5.7568 C   0  0  0  0  0  0  0  0  0  0  0  0
    3.1980   -7.8976   -5.3347 F   0  0  0  0  0  0  0  0  0  0  0  0
    3.4334   -5.6190   -4.8062 C   0  0  0  0  0  0  0  0  0  0  0  0
    3.2732   -5.9513   -3.5117 F   0  0  0  0  0  0  0  0  0  0  0  0
    3.6322   -4.2927   -5.1559 C   0  0  0  0  0  0  0  0  0  0  0  0
    3.7688   -4.0103   -6.5468 C   0  0  0  0  0  0  0  0  0  0  0  0
    3.7277   -2.7421   -6.9757 N   0  0  0  0  0  0  0  0  0  0  0  0
    3.9128   -2.4663   -8.2368 C   0  0  0  0  0  0  0  0  0  0  0  0
    3.7008   -1.0499   -8.6719 C   0  0  0  0  0  0  0  0  0  0  0  0
    2.7129   -0.3210   -7.7680 C   0  0  0  0  0  0  0  0  0  0  0  0
    4.3089   -3.5091   -9.1321 C   0  0  0  0  0  0  0  0  0  0  0  0
    4.2038   -4.7542   -8.7540 N   0  0  0  0  0  0  0  0  0  0  0  0
    3.8423   -5.0541   -7.4959 C   0  0  0  0  0  0  0  0  0  0  0  0
    4.8570   -3.2562  -10.5013 C   0  0  0  0  0  0  0  0  0  0  0  0
    6.2518   -2.6319  -10.4384 C   0  0  0  0  0  0  0  0  0  0  0  0
    3.6723   -3.2131   -4.2052 C   0  0  0  0  0  0  0  0  0  0  0  0
    4.4943   -2.0992   -4.2622 C   0  0  0  0  0  0  0  0  0  0  0  0
    5.6026   -1.9582   -5.2056 C   0  0  0  0  0  0  0  0  0  0  0  0
    5.8656   -0.7391   -5.8231 C   0  0  0  0  0  0  0  0  0  0  0  0
    6.8807   -0.6481   -6.7559 C   0  0  0  0  0  0  0  0  0  0  0  0
    7.6413   -1.7593   -7.0784 C   0  0  0  0  0  0  0  0  0  0  0  0
    7.4221   -2.9737   -6.4401 C   0  0  0  0  0  0  0  0  0  0  0  0
    8.2567   -4.1840   -6.7564 C   0  0  0  0  0  0  0  0  0  0  0  0
    7.4197   -5.3317   -7.3229 C   0  0  0  0  0  0  0  0  0  0  0  0
    6.4102   -3.0539   -5.4962 C   0  0  0  0  0  0  0  0  0  0  0  0
    4.1644   -1.1756   -3.2540 C   0  0  0  0  0  0  0  0  0  0  0  0
    4.7963    0.3983   -2.8321 S   0  0  0  0  0  0  0  0  0  0  0  0
    3.6311    0.4984   -1.5567 C   0  0  0  0  0  0  0  0  0  0  0  0
    3.1666    1.4312   -0.6166 C   0  0  0  0  0  0  0  0  0  0  0  0
    3.4817    2.7939   -0.4174 C   0  0  0  0  0  0  0  0  0  0  0  0
    2.6538    3.5788    0.4561 C   0  0  0  0  0  0  0  0  0  0  0  0
    3.0109    4.8531    0.4798 N   0  0  0  0  0  0  0  0  0  0  0  0
    4.2826    5.0488   -0.5030 S   0  0  0  0  0  0  0  0  0  0  0  0
    4.4241    3.5153   -1.0030 N   0  0  0  0  0  0  0  0  0  0  0  0
    1.6323    2.9370    1.1902 C   0  0  0  0  0  0  0  0  0  0  0  0
    0.7067    3.4171    2.1329 C   0  0  0  0  0  0  0  0  0  0  0  0
    0.1911    4.9144    2.8299 S   0  0  0  0  0  0  0  0  0  0  0  0
   -0.9890    4.0487    3.7910 C   0  0  0  0  0  0  0  0  0  0  0  0
   -2.0007    4.4636    4.6881 C   0  0  0  0  0  0  0  0  0  0  0  0
   -2.3168    5.8698    4.9277 C   0  0  0  0  0  0  0  0  0  0  0  0
   -3.6321    6.2980    5.0992 C   0  0  0  0  0  0  0  0  0  0  0  0
   -3.9120    7.6446    5.2270 C   0  0  0  0  0  0  0  0  0  0  0  0
   -2.8977    8.5839    5.1446 C   0  0  0  0  0  0  0  0  0  0  0  0
   -1.5820    8.1807    4.9507 C   0  0  0  0  0  0  0  0  0  0  0  0
   -0.4737    9.1876    4.8232 C   0  0  0  0  0  0  0  0  0  0  0  0
    0.1502    9.5170    6.1796 C   0  0  0  0  0  0  0  0  0  0  0  0
   -1.3045    6.8247    4.8723 C   0  0  0  0  0  0  0  0  0  0  0  0
   -2.7205    3.3745    5.1487 C   0  0  0  0  0  0  0  0  0  0  0  0
   -2.1706    1.8531    4.4730 S   0  0  0  0  0  0  0  0  0  0  0  0
   -0.9552    2.6707    3.5698 C   0  0  0  0  0  0  0  0  0  0  0  0
    0.0097    2.3108    2.6214 C   0  0  0  0  0  0  0  0  0  0  0  0
    0.4509    1.1642    2.0116 N   0  0  0  0  0  0  0  0  0  0  0  0
    1.4251    1.5327    1.0986 C   0  0  0  0  0  0  0  0  0  0  0  0
    2.1001    0.8046    0.0868 C   0  0  0  0  0  0  0  0  0  0  0  0
    1.9010   -0.4541   -0.4464 N   0  0  0  0  0  0  0  0  0  0  0  0
    2.8218   -0.6365   -1.4434 C   0  0  0  0  0  0  0  0  0  0  0  0
    3.1197   -1.5930   -2.4226 C   0  0  0  0  0  0  0  0  0  0  0  0
    2.5312   -3.1487   -2.8823 S   0  0  0  0  0  0  0  0  0  0  0  0
    0.7689   -1.3466   -0.3311 C   0  0  0  0  0  0  0  0  0  0  0  0
    1.1437   -2.6684    0.3400 C   0  0  0  0  0  0  0  0  0  0  0  0
    0.3015   -0.0977    2.7045 C   0  0  0  0  0  0  0  0  0  0  0  0
    1.0250   -0.0771    4.0513 C   0  0  0  0  0  0  0  0  0  0  0  0
   -3.8018    3.3156    6.1028 C   0  0  0  0  0  0  0  0  0  0  0  0
   -4.9107    2.5121    5.8824 C   0  0  0  0  0  0  0  0  0  0  0  0
   -5.0329    1.8488    4.7185 F   0  0  0  0  0  0  0  0  0  0  0  0
   -5.9552    2.3956    6.8023 C   0  0  0  0  0  0  0  0  0  0  0  0
   -7.0326    1.6922    6.4336 F   0  0  0  0  0  0  0  0  0  0  0  0
   -5.9342    3.0625    8.0161 C   0  0  0  0  0  0  0  0  0  0  0  0
   -4.8202    3.9137    8.2662 C   0  0  0  0  0  0  0  0  0  0  0  0
   -4.7591    4.5581    9.4434 N   0  0  0  0  0  0  0  0  0  0  0  0
   -3.7215    5.3124    9.7086 C   0  0  0  0  0  0  0  0  0  0  0  0
   -3.6942    5.9189   11.0783 C   0  0  0  0  0  0  0  0  0  0  0  0
   -3.0281    4.9479   12.0577 C   0  0  0  0  0  0  0  0  0  0  0  0
   -2.6669    5.4521    8.7604 C   0  0  0  0  0  0  0  0  0  0  0  0
   -2.7053    4.8151    7.6164 N   0  0  0  0  0  0  0  0  0  0  0  0
   -3.7637    4.0383    7.3318 C   0  0  0  0  0  0  0  0  0  0  0  0
   -1.4882    6.3461    8.9867 C   0  0  0  0  0  0  0  0  0  0  0  0
   -1.8636    7.7997    8.6891 C   0  0  0  0  0  0  0  0  0  0  0  0
   -6.9889    2.9757    8.9909 C   0  0  0  0  0  0  0  0  0  0  0  0
   -7.6460    1.8388    9.3263 C   0  0  0  0  0  0  0  0  0  0  0  0
   -7.1688    0.4622    8.9987 C   0  0  0  0  0  0  0  0  0  0  0  0
   -6.1632    0.1520    8.4028 O   0  0  0  0  0  0  0  0  0  0  0  0
   -8.1135   -0.4475    9.6727 C   0  0  0  0  0  0  0  0  0  0  0  0
   -8.1246   -1.8302    9.6748 C   0  0  0  0  0  0  0  0  0  0  0  0
   -9.1139   -2.4846   10.3895 C   0  0  0  0  0  0  0  0  0  0  0  0
  -10.0615   -1.7477   11.0931 C   0  0  0  0  0  0  0  0  0  0  0  0
  -11.2791   -2.5801   11.9818 Cl  0  0  0  0  0  0  0  0  0  0  0  0
  -10.0583   -0.3567   11.1044 C   0  0  0  0  0  0  0  0  0  0  0  0
   -9.0723    0.2966   10.3826 C   0  0  0  0  0  0  0  0  0  0  0  0
   -8.8093    1.7211   10.1902 C   0  0  0  0  0  0  0  0  0  0  0  0
   -9.5646    2.7489   10.6833 C   0  0  0  0  0  0  0  0  0  0  0  0
   -9.3276    4.1207   10.4452 C   0  0  0  0  0  0  0  0  0  0  0  0
   -9.2150    5.2531   10.2951 N   0  0  0  0  0  0  0  0  0  0  0  0
  -10.7029    2.5779   11.5014 C   0  0  0  0  0  0  0  0  0  0  0  0
  -11.6304    2.5103   12.1738 N   0  0  0  0  0  0  0  0  0  0  0  0
    4.0575   -8.4048   -7.7576 H   0  0  0  0  0  0  0  0  0  0  0  0
    2.2210   -4.6439  -14.3261 H   0  0  0  0  0  0  0  0  0  0  0  0
    3.2404   -6.7789  -15.0393 H   0  0  0  0  0  0  0  0  0  0  0  0
    3.9022   -8.4696  -13.3926 H   0  0  0  0  0  0  0  0  0  0  0  0
    3.3464   -1.0367   -9.7041 H   0  0  0  0  0  0  0  0  0  0  0  0
    4.6651   -0.5337   -8.6408 H   0  0  0  0  0  0  0  0  0  0  0  0
    1.7410   -0.8057   -7.8088 H   0  0  0  0  0  0  0  0  0  0  0  0
    2.6033    0.7121   -8.0878 H   0  0  0  0  0  0  0  0  0  0  0  0
    3.0621   -0.3427   -6.7407 H   0  0  0  0  0  0  0  0  0  0  0  0
    4.9112   -4.2123  -11.0256 H   0  0  0  0  0  0  0  0  0  0  0  0
    4.1832   -2.5958  -11.0510 H   0  0  0  0  0  0  0  0  0  0  0  0
    6.9411   -3.2999   -9.9276 H   0  0  0  0  0  0  0  0  0  0  0  0
    6.6239   -2.4551  -11.4444 H   0  0  0  0  0  0  0  0  0  0  0  0
    6.2336   -1.6869   -9.9026 H   0  0  0  0  0  0  0  0  0  0  0  0
    5.2645    0.1250   -5.5871 H   0  0  0  0  0  0  0  0  0  0  0  0
    7.0803    0.2974   -7.2397 H   0  0  0  0  0  0  0  0  0  0  0  0
    8.4237   -1.6787   -7.8197 H   0  0  0  0  0  0  0  0  0  0  0  0
    8.7520   -4.5262   -5.8438 H   0  0  0  0  0  0  0  0  0  0  0  0
    9.0322   -3.9129   -7.4756 H   0  0  0  0  0  0  0  0  0  0  0  0
    6.6875   -5.6754   -6.5957 H   0  0  0  0  0  0  0  0  0  0  0  0
    8.0602   -6.1705   -7.5852 H   0  0  0  0  0  0  0  0  0  0  0  0
    6.8821   -5.0158   -8.2148 H   0  0  0  0  0  0  0  0  0  0  0  0
    6.2485   -3.9835   -4.9694 H   0  0  0  0  0  0  0  0  0  0  0  0
   -4.4382    5.5798    5.1031 H   0  0  0  0  0  0  0  0  0  0  0  0
   -4.9335    7.9672    5.3664 H   0  0  0  0  0  0  0  0  0  0  0  0
   -3.1313    9.6366    5.2149 H   0  0  0  0  0  0  0  0  0  0  0  0
    0.2984    8.7898    4.1618 H   0  0  0  0  0  0  0  0  0  0  0  0
   -0.8648   10.1044    4.3778 H   0  0  0  0  0  0  0  0  0  0  0  0
    0.9707   10.2199    6.0560 H   0  0  0  0  0  0  0  0  0  0  0  0
   -0.5902    9.9627    6.8399 H   0  0  0  0  0  0  0  0  0  0  0  0
    0.5345    8.6140    6.6480 H   0  0  0  0  0  0  0  0  0  0  0  0
   -0.2789    6.5085    4.7571 H   0  0  0  0  0  0  0  0  0  0  0  0
   -0.0349   -0.8341    0.1980 H   0  0  0  0  0  0  0  0  0  0  0  0
    0.4124   -1.5624   -1.3448 H   0  0  0  0  0  0  0  0  0  0  0  0
    1.6567   -2.5093    1.2861 H   0  0  0  0  0  0  0  0  0  0  0  0
    0.2474   -3.2549    0.5206 H   0  0  0  0  0  0  0  0  0  0  0  0
    1.8042   -3.2424   -0.3039 H   0  0  0  0  0  0  0  0  0  0  0  0
   -0.7665   -0.2803    2.8602 H   0  0  0  0  0  0  0  0  0  0  0  0
    0.7215   -0.8942    2.1019 H   0  0  0  0  0  0  0  0  0  0  0  0
    0.6067    0.6802    4.7083 H   0  0  0  0  0  0  0  0  0  0  0  0
    0.9222   -1.0454    4.5333 H   0  0  0  0  0  0  0  0  0  0  0  0
    2.0831    0.1326    3.9069 H   0  0  0  0  0  0  0  0  0  0  0  0
   -4.7243    6.0881   11.3936 H   0  0  0  0  0  0  0  0  0  0  0  0
   -3.1607    6.8677   11.0801 H   0  0  0  0  0  0  0  0  0  0  0  0
   -2.0011    4.7410   11.7633 H   0  0  0  0  0  0  0  0  0  0  0  0
   -3.0236    5.3723   13.0583 H   0  0  0  0  0  0  0  0  0  0  0  0
   -3.5748    4.0085   12.0792 H   0  0  0  0  0  0  0  0  0  0  0  0
   -0.6952    6.0362    8.3057 H   0  0  0  0  0  0  0  0  0  0  0  0
   -1.1320    6.2552   10.0135 H   0  0  0  0  0  0  0  0  0  0  0  0
   -2.1499    7.8999    7.6458 H   0  0  0  0  0  0  0  0  0  0  0  0
   -1.0140    8.4482    8.8860 H   0  0  0  0  0  0  0  0  0  0  0  0
   -2.6982    8.1269    9.3049 H   0  0  0  0  0  0  0  0  0  0  0  0
   -7.2075    3.9046    9.5002 H   0  0  0  0  0  0  0  0  0  0  0  0
   -7.3767   -2.3769    9.1219 H   0  0  0  0  0  0  0  0  0  0  0  0
   -9.1584   -3.5621   10.4074 H   0  0  0  0  0  0  0  0  0  0  0  0
  -10.8080    0.1757   11.6659 H   0  0  0  0  0  0  0  0  0  0  0  0
  1  2  2  0  0  0  0
  2  3  1  0  0  0  0
  3  4  2  0  0  0  0
  3  5  1  0  0  0  0
  5  6  2  0  0  0  0
  6  7  1  0  0  0  0
  6  8  1  0  0  0  0
  8  9  2  0  0  0  0
  9 10  1  0  0  0  0
 10 11  2  0  0  0  0
 11 12  1  0  0  0  0
 12 13  2  0  0  0  0
 13 14  1  0  0  0  0
 14 15  3  0  0  0  0
 13 16  1  0  0  0  0
 16 17  3  0  0  0  0
  1 18  1  0  0  0  0
 18 19  2  0  0  0  0
 19 20  1  0  0  0  0
 19 21  1  0  0  0  0
 21 22  1  0  0  0  0
 21 23  2  0  0  0  0
 23 24  1  0  0  0  0
 24 25  2  0  0  0  0
 25 26  1  0  0  0  0
 26 27  1  0  0  0  0
 27 28  1  0  0  0  0
 26 29  2  0  0  0  0
 29 30  1  0  0  0  0
 30 31  2  0  0  0  0
 29 32  1  0  0  0  0
 32 33  1  0  0  0  0
 23 34  1  0  0  0  0
 34 35  2  0  0  0  0
 35 36  1  0  0  0  0
 36 37  2  0  0  0  0
 37 38  1  0  0  0  0
 38 39  2  0  0  0  0
 39 40  1  0  0  0  0
 40 41  1  0  0  0  0
 41 42  1  0  0  0  0
 40 43  2  0  0  0  0
 35 44  1  0  0  0  0
 44 45  1  0  0  0  0
 45 46  1  0  0  0  0
 46 47  1  0  0  0  0
 47 48  1  0  0  0  0
 48 49  1  0  0  0  0
 49 50  2  0  0  0  0
 50 51  1  0  0  0  0
 51 52  1  0  0  0  0
 49 53  1  0  0  0  0
 53 54  1  0  0  0  0
 54 55  1  0  0  0  0
 55 56  1  0  0  0  0
 56 57  1  0  0  0  0
 57 58  1  0  0  0  0
 58 59  2  0  0  0  0
 59 60  1  0  0  0  0
 60 61  2  0  0  0  0
 61 62  1  0  0  0  0
 62 63  1  0  0  0  0
 63 64  1  0  0  0  0
 62 65  2  0  0  0  0
 57 66  2  0  0  0  0
 66 67  1  0  0  0  0
 67 68  1  0  0  0  0
 68 69  1  0  0  0  0
 69 70  1  0  0  0  0
 70 71  1  0  0  0  0
 71 72  1  0  0  0  0
 72 73  1  0  0  0  0
 73 74  1  0  0  0  0
 74 75  1  0  0  0  0
 75 76  1  0  0  0  0
 73 77  1  0  0  0  0
 77 78  1  0  0  0  0
 70 79  1  0  0  0  0
 79 80  1  0  0  0  0
 66 81  1  0  0  0  0
 81 82  2  0  0  0  0
 82 83  1  0  0  0  0
 82 84  1  0  0  0  0
 84 85  1  0  0  0  0
 84 86  2  0  0  0  0
 86 87  1  0  0  0  0
 87 88  2  0  0  0  0
 88 89  1  0  0  0  0
 89 90  1  0  0  0  0
 90 91  1  0  0  0  0
 89 92  2  0  0  0  0
 92 93  1  0  0  0  0
 93 94  2  0  0  0  0
 92 95  1  0  0  0  0
 95 96  1  0  0  0  0
 86 97  1  0  0  0  0
 97 98  2  0  0  0  0
 98 99  1  0  0  0  0
 99100  2  0  0  0  0
 99101  1  0  0  0  0
101102  2  0  0  0  0
102103  1  0  0  0  0
103104  2  0  0  0  0
104105  1  0  0  0  0
104106  1  0  0  0  0
106107  2  0  0  0  0
107108  1  0  0  0  0
108109  2  0  0  0  0
109110  1  0  0  0  0
110111  3  0  0  0  0
109112  1  0  0  0  0
112113  3  0  0  0  0
 12  2  1  0  0  0  0
 31 18  1  0  0  0  0
 76 34  1  0  0  0  0
 94 81  1  0  0  0  0
108 98  1  0  0  0  0
 11  5  1  0  0  0  0
 31 24  1  0  0  0  0
 43 36  1  0  0  0  0
 75 44  2  0  0  0  0
 94 87  1  0  0  0  0
107101  1  0  0  0  0
 74 46  2  0  0  0  0
 72 47  2  0  0  0  0
 52 48  2  0  0  0  0
 71 53  2  0  0  0  0
 69 54  2  0  0  0  0
 68 56  2  0  0  0  0
 65 58  1  0  0  0  0
  1114  1  0  0  0  0
  8115  1  0  0  0  0
  9116  1  0  0  0  0
 10117  1  0  0  0  0
 27118  1  0  0  0  0
 27119  1  0  0  0  0
 28120  1  0  0  0  0
 28121  1  0  0  0  0
 28122  1  0  0  0  0
 32123  1  0  0  0  0
 32124  1  0  0  0  0
 33125  1  0  0  0  0
 33126  1  0  0  0  0
 33127  1  0  0  0  0
 37128  1  0  0  0  0
 38129  1  0  0  0  0
 39130  1  0  0  0  0
 41131  1  0  0  0  0
 41132  1  0  0  0  0
 42133  1  0  0  0  0
 42134  1  0  0  0  0
 42135  1  0  0  0  0
 43136  1  0  0  0  0
 59137  1  0  0  0  0
 60138  1  0  0  0  0
 61139  1  0  0  0  0
 63140  1  0  0  0  0
 63141  1  0  0  0  0
 64142  1  0  0  0  0
 64143  1  0  0  0  0
 64144  1  0  0  0  0
 65145  1  0  0  0  0
 77146  1  0  0  0  0
 77147  1  0  0  0  0
 78148  1  0  0  0  0
 78149  1  0  0  0  0
 78150  1  0  0  0  0
 79151  1  0  0  0  0
 79152  1  0  0  0  0
 80153  1  0  0  0  0
 80154  1  0  0  0  0
 80155  1  0  0  0  0
 90156  1  0  0  0  0
 90157  1  0  0  0  0
 91158  1  0  0  0  0
 91159  1  0  0  0  0
 91160  1  0  0  0  0
 95161  1  0  0  0  0
 95162  1  0  0  0  0
 96163  1  0  0  0  0
 96164  1  0  0  0  0
 96165  1  0  0  0  0
 97166  1  0  0  0  0
102167  1  0  0  0  0
103168  1  0  0  0  0
106169  1  0  0  0  0
M  END
