264

C        -11.29790        6.13560       -2.13720
C        -12.04670        7.25050       -2.44220
C        -13.44030        7.34310       -1.95300
O        -14.08740        6.47040       -1.42210
C        -13.83560        8.75150       -2.20310
C        -14.98180        9.44320       -1.86320
F        -15.96990        8.85250       -1.17920
C        -15.12260       10.77910       -2.21960
C        -14.11210       11.40830       -2.92420
C        -12.94880       10.73540       -3.27680
C        -12.80920        9.41100       -2.90310
C        -11.71410        8.46380       -3.12000
C        -10.66260        8.63560       -3.99630
C         -9.85720        7.57160       -4.43160
N         -9.19980        6.72270       -4.84330
C        -10.31800        9.85930       -4.59340
N         -9.95370       10.84260       -5.06460
C         -9.91530        5.98160       -2.01430
C         -8.86320        6.90790       -1.83590
N         -8.97750        8.25460       -1.59950
C        -10.04160        8.83220       -0.88890
C        -10.77480        8.12100        0.05860
C        -11.83340        8.71930        0.71090
C        -12.18120       10.04260        0.46000
C        -13.34610       10.66640        1.16130
C        -11.41030       10.76280       -0.44410
C        -10.36070       10.17070       -1.11720
C         -7.82340        9.06090       -1.79090
C         -7.31510        9.80930       -0.73540
C         -6.17850       10.57380       -0.91400
C         -5.52840       10.61450       -2.14070
C         -4.28610       11.42570       -2.33790
C         -6.05450        9.87380       -3.19340
C         -7.18680        9.10180       -3.02760
C         -7.61950        6.24290       -1.84210
S         -5.97700        6.75650       -1.67980
C         -5.39380        5.10280       -1.79310
C         -6.45060        4.19760       -1.88820
N         -6.35700        2.80480       -1.96240
C         -7.13370        2.20750       -2.97430
C         -7.12080        2.76680       -4.25040
C         -7.90430        2.23240       -5.25160
C         -8.71160        1.12490       -5.01590
C         -9.56990        0.56710       -6.10940
C         -8.71490        0.57150       -3.74240
C         -7.94470        1.10510       -2.72700
C         -5.87730        2.06370       -0.88080
C         -5.40920        0.76390       -1.07670
C         -4.88050        0.04690       -0.02330
C         -4.79000        0.59690        1.24940
C         -4.20710       -0.17460        2.39460
C         -5.25820        1.89180        1.43830
C         -5.79800        2.61740        0.39600
C         -7.69360        4.86130       -1.94500
S         -9.32170        4.31320       -2.04520
C         -3.99820        4.83790       -1.80890
C         -2.92140        5.71640       -1.79800
C         -2.94870        7.21070       -1.73680
C         -3.07450        7.71350       -0.29810
C         -1.70170        5.02240       -1.82240
S         -0.03560        5.56060       -1.76840
C          0.47450        3.90660       -1.75800
C          1.66030        3.15500       -1.67830
C          3.01300        3.57200       -1.70960
N          3.34060        4.84470       -1.91270
C          4.62020        5.18320       -1.96260
C          4.84780        6.54350       -2.38150
S          3.50600        7.63860       -2.22190
C          4.38720        8.91960       -2.97740
C          3.81530       10.28350       -3.15670
C          3.52260       10.94950       -1.81190
C          5.62860        8.47550       -3.33620
C          5.90710        7.13620       -3.01340
F          6.52570        9.26170       -3.96190
C          5.62750        4.21610       -1.66970
C          7.01780        4.49220       -1.40880
C          7.65240        5.61250       -0.94470
C          9.02050        5.37490       -0.72790
F          9.84930        6.33430       -0.27250
C          9.44700        4.10640       -1.00430
C         10.83030        3.56260       -0.90430
C         11.37120        3.15230       -2.27440
S          8.11300        3.14740       -1.54100
N          5.30610        2.93560       -1.56230
C          4.02570        2.58050       -1.61680
C          3.63060        1.23190       -1.44410
C          4.40740        0.10150       -1.13720
S          6.06890       -0.31390       -0.90440
C          5.57220       -1.90980       -0.39170
C          6.30380       -3.01220        0.09350
C          7.78550       -2.94820        0.26330
C          8.50060       -3.02950       -1.08550
C          5.46660       -4.05710        0.42000
S          3.76650       -3.66820        0.14030
C          4.18900       -2.09270       -0.42380
C          3.52130       -0.94100       -0.85760
N          2.22860       -0.50940       -1.00690
C          1.14070       -1.29660       -0.47290
C          0.76310       -2.45310       -1.39860
C          2.27070        0.82050       -1.37960
C          1.26990        1.78740       -1.62950
N         -0.10710        1.71130       -1.74280
C         -0.58240        2.99630       -1.80770
C         -1.82570        3.63280       -1.86010
S         -3.47780        3.15650       -1.90610
C         -0.93070        0.63500       -2.24800
C         -1.24220        0.82730       -3.73230
C          5.70640       -5.34080        1.00610
C          6.75600       -6.23140        0.89320
N          7.86510       -6.10770        0.03020
C          9.14430       -5.99220        0.57410
C          9.33850       -5.86630        1.94910
C         10.60570       -5.67360        2.46520
C         11.71660       -5.59210        1.63870
C         13.09400       -5.40920        2.19990
C         11.51520       -5.69520        0.26680
C         10.25640       -5.88480       -0.26270
C          7.65350       -6.75230       -1.21530
C          8.38870       -7.87400       -1.58820
C          8.14000       -8.49430       -2.79530
C          7.14790       -8.02980       -3.65270
C          6.89770       -8.71550       -4.96090
C          6.40540       -6.92420       -3.26230
C          6.64970       -6.29010       -2.05820
C          6.52270       -7.39740        1.65750
S          7.40750       -8.86000        1.86600
C          6.14780       -9.49500        2.93890
C          5.03810       -8.62090        3.02240
N          3.81720       -8.90130        3.55800
C          3.32290      -10.20680        3.69410
C          2.59500      -10.55390        4.83000
C          2.13860      -11.84840        4.99520
C          2.38440      -12.82370        4.03800
C          1.94190      -14.23850        4.23770
C          3.07090      -12.45490        2.88300
C          3.53520      -11.16870        2.70740
C          2.97440       -7.83640        3.94540
C          1.64750       -7.81870        3.53220
C          0.82700       -6.76910        3.89880
C          1.30590       -5.72550        4.68000
C          0.42560       -4.57760        5.06830
C          2.63040       -5.76650        5.10460
C          3.46170       -6.80770        4.74620
C          5.30980       -7.41920        2.33140
S          4.42210       -5.96370        2.03530
C          6.38170      -10.73760        3.52190
C          5.77260      -11.22200        4.66580
C          5.25930      -10.36190        5.74040
O          5.25040       -9.14410        5.77600
C          4.86190      -11.27960        6.82860
C          4.32800      -10.98380        8.04670
C          3.99590      -12.03870        8.92850
C          3.42940      -11.79130       10.19450
C          3.11290      -12.81940       11.03940
C          3.35980      -14.13440       10.62630
F          3.04010      -15.13530       11.47010
C          3.90720      -14.42970        9.40850
C          4.23910      -13.38320        8.52710
C          4.80440      -13.65730        7.25830
C          5.10580      -12.62040        6.42010
C          5.65680      -12.59240        5.06740
C          5.86070      -13.68770        4.26040
C          6.25410      -13.60730        2.91130
N          6.53930      -13.61000        1.79800
C          5.61610      -15.01320        4.65860
N          5.41470      -16.11260        4.92730
H        -11.88400        5.25460       -1.89110
H        -16.02340       11.30420       -1.94330
H        -14.22880       12.44460       -3.20270
H        -12.17150       11.24890       -3.81850
H        -10.51390        7.09950        0.28900
H        -12.40310        8.14610        1.42700
H        -13.62190       11.60820        0.69370
H        -13.09880       10.85900        2.20540
H        -14.20390        9.99700        1.14310
H        -11.64570       11.79800       -0.64220
H         -9.78920       10.73950       -1.83620
H         -7.80840        9.78030        0.22520
H         -5.78860       11.14150       -0.08180
H         -4.42280       12.13550       -3.15200
H         -4.02980       11.97470       -1.43580
H         -3.45100       10.77730       -2.60080
H         -5.57020        9.90030       -4.15810
H         -7.57360        8.52370       -3.85220
H         -6.49830        3.62720       -4.44830
H         -7.89100        2.68290       -6.23310
H        -10.39730        1.24570       -6.31660
H         -8.99680        0.45270       -7.02790
H         -9.98140       -0.39910       -5.82870
H         -9.34300       -0.28250       -3.53300
H         -7.98220        0.67770       -1.73610
H         -5.44690        0.33140       -2.06510
H         -4.52070       -0.95760       -0.19740
H         -3.39640        0.38520        2.85950
H         -4.96550       -0.35300        3.15640
H         -3.82190       -1.13510        2.06120
H         -5.20200        2.33850        2.42070
H         -6.15880        3.62110        0.56760
H         -3.76760        7.60700       -2.33910
H         -2.00800        7.57470       -2.15670
H         -3.09390        8.79980       -0.28440
H         -2.22870        7.36980        0.29250
H         -3.99050        7.34880        0.15930
H          2.88840       10.21590       -3.73240
H          4.52880       10.88530       -3.72350
H          3.10510       11.94080       -1.96750
H          4.43590       11.04520       -1.22960
H          2.81070       10.35320       -1.24590
H          6.83090        6.64830       -3.26100
H          7.17670        6.55370       -0.74310
H         11.47180        4.32910       -0.46450
H         10.83130        2.69170       -0.24360
H         12.37880        2.75690       -2.17610
H         11.39840        4.00890       -2.94360
H         10.73560        2.38740       -2.71430
H          8.12720       -3.74680        0.91800
H          8.02820       -1.99020        0.73100
H          9.57610       -3.00290       -0.93280
H          8.21440       -2.19070       -1.71560
H          8.24680       -3.95390       -1.59670
H          1.47370       -1.71550        0.48380
H          0.29280       -0.64190       -0.26830
H         -0.12000       -2.95770       -1.01700
H          0.56330       -2.10830       -2.41080
H          1.57680       -3.17190       -1.44380
H         -0.41360       -0.30900       -2.12420
H         -1.86370        0.62010       -1.67400
H         -0.31960        0.88330       -4.30650
H         -1.81030        1.73850       -3.89540
H         -1.82970       -0.01280       -4.09230
H          8.49580       -5.91090        2.62340
H         10.72740       -5.58460        3.53530
H         13.67910       -4.73620        1.57610
H         13.61450       -6.36700        2.23760
H         13.05200       -5.00690        3.20920
H         12.36110       -5.61820       -0.40160
H         10.12770       -5.94180       -1.33280
H          9.14670       -8.26020       -0.92280
H          8.71630       -9.36520       -3.07230
H          7.73970       -8.55900       -5.63510
H          6.78560       -9.78840       -4.81410
H          5.99970       -8.33080       -5.43760
H          5.62350       -6.54940       -3.90730
H          6.06020       -5.43350       -1.76780
H          2.40310       -9.80670        5.58540
H          1.59440      -12.10540        5.89250
H          1.52160      -14.64380        3.31990
H          1.20080      -14.30780        5.02960
H          2.79320      -14.86200        4.51280
H          3.25040      -13.19060        2.11270
H          4.06690      -10.90750        1.80470
H          1.26770       -8.62370        2.91980
H         -0.20070       -6.76050        3.56570
H          0.83190       -3.64410        4.68100
H          0.37060       -4.49030        6.15250
H         -0.58060       -4.70740        4.67840
H          3.01210       -4.97210        5.72910
H          4.47960       -6.85630        5.09980
H          7.14050      -11.34670        3.04530
H          4.15160       -9.95840        8.33640
H          3.24920      -10.76880       10.49120
H          2.68080      -12.64620       12.01220
H          4.08300      -15.45520        9.12320
H          4.98810      -14.68470        6.98720
