185

C          6.75400       -6.32850       -3.10410
C          6.63100       -7.56460       -3.66060
C          7.86070       -8.38110       -3.86550
O          8.99820       -8.01840       -3.68600
C          7.37180       -9.70750       -4.29940
C          8.05210      -10.89060       -4.52700
F          9.37660      -10.96620       -4.36600
C          7.35780      -12.02580       -4.92640
C          5.98470      -11.96470       -5.09140
C          5.27990      -10.78780       -4.87380
C          5.97700       -9.65860       -4.47950
C          5.50980       -8.30020       -4.19190
C          4.31210       -7.78640       -4.61550
C          3.35480       -8.52540       -5.34130
N          2.55430       -9.06140       -5.96640
C          3.90660       -6.44400       -4.47740
N          3.50420       -5.36920       -4.43490
C          5.77250       -5.51660       -2.48260
C          4.81440       -5.85910       -1.53290
N          4.67900       -7.12050       -0.94350
C          3.87470       -8.10080       -1.54980
C          4.28660       -9.43000       -1.55810
C          3.49830      -10.39440       -2.15530
C          2.29230      -10.06120       -2.76130
C          1.45030      -11.09000       -3.44800
C          1.88720       -8.73100       -2.74040
C          2.66280       -7.75680       -2.14130
C          5.02410       -7.22360        0.40930
C          6.05970       -6.44300        0.92090
C          6.41490       -6.54000        2.25140
C          5.76120       -7.41550        3.10890
C          6.16840       -7.53970        4.54520
C          4.72970       -8.18990        2.59130
C          4.35630       -8.09620        1.26620
C          4.12090       -4.71630       -1.08550
S          2.74460       -4.50180       -0.06720
C          2.65930       -2.80490       -0.53060
C          3.68190       -2.42200       -1.38680
N          3.88150       -1.16990       -1.93740
C          2.81910       -0.29430       -2.20290
C          2.95690        1.06980       -1.95910
C          1.87900        1.91740       -2.12910
C          0.63570        1.43310       -2.51570
C         -0.56120        2.33030       -2.59160
C          0.52300        0.08020       -2.81550
C          1.60180       -0.76980       -2.68490
C          5.19920       -0.76750       -2.21710
C          5.48590       -0.06760       -3.38590
C          6.78180        0.31820       -3.66070
C          7.82340        0.01520       -2.79040
C          9.23190        0.40630       -3.11560
C          7.52710       -0.67790       -1.62400
C          6.23300       -1.06220       -1.33210
C          4.51080       -3.53180       -1.68980
S          5.83530       -3.78290       -2.76490
C          1.52630       -2.03940       -0.09840
C          0.19740       -2.38500       -0.23010
C         -0.31690       -3.62690       -0.81460
C          0.24360       -4.21390       -1.94700
C         -0.29370       -5.37530       -2.46690
C         -1.39240       -5.96780       -1.86960
C         -1.96750       -5.39940       -0.74100
C         -3.19540       -5.99120       -0.11170
C         -4.44540       -5.25810       -0.60270
C         -1.42250       -4.23310       -0.22590
C         -0.64010       -1.34960        0.24130
S         -2.37360       -1.14400        0.21690
C         -2.17030        0.43660        0.88810
C         -2.95850        1.50570        1.33680
C         -4.36120        1.62700        1.43140
C         -4.91170        2.80620        2.02790
N         -6.23340        2.77260        2.09510
S         -6.74070        1.37270        1.45680
N         -5.29360        0.75820        1.07200
C         -4.03530        3.84320        2.41290
C         -4.31500        5.13040        2.88890
S         -5.68520        6.10230        3.29690
C         -4.60890        7.45060        3.58400
C         -4.83280        8.77360        3.98170
C         -6.12620        9.37020        4.29350
C         -6.26400       10.23760        5.37580
C         -7.49360       10.80480        5.65100
C         -8.58860       10.51790        4.85490
C         -8.46990        9.65410        3.77140
C         -9.66500        9.32360        2.92840
C        -10.46360        8.18170        3.55990
C         -7.23730        9.07950        3.50640
C         -3.63180        9.48110        4.05470
S         -2.22930        8.49100        3.67560
C         -3.25600        7.13330        3.38230
C         -3.09270        5.80130        2.99080
N         -2.07320        4.96830        2.61390
C         -2.61890        3.74590        2.26420
C         -2.06820        2.51740        1.80200
N         -0.77480        2.03550        1.66970
C         -0.83820        0.78760        1.11210
C          0.04180       -0.23950        0.73770
S          1.75150       -0.48040        0.67730
C          0.47830        2.49590        2.22070
C          1.42160        3.02650        1.14230
C         -0.74400        5.51450        2.47430
C         -0.04320        5.66860        3.82420
C         -3.52160       10.82770        4.28200
C         -3.53160       12.04110        4.42800
C         -3.60630       13.38290        4.68900
C         -4.75920       14.12300        4.71540
C         -4.76660       15.44330        5.38290
O         -3.80730       16.08520        5.74790
C         -6.20020       15.77810        5.55590
C         -6.76670       16.84600        6.21980
C         -8.15360       16.91600        6.29970
Cl        -8.89510       18.23280        7.11940
C         -8.93490       15.91330        5.72120
Br       -10.81920       15.98810        5.86410
C         -8.36480       14.84420        5.04060
C         -6.98570       14.78120        4.95010
C         -6.10600       13.80820        4.30050
C         -6.50440       12.92690        3.32960
C         -7.83940       12.80560        2.88900
N         -8.90170       12.69560        2.46760
C         -5.64420       12.14720        2.53170
N         -5.02040       11.53020        1.79160
H          7.76660       -5.93190       -3.09480
H          7.90240      -12.94010       -5.10190
H          5.45070      -12.85130       -5.39700
H          4.21090      -10.76890       -5.00050
H          5.22410       -9.69630       -1.09210
H          3.83190      -11.42240       -2.15700
H          0.43520      -11.07780       -3.05510
H          1.39510      -10.86530       -4.51370
H          1.86470      -12.08660       -3.31880
H          0.94910       -8.45560       -3.19910
H          2.32390       -6.73200       -2.11610
H          6.59180       -5.76390        0.27110
H          7.22130       -5.92710        2.62770
H          6.62430       -6.61880        4.90090
H          5.31060       -7.77480        5.17140
H          6.89720       -8.34310        4.65910
H          4.19920       -8.87190        3.24040
H          3.53730       -8.69250        0.89320
H          3.90520        1.45680       -1.61660
H          2.00520        2.97350       -1.93820
H         -1.21620        2.14940       -1.73750
H         -1.13550        2.13360       -3.49450
H         -0.26720        3.37720       -2.58280
H         -0.42310       -0.31440       -3.15650
H          1.50390       -1.80870       -2.95380
H          4.68760        0.16600       -4.07450
H          6.99140        0.85710       -4.57330
H          9.82280        0.52120       -2.21010
H          9.25720        1.33810       -3.67600
H          9.69910       -0.36610       -3.72750
H          8.31900       -0.91520       -0.92850
H          6.01640       -1.58440       -0.41120
H          1.09450       -3.76580       -2.43540
H          0.14680       -5.81310       -3.35110
H         -1.80810       -6.87530       -2.28320
H         -3.13210       -5.90410        0.97500
H         -3.27130       -7.05000       -0.36650
H         -4.53500       -5.34710       -1.68310
H         -5.33760       -5.67790       -0.14420
H         -4.38810       -4.20160       -0.35060
H         -1.85740       -3.79640        0.66130
H         -5.41440       10.45000        6.00730
H         -7.59770       11.47500        6.49280
H         -9.54600       10.96960        5.07010
H        -10.29850       10.20700        2.83420
H         -9.34010        9.02840        1.92960
H        -11.33000        7.94290        2.94830
H        -10.80650        8.46120        4.55360
H         -9.84410        7.29170        3.64860
H         -7.12840        8.41880        2.65920
H          0.27990        3.23900        2.98830
H          0.95750        1.63780        2.70550
H          1.74920        2.21330        0.50080
H          2.29550        3.47580        1.60560
H          0.93320        3.76820        0.51370
H         -0.84450        6.50690        2.02040
H         -0.16930        4.89670        1.79140
H         -0.03290        4.73300        4.37950
H          0.98060        5.99760        3.67050
H         -0.55480        6.41100        4.43070
H         -2.69690       13.89440        4.98750
H         -6.14780       17.60660        6.66860
H         -9.00060       14.08720        4.61060
