252

C          5.15770      -11.13040       -5.59580
C          4.96070      -12.24890       -4.80740
C          4.08870      -12.33220       -3.63610
O          3.50040      -11.42890       -3.07060
C          4.04090      -13.76750       -3.27580
C          3.35340      -14.42060       -2.27190
F          2.55930      -13.74730       -1.42720
C          3.47520      -15.79700       -2.12550
C          4.28920      -16.50390       -2.99220
C          4.98930      -15.86900       -4.01190
C          4.86120      -14.49820       -4.15430
C          5.46540      -13.56180       -5.10660
C          6.37020      -13.90720       -6.08430
C          7.05730      -13.00460       -6.91730
N          7.68740      -12.34280       -7.61600
C          6.76060      -15.22840       -6.37470
N          7.11310      -16.27860       -6.67990
C          4.73640       -9.81900       -5.42110
C          4.94870       -8.79130       -6.38310
N          5.40970       -8.97410       -7.65850
C          6.19170       -7.96770       -8.25700
C          6.00080       -7.62230       -9.59080
C          6.82530       -6.68980      -10.18860
C          7.84580       -6.07210       -9.47750
C          8.79090       -5.11850      -10.13960
C          8.00300       -6.39520       -8.13430
C          7.19480       -7.33380       -7.52760
C          5.08190      -10.11240       -8.41990
C          6.02280      -10.67390       -9.27960
C          5.70060      -11.79680      -10.01500
C          4.44860      -12.39140       -9.91000
C          4.13540      -13.63760      -10.67880
C          3.50960      -11.80930       -9.06600
C          3.81210      -10.67820       -8.33480
C          4.60210       -7.53940       -5.85760
S          4.59540       -5.92480       -6.49440
C          3.88020       -5.31900       -5.00160
C          3.73340       -6.32250       -4.04450
N          3.28280       -6.16140       -2.73920
C          2.51480       -7.23440       -2.23170
C          2.87330       -7.89450       -1.06060
C          2.15490       -8.99580       -0.64440
C          1.07390       -9.47090       -1.37890
C          0.35870      -10.71200       -0.94970
C          0.70870       -8.78930       -2.53170
C          1.41570       -7.68110       -2.95670
C          3.86380       -5.24450       -1.86310
C          3.17050       -4.85460       -0.71690
C          3.71930       -3.93460        0.15270
C          4.96160       -3.36370       -0.09250
C          5.56470       -2.36590        0.84930
C          5.64520       -3.75180       -1.23930
C          5.11500       -4.68030       -2.11120
C          4.11210       -7.58380       -4.55780
S          4.01680       -9.19030       -3.93450
C          3.49960       -3.95470       -4.91710
C          3.78780       -2.93100       -5.80540
C          4.56260       -3.04950       -7.05180
C          5.87940       -2.61180       -7.10250
C          6.57360       -2.67010       -8.29630
C          5.96320       -3.16240       -9.43530
C          4.64900       -3.60790       -9.39870
C          3.96910       -4.10400      -10.64140
C          3.25270       -2.95540      -11.35430
C          3.95300       -3.53530       -8.20210
C          3.24620       -1.70840       -5.38210
S          3.33090       -0.09170       -6.04150
C          2.41300        0.47680       -4.68570
C          1.95880        1.68850       -4.13940
C          2.16190        3.02320       -4.55200
C          1.71270        4.08870       -3.70200
N          2.02430        5.28330       -4.18020
S          2.80920        5.08470       -5.58240
N          2.78500        3.46660       -5.63260
C          0.97780        3.76970       -2.54010
C          0.32780        4.58920       -1.60290
S          0.12840        6.27240       -1.24390
C         -0.92100        5.83530        0.08180
C         -1.57600        6.60900        1.06070
C         -1.35080        8.05950        1.16400
C         -1.85960        8.93480        0.21520
C         -1.52650       10.27540        0.27660
C         -0.64500       10.73320        1.23830
C         -0.09770        9.86160        2.17120
C          0.92580       10.34270        3.16120
C          0.27890       10.98160        4.38830
C         -0.48710        8.53130        2.14500
C         -2.28960        5.81260        1.92980
S         -2.13090        4.09710        1.55810
C         -1.10150        4.45700        0.21830
C         -0.37250        3.74270       -0.74010
N         -0.16390        2.43640       -1.09380
C          0.68740        2.42160       -2.18370
C          1.28750        1.37050       -2.92510
N          1.35540       -0.00370       -2.73220
C          2.04780       -0.53160       -3.79200
C          2.52480       -1.78580       -4.18850
S          2.49600       -3.39930       -3.57970
C          1.35000       -0.76030       -1.49810
C          2.59710       -0.46150       -0.66920
C         -1.02320        1.40580       -0.55990
C         -0.59740        0.96970        0.84200
C         -3.12120        6.15560        3.03730
C         -3.91000        7.26910        3.25490
N         -4.11280        8.31230        2.33120
C         -5.18100        8.04410        1.42670
C         -6.41540        8.66900        1.58610
C         -7.45110        8.39470        0.71710
C         -7.29370        7.48260       -0.32160
C         -8.42390        7.20960       -1.26630
C         -6.06860        6.84590       -0.45690
C         -5.02130        7.11830        0.40550
C         -3.87890        9.62910        2.73130
C         -3.27620        9.93310        3.94820
C         -3.05720       11.24780        4.31360
C         -3.38410       12.29640        3.46880
C         -3.14610       13.72380        3.86100
C         -3.93610       11.98570        2.23120
C         -4.18350       10.68080        1.86510
C         -4.59930        7.16570        4.48550
S         -5.76900        8.15620        5.27260
C         -5.86110        7.01560        6.62660
C         -5.08600        5.85690        6.39100
N         -5.10420        4.69860        7.10900
C         -4.00660        3.81360        7.00950
C         -2.70770        4.27940        7.18720
C         -1.64440        3.40760        7.06510
C         -1.84800        2.06430        6.76800
C         -0.68230        1.13950        6.59750
C         -3.15160        1.60750        6.61820
C         -4.22570        2.46800        6.73860
C         -6.18160        4.30600        7.91560
C         -5.93400        3.68650        9.13840
C         -6.98420        3.33230        9.96470
C         -8.30030        3.57570        9.59660
C         -9.44020        3.23600       10.50370
C         -8.54000        4.14920        8.34920
C         -7.50210        4.51110        7.51730
C         -4.35010        5.99730        5.19360
S         -3.24790        4.97840        4.33250
C         -6.66880        7.37540        7.70340
C         -6.55180        6.89450        8.99400
C         -5.29140        6.40840        9.57200
O         -4.20810        6.31560        9.02360
C         -5.57920        6.17310       11.00480
C         -4.73000        5.72110       11.99260
C         -5.21510        5.54930       13.28580
C         -4.35150        5.05940       14.40320
C         -6.55460        5.85740       13.51740
F         -7.03400        5.69480       14.76790
C         -7.42710        6.31900       12.54370
C         -6.92480        6.47750       11.26440
C         -7.55460        6.91060       10.01860
C         -8.89860        7.12470        9.82880
C         -9.86470        7.00920       10.84400
N        -10.69760        6.90780       11.62910
C         -9.48050        7.39760        8.57580
N        -10.02420        7.59220        7.58240
H          5.72150      -11.29710       -6.50450
H          2.93260      -16.29320       -1.33630
H          4.38270      -17.57260       -2.87510
H          5.61420      -16.44740       -4.67150
H          5.21380       -8.09770      -10.15710
H          6.67710       -6.44660      -11.23070
H          8.93250       -4.23000       -9.52870
H          9.76440       -5.59280      -10.26760
H          8.42720       -4.82270      -11.12010
H          8.78640       -5.92050       -7.56200
H          7.35170       -7.60150       -6.49300
H          7.00680      -10.23900       -9.35340
H          6.44360      -12.23170      -10.66620
H          3.07100      -13.85680      -10.65300
H          4.67150      -14.48410      -10.24890
H          4.45070      -13.53900      -11.71570
H          2.52330      -12.24290       -8.98370
H          3.07070      -10.23430       -7.68650
H          3.72970       -7.55430       -0.49700
H          2.45410       -9.51630        0.25340
H         -0.59390      -10.81520       -1.46350
H          0.97510      -11.57860       -1.18710
H          0.18530      -10.71050        0.12460
H         -0.13320       -9.13580       -3.11380
H          1.13450       -7.16440       -3.86360
H          2.19660       -5.27650       -0.51990
H          3.16660       -3.65280        1.03800
H          6.48220       -2.76280        1.28310
H          5.81850       -1.44530        0.32510
H          4.87820       -2.12800        1.65800
H          6.61600       -3.32490       -1.44790
H          5.67230       -4.97450       -2.98840
H          6.35020       -2.22720       -6.20980
H          7.59470       -2.31970       -8.33770
H          6.50840       -3.19690      -10.36650
H          4.70730       -4.54340      -11.31440
H          3.24400       -4.87700      -10.37980
H          2.75290       -3.31500      -12.25080
H          2.51030       -2.50730      -10.69780
H          3.96490       -2.18410      -11.63840
H          2.92380       -3.86260       -8.15720
H         -2.51550        8.56840       -0.56010
H         -1.93410       10.96210       -0.45000
H         -0.36060       11.77530        1.25410
H          1.54800        9.50300        3.47850
H          1.57210       11.07800        2.67630
H          1.04260       11.34070        5.07500
H         -0.34290       10.25590        4.90610
H         -0.34730       11.81830        4.09010
H         -0.07890        7.83660        2.86660
H          1.34390       -1.81750       -1.77650
H          0.45490       -0.56280       -0.91810
H          2.65130        0.59850       -0.42790
H          3.48990       -0.73710       -1.22490
H          2.57630       -1.03730        0.25130
H         -2.03650        1.81960       -0.50010
H         -1.05320        0.57230       -1.26290
H          0.45070        0.68480        0.86910
H         -0.74480        1.78670        1.54320
H         -1.20350        0.12820        1.16670
H         -6.55460        9.37050        2.39600
H         -8.40260        8.88870        0.85150
H         -9.34110        7.00480       -0.71680
H         -8.20080        6.36050       -1.90720
H         -8.60300        8.07970       -1.89790
H         -5.92420        6.12730       -1.25130
H         -4.07720        6.61330        0.28200
H         -2.97590        9.14370        4.62050
H         -2.62580       11.45690        5.28210
H         -2.65870       13.78440        4.83110
H         -2.51870       14.22340        3.12340
H         -4.08960       14.26640        3.91460
H         -4.18070       12.78290        1.54360
H         -4.61540       10.46680        0.89940
H         -2.55380        5.31570        7.44410
H         -0.63810        3.77420        7.20570
H         -0.24640        1.27350        5.60700
H          0.09050        1.35150        7.33330
H         -0.98930        0.10140        6.69610
H         -3.33060        0.56520        6.39750
H         -5.23600        2.10560        6.61570
H         -4.91450        3.50080        9.44140
H         -6.77210        2.87340       10.91940
H        -10.11150        2.52630       10.02190
H         -9.08230        2.80240       11.43370
H        -10.01940        4.12870       10.73830
H         -9.55760        4.32250        8.03090
H         -7.71270        4.95870        6.55750
H         -7.41880        8.13030        7.49960
H         -3.70040        5.49710       11.75750
H         -4.82190        4.21450       14.90430
H         -4.22140        5.84570       15.14670
H         -3.37510        4.75970       14.03350
H         -8.44770        6.54080       12.80860
