249

C         -2.42580       11.44440        4.93600
C         -3.20400       12.40730        5.54800
C         -4.21980       12.17180        6.57500
O         -4.65850       11.10650        6.96670
C         -4.60290       13.51360        7.07030
C         -5.49870       13.88880        8.05210
F         -6.19480       12.97220        8.73910
C         -5.69070       15.23380        8.34370
C         -4.97850       16.19050        7.64280
C         -4.07200       15.83790        6.64940
C         -3.88400       14.49620        6.36540
C         -3.02590       13.82550        5.38480
C         -2.22340       14.46690        4.46950
C         -2.02440       15.86010        4.42510
N         -1.79480       16.98310        4.34300
C         -1.50980       13.84220        3.42950
N         -0.92900       13.42220        2.52980
C         -2.46600       10.05840        5.02210
C         -1.51070        9.20990        4.39920
N         -0.36030        9.61470        3.77790
C          0.41110       10.70300        4.22540
C          0.54140       10.97410        5.58530
C          1.28700       12.05760        6.00450
C          1.93500       12.88090        5.09060
C          2.72000       14.07450        5.53900
C          1.82880       12.57860        3.73810
C          1.07410       11.50800        3.30250
C          0.13380        8.83490        2.71280
C         -0.73100        8.39310        1.71540
C         -0.25540        7.60710        0.68520
C          1.08590        7.25090        0.61730
C          1.59970        6.40820       -0.50890
C          1.94530        7.71540        1.60660
C          1.48170        8.49680        2.64570
C         -1.90110        7.86650        4.50260
S         -1.20940        6.37380        3.96350
C         -2.53180        5.47350        4.70250
C         -3.48180        6.30280        5.29040
N         -4.68310        5.91040        5.84380
C         -5.42940        4.84390        5.33320
C         -5.34420        4.46720        3.99450
C         -6.04200        3.36930        3.53200
C         -6.86680        2.63420        4.37350
C         -7.57720        1.41190        3.87790
C         -6.99610        3.05390        5.69200
C         -6.28710        4.13550        6.17230
C         -5.24060        6.73590        6.84470
C         -6.56430        7.15460        6.76400
C         -7.07690        8.01120        7.71710
C         -6.29200        8.47340        8.76700
C         -6.83230        9.45810        9.75390
C         -4.97880        8.03030        8.85180
C         -4.45410        7.17250        7.90580
C         -3.08790        7.66310        5.19770
S         -3.76280        9.13710        5.79270
C         -2.51270        4.05820        4.51600
C         -2.91950        3.01980        5.33400
C         -3.31330        3.13950        6.73480
C         -2.73080        4.09110        7.56830
C         -3.08760        4.15350        8.90160
C         -4.02070        3.27280        9.41960
C         -4.60260        2.30830        8.60730
C         -5.57300        1.30540        9.16020
C         -4.85340       -0.00490        9.48520
C         -4.23770        2.24940        7.27220
C         -2.78380        1.77580        4.67600
S         -3.08610        0.12760        5.17770
C         -2.44560       -0.43360        3.67000
C         -2.12030       -1.63860        3.02860
C         -2.19870       -2.96890        3.49200
C         -1.63270       -4.01310        2.69040
N         -1.72440       -5.20180        3.26650
S         -2.46600       -5.02070        4.69520
N         -2.69560       -3.41840        4.63400
C         -1.09680       -3.68610        1.42690
C         -0.54330       -4.50700        0.43250
S         -0.15780       -6.17370        0.16860
C          0.40560       -5.76610       -1.43520
C          0.91360       -6.54530       -2.49510
C          1.07760       -7.99660       -2.40900
C          0.66330       -8.84000       -3.43660
C          0.78510      -10.20750       -3.29540
C          1.32170      -10.74730       -2.13850
C          1.74560       -9.92300       -1.10500
C          2.34130      -10.48520        0.15500
C          3.81110      -10.09090        0.30730
C          1.61230       -8.55030       -1.25170
C          1.17660       -5.76730       -3.60680
S          0.83210       -4.06350       -3.32780
C          0.28340       -4.40800       -1.73020
C         -0.25330       -3.68580       -0.65680
N         -0.60130       -2.39250       -0.37410
C         -1.10090       -2.35470        0.91770
C         -1.54190       -1.30280        1.76900
N         -1.50360        0.07790        1.67780
C         -2.04640        0.59660        2.82030
C         -2.23800        1.85950        3.39610
S         -1.91630        3.49650        2.95780
C         -0.88370        0.97770        0.73550
C         -1.91790        1.67480       -0.14880
C         -0.63820       -1.43200       -1.45280
C          0.75330       -0.90470       -1.80530
C          1.78350       -6.13530       -4.84290
C          1.56340       -5.55770       -6.08910
N          0.57520       -4.63390       -6.38520
C          0.86160       -3.62690       -7.32230
C          2.10260       -2.99460       -7.31040
C          2.39630       -2.02650       -8.24870
C          1.46480       -1.65500       -9.21160
C          1.80860       -0.61740      -10.23510
C          0.22410       -2.28000       -9.20520
C         -0.07920       -3.25760       -8.27810
C         -0.69320       -4.72360       -5.80030
C         -1.24280       -5.96210       -5.47700
C         -2.45020       -6.03870       -4.81470
C         -3.15590       -4.89020       -4.47280
C         -4.44560       -4.98870       -3.71750
C         -2.62400       -3.66020       -4.83800
C         -1.40930       -3.56960       -5.48890
C          2.46610       -6.07170       -7.04710
S          2.77250       -5.70760       -8.70280
C          4.06540       -6.91940       -8.75740
C          4.28200       -7.51320       -7.48940
N          5.31620       -8.32710       -7.13190
C          5.13790       -9.24170       -6.06980
C          6.12350       -9.38170       -5.10010
C          5.96960      -10.31340       -4.09110
C          4.83990      -11.11830       -4.02680
C          4.68250      -12.15670       -2.96080
C          3.85360      -10.95680       -4.99480
C          3.99350      -10.03160       -6.00770
C          6.56380       -8.29050       -7.76720
C          7.11680       -7.08530       -8.20120
C          8.32420       -7.07490       -8.86540
C          9.02220       -8.25510       -9.11520
C         10.30650       -8.22570       -9.88160
C          8.49060       -9.44430       -8.63590
C          7.27920       -9.46960       -7.97000
C          3.33420       -7.03900       -6.55600
S          3.05310       -7.35060       -4.87350
C          4.69810       -7.09110       -9.98360
C          5.44130       -8.19370      -10.37280
C          5.21410       -9.54240       -9.84790
O          4.37670       -9.88880       -9.03710
C          6.12620      -10.42280      -10.62050
C          6.83180       -9.65160      -11.56030
C          7.74240      -10.25440      -12.40950
C          7.95030      -11.62260      -12.29690
C          7.26730      -12.37460      -11.35550
Br         7.62000      -14.22870      -11.22490
C          6.33250      -11.78370      -10.49880
Cl         5.49760      -12.70480       -9.31740
C          6.43430       -8.25240      -11.39960
C          7.04270       -7.17390      -11.99970
C          8.10600       -7.27570      -12.91330
N          8.98850       -7.30030      -13.64930
C          6.73160       -5.83380      -11.70000
N          6.55030       -4.72130      -11.47700
H         -1.64010       11.82350        4.29540
H         -6.39380       15.51090        9.11320
H         -5.12970       17.23410        7.87180
H         -3.53230       16.60580        6.12110
H          0.04840       10.34000        6.30770
H          1.37210       12.26190        7.06220
H          3.70890       14.07600        5.08410
H          2.83030       14.08730        6.62040
H          2.21350       14.98980        5.23270
H          2.32630       13.20380        3.01240
H          0.98100       11.30020        2.24820
H         -1.77400        8.67140        1.75390
H         -0.93770        7.26680       -0.07990
H          1.95420        7.04550       -1.31970
H          0.81430        5.76740       -0.90240
H          2.43170        5.78940       -0.18090
H          2.99220        7.45190        1.56870
H          2.15640        8.84080        3.41550
H         -4.73700        5.04130        3.31040
H         -5.94700        3.08200        2.49420
H         -6.92110        0.54370        3.95650
H         -7.86120        1.52320        2.83360
H         -8.46920        1.21460        4.46760
H         -7.65120        2.51450        6.36100
H         -6.37920        4.43020        7.20670
H         -7.18000        6.81780        5.94250
H         -8.10130        8.34380        7.63280
H         -7.90940        9.35550        9.86230
H         -6.36220        9.33540       10.72700
H         -6.62110       10.46740        9.40160
H         -4.35330        8.37190        9.66350
H         -3.42810        6.84450        7.97460
H         -1.98070        4.76050        7.17380
H         -2.63000        4.88910        9.54710
H         -4.29500        3.33180       10.46300
H         -6.04070        1.69810       10.06510
H         -6.35600        1.10990        8.42490
H         -4.39130       -0.41360        8.58950
H         -4.07450        0.16550       10.22510
H         -5.55420       -0.73640        9.88080
H         -4.70240        1.51520        6.63220
H          0.22080       -8.42270       -4.32780
H          0.44610      -10.85940       -4.08720
H          1.39090      -11.82110       -2.03190
H          1.78150      -10.10890        1.01500
H          2.25590      -11.57380        0.14860
H          4.38630      -10.42170       -0.55390
H          4.23140      -10.54340        1.20240
H          3.91250       -9.01170        0.38750
H          1.93050       -7.89770       -0.45260
H         -0.14720        0.43900        0.14790
H         -0.35350        1.74210        1.31460
H         -2.53800        2.33270        0.45410
H         -2.56980        0.95690       -0.64270
H         -1.41470        2.27200       -0.90400
H         -1.32150       -0.62750       -1.19460
H         -1.04510       -1.94450       -2.33260
H          1.35380       -1.69800       -2.24130
H          0.66840       -0.10060       -2.53100
H          1.27790       -0.53460       -0.92690
H          2.83020       -3.26510       -6.55860
H          3.36450       -1.54790       -8.23360
H          2.25540        0.25580       -9.76290
H          2.53350       -1.01910      -10.94290
H          0.92590       -0.30570      -10.78750
H         -0.51460       -2.00740       -9.94510
H         -1.04300       -3.74500       -8.29300
H         -0.71630       -6.86410       -5.75130
H         -2.85430       -7.00740       -4.55870
H         -4.25050       -5.24740       -2.67600
H         -5.07990       -5.76620       -4.13860
H         -4.98470       -4.04480       -3.74040
H         -3.16150       -2.75390       -4.59630
H         -0.99610       -2.60460       -5.74250
H          7.00980       -8.76540       -5.14490
H          6.74510      -10.41780       -3.34600
H          3.77040      -11.97620       -2.39540
H          5.52920      -12.15090       -2.27900
H          4.60620      -13.14690       -3.40860
H          2.97300      -11.58030       -4.96150
H          3.24850       -9.94010       -6.78220
H          6.59490       -6.15770       -8.02020
H          8.73290       -6.13420       -9.20470
H         11.01920       -7.55380       -9.40570
H         10.13550       -7.85970      -10.89410
H         10.74650       -9.21750       -9.94310
H          9.02180      -10.37090       -8.79840
H          6.87440      -10.40430       -7.61250
H          4.55350       -6.29190      -10.70060
H          8.28720       -9.69270      -13.14990
H          8.65830      -12.11350      -12.94680
