
  xtb     02062204423D
 energy: -411.586992297972 gnorm: 0.000966908488 xtb: 6.4.1 (unknown)
249274  0     0  0            999 V2000
   12.6738   -0.1587    3.2175 C   0  0  0  0  0  0  0  0  0  0  0  0
   13.9125    0.1527    2.6894 C   0  0  0  0  0  0  0  0  0  0  0  0
   14.2334    0.3131    1.2707 C   0  0  0  0  0  0  0  0  0  0  0  0
   13.5050    0.1373    0.3117 O   0  0  0  0  0  0  0  0  0  0  0  0
   15.6417    0.7659    1.2274 C   0  0  0  0  0  0  0  0  0  0  0  0
   16.4585    1.0631    0.1540 C   0  0  0  0  0  0  0  0  0  0  0  0
   16.0205    0.9319   -1.1055 F   0  0  0  0  0  0  0  0  0  0  0  0
   17.7607    1.4976    0.3700 C   0  0  0  0  0  0  0  0  0  0  0  0
   18.2294    1.6267    1.6652 C   0  0  0  0  0  0  0  0  0  0  0  0
   17.4299    1.3215    2.7609 C   0  0  0  0  0  0  0  0  0  0  0  0
   16.1339    0.8885    2.5395 C   0  0  0  0  0  0  0  0  0  0  0  0
   15.0806    0.4678    3.4681 C   0  0  0  0  0  0  0  0  0  0  0  0
   15.2317    0.3653    4.8320 C   0  0  0  0  0  0  0  0  0  0  0  0
   16.3769    0.7812    5.5381 C   0  0  0  0  0  0  0  0  0  0  0  0
   17.2695    1.1105    6.1826 N   0  0  0  0  0  0  0  0  0  0  0  0
   14.2975   -0.2006    5.7193 C   0  0  0  0  0  0  0  0  0  0  0  0
   13.6184   -0.6902    6.5083 N   0  0  0  0  0  0  0  0  0  0  0  0
   11.4764   -0.4802    2.5912 C   0  0  0  0  0  0  0  0  0  0  0  0
   10.2867   -0.7970    3.3050 C   0  0  0  0  0  0  0  0  0  0  0  0
   10.0958   -0.6399    4.6508 N   0  0  0  0  0  0  0  0  0  0  0  0
   10.6097    0.4570    5.3661 C   0  0  0  0  0  0  0  0  0  0  0  0
   10.7179    1.7097    4.7664 C   0  0  0  0  0  0  0  0  0  0  0  0
   11.2268    2.7757    5.4805 C   0  0  0  0  0  0  0  0  0  0  0  0
   11.6199    2.6306    6.8061 C   0  0  0  0  0  0  0  0  0  0  0  0
   12.1937    3.7792    7.5764 C   0  0  0  0  0  0  0  0  0  0  0  0
   11.4794    1.3836    7.4036 C   0  0  0  0  0  0  0  0  0  0  0  0
   10.9874    0.3039    6.6979 C   0  0  0  0  0  0  0  0  0  0  0  0
    9.2309   -1.5342    5.3129 C   0  0  0  0  0  0  0  0  0  0  0  0
    8.2727   -1.0691    6.2068 C   0  0  0  0  0  0  0  0  0  0  0  0
    7.4347   -1.9616    6.8462 C   0  0  0  0  0  0  0  0  0  0  0  0
    7.5264   -3.3277    6.6113 C   0  0  0  0  0  0  0  0  0  0  0  0
    6.6038   -4.2948    7.2860 C   0  0  0  0  0  0  0  0  0  0  0  0
    8.4913   -3.7826    5.7188 C   0  0  0  0  0  0  0  0  0  0  0  0
    9.3380   -2.9027    5.0773 C   0  0  0  0  0  0  0  0  0  0  0  0
    9.3053   -1.3003    2.4374 C   0  0  0  0  0  0  0  0  0  0  0  0
    7.6677   -1.8339    2.6540 S   0  0  0  0  0  0  0  0  0  0  0  0
    7.5112   -2.0782    0.9210 C   0  0  0  0  0  0  0  0  0  0  0  0
    8.6448   -1.6954    0.2149 C   0  0  0  0  0  0  0  0  0  0  0  0
    8.7543   -1.6455   -1.1597 N   0  0  0  0  0  0  0  0  0  0  0  0
   10.0322   -1.7835   -1.7355 C   0  0  0  0  0  0  0  0  0  0  0  0
   10.4582   -0.9012   -2.7235 C   0  0  0  0  0  0  0  0  0  0  0  0
   11.7408   -0.9924   -3.2227 C   0  0  0  0  0  0  0  0  0  0  0  0
   12.6284   -1.9553   -2.7550 C   0  0  0  0  0  0  0  0  0  0  0  0
   14.0419   -1.9847   -3.2450 C   0  0  0  0  0  0  0  0  0  0  0  0
   12.1802   -2.8555   -1.7982 C   0  0  0  0  0  0  0  0  0  0  0  0
   10.8973   -2.7780   -1.2921 C   0  0  0  0  0  0  0  0  0  0  0  0
    7.6556   -1.3220   -1.9652 C   0  0  0  0  0  0  0  0  0  0  0  0
    6.6893   -0.4137   -1.5381 C   0  0  0  0  0  0  0  0  0  0  0  0
    5.5597   -0.1886   -2.2992 C   0  0  0  0  0  0  0  0  0  0  0  0
    5.3677   -0.8394   -3.5115 C   0  0  0  0  0  0  0  0  0  0  0  0
    4.1041   -0.6536   -4.2950 C   0  0  0  0  0  0  0  0  0  0  0  0
    6.3740   -1.6827   -3.9676 C   0  0  0  0  0  0  0  0  0  0  0  0
    7.5052   -1.9212   -3.2132 C   0  0  0  0  0  0  0  0  0  0  0  0
    9.6761   -1.2923    1.0980 C   0  0  0  0  0  0  0  0  0  0  0  0
   11.2760   -0.6978    0.8479 S   0  0  0  0  0  0  0  0  0  0  0  0
    6.2855   -2.5516    0.3533 C   0  0  0  0  0  0  0  0  0  0  0  0
    6.1365   -3.5018   -0.6377 C   0  0  0  0  0  0  0  0  0  0  0  0
    7.1905   -4.4299   -1.0398 C   0  0  0  0  0  0  0  0  0  0  0  0
    8.1131   -4.9042   -0.1084 C   0  0  0  0  0  0  0  0  0  0  0  0
    9.1010   -5.7863   -0.4998 C   0  0  0  0  0  0  0  0  0  0  0  0
    9.1838   -6.2069   -1.8164 C   0  0  0  0  0  0  0  0  0  0  0  0
    8.2620   -5.7614   -2.7537 C   0  0  0  0  0  0  0  0  0  0  0  0
    8.2956   -6.2523   -4.1721 C   0  0  0  0  0  0  0  0  0  0  0  0
    7.2884   -7.3874   -4.3653 C   0  0  0  0  0  0  0  0  0  0  0  0
    7.2669   -4.8834   -2.3521 C   0  0  0  0  0  0  0  0  0  0  0  0
    4.8217   -3.4912   -1.1547 C   0  0  0  0  0  0  0  0  0  0  0  0
    4.0364   -4.3745   -2.4409 S   0  0  0  0  0  0  0  0  0  0  0  0
    2.5797   -3.4874   -2.1414 C   0  0  0  0  0  0  0  0  0  0  0  0
    1.2839   -3.3466   -2.6677 C   0  0  0  0  0  0  0  0  0  0  0  0
    0.6688   -3.9343   -3.7938 C   0  0  0  0  0  0  0  0  0  0  0  0
   -0.6496   -3.5072   -4.1675 C   0  0  0  0  0  0  0  0  0  0  0  0
   -1.0826   -4.1051   -5.2667 N   0  0  0  0  0  0  0  0  0  0  0  0
    0.0685   -5.1188   -5.7863 S   0  0  0  0  0  0  0  0  0  0  0  0
    1.1649   -4.8341   -4.6288 N   0  0  0  0  0  0  0  0  0  0  0  0
   -1.3275   -2.5829   -3.3442 C   0  0  0  0  0  0  0  0  0  0  0  0
   -2.6364   -2.0735   -3.4056 C   0  0  0  0  0  0  0  0  0  0  0  0
   -4.0482   -2.1750   -4.4038 S   0  0  0  0  0  0  0  0  0  0  0  0
   -4.9088   -1.1665   -3.2662 C   0  0  0  0  0  0  0  0  0  0  0  0
   -6.2374   -0.6861   -3.2092 C   0  0  0  0  0  0  0  0  0  0  0  0
   -7.2442   -0.8553   -4.2541 C   0  0  0  0  0  0  0  0  0  0  0  0
   -7.2635   -1.9962   -5.0520 C   0  0  0  0  0  0  0  0  0  0  0  0
   -8.2354   -2.1461   -6.0230 C   0  0  0  0  0  0  0  0  0  0  0  0
   -9.1860   -1.1616   -6.2217 C   0  0  0  0  0  0  0  0  0  0  0  0
   -9.1618    0.0013   -5.4614 C   0  0  0  0  0  0  0  0  0  0  0  0
  -10.1458    1.1056   -5.7244 C   0  0  0  0  0  0  0  0  0  0  0  0
   -9.6506    2.0023   -6.8604 C   0  0  0  0  0  0  0  0  0  0  0  0
   -8.1870    0.1438   -4.4877 C   0  0  0  0  0  0  0  0  0  0  0  0
   -6.4506    0.0326   -2.0494 C   0  0  0  0  0  0  0  0  0  0  0  0
   -4.9997    0.2101   -1.0765 S   0  0  0  0  0  0  0  0  0  0  0  0
   -4.1203   -0.7763   -2.1848 C   0  0  0  0  0  0  0  0  0  0  0  0
   -2.8201   -1.2911   -2.2663 C   0  0  0  0  0  0  0  0  0  0  0  0
   -1.6754   -1.2704   -1.5158 N   0  0  0  0  0  0  0  0  0  0  0  0
   -0.7323   -2.0520   -2.1657 C   0  0  0  0  0  0  0  0  0  0  0  0
    0.6251   -2.3581   -1.8845 C   0  0  0  0  0  0  0  0  0  0  0  0
    1.5178   -1.8920   -0.9309 N   0  0  0  0  0  0  0  0  0  0  0  0
    2.6938   -2.5734   -1.0946 C   0  0  0  0  0  0  0  0  0  0  0  0
    3.9771   -2.5739   -0.5319 C   0  0  0  0  0  0  0  0  0  0  0  0
    4.7874   -1.7139    0.7260 S   0  0  0  0  0  0  0  0  0  0  0  0
    1.5186   -0.6477   -0.1948 C   0  0  0  0  0  0  0  0  0  0  0  0
    1.3642    0.5520   -1.1257 C   0  0  0  0  0  0  0  0  0  0  0  0
   -1.7449   -0.8617   -0.1307 C   0  0  0  0  0  0  0  0  0  0  0  0
   -1.5934   -2.0524    0.8121 C   0  0  0  0  0  0  0  0  0  0  0  0
   -7.6957    0.4638   -1.4877 C   0  0  0  0  0  0  0  0  0  0  0  0
   -8.8339   -0.3094   -1.3030 C   0  0  0  0  0  0  0  0  0  0  0  0
   -8.9435   -1.6530   -1.6149 N   0  0  0  0  0  0  0  0  0  0  0  0
  -10.1704   -2.1531   -2.0744 C   0  0  0  0  0  0  0  0  0  0  0  0
  -10.5972   -3.4266   -1.7094 C   0  0  0  0  0  0  0  0  0  0  0  0
  -11.8108   -3.9074   -2.1599 C   0  0  0  0  0  0  0  0  0  0  0  0
  -12.6338   -3.1371   -2.9714 C   0  0  0  0  0  0  0  0  0  0  0  0
  -13.9609   -3.6460   -3.4441 C   0  0  0  0  0  0  0  0  0  0  0  0
  -12.2009   -1.8656   -3.3287 C   0  0  0  0  0  0  0  0  0  0  0  0
  -10.9870   -1.3763   -2.8928 C   0  0  0  0  0  0  0  0  0  0  0  0
   -7.8353   -2.4988   -1.4598 C   0  0  0  0  0  0  0  0  0  0  0  0
   -7.5878   -3.5214   -2.3719 C   0  0  0  0  0  0  0  0  0  0  0  0
   -6.4416   -4.2835   -2.2680 C   0  0  0  0  0  0  0  0  0  0  0  0
   -5.5140   -4.0585   -1.2575 C   0  0  0  0  0  0  0  0  0  0  0  0
   -4.2352   -4.8371   -1.2033 C   0  0  0  0  0  0  0  0  0  0  0  0
   -5.7990   -3.0787   -0.3152 C   0  0  0  0  0  0  0  0  0  0  0  0
   -6.9452   -2.3138   -0.4041 C   0  0  0  0  0  0  0  0  0  0  0  0
   -9.8481    0.4457   -0.6665 C   0  0  0  0  0  0  0  0  0  0  0  0
  -11.4758    0.1059   -0.2163 S   0  0  0  0  0  0  0  0  0  0  0  0
  -11.6284    1.7061    0.5338 C   0  0  0  0  0  0  0  0  0  0  0  0
  -10.4718    2.4952    0.3319 C   0  0  0  0  0  0  0  0  0  0  0  0
  -10.3277    3.8229    0.6004 N   0  0  0  0  0  0  0  0  0  0  0  0
  -11.4049    4.7142    0.6905 C   0  0  0  0  0  0  0  0  0  0  0  0
  -11.3879    5.7216    1.6532 C   0  0  0  0  0  0  0  0  0  0  0  0
  -12.4623    6.5829    1.7778 C   0  0  0  0  0  0  0  0  0  0  0  0
  -13.5717    6.4712    0.9510 C   0  0  0  0  0  0  0  0  0  0  0  0
  -14.7592    7.3666    1.1131 C   0  0  0  0  0  0  0  0  0  0  0  0
  -13.5586    5.4920   -0.0402 C   0  0  0  0  0  0  0  0  0  0  0  0
  -12.4956    4.6246   -0.1739 C   0  0  0  0  0  0  0  0  0  0  0  0
   -9.0268    4.3487    0.7808 C   0  0  0  0  0  0  0  0  0  0  0  0
   -8.6396    5.4896    0.0882 C   0  0  0  0  0  0  0  0  0  0  0  0
   -7.3657    5.9971    0.2581 C   0  0  0  0  0  0  0  0  0  0  0  0
   -6.4600    5.3847    1.1154 C   0  0  0  0  0  0  0  0  0  0  0  0
   -5.0688    5.9147    1.2766 C   0  0  0  0  0  0  0  0  0  0  0  0
   -6.8676    4.2550    1.8170 C   0  0  0  0  0  0  0  0  0  0  0  0
   -8.1369    3.7372    1.6582 C   0  0  0  0  0  0  0  0  0  0  0  0
   -9.4716    1.7368   -0.3190 C   0  0  0  0  0  0  0  0  0  0  0  0
   -7.8439    2.0728   -0.8057 S   0  0  0  0  0  0  0  0  0  0  0  0
  -12.8272    1.9775    1.1879 C   0  0  0  0  0  0  0  0  0  0  0  0
  -13.0143    2.9221    2.1813 C   0  0  0  0  0  0  0  0  0  0  0  0
  -11.9445    3.3627    3.0875 C   0  0  0  0  0  0  0  0  0  0  0  0
  -10.7834    3.0045    3.0850 O   0  0  0  0  0  0  0  0  0  0  0  0
  -12.6158    4.2262    4.0896 C   0  0  0  0  0  0  0  0  0  0  0  0
  -12.1066    4.9131    5.1727 C   0  0  0  0  0  0  0  0  0  0  0  0
  -10.7961    4.8872    5.4554 F   0  0  0  0  0  0  0  0  0  0  0  0
  -12.9508    5.6661    5.9809 C   0  0  0  0  0  0  0  0  0  0  0  0
  -14.3035    5.7135    5.6978 C   0  0  0  0  0  0  0  0  0  0  0  0
  -14.8396    5.0326    4.6104 C   0  0  0  0  0  0  0  0  0  0  0  0
  -13.9913    4.2945    3.8055 C   0  0  0  0  0  0  0  0  0  0  0  0
  -14.2500    3.5097    2.5967 C   0  0  0  0  0  0  0  0  0  0  0  0
  -15.4287    3.4903    1.8885 C   0  0  0  0  0  0  0  0  0  0  0  0
  -16.5902    4.1873    2.2640 C   0  0  0  0  0  0  0  0  0  0  0  0
  -17.5589    4.7554    2.5096 N   0  0  0  0  0  0  0  0  0  0  0  0
  -15.5846    2.8405    0.6489 C   0  0  0  0  0  0  0  0  0  0  0  0
  -15.7706    2.3621   -0.3792 N   0  0  0  0  0  0  0  0  0  0  0  0
   12.6189   -0.1592    4.2988 H   0  0  0  0  0  0  0  0  0  0  0  0
   18.3868    1.7277   -0.4776 H   0  0  0  0  0  0  0  0  0  0  0  0
   19.2399    1.9677    1.8293 H   0  0  0  0  0  0  0  0  0  0  0  0
   17.8260    1.4267    3.7570 H   0  0  0  0  0  0  0  0  0  0  0  0
   10.4072    1.8417    3.7403 H   0  0  0  0  0  0  0  0  0  0  0  0
   11.3108    3.7399    5.0001 H   0  0  0  0  0  0  0  0  0  0  0  0
   11.7140    3.8667    8.5495 H   0  0  0  0  0  0  0  0  0  0  0  0
   12.0684    4.7144    7.0365 H   0  0  0  0  0  0  0  0  0  0  0  0
   13.2587    3.6191    7.7455 H   0  0  0  0  0  0  0  0  0  0  0  0
   11.7786    1.2494    8.4319 H   0  0  0  0  0  0  0  0  0  0  0  0
   10.9043   -0.6621    7.1698 H   0  0  0  0  0  0  0  0  0  0  0  0
    8.1860   -0.0088    6.3921 H   0  0  0  0  0  0  0  0  0  0  0  0
    6.6919   -1.5872    7.5354 H   0  0  0  0  0  0  0  0  0  0  0  0
    5.8580   -4.6544    6.5768 H   0  0  0  0  0  0  0  0  0  0  0  0
    6.0858   -3.8248    8.1179 H   0  0  0  0  0  0  0  0  0  0  0  0
    7.1543   -5.1578    7.6554 H   0  0  0  0  0  0  0  0  0  0  0  0
    8.5838   -4.8423    5.5305 H   0  0  0  0  0  0  0  0  0  0  0  0
   10.0933   -3.2673    4.3964 H   0  0  0  0  0  0  0  0  0  0  0  0
    9.7850   -0.1341   -3.0780 H   0  0  0  0  0  0  0  0  0  0  0  0
   12.0693   -0.2878   -3.9726 H   0  0  0  0  0  0  0  0  0  0  0  0
   14.6194   -1.2259   -2.7164 H   0  0  0  0  0  0  0  0  0  0  0  0
   14.0918   -1.7626   -4.3089 H   0  0  0  0  0  0  0  0  0  0  0  0
   14.5010   -2.9532   -3.0617 H   0  0  0  0  0  0  0  0  0  0  0  0
   12.8468   -3.6234   -1.4330 H   0  0  0  0  0  0  0  0  0  0  0  0
   10.5593   -3.4814   -0.5456 H   0  0  0  0  0  0  0  0  0  0  0  0
    6.8240    0.1111   -0.6034 H   0  0  0  0  0  0  0  0  0  0  0  0
    4.8140    0.5071   -1.9400 H   0  0  0  0  0  0  0  0  0  0  0  0
    3.3575   -1.3842   -3.9778 H   0  0  0  0  0  0  0  0  0  0  0  0
    3.6909    0.3414   -4.1410 H   0  0  0  0  0  0  0  0  0  0  0  0
    4.2812   -0.8000   -5.3577 H   0  0  0  0  0  0  0  0  0  0  0  0
    6.2600   -2.1756   -4.9223 H   0  0  0  0  0  0  0  0  0  0  0  0
    8.2743   -2.5890   -3.5714 H   0  0  0  0  0  0  0  0  0  0  0  0
    8.0424   -4.5948    0.9240 H   0  0  0  0  0  0  0  0  0  0  0  0
    9.8111   -6.1530    0.2277 H   0  0  0  0  0  0  0  0  0  0  0  0
    9.9651   -6.8906   -2.1154 H   0  0  0  0  0  0  0  0  0  0  0  0
    8.0463   -5.4340   -4.8510 H   0  0  0  0  0  0  0  0  0  0  0  0
    9.2976   -6.6084   -4.4189 H   0  0  0  0  0  0  0  0  0  0  0  0
    7.5257   -8.2191   -3.7056 H   0  0  0  0  0  0  0  0  0  0  0  0
    6.2828   -7.0432   -4.1345 H   0  0  0  0  0  0  0  0  0  0  0  0
    7.3077   -7.7426   -5.3929 H   0  0  0  0  0  0  0  0  0  0  0  0
    6.5497   -4.5316   -3.0777 H   0  0  0  0  0  0  0  0  0  0  0  0
   -6.5295   -2.7712   -4.8990 H   0  0  0  0  0  0  0  0  0  0  0  0
   -8.2515   -3.0405   -6.6283 H   0  0  0  0  0  0  0  0  0  0  0  0
   -9.9478   -1.2898   -6.9770 H   0  0  0  0  0  0  0  0  0  0  0  0
  -10.2795    1.7100   -4.8242 H   0  0  0  0  0  0  0  0  0  0  0  0
  -11.1134    0.6793   -5.9973 H   0  0  0  0  0  0  0  0  0  0  0  0
  -10.3637    2.8002   -7.0545 H   0  0  0  0  0  0  0  0  0  0  0  0
   -8.6928    2.4472   -6.5995 H   0  0  0  0  0  0  0  0  0  0  0  0
   -9.5207    1.4224   -7.7712 H   0  0  0  0  0  0  0  0  0  0  0  0
   -8.1491    1.0551   -3.9077 H   0  0  0  0  0  0  0  0  0  0  0  0
    0.7532   -0.6557    0.5820 H   0  0  0  0  0  0  0  0  0  0  0  0
    2.4859   -0.5889    0.3104 H   0  0  0  0  0  0  0  0  0  0  0  0
    2.1854    0.5719   -1.8384 H   0  0  0  0  0  0  0  0  0  0  0  0
    0.4330    0.5017   -1.6848 H   0  0  0  0  0  0  0  0  0  0  0  0
    1.3803    1.4736   -0.5497 H   0  0  0  0  0  0  0  0  0  0  0  0
   -2.7326   -0.4156    0.0098 H   0  0  0  0  0  0  0  0  0  0  0  0
   -1.0104   -0.0840    0.0818 H   0  0  0  0  0  0  0  0  0  0  0  0
   -1.6640   -1.7196    1.8444 H   0  0  0  0  0  0  0  0  0  0  0  0
   -0.6390   -2.5527    0.6675 H   0  0  0  0  0  0  0  0  0  0  0  0
   -2.3855   -2.7732    0.6232 H   0  0  0  0  0  0  0  0  0  0  0  0
   -9.9758   -4.0337   -1.0678 H   0  0  0  0  0  0  0  0  0  0  0  0
  -12.1273   -4.8976   -1.8650 H   0  0  0  0  0  0  0  0  0  0  0  0
  -14.0867   -4.6969   -3.1963 H   0  0  0  0  0  0  0  0  0  0  0  0
  -14.7668   -3.0820   -2.9749 H   0  0  0  0  0  0  0  0  0  0  0  0
  -14.0560   -3.5258   -4.5221 H   0  0  0  0  0  0  0  0  0  0  0  0
  -12.8239   -1.2500   -3.9610 H   0  0  0  0  0  0  0  0  0  0  0  0
  -10.6589   -0.3939   -3.1945 H   0  0  0  0  0  0  0  0  0  0  0  0
   -8.2897   -3.6967   -3.1729 H   0  0  0  0  0  0  0  0  0  0  0  0
   -6.2527   -5.0568   -2.9984 H   0  0  0  0  0  0  0  0  0  0  0  0
   -4.3804   -5.8472   -1.5788 H   0  0  0  0  0  0  0  0  0  0  0  0
   -3.4788   -4.3568   -1.8267 H   0  0  0  0  0  0  0  0  0  0  0  0
   -3.8531   -4.8919   -0.1859 H   0  0  0  0  0  0  0  0  0  0  0  0
   -5.1141   -2.9056    0.5032 H   0  0  0  0  0  0  0  0  0  0  0  0
   -7.1495   -1.5599    0.3424 H   0  0  0  0  0  0  0  0  0  0  0  0
  -10.5358    5.8125    2.3102 H   0  0  0  0  0  0  0  0  0  0  0  0
  -12.4411    7.3450    2.5434 H   0  0  0  0  0  0  0  0  0  0  0  0
  -14.5667    8.1396    1.8525 H   0  0  0  0  0  0  0  0  0  0  0  0
  -15.6262    6.7899    1.4358 H   0  0  0  0  0  0  0  0  0  0  0  0
  -15.0139    7.8396    0.1663 H   0  0  0  0  0  0  0  0  0  0  0  0
  -14.4002    5.4042   -0.7117 H   0  0  0  0  0  0  0  0  0  0  0  0
  -12.5102    3.8708   -0.9467 H   0  0  0  0  0  0  0  0  0  0  0  0
   -9.3368    5.9701   -0.5828 H   0  0  0  0  0  0  0  0  0  0  0  0
   -7.0708    6.8807   -0.2890 H   0  0  0  0  0  0  0  0  0  0  0  0
   -4.9928    6.9334    0.9054 H   0  0  0  0  0  0  0  0  0  0  0  0
   -4.7683    5.8959    2.3221 H   0  0  0  0  0  0  0  0  0  0  0  0
   -4.3691    5.2934    0.7168 H   0  0  0  0  0  0  0  0  0  0  0  0
   -6.1820    3.7787    2.5022 H   0  0  0  0  0  0  0  0  0  0  0  0
   -8.4650    2.8812    2.2264 H   0  0  0  0  0  0  0  0  0  0  0  0
  -13.6650    1.3476    0.9132 H   0  0  0  0  0  0  0  0  0  0  0  0
  -12.5352    6.2024    6.8195 H   0  0  0  0  0  0  0  0  0  0  0  0
  -14.9564    6.2927    6.3324 H   0  0  0  0  0  0  0  0  0  0  0  0
  -15.8977    5.0834    4.4138 H   0  0  0  0  0  0  0  0  0  0  0  0
  1  2  2  0  0  0  0
  2  3  1  0  0  0  0
  3  4  2  0  0  0  0
  3  5  1  0  0  0  0
  5  6  2  0  0  0  0
  6  7  1  0  0  0  0
  6  8  1  0  0  0  0
  8  9  2  0  0  0  0
  9 10  1  0  0  0  0
 10 11  2  0  0  0  0
 11 12  1  0  0  0  0
 12 13  2  0  0  0  0
 13 14  1  0  0  0  0
 14 15  3  0  0  0  0
 13 16  1  0  0  0  0
 16 17  3  0  0  0  0
  1 18  1  0  0  0  0
 18 19  2  0  0  0  0
 19 20  1  0  0  0  0
 20 21  1  0  0  0  0
 21 22  2  0  0  0  0
 22 23  1  0  0  0  0
 23 24  2  0  0  0  0
 24 25  1  0  0  0  0
 24 26  1  0  0  0  0
 26 27  2  0  0  0  0
 20 28  1  0  0  0  0
 28 29  2  0  0  0  0
 29 30  1  0  0  0  0
 30 31  2  0  0  0  0
 31 32  1  0  0  0  0
 31 33  1  0  0  0  0
 33 34  2  0  0  0  0
 19 35  1  0  0  0  0
 35 36  1  0  0  0  0
 36 37  1  0  0  0  0
 37 38  2  0  0  0  0
 38 39  1  0  0  0  0
 39 40  1  0  0  0  0
 40 41  2  0  0  0  0
 41 42  1  0  0  0  0
 42 43  2  0  0  0  0
 43 44  1  0  0  0  0
 43 45  1  0  0  0  0
 45 46  2  0  0  0  0
 39 47  1  0  0  0  0
 47 48  2  0  0  0  0
 48 49  1  0  0  0  0
 49 50  2  0  0  0  0
 50 51  1  0  0  0  0
 50 52  1  0  0  0  0
 52 53  2  0  0  0  0
 38 54  1  0  0  0  0
 54 55  1  0  0  0  0
 37 56  1  0  0  0  0
 56 57  2  0  0  0  0
 57 58  1  0  0  0  0
 58 59  2  0  0  0  0
 59 60  1  0  0  0  0
 60 61  2  0  0  0  0
 61 62  1  0  0  0  0
 62 63  1  0  0  0  0
 63 64  1  0  0  0  0
 62 65  2  0  0  0  0
 57 66  1  0  0  0  0
 66 67  1  0  0  0  0
 67 68  1  0  0  0  0
 68 69  1  0  0  0  0
 69 70  1  0  0  0  0
 70 71  1  0  0  0  0
 71 72  2  0  0  0  0
 72 73  1  0  0  0  0
 73 74  1  0  0  0  0
 71 75  1  0  0  0  0
 75 76  1  0  0  0  0
 76 77  1  0  0  0  0
 77 78  1  0  0  0  0
 78 79  1  0  0  0  0
 79 80  1  0  0  0  0
 80 81  2  0  0  0  0
 81 82  1  0  0  0  0
 82 83  2  0  0  0  0
 83 84  1  0  0  0  0
 84 85  1  0  0  0  0
 85 86  1  0  0  0  0
 84 87  2  0  0  0  0
 79 88  2  0  0  0  0
 88 89  1  0  0  0  0
 89 90  1  0  0  0  0
 90 91  1  0  0  0  0
 91 92  1  0  0  0  0
 92 93  1  0  0  0  0
 93 94  1  0  0  0  0
 94 95  1  0  0  0  0
 95 96  1  0  0  0  0
 96 97  1  0  0  0  0
 97 98  1  0  0  0  0
 95 99  1  0  0  0  0
 99100  1  0  0  0  0
 92101  1  0  0  0  0
101102  1  0  0  0  0
 88103  1  0  0  0  0
103104  2  0  0  0  0
104105  1  0  0  0  0
105106  1  0  0  0  0
106107  2  0  0  0  0
107108  1  0  0  0  0
108109  2  0  0  0  0
109110  1  0  0  0  0
109111  1  0  0  0  0
111112  2  0  0  0  0
105113  1  0  0  0  0
113114  2  0  0  0  0
114115  1  0  0  0  0
115116  2  0  0  0  0
116117  1  0  0  0  0
116118  1  0  0  0  0
118119  2  0  0  0  0
104120  1  0  0  0  0
120121  1  0  0  0  0
121122  1  0  0  0  0
122123  2  0  0  0  0
123124  1  0  0  0  0
124125  1  0  0  0  0
125126  2  0  0  0  0
126127  1  0  0  0  0
127128  2  0  0  0  0
128129  1  0  0  0  0
128130  1  0  0  0  0
130131  2  0  0  0  0
124132  1  0  0  0  0
132133  2  0  0  0  0
133134  1  0  0  0  0
134135  2  0  0  0  0
135136  1  0  0  0  0
135137  1  0  0  0  0
137138  2  0  0  0  0
123139  1  0  0  0  0
139140  1  0  0  0  0
122141  1  0  0  0  0
141142  2  0  0  0  0
142143  1  0  0  0  0
143144  2  0  0  0  0
143145  1  0  0  0  0
145146  2  0  0  0  0
146147  1  0  0  0  0
146148  1  0  0  0  0
148149  2  0  0  0  0
149150  1  0  0  0  0
150151  2  0  0  0  0
151152  1  0  0  0  0
152153  2  0  0  0  0
153154  1  0  0  0  0
154155  3  0  0  0  0
153156  1  0  0  0  0
156157  3  0  0  0  0
 12  2  1  0  0  0  0
 55 18  1  0  0  0  0
 98 56  1  0  0  0  0
140103  1  0  0  0  0
152142  1  0  0  0  0
 11  5  1  0  0  0  0
 27 21  1  0  0  0  0
 34 28  1  0  0  0  0
 54 35  2  0  0  0  0
 65 58  1  0  0  0  0
 97 66  2  0  0  0  0
112106  1  0  0  0  0
119113  1  0  0  0  0
139120  2  0  0  0  0
151145  1  0  0  0  0
 46 40  1  0  0  0  0
 53 47  1  0  0  0  0
 96 68  2  0  0  0  0
131125  1  0  0  0  0
138132  1  0  0  0  0
 94 69  2  0  0  0  0
 74 70  2  0  0  0  0
 93 75  2  0  0  0  0
 91 76  2  0  0  0  0
 90 78  2  0  0  0  0
 87 80  1  0  0  0  0
  1158  1  0  0  0  0
  8159  1  0  0  0  0
  9160  1  0  0  0  0
 10161  1  0  0  0  0
 22162  1  0  0  0  0
 23163  1  0  0  0  0
 25164  1  0  0  0  0
 25165  1  0  0  0  0
 25166  1  0  0  0  0
 26167  1  0  0  0  0
 27168  1  0  0  0  0
 29169  1  0  0  0  0
 30170  1  0  0  0  0
 32171  1  0  0  0  0
 32172  1  0  0  0  0
 32173  1  0  0  0  0
 33174  1  0  0  0  0
 34175  1  0  0  0  0
 41176  1  0  0  0  0
 42177  1  0  0  0  0
 44178  1  0  0  0  0
 44179  1  0  0  0  0
 44180  1  0  0  0  0
 45181  1  0  0  0  0
 46182  1  0  0  0  0
 48183  1  0  0  0  0
 49184  1  0  0  0  0
 51185  1  0  0  0  0
 51186  1  0  0  0  0
 51187  1  0  0  0  0
 52188  1  0  0  0  0
 53189  1  0  0  0  0
 59190  1  0  0  0  0
 60191  1  0  0  0  0
 61192  1  0  0  0  0
 63193  1  0  0  0  0
 63194  1  0  0  0  0
 64195  1  0  0  0  0
 64196  1  0  0  0  0
 64197  1  0  0  0  0
 65198  1  0  0  0  0
 81199  1  0  0  0  0
 82200  1  0  0  0  0
 83201  1  0  0  0  0
 85202  1  0  0  0  0
 85203  1  0  0  0  0
 86204  1  0  0  0  0
 86205  1  0  0  0  0
 86206  1  0  0  0  0
 87207  1  0  0  0  0
 99208  1  0  0  0  0
 99209  1  0  0  0  0
100210  1  0  0  0  0
100211  1  0  0  0  0
100212  1  0  0  0  0
101213  1  0  0  0  0
101214  1  0  0  0  0
102215  1  0  0  0  0
102216  1  0  0  0  0
102217  1  0  0  0  0
107218  1  0  0  0  0
108219  1  0  0  0  0
110220  1  0  0  0  0
110221  1  0  0  0  0
110222  1  0  0  0  0
111223  1  0  0  0  0
112224  1  0  0  0  0
114225  1  0  0  0  0
115226  1  0  0  0  0
117227  1  0  0  0  0
117228  1  0  0  0  0
117229  1  0  0  0  0
118230  1  0  0  0  0
119231  1  0  0  0  0
126232  1  0  0  0  0
127233  1  0  0  0  0
129234  1  0  0  0  0
129235  1  0  0  0  0
129236  1  0  0  0  0
130237  1  0  0  0  0
131238  1  0  0  0  0
133239  1  0  0  0  0
134240  1  0  0  0  0
136241  1  0  0  0  0
136242  1  0  0  0  0
136243  1  0  0  0  0
137244  1  0  0  0  0
138245  1  0  0  0  0
141246  1  0  0  0  0
148247  1  0  0  0  0
149248  1  0  0  0  0
150249  1  0  0  0  0
M  END
