209

C          3.12070       -5.00930        1.46950
C          4.13970       -5.02100        0.53370
C          4.36710       -4.00750       -0.49100
O          3.70780       -3.00490       -0.71540
C          5.63360       -4.38350       -1.15730
C          6.29990       -3.80660       -2.21950
F          5.82230       -2.70810       -2.82660
C          7.48580       -4.36280       -2.68320
C          8.00310       -5.48170       -2.05610
C          7.35500       -6.07450       -0.97820
C          6.16340       -5.52850       -0.53540
C          5.24150       -5.94540        0.52480
C          5.40690       -7.05480        1.31900
C          4.46030       -7.55080        2.23510
N          3.73090       -8.05310        2.96890
C          6.54520       -7.88390        1.29850
N          7.44320       -8.59930        1.34140
C          1.95090       -4.26320        1.49750
C          0.96380       -4.37270        2.51900
N          1.11820       -5.02460        3.70490
C         -0.00790       -5.60080        4.32620
C         -0.91760       -6.34490        3.57870
C         -2.01400       -6.91320        4.19300
C         -2.22840       -6.76460        5.55950
C         -3.43020       -7.38050        6.20600
C         -1.30770       -6.03170        6.29740
C         -0.20810       -5.45300        5.69400
C          2.35750       -5.10450        4.37450
C          3.20510       -4.00020        4.41370
C          4.42940       -4.09740        5.03910
C          4.83030       -5.27940        5.65650
C          6.18150       -5.37510        6.29360
C          3.95560       -6.35690        5.65190
C          2.72950       -6.28010        5.01740
C         -0.23030       -3.74620        2.11870
S         -1.76690       -3.45370        2.87900
C         -2.33230       -2.62280        1.44490
C         -1.36310       -2.52980        0.46140
N         -1.54380       -1.89310       -0.75970
C         -2.08110       -0.59790       -0.79780
C         -1.69400        0.35580        0.13890
C         -2.17800        1.64870        0.05780
C         -3.08050        2.01760       -0.93080
C         -3.60510        3.41850       -1.03350
C         -3.48680        1.05030       -1.84480
C         -2.98730       -0.23380       -1.79240
C         -1.06150       -2.50650       -1.92120
C         -0.60960       -1.74740       -2.99920
C         -0.13190       -2.36850       -4.13400
C         -0.07450       -3.75460       -4.22990
C          0.45440       -4.40590       -5.47140
C         -0.51750       -4.50310       -3.14890
C         -1.00900       -3.89450       -2.01120
C         -0.16560       -3.16820        0.85720
S          1.39800       -3.27360        0.14320
C         -3.65320       -2.06770        1.30380
C         -4.51250       -2.31750        0.25410
C         -4.36820       -3.46710       -0.63770
C         -3.92480       -4.68960       -0.13500
C         -3.79340       -5.77770       -0.97620
C         -4.09380       -5.66180       -2.32210
C         -4.55260       -4.45690       -2.83810
C         -4.85270       -4.31170       -4.30180
C         -3.58980       -3.91200       -5.06710
C         -4.69250       -3.37230       -1.98670
C         -5.52600       -1.33380        0.18260
S         -6.72380       -0.94320       -1.03100
C         -7.02460        0.56380       -0.22900
C         -7.54860        1.83210       -0.53950
C         -8.05340        2.34160       -1.75890
C         -7.87660        3.74310       -2.04720
N         -8.24750        4.05460       -3.27680
S         -8.79460        2.71530       -4.00750
N         -8.55280        1.67740       -2.78620
C         -7.28900        4.56880       -1.06300
C         -6.54730        5.76890       -1.15410
S         -5.73580        6.66110       -2.40550
C         -4.53800        7.19420       -1.23630
C         -3.18950        7.61590       -1.36070
C         -2.52860        8.04580       -2.59130
C         -2.87920        7.51910       -3.83200
C         -2.22830        7.94760       -4.97360
C         -1.22910        8.90120       -4.89530
C         -0.86510        9.44010       -3.66670
C          0.18270       10.51240       -3.57930
C         -0.45830       11.89500       -3.71340
C         -1.52220        9.00860       -2.52640
C         -2.52940        7.53760       -0.15000
S         -3.60180        7.11370        1.18070
C         -4.88940        6.84070        0.06500
C         -6.02540        6.02320        0.11340
N         -6.47040        5.07920        1.01260
C         -7.12930        4.10480        0.26960
C         -7.14680        2.70580        0.50890
N         -6.46680        1.96570        1.45870
C         -6.32060        0.69770        0.96850
C         -5.45430       -0.38180        1.19710
S         -4.14720       -0.69750        2.28170
C         -5.82540        2.33760        2.69740
C         -4.43260        2.92160        2.48440
C         -6.71300        5.43190        2.39660
C         -7.38140        6.80080        2.50940
C         -1.12760        7.26380        0.11950
C         -0.44800        6.42690       -0.76460
C          0.69700        5.79100       -0.31570
N          1.41980        4.79000       -0.91250
C          1.21010        4.26310       -2.23660
C          0.18840        3.12720       -2.24470
C          2.29030        4.27260        0.01560
C          2.20560        5.03340        1.21290
C          1.18950        6.01070        0.99840
C          0.57320        6.95200        1.82020
C         -0.57960        7.55840        1.38140
C          2.95390        4.65630        2.32710
C          3.70310        3.50990        2.25670
C          3.77540        2.73620        1.07410
C          3.07830        3.13990       -0.06780
C          4.47490        1.48720        1.14650
C          5.10540        0.76150        0.18380
C          5.56000        1.21830       -1.15730
O          5.15650        2.14850       -1.81280
C          6.68400        0.30950       -1.49590
C          7.57360        0.34060       -2.55420
F          7.48430        1.27370       -3.50620
C          8.59580       -0.59840       -2.63140
C          8.72010       -1.56370       -1.64760
C          7.82760       -1.63110       -0.58530
C          6.81030       -0.69480       -0.51750
C          5.74450       -0.51220        0.45680
C          5.32700       -1.41550        1.39560
C          4.13160       -1.26490        2.12850
N          3.14920       -1.22590        2.72160
C          5.98480       -2.62440        1.68790
N          6.49890       -3.60620        1.99070
H          3.23020       -5.70750        2.28870
H          7.98340       -3.91080       -3.52670
H          8.92840       -5.90700       -2.41350
H          7.78360       -6.94410       -0.50920
H         -0.75140       -6.48240        2.52010
H         -2.71330       -7.49030        3.60560
H         -3.51370       -8.43180        5.93590
H         -4.33620       -6.87780        5.86800
H         -3.37540       -7.30000        7.28840
H         -1.45380       -5.90640        7.36030
H          0.49860       -4.88090        6.27620
H          2.90130       -3.07650        3.94510
H          5.08670       -3.24000        5.05250
H          6.95250       -5.38090        5.52300
H          6.36450       -4.51820        6.94000
H          6.27390       -6.28610        6.87900
H          4.24090       -7.28100        6.13130
H          2.07060       -7.13390        5.00100
H         -0.98970        0.08800        0.91330
H         -1.82500        2.38740        0.76420
H         -3.09590        4.08220       -0.33740
H         -4.67300        3.43750       -0.81730
H         -3.47290        3.80530       -2.04350
H         -4.20000        1.31380       -2.61270
H         -3.28580       -0.96800       -2.52430
H         -0.62550       -0.66920       -2.93910
H          0.21630       -1.76560       -4.96040
H          0.40540       -5.48920       -5.39440
H          1.49180       -4.11710       -5.63640
H         -0.12110       -4.09140       -6.34160
H         -0.48520       -5.58250       -3.19440
H         -1.36340       -4.49800       -1.18980
H         -3.70580       -4.78990        0.91790
H         -3.45560       -6.72420       -0.57880
H         -3.98370       -6.51550       -2.97500
H         -5.22910       -5.25680       -4.69860
H         -5.62080       -3.54960       -4.44670
H         -3.19240       -2.97390       -4.68580
H         -3.80820       -3.79400       -6.12590
H         -2.81980       -4.67070       -4.95040
H         -5.05920       -2.43710       -2.38170
H         -3.64730        6.76500       -3.90210
H         -2.50290        7.53200       -5.93200
H         -0.72630        9.23120       -5.79300
H          0.70050       10.44600       -2.62020
H          0.91770       10.37770       -4.37540
H         -1.18490       12.05320       -2.91950
H         -0.97180       11.98300       -4.66830
H          0.29850       12.67350       -3.65260
H         -1.25530        9.42880       -1.56710
H         -6.46080        3.02610        3.25270
H         -5.73720        1.42100        3.28810
H         -4.00440        3.20730        3.44110
H         -3.79130        2.17510        2.02470
H         -4.46670        3.79200        1.83660
H         -5.76720        5.44430        2.94850
H         -7.38060        4.68380        2.82510
H         -6.72230        7.58220        2.14080
H         -8.30480        6.82230        1.93430
H         -7.61330        7.00750        3.55090
H         -0.87450        6.20180       -1.72950
H          0.86970        5.07980       -2.87940
H          2.17120        3.90640       -2.61610
H         -0.77330        3.47570       -1.87790
H          0.06010        2.75020       -3.25550
H          0.51890        2.30970       -1.60840
H          0.96240        7.15620        2.80590
H         -1.11450        8.23680        2.03010
H          2.90640        5.23340        3.23790
H          4.25760        3.17860        3.12260
H          3.10720        2.53870       -0.95960
H          4.53400        1.08450        2.15400
H          9.28350       -0.55590       -3.46150
H          9.52440       -2.28120       -1.70690
H          7.93960       -2.39340        0.16920
