
  xtb     02052215123D
 energy: -334.476638959241 gnorm: 0.000375728507 xtb: 6.4.1 (unknown)
197217  0     0  0            999 V2000
   -0.1465   -0.6728    9.8798 C   0  0  0  0  0  0  0  0  0  0  0  0
    0.5714   -0.3704   11.0238 C   0  0  0  0  0  0  0  0  0  0  0  0
    1.1972    0.9371   11.2638 C   0  0  0  0  0  0  0  0  0  0  0  0
    1.2003    1.8990   10.5212 O   0  0  0  0  0  0  0  0  0  0  0  0
    1.7031    0.8747   12.6572 C   0  0  0  0  0  0  0  0  0  0  0  0
    2.3799    1.8099   13.4132 C   0  0  0  0  0  0  0  0  0  0  0  0
    2.7033    3.0080   12.9055 F   0  0  0  0  0  0  0  0  0  0  0  0
    2.7589    1.5112   14.7171 C   0  0  0  0  0  0  0  0  0  0  0  0
    2.4446    0.2761   15.2533 C   0  0  0  0  0  0  0  0  0  0  0  0
    1.7649   -0.6834   14.5109 C   0  0  0  0  0  0  0  0  0  0  0  0
    1.4006   -0.3818   13.2115 C   0  0  0  0  0  0  0  0  0  0  0  0
    0.7182   -1.1812   12.1920 C   0  0  0  0  0  0  0  0  0  0  0  0
    0.4362   -2.5246   12.2809 C   0  0  0  0  0  0  0  0  0  0  0  0
    0.7158   -3.3207   13.4051 C   0  0  0  0  0  0  0  0  0  0  0  0
    0.9396   -4.0248   14.2857 N   0  0  0  0  0  0  0  0  0  0  0  0
   -0.0847   -3.2862   11.2171 C   0  0  0  0  0  0  0  0  0  0  0  0
   -0.4770   -3.9716   10.3824 N   0  0  0  0  0  0  0  0  0  0  0  0
    0.0354   -0.1010    8.6245 C   0  0  0  0  0  0  0  0  0  0  0  0
    1.1481    0.5518    8.0423 C   0  0  0  0  0  0  0  0  0  0  0  0
    2.4116    0.6175    8.5448 N   0  0  0  0  0  0  0  0  0  0  0  0
    2.9279   -0.3163    9.4530 C   0  0  0  0  0  0  0  0  0  0  0  0
    2.6264   -1.6740    9.3479 C   0  0  0  0  0  0  0  0  0  0  0  0
    3.1169   -2.5664   10.2768 C   0  0  0  0  0  0  0  0  0  0  0  0
    3.9187   -2.1406   11.3340 C   0  0  0  0  0  0  0  0  0  0  0  0
    4.3987   -3.1190   12.3589 C   0  0  0  0  0  0  0  0  0  0  0  0
    4.2535   -0.7952   11.4033 C   0  0  0  0  0  0  0  0  0  0  0  0
    3.7711    0.1107   10.4768 C   0  0  0  0  0  0  0  0  0  0  0  0
    3.2781    1.6386    8.0911 C   0  0  0  0  0  0  0  0  0  0  0  0
    2.8651    2.9664    8.0979 C   0  0  0  0  0  0  0  0  0  0  0  0
    3.7220    3.9521    7.6507 C   0  0  0  0  0  0  0  0  0  0  0  0
    4.9953    3.6405    7.1891 C   0  0  0  0  0  0  0  0  0  0  0  0
    5.9065    4.7101    6.6747 C   0  0  0  0  0  0  0  0  0  0  0  0
    5.3999    2.3105    7.2009 C   0  0  0  0  0  0  0  0  0  0  0  0
    4.5556    1.3142    7.6488 C   0  0  0  0  0  0  0  0  0  0  0  0
    0.8184    1.0278    6.7523 C   0  0  0  0  0  0  0  0  0  0  0  0
    1.6919    1.9093    5.5426 S   0  0  0  0  0  0  0  0  0  0  0  0
    0.3315    1.7771    4.4375 C   0  0  0  0  0  0  0  0  0  0  0  0
   -0.7533    1.1152    5.0001 C   0  0  0  0  0  0  0  0  0  0  0  0
   -1.9808    0.9187    4.3894 N   0  0  0  0  0  0  0  0  0  0  0  0
   -2.6639   -0.2834    4.6392 C   0  0  0  0  0  0  0  0  0  0  0  0
   -1.9628   -1.4861    4.6861 C   0  0  0  0  0  0  0  0  0  0  0  0
   -2.6249   -2.6641    4.9640 C   0  0  0  0  0  0  0  0  0  0  0  0
   -3.9968   -2.6798    5.1899 C   0  0  0  0  0  0  0  0  0  0  0  0
   -4.6947   -3.9653    5.5105 C   0  0  0  0  0  0  0  0  0  0  0  0
   -4.6898   -1.4778    5.1242 C   0  0  0  0  0  0  0  0  0  0  0  0
   -4.0376   -0.2899    4.8574 C   0  0  0  0  0  0  0  0  0  0  0  0
   -2.5605    1.9195    3.6023 C   0  0  0  0  0  0  0  0  0  0  0  0
   -3.3322    1.5850    2.4916 C   0  0  0  0  0  0  0  0  0  0  0  0
   -3.8542    2.5766    1.6839 C   0  0  0  0  0  0  0  0  0  0  0  0
   -3.6188    3.9194    1.9488 C   0  0  0  0  0  0  0  0  0  0  0  0
   -4.1472    4.9959    1.0511 C   0  0  0  0  0  0  0  0  0  0  0  0
   -2.8668    4.2459    3.0722 C   0  0  0  0  0  0  0  0  0  0  0  0
   -2.3521    3.2656    3.8943 C   0  0  0  0  0  0  0  0  0  0  0  0
   -0.4549    0.6881    6.3148 C   0  0  0  0  0  0  0  0  0  0  0  0
   -1.3233   -0.2226    7.4920 S   0  0  0  0  0  0  0  0  0  0  0  0
    0.4725    2.2299    3.0923 C   0  0  0  0  0  0  0  0  0  0  0  0
    1.2305    3.2800    2.6074 C   0  0  0  0  0  0  0  0  0  0  0  0
    1.8867    4.2993    3.4268 C   0  0  0  0  0  0  0  0  0  0  0  0
    3.1535    4.7639    3.0838 C   0  0  0  0  0  0  0  0  0  0  0  0
    3.7457    5.7648    3.8293 C   0  0  0  0  0  0  0  0  0  0  0  0
    3.0885    6.3105    4.9181 C   0  0  0  0  0  0  0  0  0  0  0  0
    1.8258    5.8578    5.2775 C   0  0  0  0  0  0  0  0  0  0  0  0
    1.0746    6.4741    6.4231 C   0  0  0  0  0  0  0  0  0  0  0  0
    0.0635    7.5014    5.9107 C   0  0  0  0  0  0  0  0  0  0  0  0
    1.2359    4.8570    4.5222 C   0  0  0  0  0  0  0  0  0  0  0  0
    1.2352    3.2961    1.1969 C   0  0  0  0  0  0  0  0  0  0  0  0
    1.9869    4.3541    0.0261 S   0  0  0  0  0  0  0  0  0  0  0  0
    1.2925    3.4063   -1.2459 C   0  0  0  0  0  0  0  0  0  0  0  0
    1.3460    3.3002   -2.6449 C   0  0  0  0  0  0  0  0  0  0  0  0
    2.1464    3.9628   -3.6021 C   0  0  0  0  0  0  0  0  0  0  0  0
    2.1867    3.4560   -4.9461 C   0  0  0  0  0  0  0  0  0  0  0  0
    3.0440    4.1148   -5.7092 N   0  0  0  0  0  0  0  0  0  0  0  0
    3.7349    5.2782   -4.8190 S   0  0  0  0  0  0  0  0  0  0  0  0
    2.9711    4.9823   -3.4228 N   0  0  0  0  0  0  0  0  0  0  0  0
    1.3229    2.3976   -5.3043 C   0  0  0  0  0  0  0  0  0  0  0  0
    1.1064    1.7318   -6.5224 C   0  0  0  0  0  0  0  0  0  0  0  0
    1.7567    1.6818   -8.1254 S   0  0  0  0  0  0  0  0  0  0  0  0
    0.5847    0.4504   -8.5374 C   0  0  0  0  0  0  0  0  0  0  0  0
    0.3657   -0.3005   -9.7043 C   0  0  0  0  0  0  0  0  0  0  0  0
    1.2214   -0.1945  -10.8873 C   0  0  0  0  0  0  0  0  0  0  0  0
    1.5442    1.0544  -11.4091 C   0  0  0  0  0  0  0  0  0  0  0  0
    2.3706    1.1444  -12.5140 C   0  0  0  0  0  0  0  0  0  0  0  0
    2.8811    0.0000  -13.1005 C   0  0  0  0  0  0  0  0  0  0  0  0
    2.5848   -1.2548  -12.5801 C   0  0  0  0  0  0  0  0  0  0  0  0
    3.0928   -2.5032  -13.2402 C   0  0  0  0  0  0  0  0  0  0  0  0
    2.0923   -2.9892  -14.2916 C   0  0  0  0  0  0  0  0  0  0  0  0
    1.7602   -1.3386  -11.4697 C   0  0  0  0  0  0  0  0  0  0  0  0
   -0.6915   -1.1886   -9.5376 C   0  0  0  0  0  0  0  0  0  0  0  0
   -1.3812   -1.1171   -7.9197 S   0  0  0  0  0  0  0  0  0  0  0  0
   -0.2641    0.1195   -7.4747 C   0  0  0  0  0  0  0  0  0  0  0  0
    0.0431    0.8465   -6.3215 C   0  0  0  0  0  0  0  0  0  0  0  0
   -0.3975    0.9220   -5.0238 N   0  0  0  0  0  0  0  0  0  0  0  0
    0.4031    1.8444   -4.3706 C   0  0  0  0  0  0  0  0  0  0  0  0
    0.5187    2.1990   -3.0034 C   0  0  0  0  0  0  0  0  0  0  0  0
    0.0191    1.6318   -1.8464 N   0  0  0  0  0  0  0  0  0  0  0  0
    0.4951    2.3544   -0.7870 C   0  0  0  0  0  0  0  0  0  0  0  0
    0.4755    2.2830    0.6119 C   0  0  0  0  0  0  0  0  0  0  0  0
   -0.2291    1.2566    1.8055 S   0  0  0  0  0  0  0  0  0  0  0  0
   -0.6144    0.3527   -1.6208 C   0  0  0  0  0  0  0  0  0  0  0  0
   -2.0554    0.5096   -1.1335 C   0  0  0  0  0  0  0  0  0  0  0  0
   -1.7663    0.5555   -4.7284 C   0  0  0  0  0  0  0  0  0  0  0  0
   -2.7524    1.4166   -5.5180 C   0  0  0  0  0  0  0  0  0  0  0  0
   -1.2835   -2.0809  -10.4653 C   0  0  0  0  0  0  0  0  0  0  0  0
   -1.1640   -2.0944  -11.8493 C   0  0  0  0  0  0  0  0  0  0  0  0
   -1.8931   -3.1118  -12.4366 C   0  0  0  0  0  0  0  0  0  0  0  0
   -1.8950   -3.3684  -14.1856 S   0  0  0  0  0  0  0  0  0  0  0  0
   -3.6077   -2.8611  -14.5962 C   0  0  0  0  0  0  0  0  0  0  0  0
   -3.7891   -1.3656  -14.4392 C   0  0  0  0  0  0  0  0  0  0  0  0
   -2.5856   -3.9306  -11.5238 C   0  0  0  0  0  0  0  0  0  0  0  0
   -2.3387   -3.3389   -9.8973 S   0  0  0  0  0  0  0  0  0  0  0  0
   -3.2965   -5.0677  -11.9075 C   0  0  0  0  0  0  0  0  0  0  0  0
   -3.9918   -5.9819  -11.1487 C   0  0  0  0  0  0  0  0  0  0  0  0
   -4.0828   -5.9795   -9.6863 C   0  0  0  0  0  0  0  0  0  0  0  0
   -3.6822   -5.1235   -8.9199 O   0  0  0  0  0  0  0  0  0  0  0  0
   -4.7595   -7.2433   -9.3252 C   0  0  0  0  0  0  0  0  0  0  0  0
   -5.0664   -7.7790   -8.0886 C   0  0  0  0  0  0  0  0  0  0  0  0
   -4.7611   -7.1298   -6.9594 F   0  0  0  0  0  0  0  0  0  0  0  0
   -5.7011   -9.0125   -8.0042 C   0  0  0  0  0  0  0  0  0  0  0  0
   -6.0204   -9.6967   -9.1635 C   0  0  0  0  0  0  0  0  0  0  0  0
   -5.7263   -9.1760  -10.4185 C   0  0  0  0  0  0  0  0  0  0  0  0
   -5.0965   -7.9458  -10.4973 C   0  0  0  0  0  0  0  0  0  0  0  0
   -4.6792   -7.1468  -11.6525 C   0  0  0  0  0  0  0  0  0  0  0  0
   -4.9746   -7.4385  -12.9611 C   0  0  0  0  0  0  0  0  0  0  0  0
   -4.7096   -6.5974  -14.0610 C   0  0  0  0  0  0  0  0  0  0  0  0
   -4.5710   -5.9485  -14.9991 N   0  0  0  0  0  0  0  0  0  0  0  0
   -5.6495   -8.6017  -13.3839 C   0  0  0  0  0  0  0  0  0  0  0  0
   -6.1869   -9.5282  -13.7981 N   0  0  0  0  0  0  0  0  0  0  0  0
   -0.9560   -1.3890    9.9561 H   0  0  0  0  0  0  0  0  0  0  0  0
    3.2941    2.2511   15.2913 H   0  0  0  0  0  0  0  0  0  0  0  0
    2.7345    0.0509   16.2682 H   0  0  0  0  0  0  0  0  0  0  0  0
    1.5295   -1.6371   14.9534 H   0  0  0  0  0  0  0  0  0  0  0  0
    2.0036   -2.0267    8.5396 H   0  0  0  0  0  0  0  0  0  0  0  0
    2.8670   -3.6136   10.1875 H   0  0  0  0  0  0  0  0  0  0  0  0
    4.9910   -3.9027   11.8886 H   0  0  0  0  0  0  0  0  0  0  0  0
    5.0064   -2.6262   13.1132 H   0  0  0  0  0  0  0  0  0  0  0  0
    3.5535   -3.5976   12.8531 H   0  0  0  0  0  0  0  0  0  0  0  0
    4.8885   -0.4436   12.2036 H   0  0  0  0  0  0  0  0  0  0  0  0
    4.0297    1.1566   10.5481 H   0  0  0  0  0  0  0  0  0  0  0  0
    1.8894    3.2101    8.4876 H   0  0  0  0  0  0  0  0  0  0  0  0
    3.3996    4.9815    7.6670 H   0  0  0  0  0  0  0  0  0  0  0  0
    6.9491    4.4438    6.8318 H   0  0  0  0  0  0  0  0  0  0  0  0
    5.7047    5.6598    7.1635 H   0  0  0  0  0  0  0  0  0  0  0  0
    5.7452    4.8407    5.6044 H   0  0  0  0  0  0  0  0  0  0  0  0
    6.3889    2.0505    6.8524 H   0  0  0  0  0  0  0  0  0  0  0  0
    4.8773    0.2827    7.6548 H   0  0  0  0  0  0  0  0  0  0  0  0
   -0.8984   -1.4889    4.5000 H   0  0  0  0  0  0  0  0  0  0  0  0
   -2.0693   -3.5896    5.0046 H   0  0  0  0  0  0  0  0  0  0  0  0
   -4.3961   -4.3147    6.4986 H   0  0  0  0  0  0  0  0  0  0  0  0
   -4.4274   -4.7375    4.7911 H   0  0  0  0  0  0  0  0  0  0  0  0
   -5.7739   -3.8365    5.5028 H   0  0  0  0  0  0  0  0  0  0  0  0
   -5.7563   -1.4664    5.2971 H   0  0  0  0  0  0  0  0  0  0  0  0
   -4.5872    0.6393    4.8243 H   0  0  0  0  0  0  0  0  0  0  0  0
   -3.5069    0.5445    2.2614 H   0  0  0  0  0  0  0  0  0  0  0  0
   -4.4461    2.2978    0.8236 H   0  0  0  0  0  0  0  0  0  0  0  0
   -3.3324    5.4416    0.4797 H   0  0  0  0  0  0  0  0  0  0  0  0
   -4.6146    5.7873    1.6341 H   0  0  0  0  0  0  0  0  0  0  0  0
   -4.8782    4.5969    0.3523 H   0  0  0  0  0  0  0  0  0  0  0  0
   -2.6880    5.2852    3.3078 H   0  0  0  0  0  0  0  0  0  0  0  0
   -1.7911    3.5351    4.7769 H   0  0  0  0  0  0  0  0  0  0  0  0
    3.6732    4.3351    2.2407 H   0  0  0  0  0  0  0  0  0  0  0  0
    4.7243    6.1293    3.5518 H   0  0  0  0  0  0  0  0  0  0  0  0
    3.5573    7.0984    5.4903 H   0  0  0  0  0  0  0  0  0  0  0  0
    1.7706    6.9677    7.1041 H   0  0  0  0  0  0  0  0  0  0  0  0
    0.5475    5.6957    6.9793 H   0  0  0  0  0  0  0  0  0  0  0  0
   -0.6508    7.0296    5.2397 H   0  0  0  0  0  0  0  0  0  0  0  0
   -0.4807    7.9465    6.7404 H   0  0  0  0  0  0  0  0  0  0  0  0
    0.5728    8.2924    5.3643 H   0  0  0  0  0  0  0  0  0  0  0  0
    0.2428    4.5170    4.7758 H   0  0  0  0  0  0  0  0  0  0  0  0
    1.1357    1.9463  -10.9588 H   0  0  0  0  0  0  0  0  0  0  0  0
    2.6156    2.1142  -12.9208 H   0  0  0  0  0  0  0  0  0  0  0  0
    3.5216    0.0786  -13.9670 H   0  0  0  0  0  0  0  0  0  0  0  0
    4.0531   -2.3053  -13.7202 H   0  0  0  0  0  0  0  0  0  0  0  0
    3.2377   -3.2853  -12.4924 H   0  0  0  0  0  0  0  0  0  0  0  0
    1.9375   -2.2247  -15.0494 H   0  0  0  0  0  0  0  0  0  0  0  0
    2.4602   -3.8889  -14.7782 H   0  0  0  0  0  0  0  0  0  0  0  0
    1.1308   -3.2135  -13.8348 H   0  0  0  0  0  0  0  0  0  0  0  0
    1.5349   -2.3058  -11.0436 H   0  0  0  0  0  0  0  0  0  0  0  0
   -0.0427   -0.1664   -0.8430 H   0  0  0  0  0  0  0  0  0  0  0  0
   -0.5518   -0.2447   -2.5307 H   0  0  0  0  0  0  0  0  0  0  0  0
   -2.5272   -0.4663   -1.0625 H   0  0  0  0  0  0  0  0  0  0  0  0
   -2.6409    1.1361   -1.8032 H   0  0  0  0  0  0  0  0  0  0  0  0
   -2.0685    0.9717   -0.1499 H   0  0  0  0  0  0  0  0  0  0  0  0
   -1.9044   -0.4986   -4.9888 H   0  0  0  0  0  0  0  0  0  0  0  0
   -1.9582    0.6961   -3.6713 H   0  0  0  0  0  0  0  0  0  0  0  0
   -2.6263    1.2738   -6.5874 H   0  0  0  0  0  0  0  0  0  0  0  0
   -2.6022    2.4693   -5.2866 H   0  0  0  0  0  0  0  0  0  0  0  0
   -3.7689    1.1402   -5.2520 H   0  0  0  0  0  0  0  0  0  0  0  0
   -0.5932   -1.3809  -12.4139 H   0  0  0  0  0  0  0  0  0  0  0  0
   -3.7381   -3.1783  -15.6291 H   0  0  0  0  0  0  0  0  0  0  0  0
   -4.2948   -3.4211  -13.9648 H   0  0  0  0  0  0  0  0  0  0  0  0
   -3.0765   -0.8282  -15.0608 H   0  0  0  0  0  0  0  0  0  0  0  0
   -3.6391   -1.0661  -13.4030 H   0  0  0  0  0  0  0  0  0  0  0  0
   -4.7965   -1.0841  -14.7393 H   0  0  0  0  0  0  0  0  0  0  0  0
   -3.2417   -5.2644  -12.9728 H   0  0  0  0  0  0  0  0  0  0  0  0
   -5.9337   -9.4186   -7.0324 H   0  0  0  0  0  0  0  0  0  0  0  0
   -6.5095  -10.6559   -9.0928 H   0  0  0  0  0  0  0  0  0  0  0  0
   -5.9856   -9.7337  -11.3027 H   0  0  0  0  0  0  0  0  0  0  0  0
  1  2  2  0  0  0  0
  2  3  1  0  0  0  0
  3  4  2  0  0  0  0
  3  5  1  0  0  0  0
  5  6  2  0  0  0  0
  6  7  1  0  0  0  0
  6  8  1  0  0  0  0
  8  9  2  0  0  0  0
  9 10  1  0  0  0  0
 10 11  2  0  0  0  0
 11 12  1  0  0  0  0
 12 13  2  0  0  0  0
 13 14  1  0  0  0  0
 14 15  3  0  0  0  0
 13 16  1  0  0  0  0
 16 17  3  0  0  0  0
  1 18  1  0  0  0  0
 18 19  2  0  0  0  0
 19 20  1  0  0  0  0
 20 21  1  0  0  0  0
 21 22  2  0  0  0  0
 22 23  1  0  0  0  0
 23 24  2  0  0  0  0
 24 25  1  0  0  0  0
 24 26  1  0  0  0  0
 26 27  2  0  0  0  0
 20 28  1  0  0  0  0
 28 29  2  0  0  0  0
 29 30  1  0  0  0  0
 30 31  2  0  0  0  0
 31 32  1  0  0  0  0
 31 33  1  0  0  0  0
 33 34  2  0  0  0  0
 19 35  1  0  0  0  0
 35 36  1  0  0  0  0
 36 37  1  0  0  0  0
 37 38  2  0  0  0  0
 38 39  1  0  0  0  0
 39 40  1  0  0  0  0
 40 41  2  0  0  0  0
 41 42  1  0  0  0  0
 42 43  2  0  0  0  0
 43 44  1  0  0  0  0
 43 45  1  0  0  0  0
 45 46  2  0  0  0  0
 39 47  1  0  0  0  0
 47 48  2  0  0  0  0
 48 49  1  0  0  0  0
 49 50  2  0  0  0  0
 50 51  1  0  0  0  0
 50 52  1  0  0  0  0
 52 53  2  0  0  0  0
 38 54  1  0  0  0  0
 54 55  1  0  0  0  0
 37 56  1  0  0  0  0
 56 57  2  0  0  0  0
 57 58  1  0  0  0  0
 58 59  2  0  0  0  0
 59 60  1  0  0  0  0
 60 61  2  0  0  0  0
 61 62  1  0  0  0  0
 62 63  1  0  0  0  0
 63 64  1  0  0  0  0
 62 65  2  0  0  0  0
 57 66  1  0  0  0  0
 66 67  1  0  0  0  0
 67 68  1  0  0  0  0
 68 69  1  0  0  0  0
 69 70  1  0  0  0  0
 70 71  1  0  0  0  0
 71 72  2  0  0  0  0
 72 73  1  0  0  0  0
 73 74  1  0  0  0  0
 71 75  1  0  0  0  0
 75 76  1  0  0  0  0
 76 77  1  0  0  0  0
 77 78  1  0  0  0  0
 78 79  1  0  0  0  0
 79 80  1  0  0  0  0
 80 81  2  0  0  0  0
 81 82  1  0  0  0  0
 82 83  2  0  0  0  0
 83 84  1  0  0  0  0
 84 85  1  0  0  0  0
 85 86  1  0  0  0  0
 84 87  2  0  0  0  0
 79 88  2  0  0  0  0
 88 89  1  0  0  0  0
 89 90  1  0  0  0  0
 90 91  1  0  0  0  0
 91 92  1  0  0  0  0
 92 93  1  0  0  0  0
 93 94  1  0  0  0  0
 94 95  1  0  0  0  0
 95 96  1  0  0  0  0
 96 97  1  0  0  0  0
 97 98  1  0  0  0  0
 95 99  1  0  0  0  0
 99100  1  0  0  0  0
 92101  1  0  0  0  0
101102  1  0  0  0  0
 88103  1  0  0  0  0
103104  2  0  0  0  0
104105  1  0  0  0  0
105106  1  0  0  0  0
106107  1  0  0  0  0
107108  1  0  0  0  0
105109  2  0  0  0  0
109110  1  0  0  0  0
109111  1  0  0  0  0
111112  2  0  0  0  0
112113  1  0  0  0  0
113114  2  0  0  0  0
113115  1  0  0  0  0
115116  2  0  0  0  0
116117  1  0  0  0  0
116118  1  0  0  0  0
118119  2  0  0  0  0
119120  1  0  0  0  0
120121  2  0  0  0  0
121122  1  0  0  0  0
122123  2  0  0  0  0
123124  1  0  0  0  0
124125  3  0  0  0  0
123126  1  0  0  0  0
126127  3  0  0  0  0
 12  2  1  0  0  0  0
 55 18  1  0  0  0  0
 98 56  1  0  0  0  0
110103  1  0  0  0  0
122112  1  0  0  0  0
 11  5  1  0  0  0  0
 27 21  1  0  0  0  0
 34 28  1  0  0  0  0
 54 35  2  0  0  0  0
 65 58  1  0  0  0  0
 97 66  2  0  0  0  0
121115  1  0  0  0  0
 46 40  1  0  0  0  0
 53 47  1  0  0  0  0
 96 68  2  0  0  0  0
 94 69  2  0  0  0  0
 74 70  2  0  0  0  0
 93 75  2  0  0  0  0
 91 76  2  0  0  0  0
 90 78  2  0  0  0  0
 87 80  1  0  0  0  0
  1128  1  0  0  0  0
  8129  1  0  0  0  0
  9130  1  0  0  0  0
 10131  1  0  0  0  0
 22132  1  0  0  0  0
 23133  1  0  0  0  0
 25134  1  0  0  0  0
 25135  1  0  0  0  0
 25136  1  0  0  0  0
 26137  1  0  0  0  0
 27138  1  0  0  0  0
 29139  1  0  0  0  0
 30140  1  0  0  0  0
 32141  1  0  0  0  0
 32142  1  0  0  0  0
 32143  1  0  0  0  0
 33144  1  0  0  0  0
 34145  1  0  0  0  0
 41146  1  0  0  0  0
 42147  1  0  0  0  0
 44148  1  0  0  0  0
 44149  1  0  0  0  0
 44150  1  0  0  0  0
 45151  1  0  0  0  0
 46152  1  0  0  0  0
 48153  1  0  0  0  0
 49154  1  0  0  0  0
 51155  1  0  0  0  0
 51156  1  0  0  0  0
 51157  1  0  0  0  0
 52158  1  0  0  0  0
 53159  1  0  0  0  0
 59160  1  0  0  0  0
 60161  1  0  0  0  0
 61162  1  0  0  0  0
 63163  1  0  0  0  0
 63164  1  0  0  0  0
 64165  1  0  0  0  0
 64166  1  0  0  0  0
 64167  1  0  0  0  0
 65168  1  0  0  0  0
 81169  1  0  0  0  0
 82170  1  0  0  0  0
 83171  1  0  0  0  0
 85172  1  0  0  0  0
 85173  1  0  0  0  0
 86174  1  0  0  0  0
 86175  1  0  0  0  0
 86176  1  0  0  0  0
 87177  1  0  0  0  0
 99178  1  0  0  0  0
 99179  1  0  0  0  0
100180  1  0  0  0  0
100181  1  0  0  0  0
100182  1  0  0  0  0
101183  1  0  0  0  0
101184  1  0  0  0  0
102185  1  0  0  0  0
102186  1  0  0  0  0
102187  1  0  0  0  0
104188  1  0  0  0  0
107189  1  0  0  0  0
107190  1  0  0  0  0
108191  1  0  0  0  0
108192  1  0  0  0  0
108193  1  0  0  0  0
111194  1  0  0  0  0
118195  1  0  0  0  0
119196  1  0  0  0  0
120197  1  0  0  0  0
M  END
