249

C         12.67380       -0.15870        3.21750
C         13.91250        0.15270        2.68940
C         14.23340        0.31310        1.27070
O         13.50500        0.13730        0.31170
C         15.64170        0.76590        1.22740
C         16.45850        1.06310        0.15400
F         16.02050        0.93190       -1.10550
C         17.76070        1.49760        0.37000
C         18.22940        1.62670        1.66520
C         17.42990        1.32150        2.76090
C         16.13390        0.88850        2.53950
C         15.08060        0.46780        3.46810
C         15.23170        0.36530        4.83200
C         16.37690        0.78120        5.53810
N         17.26950        1.11050        6.18260
C         14.29750       -0.20060        5.71930
N         13.61840       -0.69020        6.50830
C         11.47640       -0.48020        2.59120
C         10.28670       -0.79700        3.30500
N         10.09580       -0.63990        4.65080
C         10.60970        0.45700        5.36610
C         10.71790        1.70970        4.76640
C         11.22680        2.77570        5.48050
C         11.61990        2.63060        6.80610
C         12.19370        3.77920        7.57640
C         11.47940        1.38360        7.40360
C         10.98740        0.30390        6.69790
C          9.23090       -1.53420        5.31290
C          8.27270       -1.06910        6.20680
C          7.43470       -1.96160        6.84620
C          7.52640       -3.32770        6.61130
C          6.60380       -4.29480        7.28600
C          8.49130       -3.78260        5.71880
C          9.33800       -2.90270        5.07730
C          9.30530       -1.30030        2.43740
S          7.66770       -1.83390        2.65400
C          7.51120       -2.07820        0.92100
C          8.64480       -1.69540        0.21490
N          8.75430       -1.64550       -1.15970
C         10.03220       -1.78350       -1.73550
C         10.45820       -0.90120       -2.72350
C         11.74080       -0.99240       -3.22270
C         12.62840       -1.95530       -2.75500
C         14.04190       -1.98470       -3.24500
C         12.18020       -2.85550       -1.79820
C         10.89730       -2.77800       -1.29210
C          7.65560       -1.32200       -1.96520
C          6.68930       -0.41370       -1.53810
C          5.55970       -0.18860       -2.29920
C          5.36770       -0.83940       -3.51150
C          4.10410       -0.65360       -4.29500
C          6.37400       -1.68270       -3.96760
C          7.50520       -1.92120       -3.21320
C          9.67610       -1.29230        1.09800
S         11.27600       -0.69780        0.84790
C          6.28550       -2.55160        0.35330
C          6.13650       -3.50180       -0.63770
C          7.19050       -4.42990       -1.03980
C          8.11310       -4.90420       -0.10840
C          9.10100       -5.78630       -0.49980
C          9.18380       -6.20690       -1.81640
C          8.26200       -5.76140       -2.75370
C          8.29560       -6.25230       -4.17210
C          7.28840       -7.38740       -4.36530
C          7.26690       -4.88340       -2.35210
C          4.82170       -3.49120       -1.15470
S          4.03640       -4.37450       -2.44090
C          2.57970       -3.48740       -2.14140
C          1.28390       -3.34660       -2.66770
C          0.66880       -3.93430       -3.79380
C         -0.64960       -3.50720       -4.16750
N         -1.08260       -4.10510       -5.26670
S          0.06850       -5.11880       -5.78630
N          1.16490       -4.83410       -4.62880
C         -1.32750       -2.58290       -3.34420
C         -2.63640       -2.07350       -3.40560
S         -4.04820       -2.17500       -4.40380
C         -4.90880       -1.16650       -3.26620
C         -6.23740       -0.68610       -3.20920
C         -7.24420       -0.85530       -4.25410
C         -7.26350       -1.99620       -5.05200
C         -8.23540       -2.14610       -6.02300
C         -9.18600       -1.16160       -6.22170
C         -9.16180        0.00130       -5.46140
C        -10.14580        1.10560       -5.72440
C         -9.65060        2.00230       -6.86040
C         -8.18700        0.14380       -4.48770
C         -6.45060        0.03260       -2.04940
S         -4.99970        0.21010       -1.07650
C         -4.12030       -0.77630       -2.18480
C         -2.82010       -1.29110       -2.26630
N         -1.67540       -1.27040       -1.51580
C         -0.73230       -2.05200       -2.16570
C          0.62510       -2.35810       -1.88450
N          1.51780       -1.89200       -0.93090
C          2.69380       -2.57340       -1.09460
C          3.97710       -2.57390       -0.53190
S          4.78740       -1.71390        0.72600
C          1.51860       -0.64770       -0.19480
C          1.36420        0.55200       -1.12570
C         -1.74490       -0.86170       -0.13070
C         -1.59340       -2.05240        0.81210
C         -7.69570        0.46380       -1.48770
C         -8.83390       -0.30940       -1.30300
N         -8.94350       -1.65300       -1.61490
C        -10.17040       -2.15310       -2.07440
C        -10.59720       -3.42660       -1.70940
C        -11.81080       -3.90740       -2.15990
C        -12.63380       -3.13710       -2.97140
C        -13.96090       -3.64600       -3.44410
C        -12.20090       -1.86560       -3.32870
C        -10.98700       -1.37630       -2.89280
C         -7.83530       -2.49880       -1.45980
C         -7.58780       -3.52140       -2.37190
C         -6.44160       -4.28350       -2.26800
C         -5.51400       -4.05850       -1.25750
C         -4.23520       -4.83710       -1.20330
C         -5.79900       -3.07870       -0.31520
C         -6.94520       -2.31380       -0.40410
C         -9.84810        0.44570       -0.66650
S        -11.47580        0.10590       -0.21630
C        -11.62840        1.70610        0.53380
C        -10.47180        2.49520        0.33190
N        -10.32770        3.82290        0.60040
C        -11.40490        4.71420        0.69050
C        -11.38790        5.72160        1.65320
C        -12.46230        6.58290        1.77780
C        -13.57170        6.47120        0.95100
C        -14.75920        7.36660        1.11310
C        -13.55860        5.49200       -0.04020
C        -12.49560        4.62460       -0.17390
C         -9.02680        4.34870        0.78080
C         -8.63960        5.48960        0.08820
C         -7.36570        5.99710        0.25810
C         -6.46000        5.38470        1.11540
C         -5.06880        5.91470        1.27660
C         -6.86760        4.25500        1.81700
C         -8.13690        3.73720        1.65820
C         -9.47160        1.73680       -0.31900
S         -7.84390        2.07280       -0.80570
C        -12.82720        1.97750        1.18790
C        -13.01430        2.92210        2.18130
C        -11.94450        3.36270        3.08750
O        -10.78340        3.00450        3.08500
C        -12.61580        4.22620        4.08960
C        -12.10660        4.91310        5.17270
F        -10.79610        4.88720        5.45540
C        -12.95080        5.66610        5.98090
C        -14.30350        5.71350        5.69780
C        -14.83960        5.03260        4.61040
C        -13.99130        4.29450        3.80550
C        -14.25000        3.50970        2.59670
C        -15.42870        3.49030        1.88850
C        -16.59020        4.18730        2.26400
N        -17.55890        4.75540        2.50960
C        -15.58460        2.84050        0.64890
N        -15.77060        2.36210       -0.37920
H         12.61890       -0.15920        4.29880
H         18.38680        1.72770       -0.47760
H         19.23990        1.96770        1.82930
H         17.82600        1.42670        3.75700
H         10.40720        1.84170        3.74030
H         11.31080        3.73990        5.00010
H         11.71400        3.86670        8.54950
H         12.06840        4.71440        7.03650
H         13.25870        3.61910        7.74550
H         11.77860        1.24940        8.43190
H         10.90430       -0.66210        7.16980
H          8.18600       -0.00880        6.39210
H          6.69190       -1.58720        7.53540
H          5.85800       -4.65440        6.57680
H          6.08580       -3.82480        8.11790
H          7.15430       -5.15780        7.65540
H          8.58380       -4.84230        5.53050
H         10.09330       -3.26730        4.39640
H          9.78500       -0.13410       -3.07800
H         12.06930       -0.28780       -3.97260
H         14.61940       -1.22590       -2.71640
H         14.09180       -1.76260       -4.30890
H         14.50100       -2.95320       -3.06170
H         12.84680       -3.62340       -1.43300
H         10.55930       -3.48140       -0.54560
H          6.82400        0.11110       -0.60340
H          4.81400        0.50710       -1.94000
H          3.35750       -1.38420       -3.97780
H          3.69090        0.34140       -4.14100
H          4.28120       -0.80000       -5.35770
H          6.26000       -2.17560       -4.92230
H          8.27430       -2.58900       -3.57140
H          8.04240       -4.59480        0.92400
H          9.81110       -6.15300        0.22770
H          9.96510       -6.89060       -2.11540
H          8.04630       -5.43400       -4.85100
H          9.29760       -6.60840       -4.41890
H          7.52570       -8.21910       -3.70560
H          6.28280       -7.04320       -4.13450
H          7.30770       -7.74260       -5.39290
H          6.54970       -4.53160       -3.07770
H         -6.52950       -2.77120       -4.89900
H         -8.25150       -3.04050       -6.62830
H         -9.94780       -1.28980       -6.97700
H        -10.27950        1.71000       -4.82420
H        -11.11340        0.67930       -5.99730
H        -10.36370        2.80020       -7.05450
H         -8.69280        2.44720       -6.59950
H         -9.52070        1.42240       -7.77120
H         -8.14910        1.05510       -3.90770
H          0.75320       -0.65570        0.58200
H          2.48590       -0.58890        0.31040
H          2.18540        0.57190       -1.83840
H          0.43300        0.50170       -1.68480
H          1.38030        1.47360       -0.54970
H         -2.73260       -0.41560        0.00980
H         -1.01040       -0.08400        0.08180
H         -1.66400       -1.71960        1.84440
H         -0.63900       -2.55270        0.66750
H         -2.38550       -2.77320        0.62320
H         -9.97580       -4.03370       -1.06780
H        -12.12730       -4.89760       -1.86500
H        -14.08670       -4.69690       -3.19630
H        -14.76680       -3.08200       -2.97490
H        -14.05600       -3.52580       -4.52210
H        -12.82390       -1.25000       -3.96100
H        -10.65890       -0.39390       -3.19450
H         -8.28970       -3.69670       -3.17290
H         -6.25270       -5.05680       -2.99840
H         -4.38040       -5.84720       -1.57880
H         -3.47880       -4.35680       -1.82670
H         -3.85310       -4.89190       -0.18590
H         -5.11410       -2.90560        0.50320
H         -7.14950       -1.55990        0.34240
H        -10.53580        5.81250        2.31020
H        -12.44110        7.34500        2.54340
H        -14.56670        8.13960        1.85250
H        -15.62620        6.78990        1.43580
H        -15.01390        7.83960        0.16630
H        -14.40020        5.40420       -0.71170
H        -12.51020        3.87080       -0.94670
H         -9.33680        5.97010       -0.58280
H         -7.07080        6.88070       -0.28900
H         -4.99280        6.93340        0.90540
H         -4.76830        5.89590        2.32210
H         -4.36910        5.29340        0.71680
H         -6.18200        3.77870        2.50220
H         -8.46500        2.88120        2.22640
H        -13.66500        1.34760        0.91320
H        -12.53520        6.20240        6.81950
H        -14.95640        6.29270        6.33240
H        -15.89770        5.08340        4.41380
