
  xtb     02062217313D
 energy: -420.997295298491 gnorm: 0.000224989018 xtb: 6.4.1 (unknown)
264288  0     0  0            999 V2000
    6.3562  -10.0646    2.4113 C   0  0  0  0  0  0  0  0  0  0  0  0
    6.6245  -11.2807    1.8130 C   0  0  0  0  0  0  0  0  0  0  0  0
    6.8002  -11.5123    0.3794 C   0  0  0  0  0  0  0  0  0  0  0  0
    6.6133  -10.7320   -0.5359 O   0  0  0  0  0  0  0  0  0  0  0  0
    7.2830  -12.9066    0.2580 C   0  0  0  0  0  0  0  0  0  0  0  0
    7.6359  -13.6425   -0.8560 C   0  0  0  0  0  0  0  0  0  0  0  0
    7.5791  -13.1074   -2.0838 F   0  0  0  0  0  0  0  0  0  0  0  0
    8.0619  -14.9577   -0.7158 C   0  0  0  0  0  0  0  0  0  0  0  0
    8.1286  -15.5205    0.5462 C   0  0  0  0  0  0  0  0  0  0  0  0
    7.7807  -14.7990    1.6827 C   0  0  0  0  0  0  0  0  0  0  0  0
    7.3599  -13.4886    1.5366 C   0  0  0  0  0  0  0  0  0  0  0  0
    6.9289  -12.4936    2.5231 C   0  0  0  0  0  0  0  0  0  0  0  0
    6.8239  -12.7179    3.8766 C   0  0  0  0  0  0  0  0  0  0  0  0
    7.2096  -13.9114    4.5164 C   0  0  0  0  0  0  0  0  0  0  0  0
    7.5200  -14.8456    5.1093 N   0  0  0  0  0  0  0  0  0  0  0  0
    6.2940  -11.8142    4.8170 C   0  0  0  0  0  0  0  0  0  0  0  0
    5.8458  -11.1562    5.6472 N   0  0  0  0  0  0  0  0  0  0  0  0
    6.0509   -8.8315    1.8509 C   0  0  0  0  0  0  0  0  0  0  0  0
    5.8980   -7.6424    2.6160 C   0  0  0  0  0  0  0  0  0  0  0  0
    6.1724   -7.4965    3.9484 N   0  0  0  0  0  0  0  0  0  0  0  0
    7.2271   -8.1569    4.6024 C   0  0  0  0  0  0  0  0  0  0  0  0
    8.4299   -8.4116    3.9475 C   0  0  0  0  0  0  0  0  0  0  0  0
    9.4433   -9.0815    4.6029 C   0  0  0  0  0  0  0  0  0  0  0  0
    9.2971   -9.4926    5.9231 C   0  0  0  0  0  0  0  0  0  0  0  0
   10.3811  -10.2503    6.6251 C   0  0  0  0  0  0  0  0  0  0  0  0
    8.1076   -9.1981    6.5787 C   0  0  0  0  0  0  0  0  0  0  0  0
    7.0789   -8.5433    5.9319 C   0  0  0  0  0  0  0  0  0  0  0  0
    5.4317   -6.5323    4.6659 C   0  0  0  0  0  0  0  0  0  0  0  0
    6.0710   -5.5891    5.4620 C   0  0  0  0  0  0  0  0  0  0  0  0
    5.3315   -4.6136    6.1028 C   0  0  0  0  0  0  0  0  0  0  0  0
    3.9499   -4.5554    5.9693 C   0  0  0  0  0  0  0  0  0  0  0  0
    3.1504   -3.4625    6.6091 C   0  0  0  0  0  0  0  0  0  0  0  0
    3.3173   -5.5280    5.2024 C   0  0  0  0  0  0  0  0  0  0  0  0
    4.0433   -6.5087    4.5591 C   0  0  0  0  0  0  0  0  0  0  0  0
    5.3950   -6.6051    1.8184 C   0  0  0  0  0  0  0  0  0  0  0  0
    4.9846   -4.9507    2.1166 S   0  0  0  0  0  0  0  0  0  0  0  0
    4.4828   -4.7366    0.4354 C   0  0  0  0  0  0  0  0  0  0  0  0
    4.6226   -5.9130   -0.3003 C   0  0  0  0  0  0  0  0  0  0  0  0
    4.2983   -6.1164   -1.6333 N   0  0  0  0  0  0  0  0  0  0  0  0
    5.1336   -7.0092   -2.3408 C   0  0  0  0  0  0  0  0  0  0  0  0
    4.6053   -8.0938   -3.0342 C   0  0  0  0  0  0  0  0  0  0  0  0
    5.4492   -8.9995   -3.6419 C   0  0  0  0  0  0  0  0  0  0  0  0
    6.8306   -8.8560   -3.5725 C   0  0  0  0  0  0  0  0  0  0  0  0
    7.7274   -9.8935   -4.1689 C   0  0  0  0  0  0  0  0  0  0  0  0
    7.3467   -7.7538   -2.9046 C   0  0  0  0  0  0  0  0  0  0  0  0
    6.5128   -6.8354   -2.2968 C   0  0  0  0  0  0  0  0  0  0  0  0
    3.0490   -5.7834   -2.1567 C   0  0  0  0  0  0  0  0  0  0  0  0
    1.9225   -5.6674   -1.3441 C   0  0  0  0  0  0  0  0  0  0  0  0
    0.7038   -5.3124   -1.8903 C   0  0  0  0  0  0  0  0  0  0  0  0
    0.5680   -5.0725   -3.2506 C   0  0  0  0  0  0  0  0  0  0  0  0
   -0.7478   -4.6622   -3.8378 C   0  0  0  0  0  0  0  0  0  0  0  0
    1.6936   -5.2049   -4.0576 C   0  0  0  0  0  0  0  0  0  0  0  0
    2.9166   -5.5531   -3.5265 C   0  0  0  0  0  0  0  0  0  0  0  0
    5.1726   -6.9521    0.4923 C   0  0  0  0  0  0  0  0  0  0  0  0
    5.6509   -8.5755    0.1476 S   0  0  0  0  0  0  0  0  0  0  0  0
    3.9964   -3.4412    0.1237 C   0  0  0  0  0  0  0  0  0  0  0  0
    3.9826   -2.3844    1.0267 C   0  0  0  0  0  0  0  0  0  0  0  0
    3.3561   -1.2581    0.5161 C   0  0  0  0  0  0  0  0  0  0  0  0
    2.9821    0.1106    1.0243 C   0  0  0  0  0  0  0  0  0  0  0  0
    2.1321    0.0898    2.2793 C   0  0  0  0  0  0  0  0  0  0  0  0
    1.3961   -1.0324    2.6335 C   0  0  0  0  0  0  0  0  0  0  0  0
    0.5855   -1.0166    3.7540 C   0  0  0  0  0  0  0  0  0  0  0  0
    0.4747    0.1220    4.5399 C   0  0  0  0  0  0  0  0  0  0  0  0
   -0.3794    0.1289    5.7754 C   0  0  0  0  0  0  0  0  0  0  0  0
    0.4432   -0.2733    7.0011 C   0  0  0  0  0  0  0  0  0  0  0  0
    1.2072    1.2454    4.1777 C   0  0  0  0  0  0  0  0  0  0  0  0
    2.0243    1.2320    3.0636 C   0  0  0  0  0  0  0  0  0  0  0  0
    4.2648    0.8951    1.2274 C   0  0  0  0  0  0  0  0  0  0  0  0
    5.0386    0.6470    2.3550 C   0  0  0  0  0  0  0  0  0  0  0  0
    6.2312    1.3159    2.5491 C   0  0  0  0  0  0  0  0  0  0  0  0
    6.6874    2.2431    1.6205 C   0  0  0  0  0  0  0  0  0  0  0  0
    7.9583    3.0075    1.8558 C   0  0  0  0  0  0  0  0  0  0  0  0
    7.6673    4.3074    2.6088 C   0  0  0  0  0  0  0  0  0  0  0  0
    5.9155    2.4796    0.4918 C   0  0  0  0  0  0  0  0  0  0  0  0
    4.7206    1.8118    0.2917 C   0  0  0  0  0  0  0  0  0  0  0  0
    2.1281    0.6174   -0.1280 C   0  0  0  0  0  0  0  0  0  0  0  0
    2.1060   -0.3163   -1.1905 C   0  0  0  0  0  0  0  0  0  0  0  0
    2.8999   -1.4313   -0.7809 C   0  0  0  0  0  0  0  0  0  0  0  0
    3.2786   -2.9835   -1.4088 S   0  0  0  0  0  0  0  0  0  0  0  0
    1.3050   -0.1311   -2.3146 C   0  0  0  0  0  0  0  0  0  0  0  0
    0.4905    0.9779   -2.3307 C   0  0  0  0  0  0  0  0  0  0  0  0
   -0.5684    1.3588   -3.3541 C   0  0  0  0  0  0  0  0  0  0  0  0
   -1.6491    0.3194   -3.5724 C   0  0  0  0  0  0  0  0  0  0  0  0
   -1.7538   -0.8344   -2.8120 C   0  0  0  0  0  0  0  0  0  0  0  0
   -2.7833   -1.7327   -3.0404 C   0  0  0  0  0  0  0  0  0  0  0  0
   -3.7395   -1.4967   -4.0166 C   0  0  0  0  0  0  0  0  0  0  0  0
   -4.8377   -2.4865   -4.2783 C   0  0  0  0  0  0  0  0  0  0  0  0
   -4.4150   -3.4833   -5.3593 C   0  0  0  0  0  0  0  0  0  0  0  0
   -3.6289   -0.3395   -4.7782 C   0  0  0  0  0  0  0  0  0  0  0  0
   -2.5977    0.5524   -4.5629 C   0  0  0  0  0  0  0  0  0  0  0  0
    0.1444    1.6694   -4.6619 C   0  0  0  0  0  0  0  0  0  0  0  0
    0.5671    2.9544   -4.9709 C   0  0  0  0  0  0  0  0  0  0  0  0
    1.2461    3.2058   -6.1491 C   0  0  0  0  0  0  0  0  0  0  0  0
    1.5263    2.1835   -7.0450 C   0  0  0  0  0  0  0  0  0  0  0  0
    2.3007    2.4528   -8.3030 C   0  0  0  0  0  0  0  0  0  0  0  0
    3.8025    2.3119   -8.0465 C   0  0  0  0  0  0  0  0  0  0  0  0
    1.1133    0.8967   -6.7250 C   0  0  0  0  0  0  0  0  0  0  0  0
    0.4321    0.6409   -5.5506 C   0  0  0  0  0  0  0  0  0  0  0  0
   -1.1611    2.5864   -2.7072 C   0  0  0  0  0  0  0  0  0  0  0  0
   -0.4486    2.9167   -1.5707 C   0  0  0  0  0  0  0  0  0  0  0  0
    0.5466    1.9306   -1.2883 C   0  0  0  0  0  0  0  0  0  0  0  0
    1.3713    1.7640   -0.1803 C   0  0  0  0  0  0  0  0  0  0  0  0
   -1.0344    4.3368   -0.8075 S   0  0  0  0  0  0  0  0  0  0  0  0
   -2.3269    4.4330   -1.9858 C   0  0  0  0  0  0  0  0  0  0  0  0
   -2.2478    3.4344   -2.9292 C   0  0  0  0  0  0  0  0  0  0  0  0
   -3.4065    5.3638   -1.8311 C   0  0  0  0  0  0  0  0  0  0  0  0
   -4.7433    5.0043   -1.7525 C   0  0  0  0  0  0  0  0  0  0  0  0
   -5.1923    3.6946   -1.6895 N   0  0  0  0  0  0  0  0  0  0  0  0
   -4.4782    2.7715   -0.9080 C   0  0  0  0  0  0  0  0  0  0  0  0
   -3.8682    3.1807    0.2766 C   0  0  0  0  0  0  0  0  0  0  0  0
   -3.0870    2.3040    1.0018 C   0  0  0  0  0  0  0  0  0  0  0  0
   -2.9152    0.9894    0.5886 C   0  0  0  0  0  0  0  0  0  0  0  0
   -2.0020    0.0646    1.3330 C   0  0  0  0  0  0  0  0  0  0  0  0
   -3.5877    0.5699   -0.5523 C   0  0  0  0  0  0  0  0  0  0  0  0
   -4.3450    1.4449   -1.3057 C   0  0  0  0  0  0  0  0  0  0  0  0
   -6.3831    3.3477   -2.3375 C   0  0  0  0  0  0  0  0  0  0  0  0
   -7.2498    2.4058   -1.7899 C   0  0  0  0  0  0  0  0  0  0  0  0
   -8.4284    2.0900   -2.4360 C   0  0  0  0  0  0  0  0  0  0  0  0
   -8.7836    2.7051   -3.6301 C   0  0  0  0  0  0  0  0  0  0  0  0
  -10.0777    2.3871   -4.3142 C   0  0  0  0  0  0  0  0  0  0  0  0
   -7.9128    3.6438   -4.1706 C   0  0  0  0  0  0  0  0  0  0  0  0
   -6.7256    3.9595   -3.5420 C   0  0  0  0  0  0  0  0  0  0  0  0
   -5.5650    6.1474   -1.6270 C   0  0  0  0  0  0  0  0  0  0  0  0
   -7.2687    6.3802   -1.5570 S   0  0  0  0  0  0  0  0  0  0  0  0
   -7.0419    8.1242   -1.3261 C   0  0  0  0  0  0  0  0  0  0  0  0
   -5.6772    8.4954   -1.4155 C   0  0  0  0  0  0  0  0  0  0  0  0
   -5.1787    9.7607   -1.4826 N   0  0  0  0  0  0  0  0  0  0  0  0
   -3.8381    9.9936   -1.0950 C   0  0  0  0  0  0  0  0  0  0  0  0
   -2.9978   10.7334   -1.9181 C   0  0  0  0  0  0  0  0  0  0  0  0
   -1.6897   10.9633   -1.5361 C   0  0  0  0  0  0  0  0  0  0  0  0
   -1.1965   10.4662   -0.3365 C   0  0  0  0  0  0  0  0  0  0  0  0
    0.2257   10.6941    0.0720 C   0  0  0  0  0  0  0  0  0  0  0  0
   -2.0533    9.7399    0.4847 C   0  0  0  0  0  0  0  0  0  0  0  0
   -3.3618    9.5030    0.1168 C   0  0  0  0  0  0  0  0  0  0  0  0
   -5.9244   10.8580   -1.9327 C   0  0  0  0  0  0  0  0  0  0  0  0
   -5.7692   12.0991   -1.3179 C   0  0  0  0  0  0  0  0  0  0  0  0
   -6.5332   13.1779   -1.7232 C   0  0  0  0  0  0  0  0  0  0  0  0
   -7.4628   13.0548   -2.7465 C   0  0  0  0  0  0  0  0  0  0  0  0
   -8.3320   14.2020   -3.1541 C   0  0  0  0  0  0  0  0  0  0  0  0
   -7.5740   11.8237   -3.3903 C   0  0  0  0  0  0  0  0  0  0  0  0
   -6.8194   10.7398   -2.9959 C   0  0  0  0  0  0  0  0  0  0  0  0
   -4.8651    7.3455   -1.5485 C   0  0  0  0  0  0  0  0  0  0  0  0
   -3.1530    7.0866   -1.6584 S   0  0  0  0  0  0  0  0  0  0  0  0
   -8.1924    8.8728   -1.1023 C   0  0  0  0  0  0  0  0  0  0  0  0
   -8.2501   10.1153   -0.4928 C   0  0  0  0  0  0  0  0  0  0  0  0
   -7.2654   10.5739    0.4902 C   0  0  0  0  0  0  0  0  0  0  0  0
   -6.2945    9.9690    0.9031 O   0  0  0  0  0  0  0  0  0  0  0  0
   -7.7815   11.8747    0.9854 C   0  0  0  0  0  0  0  0  0  0  0  0
   -9.0054   12.1599    0.3557 C   0  0  0  0  0  0  0  0  0  0  0  0
   -9.6915   13.3206    0.6651 C   0  0  0  0  0  0  0  0  0  0  0  0
   -9.1359   14.1937    1.5907 C   0  0  0  0  0  0  0  0  0  0  0  0
   -7.9199   13.9177    2.1935 C   0  0  0  0  0  0  0  0  0  0  0  0
   -7.1965   15.1622    3.4212 Br  0  0  0  0  0  0  0  0  0  0  0  0
   -7.2196   12.7420    1.9029 C   0  0  0  0  0  0  0  0  0  0  0  0
   -5.7054   12.4028    2.6326 Cl  0  0  0  0  0  0  0  0  0  0  0  0
   -9.2976   11.0837   -0.5918 C   0  0  0  0  0  0  0  0  0  0  0  0
  -10.3014   11.0963   -1.5324 C   0  0  0  0  0  0  0  0  0  0  0  0
  -10.4525   10.1115   -2.5275 C   0  0  0  0  0  0  0  0  0  0  0  0
  -10.6109    9.3627   -3.3844 N   0  0  0  0  0  0  0  0  0  0  0  0
  -11.2391   12.1341   -1.6710 C   0  0  0  0  0  0  0  0  0  0  0  0
  -12.0165   12.9637   -1.8397 N   0  0  0  0  0  0  0  0  0  0  0  0
    6.4025  -10.0589    3.4926 H   0  0  0  0  0  0  0  0  0  0  0  0
    8.3337  -15.5202   -1.5950 H   0  0  0  0  0  0  0  0  0  0  0  0
    8.4589  -16.5424    0.6516 H   0  0  0  0  0  0  0  0  0  0  0  0
    7.8448  -15.2647    2.6519 H   0  0  0  0  0  0  0  0  0  0  0  0
    8.5606   -8.0935    2.9234 H   0  0  0  0  0  0  0  0  0  0  0  0
   10.3672   -9.2824    4.0797 H   0  0  0  0  0  0  0  0  0  0  0  0
   10.0842  -11.2918    6.7508 H   0  0  0  0  0  0  0  0  0  0  0  0
   11.3082  -10.2238    6.0581 H   0  0  0  0  0  0  0  0  0  0  0  0
   10.5606   -9.8359    7.6153 H   0  0  0  0  0  0  0  0  0  0  0  0
    7.9752   -9.5056    7.6049 H   0  0  0  0  0  0  0  0  0  0  0  0
    6.1517   -8.3432    6.4455 H   0  0  0  0  0  0  0  0  0  0  0  0
    7.1461   -5.6153    5.5599 H   0  0  0  0  0  0  0  0  0  0  0  0
    5.8408   -3.8755    6.7052 H   0  0  0  0  0  0  0  0  0  0  0  0
    2.2615   -3.8670    7.0897 H   0  0  0  0  0  0  0  0  0  0  0  0
    2.8262   -2.7496    5.8494 H   0  0  0  0  0  0  0  0  0  0  0  0
    3.7389   -2.9281    7.3503 H   0  0  0  0  0  0  0  0  0  0  0  0
    2.2416   -5.5122    5.1051 H   0  0  0  0  0  0  0  0  0  0  0  0
    3.5442   -7.2593    3.9638 H   0  0  0  0  0  0  0  0  0  0  0  0
    3.5346   -8.2326   -3.0709 H   0  0  0  0  0  0  0  0  0  0  0  0
    5.0307   -9.8510   -4.1579 H   0  0  0  0  0  0  0  0  0  0  0  0
    7.7493  -10.7643   -3.5140 H   0  0  0  0  0  0  0  0  0  0  0  0
    8.7425   -9.5201   -4.2793 H   0  0  0  0  0  0  0  0  0  0  0  0
    7.3588  -10.2158   -5.1407 H   0  0  0  0  0  0  0  0  0  0  0  0
    8.4169   -7.6158   -2.8480 H   0  0  0  0  0  0  0  0  0  0  0  0
    6.9240   -5.9873   -1.7673 H   0  0  0  0  0  0  0  0  0  0  0  0
    2.0056   -5.8597   -0.2841 H   0  0  0  0  0  0  0  0  0  0  0  0
   -0.1581   -5.2249   -1.2440 H   0  0  0  0  0  0  0  0  0  0  0  0
   -1.5731   -5.0286   -3.2310 H   0  0  0  0  0  0  0  0  0  0  0  0
   -0.8558   -5.0476   -4.8496 H   0  0  0  0  0  0  0  0  0  0  0  0
   -0.8179   -3.5741   -3.8831 H   0  0  0  0  0  0  0  0  0  0  0  0
    1.6096   -5.0249   -5.1198 H   0  0  0  0  0  0  0  0  0  0  0  0
    3.7837   -5.6436   -4.1632 H   0  0  0  0  0  0  0  0  0  0  0  0
    4.3887   -2.4687    2.0188 H   0  0  0  0  0  0  0  0  0  0  0  0
    1.4564   -1.9277    2.0323 H   0  0  0  0  0  0  0  0  0  0  0  0
    0.0238   -1.9022    4.0164 H   0  0  0  0  0  0  0  0  0  0  0  0
   -0.7919    1.1277    5.9329 H   0  0  0  0  0  0  0  0  0  0  0  0
   -1.2107   -0.5690    5.6555 H   0  0  0  0  0  0  0  0  0  0  0  0
    1.2770    0.4116    7.1386 H   0  0  0  0  0  0  0  0  0  0  0  0
   -0.1737   -0.2536    7.8965 H   0  0  0  0  0  0  0  0  0  0  0  0
    0.8425   -1.2772    6.8768 H   0  0  0  0  0  0  0  0  0  0  0  0
    1.1347    2.1436    4.7746 H   0  0  0  0  0  0  0  0  0  0  0  0
    2.5925    2.1140    2.8051 H   0  0  0  0  0  0  0  0  0  0  0  0
    4.6981   -0.0701    3.0880 H   0  0  0  0  0  0  0  0  0  0  0  0
    6.8196    1.1124    3.4326 H   0  0  0  0  0  0  0  0  0  0  0  0
    8.6533    2.4010    2.4400 H   0  0  0  0  0  0  0  0  0  0  0  0
    8.4306    3.2438    0.9001 H   0  0  0  0  0  0  0  0  0  0  0  0
    7.2099    4.0919    3.5719 H   0  0  0  0  0  0  0  0  0  0  0  0
    6.9826    4.9298    2.0369 H   0  0  0  0  0  0  0  0  0  0  0  0
    8.5859    4.8648    2.7769 H   0  0  0  0  0  0  0  0  0  0  0  0
    6.2541    3.1938   -0.2456 H   0  0  0  0  0  0  0  0  0  0  0  0
    4.1411    2.0085   -0.5985 H   0  0  0  0  0  0  0  0  0  0  0  0
    1.2972   -0.8634   -3.1076 H   0  0  0  0  0  0  0  0  0  0  0  0
   -1.0370   -1.0372   -2.0303 H   0  0  0  0  0  0  0  0  0  0  0  0
   -2.8500   -2.6273   -2.4367 H   0  0  0  0  0  0  0  0  0  0  0  0
   -5.0739   -3.0294   -3.3607 H   0  0  0  0  0  0  0  0  0  0  0  0
   -5.7376   -1.9611   -4.6049 H   0  0  0  0  0  0  0  0  0  0  0  0
   -3.5267   -4.0267   -5.0458 H   0  0  0  0  0  0  0  0  0  0  0  0
   -5.2116   -4.1987   -5.5500 H   0  0  0  0  0  0  0  0  0  0  0  0
   -4.1876   -2.9615   -6.2862 H   0  0  0  0  0  0  0  0  0  0  0  0
   -4.3616   -0.1349   -5.5461 H   0  0  0  0  0  0  0  0  0  0  0  0
   -2.5179    1.4378   -5.1768 H   0  0  0  0  0  0  0  0  0  0  0  0
    0.3622    3.7687   -4.2914 H   0  0  0  0  0  0  0  0  0  0  0  0
    1.5599    4.2149   -6.3762 H   0  0  0  0  0  0  0  0  0  0  0  0
    2.0010    1.7472   -9.0806 H   0  0  0  0  0  0  0  0  0  0  0  0
    2.0900    3.4634   -8.6588 H   0  0  0  0  0  0  0  0  0  0  0  0
    4.3642    2.5011   -8.9583 H   0  0  0  0  0  0  0  0  0  0  0  0
    4.0336    1.3081   -7.6970 H   0  0  0  0  0  0  0  0  0  0  0  0
    4.1241    3.0201   -7.2861 H   0  0  0  0  0  0  0  0  0  0  0  0
    1.3241    0.0844   -7.4062 H   0  0  0  0  0  0  0  0  0  0  0  0
    0.1100   -0.3660   -5.3278 H   0  0  0  0  0  0  0  0  0  0  0  0
    1.3731    2.4892    0.6188 H   0  0  0  0  0  0  0  0  0  0  0  0
   -2.9572    3.3443   -3.7314 H   0  0  0  0  0  0  0  0  0  0  0  0
   -3.9963    4.1970    0.6202 H   0  0  0  0  0  0  0  0  0  0  0  0
   -2.5980    2.6489    1.9014 H   0  0  0  0  0  0  0  0  0  0  0  0
   -0.9843    0.1628    0.9502 H   0  0  0  0  0  0  0  0  0  0  0  0
   -1.9778    0.3043    2.3937 H   0  0  0  0  0  0  0  0  0  0  0  0
   -2.3095   -0.9709    1.2091 H   0  0  0  0  0  0  0  0  0  0  0  0
   -3.5013   -0.4559   -0.8733 H   0  0  0  0  0  0  0  0  0  0  0  0
   -4.8230    1.1037   -2.2119 H   0  0  0  0  0  0  0  0  0  0  0  0
   -6.9972    1.9303   -0.8539 H   0  0  0  0  0  0  0  0  0  0  0  0
   -9.0907    1.3587   -1.9954 H   0  0  0  0  0  0  0  0  0  0  0  0
  -10.7866    3.2022   -4.1676 H   0  0  0  0  0  0  0  0  0  0  0  0
  -10.5168    1.4766   -3.9144 H   0  0  0  0  0  0  0  0  0  0  0  0
   -9.9284    2.2659   -5.3856 H   0  0  0  0  0  0  0  0  0  0  0  0
   -8.1668    4.1314   -5.1006 H   0  0  0  0  0  0  0  0  0  0  0  0
   -6.0525    4.6796   -3.9852 H   0  0  0  0  0  0  0  0  0  0  0  0
   -3.3723   11.1221   -2.8539 H   0  0  0  0  0  0  0  0  0  0  0  0
   -1.0426   11.5358   -2.1845 H   0  0  0  0  0  0  0  0  0  0  0  0
    0.7825    9.7587    0.0170 H   0  0  0  0  0  0  0  0  0  0  0  0
    0.2772   11.0510    1.0990 H   0  0  0  0  0  0  0  0  0  0  0  0
    0.7079   11.4203   -0.5772 H   0  0  0  0  0  0  0  0  0  0  0  0
   -1.6897    9.3612    1.4286 H   0  0  0  0  0  0  0  0  0  0  0  0
   -4.0354    8.9685    0.7680 H   0  0  0  0  0  0  0  0  0  0  0  0
   -5.0567   12.2077   -0.5140 H   0  0  0  0  0  0  0  0  0  0  0  0
   -6.4126   14.1273   -1.2218 H   0  0  0  0  0  0  0  0  0  0  0  0
   -9.3769   13.9813   -2.9347 H   0  0  0  0  0  0  0  0  0  0  0  0
   -8.2525   14.3804   -4.2251 H   0  0  0  0  0  0  0  0  0  0  0  0
   -8.0539   15.1093   -2.6246 H   0  0  0  0  0  0  0  0  0  0  0  0
   -8.2705   11.7131   -4.2086 H   0  0  0  0  0  0  0  0  0  0  0  0
   -6.9254    9.7955   -3.5084 H   0  0  0  0  0  0  0  0  0  0  0  0
   -9.1229    8.4021   -1.3962 H   0  0  0  0  0  0  0  0  0  0  0  0
  -10.6390   13.5589    0.2111 H   0  0  0  0  0  0  0  0  0  0  0  0
   -9.6524   15.1062    1.8456 H   0  0  0  0  0  0  0  0  0  0  0  0
  1  2  2  0  0  0  0
  2  3  1  0  0  0  0
  3  4  2  0  0  0  0
  3  5  1  0  0  0  0
  5  6  2  0  0  0  0
  6  7  1  0  0  0  0
  6  8  1  0  0  0  0
  8  9  2  0  0  0  0
  9 10  1  0  0  0  0
 10 11  2  0  0  0  0
 11 12  1  0  0  0  0
 12 13  2  0  0  0  0
 13 14  1  0  0  0  0
 14 15  3  0  0  0  0
 13 16  1  0  0  0  0
 16 17  3  0  0  0  0
  1 18  1  0  0  0  0
 18 19  2  0  0  0  0
 19 20  1  0  0  0  0
 20 21  1  0  0  0  0
 21 22  2  0  0  0  0
 22 23  1  0  0  0  0
 23 24  2  0  0  0  0
 24 25  1  0  0  0  0
 24 26  1  0  0  0  0
 26 27  2  0  0  0  0
 20 28  1  0  0  0  0
 28 29  2  0  0  0  0
 29 30  1  0  0  0  0
 30 31  2  0  0  0  0
 31 32  1  0  0  0  0
 31 33  1  0  0  0  0
 33 34  2  0  0  0  0
 19 35  1  0  0  0  0
 35 36  1  0  0  0  0
 36 37  1  0  0  0  0
 37 38  2  0  0  0  0
 38 39  1  0  0  0  0
 39 40  1  0  0  0  0
 40 41  2  0  0  0  0
 41 42  1  0  0  0  0
 42 43  2  0  0  0  0
 43 44  1  0  0  0  0
 43 45  1  0  0  0  0
 45 46  2  0  0  0  0
 39 47  1  0  0  0  0
 47 48  2  0  0  0  0
 48 49  1  0  0  0  0
 49 50  2  0  0  0  0
 50 51  1  0  0  0  0
 50 52  1  0  0  0  0
 52 53  2  0  0  0  0
 38 54  1  0  0  0  0
 54 55  1  0  0  0  0
 37 56  1  0  0  0  0
 56 57  2  0  0  0  0
 57 58  1  0  0  0  0
 58 59  1  0  0  0  0
 59 60  1  0  0  0  0
 60 61  2  0  0  0  0
 61 62  1  0  0  0  0
 62 63  2  0  0  0  0
 63 64  1  0  0  0  0
 64 65  1  0  0  0  0
 63 66  1  0  0  0  0
 66 67  2  0  0  0  0
 59 68  1  0  0  0  0
 68 69  2  0  0  0  0
 69 70  1  0  0  0  0
 70 71  2  0  0  0  0
 71 72  1  0  0  0  0
 72 73  1  0  0  0  0
 71 74  1  0  0  0  0
 74 75  2  0  0  0  0
 59 76  1  0  0  0  0
 76 77  2  0  0  0  0
 77 78  1  0  0  0  0
 78 79  1  0  0  0  0
 77 80  1  0  0  0  0
 80 81  2  0  0  0  0
 81 82  1  0  0  0  0
 82 83  1  0  0  0  0
 83 84  2  0  0  0  0
 84 85  1  0  0  0  0
 85 86  2  0  0  0  0
 86 87  1  0  0  0  0
 87 88  1  0  0  0  0
 86 89  1  0  0  0  0
 89 90  2  0  0  0  0
 82 91  1  0  0  0  0
 91 92  2  0  0  0  0
 92 93  1  0  0  0  0
 93 94  2  0  0  0  0
 94 95  1  0  0  0  0
 95 96  1  0  0  0  0
 94 97  1  0  0  0  0
 97 98  2  0  0  0  0
 82 99  1  0  0  0  0
 99100  2  0  0  0  0
100101  1  0  0  0  0
101102  2  0  0  0  0
100103  1  0  0  0  0
103104  1  0  0  0  0
104105  2  0  0  0  0
104106  1  0  0  0  0
106107  2  0  0  0  0
107108  1  0  0  0  0
108109  1  0  0  0  0
109110  2  0  0  0  0
110111  1  0  0  0  0
111112  2  0  0  0  0
112113  1  0  0  0  0
112114  1  0  0  0  0
114115  2  0  0  0  0
108116  1  0  0  0  0
116117  2  0  0  0  0
117118  1  0  0  0  0
118119  2  0  0  0  0
119120  1  0  0  0  0
119121  1  0  0  0  0
121122  2  0  0  0  0
107123  1  0  0  0  0
123124  1  0  0  0  0
124125  1  0  0  0  0
125126  2  0  0  0  0
126127  1  0  0  0  0
127128  1  0  0  0  0
128129  2  0  0  0  0
129130  1  0  0  0  0
130131  2  0  0  0  0
131132  1  0  0  0  0
131133  1  0  0  0  0
133134  2  0  0  0  0
127135  1  0  0  0  0
135136  2  0  0  0  0
136137  1  0  0  0  0
137138  2  0  0  0  0
138139  1  0  0  0  0
138140  1  0  0  0  0
140141  2  0  0  0  0
126142  1  0  0  0  0
142143  1  0  0  0  0
125144  1  0  0  0  0
144145  2  0  0  0  0
145146  1  0  0  0  0
146147  2  0  0  0  0
146148  1  0  0  0  0
148149  2  0  0  0  0
149150  1  0  0  0  0
150151  2  0  0  0  0
151152  1  0  0  0  0
152153  1  0  0  0  0
152154  2  0  0  0  0
154155  1  0  0  0  0
149156  1  0  0  0  0
156157  2  0  0  0  0
157158  1  0  0  0  0
158159  3  0  0  0  0
157160  1  0  0  0  0
160161  3  0  0  0  0
 12  2  1  0  0  0  0
 55 18  1  0  0  0  0
 79 56  1  0  0  0  0
101 81  1  0  0  0  0
143106  1  0  0  0  0
156145  1  0  0  0  0
 11  5  1  0  0  0  0
 27 21  1  0  0  0  0
 34 28  1  0  0  0  0
 54 35  2  0  0  0  0
 78 58  2  0  0  0  0
 90 83  1  0  0  0  0
 98 91  1  0  0  0  0
105 99  1  0  0  0  0
115109  1  0  0  0  0
122116  1  0  0  0  0
142123  2  0  0  0  0
154148  1  0  0  0  0
 46 40  1  0  0  0  0
 53 47  1  0  0  0  0
 67 60  1  0  0  0  0
 75 68  1  0  0  0  0
102 76  1  0  0  0  0
134128  1  0  0  0  0
141135  1  0  0  0  0
  1162  1  0  0  0  0
  8163  1  0  0  0  0
  9164  1  0  0  0  0
 10165  1  0  0  0  0
 22166  1  0  0  0  0
 23167  1  0  0  0  0
 25168  1  0  0  0  0
 25169  1  0  0  0  0
 25170  1  0  0  0  0
 26171  1  0  0  0  0
 27172  1  0  0  0  0
 29173  1  0  0  0  0
 30174  1  0  0  0  0
 32175  1  0  0  0  0
 32176  1  0  0  0  0
 32177  1  0  0  0  0
 33178  1  0  0  0  0
 34179  1  0  0  0  0
 41180  1  0  0  0  0
 42181  1  0  0  0  0
 44182  1  0  0  0  0
 44183  1  0  0  0  0
 44184  1  0  0  0  0
 45185  1  0  0  0  0
 46186  1  0  0  0  0
 48187  1  0  0  0  0
 49188  1  0  0  0  0
 51189  1  0  0  0  0
 51190  1  0  0  0  0
 51191  1  0  0  0  0
 52192  1  0  0  0  0
 53193  1  0  0  0  0
 57194  1  0  0  0  0
 61195  1  0  0  0  0
 62196  1  0  0  0  0
 64197  1  0  0  0  0
 64198  1  0  0  0  0
 65199  1  0  0  0  0
 65200  1  0  0  0  0
 65201  1  0  0  0  0
 66202  1  0  0  0  0
 67203  1  0  0  0  0
 69204  1  0  0  0  0
 70205  1  0  0  0  0
 72206  1  0  0  0  0
 72207  1  0  0  0  0
 73208  1  0  0  0  0
 73209  1  0  0  0  0
 73210  1  0  0  0  0
 74211  1  0  0  0  0
 75212  1  0  0  0  0
 80213  1  0  0  0  0
 84214  1  0  0  0  0
 85215  1  0  0  0  0
 87216  1  0  0  0  0
 87217  1  0  0  0  0
 88218  1  0  0  0  0
 88219  1  0  0  0  0
 88220  1  0  0  0  0
 89221  1  0  0  0  0
 90222  1  0  0  0  0
 92223  1  0  0  0  0
 93224  1  0  0  0  0
 95225  1  0  0  0  0
 95226  1  0  0  0  0
 96227  1  0  0  0  0
 96228  1  0  0  0  0
 96229  1  0  0  0  0
 97230  1  0  0  0  0
 98231  1  0  0  0  0
102232  1  0  0  0  0
105233  1  0  0  0  0
110234  1  0  0  0  0
111235  1  0  0  0  0
113236  1  0  0  0  0
113237  1  0  0  0  0
113238  1  0  0  0  0
114239  1  0  0  0  0
115240  1  0  0  0  0
117241  1  0  0  0  0
118242  1  0  0  0  0
120243  1  0  0  0  0
120244  1  0  0  0  0
120245  1  0  0  0  0
121246  1  0  0  0  0
122247  1  0  0  0  0
129248  1  0  0  0  0
130249  1  0  0  0  0
132250  1  0  0  0  0
132251  1  0  0  0  0
132252  1  0  0  0  0
133253  1  0  0  0  0
134254  1  0  0  0  0
136255  1  0  0  0  0
137256  1  0  0  0  0
139257  1  0  0  0  0
139258  1  0  0  0  0
139259  1  0  0  0  0
140260  1  0  0  0  0
141261  1  0  0  0  0
144262  1  0  0  0  0
150263  1  0  0  0  0
151264  1  0  0  0  0
M  END
