
  xtb     02072203083D
 energy: -346.386182211279 gnorm: 0.000498781337 xtb: 6.4.1 (unknown)
209231  0     0  0            999 V2000
   -2.6374   -2.2077    2.5375 C   0  0  0  0  0  0  0  0  0  0  0  0
   -3.2715   -2.7418    3.6369 C   0  0  0  0  0  0  0  0  0  0  0  0
   -3.7029   -1.9329    4.7863 C   0  0  0  0  0  0  0  0  0  0  0  0
   -3.5112   -0.7459    4.9598 O   0  0  0  0  0  0  0  0  0  0  0  0
   -4.5405   -2.8447    5.6016 C   0  0  0  0  0  0  0  0  0  0  0  0
   -5.2429   -2.6238    6.7689 C   0  0  0  0  0  0  0  0  0  0  0  0
   -5.2050   -1.4326    7.3839 F   0  0  0  0  0  0  0  0  0  0  0  0
   -5.9993   -3.6455    7.3328 C   0  0  0  0  0  0  0  0  0  0  0  0
   -6.0547   -4.8795    6.7106 C   0  0  0  0  0  0  0  0  0  0  0  0
   -5.3529   -5.1303    5.5365 C   0  0  0  0  0  0  0  0  0  0  0  0
   -4.5913   -4.1127    4.9925 C   0  0  0  0  0  0  0  0  0  0  0  0
   -3.7641   -4.0761    3.7880 C   0  0  0  0  0  0  0  0  0  0  0  0
   -3.3933   -5.1589    3.0268 C   0  0  0  0  0  0  0  0  0  0  0  0
   -3.7537   -6.4894    3.3102 C   0  0  0  0  0  0  0  0  0  0  0  0
   -3.9774   -7.5982    3.5096 N   0  0  0  0  0  0  0  0  0  0  0  0
   -2.5343   -5.0691    1.9158 C   0  0  0  0  0  0  0  0  0  0  0  0
   -1.8390   -5.0573    1.0003 N   0  0  0  0  0  0  0  0  0  0  0  0
   -1.8811   -1.0368    2.5004 C   0  0  0  0  0  0  0  0  0  0  0  0
   -1.0867   -0.3939    3.4742 C   0  0  0  0  0  0  0  0  0  0  0  0
   -0.8075   -0.8568    4.7248 N   0  0  0  0  0  0  0  0  0  0  0  0
   -0.8666   -2.2167    5.0662 C   0  0  0  0  0  0  0  0  0  0  0  0
   -1.4100   -2.6019    6.2894 C   0  0  0  0  0  0  0  0  0  0  0  0
   -1.5019   -3.9420    6.6179 C   0  0  0  0  0  0  0  0  0  0  0  0
   -1.0528   -4.9273    5.7488 C   0  0  0  0  0  0  0  0  0  0  0  0
   -1.1907   -6.3798    6.0795 C   0  0  0  0  0  0  0  0  0  0  0  0
   -0.4729   -4.5298    4.5458 C   0  0  0  0  0  0  0  0  0  0  0  0
   -0.3784   -3.1973    4.2040 C   0  0  0  0  0  0  0  0  0  0  0  0
   -0.4125    0.0593    5.7227 C   0  0  0  0  0  0  0  0  0  0  0  0
    0.6653   -0.2358    6.5490 C   0  0  0  0  0  0  0  0  0  0  0  0
    1.0509    0.6637    7.5245 C   0  0  0  0  0  0  0  0  0  0  0  0
    0.3780    1.8665    7.6953 C   0  0  0  0  0  0  0  0  0  0  0  0
    0.8004    2.8511    8.7412 C   0  0  0  0  0  0  0  0  0  0  0  0
   -0.7079    2.1431    6.8700 C   0  0  0  0  0  0  0  0  0  0  0  0
   -1.1067    1.2532    5.8946 C   0  0  0  0  0  0  0  0  0  0  0  0
   -0.4776    0.7609    2.9256 C   0  0  0  0  0  0  0  0  0  0  0  0
    0.7440    1.8691    3.4735 S   0  0  0  0  0  0  0  0  0  0  0  0
    0.8194    2.6231    1.8847 C   0  0  0  0  0  0  0  0  0  0  0  0
   -0.0603    2.0391    0.9839 C   0  0  0  0  0  0  0  0  0  0  0  0
   -0.2236    2.3576   -0.3558 N   0  0  0  0  0  0  0  0  0  0  0  0
   -1.5329    2.2338   -0.8647 C   0  0  0  0  0  0  0  0  0  0  0  0
   -1.7898    1.5547   -2.0535 C   0  0  0  0  0  0  0  0  0  0  0  0
   -3.0873    1.3842   -2.4869 C   0  0  0  0  0  0  0  0  0  0  0  0
   -4.1616    1.8807   -1.7562 C   0  0  0  0  0  0  0  0  0  0  0  0
   -5.5622    1.6411   -2.2277 C   0  0  0  0  0  0  0  0  0  0  0  0
   -3.8962    2.5729   -0.5824 C   0  0  0  0  0  0  0  0  0  0  0  0
   -2.5998    2.7501   -0.1370 C   0  0  0  0  0  0  0  0  0  0  0  0
    0.8596    2.4584   -1.2319 C   0  0  0  0  0  0  0  0  0  0  0  0
    0.7294    3.2190   -2.3933 C   0  0  0  0  0  0  0  0  0  0  0  0
    1.7596    3.2767   -3.3054 C   0  0  0  0  0  0  0  0  0  0  0  0
    2.9502    2.5891   -3.0915 C   0  0  0  0  0  0  0  0  0  0  0  0
    4.0299    2.6217   -4.1249 C   0  0  0  0  0  0  0  0  0  0  0  0
    3.0882    1.8626   -1.9180 C   0  0  0  0  0  0  0  0  0  0  0  0
    2.0568    1.7865   -0.9992 C   0  0  0  0  0  0  0  0  0  0  0  0
   -0.7803    0.9887    1.5926 C   0  0  0  0  0  0  0  0  0  0  0  0
   -1.8103   -0.2230    0.9329 S   0  0  0  0  0  0  0  0  0  0  0  0
    1.8643    3.5409    1.5337 C   0  0  0  0  0  0  0  0  0  0  0  0
    1.7886    4.6218    0.6723 C   0  0  0  0  0  0  0  0  0  0  0  0
    0.5300    5.2971    0.3700 C   0  0  0  0  0  0  0  0  0  0  0  0
    0.3202    5.9254   -0.8548 C   0  0  0  0  0  0  0  0  0  0  0  0
   -0.8927    6.5306   -1.1237 C   0  0  0  0  0  0  0  0  0  0  0  0
   -1.9029    6.5296   -0.1792 C   0  0  0  0  0  0  0  0  0  0  0  0
   -1.7041    5.9337    1.0607 C   0  0  0  0  0  0  0  0  0  0  0  0
   -2.7749    5.9872    2.1133 C   0  0  0  0  0  0  0  0  0  0  0  0
   -2.6934    7.3006    2.8929 C   0  0  0  0  0  0  0  0  0  0  0  0
   -0.4867    5.3281    1.3239 C   0  0  0  0  0  0  0  0  0  0  0  0
    3.0653    4.9416    0.1489 C   0  0  0  0  0  0  0  0  0  0  0  0
    3.6083    5.9217   -1.2003 S   0  0  0  0  0  0  0  0  0  0  0  0
    5.1364    5.0969   -1.1870 C   0  0  0  0  0  0  0  0  0  0  0  0
    6.1653    4.7771   -2.1040 C   0  0  0  0  0  0  0  0  0  0  0  0
    6.4689    5.2096   -3.4168 C   0  0  0  0  0  0  0  0  0  0  0  0
    7.2122    4.3299   -4.2918 C   0  0  0  0  0  0  0  0  0  0  0  0
    7.3749    4.8432   -5.4962 N   0  0  0  0  0  0  0  0  0  0  0  0
    6.6741    6.3044   -5.5421 S   0  0  0  0  0  0  0  0  0  0  0  0
    6.1122    6.3286   -4.0204 N   0  0  0  0  0  0  0  0  0  0  0  0
    7.4871    3.0116   -3.8483 C   0  0  0  0  0  0  0  0  0  0  0  0
    7.4334    1.7910   -4.5566 C   0  0  0  0  0  0  0  0  0  0  0  0
    6.9878    1.2739   -6.1629 S   0  0  0  0  0  0  0  0  0  0  0  0
    6.3222   -0.2079   -5.4867 C   0  0  0  0  0  0  0  0  0  0  0  0
    5.2736   -1.0550   -5.9395 C   0  0  0  0  0  0  0  0  0  0  0  0
    4.7603   -1.0104   -7.3086 C   0  0  0  0  0  0  0  0  0  0  0  0
    5.6583   -0.9090   -8.3684 C   0  0  0  0  0  0  0  0  0  0  0  0
    5.1914   -0.8716   -9.6683 C   0  0  0  0  0  0  0  0  0  0  0  0
    3.8327   -0.9310   -9.9236 C   0  0  0  0  0  0  0  0  0  0  0  0
    2.9220   -1.0172   -8.8778 C   0  0  0  0  0  0  0  0  0  0  0  0
    1.4434   -1.0281   -9.1426 C   0  0  0  0  0  0  0  0  0  0  0  0
    0.8887    0.3976   -9.1382 C   0  0  0  0  0  0  0  0  0  0  0  0
    3.3956   -1.0472   -7.5755 C   0  0  0  0  0  0  0  0  0  0  0  0
    4.7545   -1.8029   -4.9085 C   0  0  0  0  0  0  0  0  0  0  0  0
    5.6475   -1.5836   -3.4127 S   0  0  0  0  0  0  0  0  0  0  0  0
    6.6124   -0.3455   -4.1353 C   0  0  0  0  0  0  0  0  0  0  0  0
    7.2619    0.7831   -3.6035 C   0  0  0  0  0  0  0  0  0  0  0  0
    7.3117    1.3129   -2.3439 N   0  0  0  0  0  0  0  0  0  0  0  0
    7.3648    2.6877   -2.4703 C   0  0  0  0  0  0  0  0  0  0  0  0
    6.8217    3.6397   -1.5696 C   0  0  0  0  0  0  0  0  0  0  0  0
    6.3391    3.3823   -0.2896 N   0  0  0  0  0  0  0  0  0  0  0  0
    5.2562    4.2156   -0.1121 C   0  0  0  0  0  0  0  0  0  0  0  0
    4.0874    4.1354    0.6493 C   0  0  0  0  0  0  0  0  0  0  0  0
    3.5198    3.0168    1.8313 S   0  0  0  0  0  0  0  0  0  0  0  0
    7.1324    2.9812    0.8554 C   0  0  0  0  0  0  0  0  0  0  0  0
    7.6216    4.1997    1.6380 C   0  0  0  0  0  0  0  0  0  0  0  0
    7.2022    0.4778   -1.1766 C   0  0  0  0  0  0  0  0  0  0  0  0
    8.5771    0.0448   -0.6690 C   0  0  0  0  0  0  0  0  0  0  0  0
    3.4834   -2.5047   -4.7576 C   0  0  0  0  0  0  0  0  0  0  0  0
    2.6882   -2.0734   -3.6990 C   0  0  0  0  0  0  0  0  0  0  0  0
    1.4572   -2.6697   -3.4983 C   0  0  0  0  0  0  0  0  0  0  0  0
    0.5153   -2.3985   -2.5447 N   0  0  0  0  0  0  0  0  0  0  0  0
    0.6042   -1.4095   -1.5043 C   0  0  0  0  0  0  0  0  0  0  0  0
    1.1483   -2.0014   -0.2051 C   0  0  0  0  0  0  0  0  0  0  0  0
   -0.5303   -3.2703   -2.7130 C   0  0  0  0  0  0  0  0  0  0  0  0
   -0.2740   -4.1115   -3.8291 C   0  0  0  0  0  0  0  0  0  0  0  0
    1.0063   -3.7216   -4.3386 C   0  0  0  0  0  0  0  0  0  0  0  0
    1.8152   -4.1417   -5.3935 C   0  0  0  0  0  0  0  0  0  0  0  0
    3.0370   -3.5354   -5.5990 C   0  0  0  0  0  0  0  0  0  0  0  0
   -1.2053   -5.0949   -4.1618 C   0  0  0  0  0  0  0  0  0  0  0  0
   -2.3337   -5.2332   -3.3888 C   0  0  0  0  0  0  0  0  0  0  0  0
   -2.5956   -4.3847   -2.2892 C   0  0  0  0  0  0  0  0  0  0  0  0
   -1.6724   -3.3942   -1.9496 C   0  0  0  0  0  0  0  0  0  0  0  0
   -3.7364   -4.6472   -1.4580 C   0  0  0  0  0  0  0  0  0  0  0  0
   -4.3933   -3.7804   -0.6366 C   0  0  0  0  0  0  0  0  0  0  0  0
   -4.3281   -2.2943   -0.6766 C   0  0  0  0  0  0  0  0  0  0  0  0
   -3.8416   -1.5873   -1.5331 O   0  0  0  0  0  0  0  0  0  0  0  0
   -5.0765   -1.8320    0.5109 C   0  0  0  0  0  0  0  0  0  0  0  0
   -5.2081   -0.5439    0.9922 C   0  0  0  0  0  0  0  0  0  0  0  0
   -5.8997   -0.3578    2.1804 C   0  0  0  0  0  0  0  0  0  0  0  0
   -6.4606   -1.4395    2.8434 C   0  0  0  0  0  0  0  0  0  0  0  0
   -6.3478   -2.7326    2.3501 C   0  0  0  0  0  0  0  0  0  0  0  0
   -5.6397   -2.9350    1.1744 C   0  0  0  0  0  0  0  0  0  0  0  0
   -5.2987   -4.1536    0.4397 C   0  0  0  0  0  0  0  0  0  0  0  0
   -5.7161   -5.4144    0.7776 C   0  0  0  0  0  0  0  0  0  0  0  0
   -5.4345   -6.6008    0.0666 C   0  0  0  0  0  0  0  0  0  0  0  0
   -5.2787   -7.6088   -0.4605 N   0  0  0  0  0  0  0  0  0  0  0  0
   -6.5065   -5.7022    1.9099 C   0  0  0  0  0  0  0  0  0  0  0  0
   -7.1247   -5.9968    2.8318 N   0  0  0  0  0  0  0  0  0  0  0  0
   -2.7684   -2.7013    1.5824 H   0  0  0  0  0  0  0  0  0  0  0  0
   -6.5382   -3.4554    8.2478 H   0  0  0  0  0  0  0  0  0  0  0  0
   -6.6566   -5.6637    7.1425 H   0  0  0  0  0  0  0  0  0  0  0  0
   -5.4277   -6.0935    5.0596 H   0  0  0  0  0  0  0  0  0  0  0  0
   -1.7689   -1.8455    6.9713 H   0  0  0  0  0  0  0  0  0  0  0  0
   -1.9421   -4.2244    7.5632 H   0  0  0  0  0  0  0  0  0  0  0  0
   -1.4572   -6.5184    7.1239 H   0  0  0  0  0  0  0  0  0  0  0  0
   -1.9686   -6.8349    5.4653 H   0  0  0  0  0  0  0  0  0  0  0  0
   -0.2617   -6.9094    5.8770 H   0  0  0  0  0  0  0  0  0  0  0  0
   -0.0947   -5.2788    3.8652 H   0  0  0  0  0  0  0  0  0  0  0  0
    0.0737   -2.9121    3.2654 H   0  0  0  0  0  0  0  0  0  0  0  0
    1.1981   -1.1669    6.4207 H   0  0  0  0  0  0  0  0  0  0  0  0
    1.8922    0.4261    8.1592 H   0  0  0  0  0  0  0  0  0  0  0  0
    1.1603    3.7662    8.2718 H   0  0  0  0  0  0  0  0  0  0  0  0
    1.5953    2.4454    9.3613 H   0  0  0  0  0  0  0  0  0  0  0  0
   -0.0416    3.1146    9.3791 H   0  0  0  0  0  0  0  0  0  0  0  0
   -1.2534    3.0658    7.0038 H   0  0  0  0  0  0  0  0  0  0  0  0
   -1.9714    1.4511    5.2803 H   0  0  0  0  0  0  0  0  0  0  0  0
   -0.9699    1.1478   -2.6263 H   0  0  0  0  0  0  0  0  0  0  0  0
   -3.2754    0.8315   -3.3944 H   0  0  0  0  0  0  0  0  0  0  0  0
   -5.7348    0.5707   -2.3317 H   0  0  0  0  0  0  0  0  0  0  0  0
   -6.2896    2.0489   -1.5298 H   0  0  0  0  0  0  0  0  0  0  0  0
   -5.7203    2.0996   -3.2032 H   0  0  0  0  0  0  0  0  0  0  0  0
   -4.7131    2.9780   -0.0010 H   0  0  0  0  0  0  0  0  0  0  0  0
   -2.4073    3.2830    0.7820 H   0  0  0  0  0  0  0  0  0  0  0  0
   -0.1924    3.7510   -2.5725 H   0  0  0  0  0  0  0  0  0  0  0  0
    1.6438    3.8628   -4.2053 H   0  0  0  0  0  0  0  0  0  0  0  0
    4.8846    2.0342   -3.8060 H   0  0  0  0  0  0  0  0  0  0  0  0
    4.3580    3.6441   -4.3059 H   0  0  0  0  0  0  0  0  0  0  0  0
    3.6668    2.2190   -5.0704 H   0  0  0  0  0  0  0  0  0  0  0  0
    4.0088    1.3279   -1.7257 H   0  0  0  0  0  0  0  0  0  0  0  0
    2.1740    1.1873   -0.1079 H   0  0  0  0  0  0  0  0  0  0  0  0
    1.0971    5.9210   -1.6023 H   0  0  0  0  0  0  0  0  0  0  0  0
   -1.0513    7.0048   -2.0811 H   0  0  0  0  0  0  0  0  0  0  0  0
   -2.8507    6.9986   -0.4003 H   0  0  0  0  0  0  0  0  0  0  0  0
   -2.6589    5.1513    2.8070 H   0  0  0  0  0  0  0  0  0  0  0  0
   -3.7573    5.9085    1.6426 H   0  0  0  0  0  0  0  0  0  0  0  0
   -2.8218    8.1475    2.2228 H   0  0  0  0  0  0  0  0  0  0  0  0
   -1.7236    7.3925    3.3772 H   0  0  0  0  0  0  0  0  0  0  0  0
   -3.4681    7.3398    3.6553 H   0  0  0  0  0  0  0  0  0  0  0  0
   -0.3180    4.8797    2.2931 H   0  0  0  0  0  0  0  0  0  0  0  0
    6.7192   -0.8735   -8.1698 H   0  0  0  0  0  0  0  0  0  0  0  0
    5.8917   -0.7985  -10.4872 H   0  0  0  0  0  0  0  0  0  0  0  0
    3.4742   -0.9080  -10.9427 H   0  0  0  0  0  0  0  0  0  0  0  0
    1.2448   -1.4887  -10.1123 H   0  0  0  0  0  0  0  0  0  0  0  0
    0.9361   -1.6144   -8.3734 H   0  0  0  0  0  0  0  0  0  0  0  0
   -0.1816    0.3906   -9.3311 H   0  0  0  0  0  0  0  0  0  0  0  0
    1.0647    0.8681   -8.1734 H   0  0  0  0  0  0  0  0  0  0  0  0
    1.3767    0.9958   -9.9045 H   0  0  0  0  0  0  0  0  0  0  0  0
    2.6930   -1.0906   -6.7564 H   0  0  0  0  0  0  0  0  0  0  0  0
    6.5152    2.3533    1.5072 H   0  0  0  0  0  0  0  0  0  0  0  0
    7.9953    2.4152    0.5088 H   0  0  0  0  0  0  0  0  0  0  0  0
    8.2444    3.8772    2.4679 H   0  0  0  0  0  0  0  0  0  0  0  0
    8.2062    4.8531    0.9938 H   0  0  0  0  0  0  0  0  0  0  0  0
    6.7802    4.7639    2.0327 H   0  0  0  0  0  0  0  0  0  0  0  0
    6.6383   -0.4139   -1.4642 H   0  0  0  0  0  0  0  0  0  0  0  0
    6.6323    0.9953   -0.4072 H   0  0  0  0  0  0  0  0  0  0  0  0
    8.4714   -0.5353    0.2433 H   0  0  0  0  0  0  0  0  0  0  0  0
    9.2127    0.9051   -0.4686 H   0  0  0  0  0  0  0  0  0  0  0  0
    9.0710   -0.5701   -1.4175 H   0  0  0  0  0  0  0  0  0  0  0  0
    3.0253   -1.2694   -3.0619 H   0  0  0  0  0  0  0  0  0  0  0  0
   -0.3955   -0.9983   -1.3364 H   0  0  0  0  0  0  0  0  0  0  0  0
    1.2516   -0.5984   -1.8485 H   0  0  0  0  0  0  0  0  0  0  0  0
    2.1492   -2.3985   -0.3594 H   0  0  0  0  0  0  0  0  0  0  0  0
    0.5055   -2.8080    0.1406 H   0  0  0  0  0  0  0  0  0  0  0  0
    1.1908   -1.2333    0.5636 H   0  0  0  0  0  0  0  0  0  0  0  0
    1.4897   -4.9399   -6.0433 H   0  0  0  0  0  0  0  0  0  0  0  0
    3.6707   -3.8535   -6.4129 H   0  0  0  0  0  0  0  0  0  0  0  0
   -1.0295   -5.7515   -5.0005 H   0  0  0  0  0  0  0  0  0  0  0  0
   -3.0536   -6.0027   -3.6254 H   0  0  0  0  0  0  0  0  0  0  0  0
   -1.8218   -2.7809   -1.0783 H   0  0  0  0  0  0  0  0  0  0  0  0
   -4.0607   -5.6807   -1.4595 H   0  0  0  0  0  0  0  0  0  0  0  0
   -4.7611    0.2796    0.4564 H   0  0  0  0  0  0  0  0  0  0  0  0
   -5.9984    0.6324    2.5979 H   0  0  0  0  0  0  0  0  0  0  0  0
   -6.9962   -1.2776    3.7670 H   0  0  0  0  0  0  0  0  0  0  0  0
   -6.8014   -3.5490    2.8878 H   0  0  0  0  0  0  0  0  0  0  0  0
  1  2  2  0  0  0  0
  2  3  1  0  0  0  0
  3  4  2  0  0  0  0
  3  5  1  0  0  0  0
  5  6  2  0  0  0  0
  6  7  1  0  0  0  0
  6  8  1  0  0  0  0
  8  9  2  0  0  0  0
  9 10  1  0  0  0  0
 10 11  2  0  0  0  0
 11 12  1  0  0  0  0
 12 13  2  0  0  0  0
 13 14  1  0  0  0  0
 14 15  3  0  0  0  0
 13 16  1  0  0  0  0
 16 17  3  0  0  0  0
  1 18  1  0  0  0  0
 18 19  2  0  0  0  0
 19 20  1  0  0  0  0
 20 21  1  0  0  0  0
 21 22  2  0  0  0  0
 22 23  1  0  0  0  0
 23 24  2  0  0  0  0
 24 25  1  0  0  0  0
 24 26  1  0  0  0  0
 26 27  2  0  0  0  0
 20 28  1  0  0  0  0
 28 29  2  0  0  0  0
 29 30  1  0  0  0  0
 30 31  2  0  0  0  0
 31 32  1  0  0  0  0
 31 33  1  0  0  0  0
 33 34  2  0  0  0  0
 19 35  1  0  0  0  0
 35 36  1  0  0  0  0
 36 37  1  0  0  0  0
 37 38  2  0  0  0  0
 38 39  1  0  0  0  0
 39 40  1  0  0  0  0
 40 41  2  0  0  0  0
 41 42  1  0  0  0  0
 42 43  2  0  0  0  0
 43 44  1  0  0  0  0
 43 45  1  0  0  0  0
 45 46  2  0  0  0  0
 39 47  1  0  0  0  0
 47 48  2  0  0  0  0
 48 49  1  0  0  0  0
 49 50  2  0  0  0  0
 50 51  1  0  0  0  0
 50 52  1  0  0  0  0
 52 53  2  0  0  0  0
 38 54  1  0  0  0  0
 54 55  1  0  0  0  0
 37 56  1  0  0  0  0
 56 57  2  0  0  0  0
 57 58  1  0  0  0  0
 58 59  2  0  0  0  0
 59 60  1  0  0  0  0
 60 61  2  0  0  0  0
 61 62  1  0  0  0  0
 62 63  1  0  0  0  0
 63 64  1  0  0  0  0
 62 65  2  0  0  0  0
 57 66  1  0  0  0  0
 66 67  1  0  0  0  0
 67 68  1  0  0  0  0
 68 69  1  0  0  0  0
 69 70  1  0  0  0  0
 70 71  1  0  0  0  0
 71 72  2  0  0  0  0
 72 73  1  0  0  0  0
 73 74  1  0  0  0  0
 71 75  1  0  0  0  0
 75 76  1  0  0  0  0
 76 77  1  0  0  0  0
 77 78  1  0  0  0  0
 78 79  1  0  0  0  0
 79 80  1  0  0  0  0
 80 81  2  0  0  0  0
 81 82  1  0  0  0  0
 82 83  2  0  0  0  0
 83 84  1  0  0  0  0
 84 85  1  0  0  0  0
 85 86  1  0  0  0  0
 84 87  2  0  0  0  0
 79 88  2  0  0  0  0
 88 89  1  0  0  0  0
 89 90  1  0  0  0  0
 90 91  1  0  0  0  0
 91 92  1  0  0  0  0
 92 93  1  0  0  0  0
 93 94  1  0  0  0  0
 94 95  1  0  0  0  0
 95 96  1  0  0  0  0
 96 97  1  0  0  0  0
 97 98  1  0  0  0  0
 95 99  1  0  0  0  0
 99100  1  0  0  0  0
 92101  1  0  0  0  0
101102  1  0  0  0  0
 88103  1  0  0  0  0
103104  2  0  0  0  0
104105  1  0  0  0  0
105106  1  0  0  0  0
106107  1  0  0  0  0
107108  1  0  0  0  0
106109  1  0  0  0  0
109110  2  0  0  0  0
110111  1  0  0  0  0
111112  1  0  0  0  0
112113  2  0  0  0  0
110114  1  0  0  0  0
114115  2  0  0  0  0
115116  1  0  0  0  0
116117  2  0  0  0  0
116118  1  0  0  0  0
118119  2  0  0  0  0
119120  1  0  0  0  0
120121  2  0  0  0  0
120122  1  0  0  0  0
122123  2  0  0  0  0
123124  1  0  0  0  0
124125  2  0  0  0  0
125126  1  0  0  0  0
126127  2  0  0  0  0
127128  1  0  0  0  0
128129  2  0  0  0  0
129130  1  0  0  0  0
130131  3  0  0  0  0
129132  1  0  0  0  0
132133  3  0  0  0  0
 12  2  1  0  0  0  0
 55 18  1  0  0  0  0
 98 56  1  0  0  0  0
113103  1  0  0  0  0
128119  1  0  0  0  0
 11  5  1  0  0  0  0
 27 21  1  0  0  0  0
 34 28  1  0  0  0  0
 54 35  2  0  0  0  0
 65 58  1  0  0  0  0
 97 66  2  0  0  0  0
111105  2  0  0  0  0
127122  1  0  0  0  0
 46 40  1  0  0  0  0
 53 47  1  0  0  0  0
 96 68  2  0  0  0  0
117109  1  0  0  0  0
 94 69  2  0  0  0  0
 74 70  2  0  0  0  0
 93 75  2  0  0  0  0
 91 76  2  0  0  0  0
 90 78  2  0  0  0  0
 87 80  1  0  0  0  0
  1134  1  0  0  0  0
  8135  1  0  0  0  0
  9136  1  0  0  0  0
 10137  1  0  0  0  0
 22138  1  0  0  0  0
 23139  1  0  0  0  0
 25140  1  0  0  0  0
 25141  1  0  0  0  0
 25142  1  0  0  0  0
 26143  1  0  0  0  0
 27144  1  0  0  0  0
 29145  1  0  0  0  0
 30146  1  0  0  0  0
 32147  1  0  0  0  0
 32148  1  0  0  0  0
 32149  1  0  0  0  0
 33150  1  0  0  0  0
 34151  1  0  0  0  0
 41152  1  0  0  0  0
 42153  1  0  0  0  0
 44154  1  0  0  0  0
 44155  1  0  0  0  0
 44156  1  0  0  0  0
 45157  1  0  0  0  0
 46158  1  0  0  0  0
 48159  1  0  0  0  0
 49160  1  0  0  0  0
 51161  1  0  0  0  0
 51162  1  0  0  0  0
 51163  1  0  0  0  0
 52164  1  0  0  0  0
 53165  1  0  0  0  0
 59166  1  0  0  0  0
 60167  1  0  0  0  0
 61168  1  0  0  0  0
 63169  1  0  0  0  0
 63170  1  0  0  0  0
 64171  1  0  0  0  0
 64172  1  0  0  0  0
 64173  1  0  0  0  0
 65174  1  0  0  0  0
 81175  1  0  0  0  0
 82176  1  0  0  0  0
 83177  1  0  0  0  0
 85178  1  0  0  0  0
 85179  1  0  0  0  0
 86180  1  0  0  0  0
 86181  1  0  0  0  0
 86182  1  0  0  0  0
 87183  1  0  0  0  0
 99184  1  0  0  0  0
 99185  1  0  0  0  0
100186  1  0  0  0  0
100187  1  0  0  0  0
100188  1  0  0  0  0
101189  1  0  0  0  0
101190  1  0  0  0  0
102191  1  0  0  0  0
102192  1  0  0  0  0
102193  1  0  0  0  0
104194  1  0  0  0  0
107195  1  0  0  0  0
107196  1  0  0  0  0
108197  1  0  0  0  0
108198  1  0  0  0  0
108199  1  0  0  0  0
112200  1  0  0  0  0
113201  1  0  0  0  0
114202  1  0  0  0  0
115203  1  0  0  0  0
117204  1  0  0  0  0
118205  1  0  0  0  0
123206  1  0  0  0  0
124207  1  0  0  0  0
125208  1  0  0  0  0
126209  1  0  0  0  0
M  END
