
  xtb     02062216483D
 energy: -350.605606090537 gnorm: 0.000706383137 xtb: 6.4.1 (unknown)
209231  0     0  0            999 V2000
    3.1207   -5.0093    1.4695 C   0  0  0  0  0  0  0  0  0  0  0  0
    4.1397   -5.0210    0.5337 C   0  0  0  0  0  0  0  0  0  0  0  0
    4.3671   -4.0075   -0.4910 C   0  0  0  0  0  0  0  0  0  0  0  0
    3.7078   -3.0049   -0.7154 O   0  0  0  0  0  0  0  0  0  0  0  0
    5.6336   -4.3835   -1.1573 C   0  0  0  0  0  0  0  0  0  0  0  0
    6.2999   -3.8066   -2.2195 C   0  0  0  0  0  0  0  0  0  0  0  0
    5.8223   -2.7081   -2.8266 F   0  0  0  0  0  0  0  0  0  0  0  0
    7.4858   -4.3628   -2.6832 C   0  0  0  0  0  0  0  0  0  0  0  0
    8.0031   -5.4817   -2.0561 C   0  0  0  0  0  0  0  0  0  0  0  0
    7.3550   -6.0745   -0.9782 C   0  0  0  0  0  0  0  0  0  0  0  0
    6.1634   -5.5285   -0.5354 C   0  0  0  0  0  0  0  0  0  0  0  0
    5.2415   -5.9454    0.5248 C   0  0  0  0  0  0  0  0  0  0  0  0
    5.4069   -7.0548    1.3190 C   0  0  0  0  0  0  0  0  0  0  0  0
    4.4603   -7.5508    2.2351 C   0  0  0  0  0  0  0  0  0  0  0  0
    3.7309   -8.0531    2.9689 N   0  0  0  0  0  0  0  0  0  0  0  0
    6.5452   -7.8839    1.2985 C   0  0  0  0  0  0  0  0  0  0  0  0
    7.4432   -8.5993    1.3414 N   0  0  0  0  0  0  0  0  0  0  0  0
    1.9509   -4.2632    1.4975 C   0  0  0  0  0  0  0  0  0  0  0  0
    0.9638   -4.3727    2.5190 C   0  0  0  0  0  0  0  0  0  0  0  0
    1.1182   -5.0246    3.7049 N   0  0  0  0  0  0  0  0  0  0  0  0
   -0.0079   -5.6008    4.3262 C   0  0  0  0  0  0  0  0  0  0  0  0
   -0.9176   -6.3449    3.5787 C   0  0  0  0  0  0  0  0  0  0  0  0
   -2.0140   -6.9132    4.1930 C   0  0  0  0  0  0  0  0  0  0  0  0
   -2.2284   -6.7646    5.5595 C   0  0  0  0  0  0  0  0  0  0  0  0
   -3.4302   -7.3805    6.2060 C   0  0  0  0  0  0  0  0  0  0  0  0
   -1.3077   -6.0317    6.2974 C   0  0  0  0  0  0  0  0  0  0  0  0
   -0.2081   -5.4530    5.6940 C   0  0  0  0  0  0  0  0  0  0  0  0
    2.3575   -5.1045    4.3745 C   0  0  0  0  0  0  0  0  0  0  0  0
    3.2051   -4.0002    4.4137 C   0  0  0  0  0  0  0  0  0  0  0  0
    4.4294   -4.0974    5.0391 C   0  0  0  0  0  0  0  0  0  0  0  0
    4.8303   -5.2794    5.6565 C   0  0  0  0  0  0  0  0  0  0  0  0
    6.1815   -5.3751    6.2936 C   0  0  0  0  0  0  0  0  0  0  0  0
    3.9556   -6.3569    5.6519 C   0  0  0  0  0  0  0  0  0  0  0  0
    2.7295   -6.2801    5.0174 C   0  0  0  0  0  0  0  0  0  0  0  0
   -0.2303   -3.7462    2.1187 C   0  0  0  0  0  0  0  0  0  0  0  0
   -1.7669   -3.4537    2.8790 S   0  0  0  0  0  0  0  0  0  0  0  0
   -2.3323   -2.6228    1.4449 C   0  0  0  0  0  0  0  0  0  0  0  0
   -1.3631   -2.5298    0.4614 C   0  0  0  0  0  0  0  0  0  0  0  0
   -1.5438   -1.8931   -0.7597 N   0  0  0  0  0  0  0  0  0  0  0  0
   -2.0811   -0.5979   -0.7978 C   0  0  0  0  0  0  0  0  0  0  0  0
   -1.6940    0.3558    0.1389 C   0  0  0  0  0  0  0  0  0  0  0  0
   -2.1780    1.6487    0.0578 C   0  0  0  0  0  0  0  0  0  0  0  0
   -3.0805    2.0176   -0.9308 C   0  0  0  0  0  0  0  0  0  0  0  0
   -3.6051    3.4185   -1.0335 C   0  0  0  0  0  0  0  0  0  0  0  0
   -3.4868    1.0503   -1.8448 C   0  0  0  0  0  0  0  0  0  0  0  0
   -2.9873   -0.2338   -1.7924 C   0  0  0  0  0  0  0  0  0  0  0  0
   -1.0615   -2.5065   -1.9212 C   0  0  0  0  0  0  0  0  0  0  0  0
   -0.6096   -1.7474   -2.9992 C   0  0  0  0  0  0  0  0  0  0  0  0
   -0.1319   -2.3685   -4.1340 C   0  0  0  0  0  0  0  0  0  0  0  0
   -0.0745   -3.7546   -4.2299 C   0  0  0  0  0  0  0  0  0  0  0  0
    0.4544   -4.4059   -5.4714 C   0  0  0  0  0  0  0  0  0  0  0  0
   -0.5175   -4.5031   -3.1489 C   0  0  0  0  0  0  0  0  0  0  0  0
   -1.0090   -3.8945   -2.0112 C   0  0  0  0  0  0  0  0  0  0  0  0
   -0.1656   -3.1682    0.8572 C   0  0  0  0  0  0  0  0  0  0  0  0
    1.3980   -3.2736    0.1432 S   0  0  0  0  0  0  0  0  0  0  0  0
   -3.6532   -2.0677    1.3038 C   0  0  0  0  0  0  0  0  0  0  0  0
   -4.5125   -2.3175    0.2541 C   0  0  0  0  0  0  0  0  0  0  0  0
   -4.3682   -3.4671   -0.6377 C   0  0  0  0  0  0  0  0  0  0  0  0
   -3.9248   -4.6896   -0.1350 C   0  0  0  0  0  0  0  0  0  0  0  0
   -3.7934   -5.7777   -0.9762 C   0  0  0  0  0  0  0  0  0  0  0  0
   -4.0938   -5.6618   -2.3221 C   0  0  0  0  0  0  0  0  0  0  0  0
   -4.5526   -4.4569   -2.8381 C   0  0  0  0  0  0  0  0  0  0  0  0
   -4.8527   -4.3117   -4.3018 C   0  0  0  0  0  0  0  0  0  0  0  0
   -3.5898   -3.9120   -5.0671 C   0  0  0  0  0  0  0  0  0  0  0  0
   -4.6925   -3.3723   -1.9867 C   0  0  0  0  0  0  0  0  0  0  0  0
   -5.5260   -1.3338    0.1826 C   0  0  0  0  0  0  0  0  0  0  0  0
   -6.7238   -0.9432   -1.0310 S   0  0  0  0  0  0  0  0  0  0  0  0
   -7.0246    0.5638   -0.2290 C   0  0  0  0  0  0  0  0  0  0  0  0
   -7.5486    1.8321   -0.5395 C   0  0  0  0  0  0  0  0  0  0  0  0
   -8.0534    2.3416   -1.7589 C   0  0  0  0  0  0  0  0  0  0  0  0
   -7.8766    3.7431   -2.0472 C   0  0  0  0  0  0  0  0  0  0  0  0
   -8.2475    4.0546   -3.2768 N   0  0  0  0  0  0  0  0  0  0  0  0
   -8.7946    2.7153   -4.0075 S   0  0  0  0  0  0  0  0  0  0  0  0
   -8.5528    1.6774   -2.7862 N   0  0  0  0  0  0  0  0  0  0  0  0
   -7.2890    4.5688   -1.0630 C   0  0  0  0  0  0  0  0  0  0  0  0
   -6.5473    5.7689   -1.1541 C   0  0  0  0  0  0  0  0  0  0  0  0
   -5.7358    6.6611   -2.4055 S   0  0  0  0  0  0  0  0  0  0  0  0
   -4.5380    7.1942   -1.2363 C   0  0  0  0  0  0  0  0  0  0  0  0
   -3.1895    7.6159   -1.3607 C   0  0  0  0  0  0  0  0  0  0  0  0
   -2.5286    8.0458   -2.5913 C   0  0  0  0  0  0  0  0  0  0  0  0
   -2.8792    7.5191   -3.8320 C   0  0  0  0  0  0  0  0  0  0  0  0
   -2.2283    7.9476   -4.9736 C   0  0  0  0  0  0  0  0  0  0  0  0
   -1.2291    8.9012   -4.8953 C   0  0  0  0  0  0  0  0  0  0  0  0
   -0.8651    9.4401   -3.6667 C   0  0  0  0  0  0  0  0  0  0  0  0
    0.1827   10.5124   -3.5793 C   0  0  0  0  0  0  0  0  0  0  0  0
   -0.4583   11.8950   -3.7134 C   0  0  0  0  0  0  0  0  0  0  0  0
   -1.5222    9.0086   -2.5264 C   0  0  0  0  0  0  0  0  0  0  0  0
   -2.5294    7.5376   -0.1500 C   0  0  0  0  0  0  0  0  0  0  0  0
   -3.6018    7.1137    1.1807 S   0  0  0  0  0  0  0  0  0  0  0  0
   -4.8894    6.8407    0.0650 C   0  0  0  0  0  0  0  0  0  0  0  0
   -6.0254    6.0232    0.1134 C   0  0  0  0  0  0  0  0  0  0  0  0
   -6.4704    5.0792    1.0126 N   0  0  0  0  0  0  0  0  0  0  0  0
   -7.1293    4.1048    0.2696 C   0  0  0  0  0  0  0  0  0  0  0  0
   -7.1468    2.7058    0.5089 C   0  0  0  0  0  0  0  0  0  0  0  0
   -6.4668    1.9657    1.4587 N   0  0  0  0  0  0  0  0  0  0  0  0
   -6.3206    0.6977    0.9685 C   0  0  0  0  0  0  0  0  0  0  0  0
   -5.4543   -0.3818    1.1971 C   0  0  0  0  0  0  0  0  0  0  0  0
   -4.1472   -0.6975    2.2817 S   0  0  0  0  0  0  0  0  0  0  0  0
   -5.8254    2.3376    2.6974 C   0  0  0  0  0  0  0  0  0  0  0  0
   -4.4326    2.9216    2.4844 C   0  0  0  0  0  0  0  0  0  0  0  0
   -6.7130    5.4319    2.3966 C   0  0  0  0  0  0  0  0  0  0  0  0
   -7.3814    6.8008    2.5094 C   0  0  0  0  0  0  0  0  0  0  0  0
   -1.1276    7.2638    0.1195 C   0  0  0  0  0  0  0  0  0  0  0  0
   -0.4480    6.4269   -0.7646 C   0  0  0  0  0  0  0  0  0  0  0  0
    0.6970    5.7910   -0.3157 C   0  0  0  0  0  0  0  0  0  0  0  0
    1.4198    4.7900   -0.9125 N   0  0  0  0  0  0  0  0  0  0  0  0
    1.2101    4.2631   -2.2366 C   0  0  0  0  0  0  0  0  0  0  0  0
    0.1884    3.1272   -2.2447 C   0  0  0  0  0  0  0  0  0  0  0  0
    2.2903    4.2726    0.0156 C   0  0  0  0  0  0  0  0  0  0  0  0
    2.2056    5.0334    1.2129 C   0  0  0  0  0  0  0  0  0  0  0  0
    1.1895    6.0107    0.9984 C   0  0  0  0  0  0  0  0  0  0  0  0
    0.5732    6.9520    1.8202 C   0  0  0  0  0  0  0  0  0  0  0  0
   -0.5796    7.5584    1.3814 C   0  0  0  0  0  0  0  0  0  0  0  0
    2.9539    4.6563    2.3271 C   0  0  0  0  0  0  0  0  0  0  0  0
    3.7031    3.5099    2.2567 C   0  0  0  0  0  0  0  0  0  0  0  0
    3.7754    2.7362    1.0741 C   0  0  0  0  0  0  0  0  0  0  0  0
    3.0783    3.1399   -0.0678 C   0  0  0  0  0  0  0  0  0  0  0  0
    4.4749    1.4872    1.1465 C   0  0  0  0  0  0  0  0  0  0  0  0
    5.1054    0.7615    0.1838 C   0  0  0  0  0  0  0  0  0  0  0  0
    5.5600    1.2183   -1.1573 C   0  0  0  0  0  0  0  0  0  0  0  0
    5.1565    2.1485   -1.8128 O   0  0  0  0  0  0  0  0  0  0  0  0
    6.6840    0.3095   -1.4959 C   0  0  0  0  0  0  0  0  0  0  0  0
    7.5736    0.3406   -2.5542 C   0  0  0  0  0  0  0  0  0  0  0  0
    7.4843    1.2737   -3.5062 F   0  0  0  0  0  0  0  0  0  0  0  0
    8.5958   -0.5984   -2.6314 C   0  0  0  0  0  0  0  0  0  0  0  0
    8.7201   -1.5637   -1.6476 C   0  0  0  0  0  0  0  0  0  0  0  0
    7.8276   -1.6311   -0.5853 C   0  0  0  0  0  0  0  0  0  0  0  0
    6.8103   -0.6948   -0.5175 C   0  0  0  0  0  0  0  0  0  0  0  0
    5.7445   -0.5122    0.4568 C   0  0  0  0  0  0  0  0  0  0  0  0
    5.3270   -1.4155    1.3956 C   0  0  0  0  0  0  0  0  0  0  0  0
    4.1316   -1.2649    2.1285 C   0  0  0  0  0  0  0  0  0  0  0  0
    3.1492   -1.2259    2.7216 N   0  0  0  0  0  0  0  0  0  0  0  0
    5.9848   -2.6244    1.6879 C   0  0  0  0  0  0  0  0  0  0  0  0
    6.4989   -3.6062    1.9907 N   0  0  0  0  0  0  0  0  0  0  0  0
    3.2302   -5.7075    2.2887 H   0  0  0  0  0  0  0  0  0  0  0  0
    7.9834   -3.9108   -3.5267 H   0  0  0  0  0  0  0  0  0  0  0  0
    8.9284   -5.9070   -2.4135 H   0  0  0  0  0  0  0  0  0  0  0  0
    7.7836   -6.9441   -0.5092 H   0  0  0  0  0  0  0  0  0  0  0  0
   -0.7514   -6.4824    2.5201 H   0  0  0  0  0  0  0  0  0  0  0  0
   -2.7133   -7.4903    3.6056 H   0  0  0  0  0  0  0  0  0  0  0  0
   -3.5137   -8.4318    5.9359 H   0  0  0  0  0  0  0  0  0  0  0  0
   -4.3362   -6.8778    5.8680 H   0  0  0  0  0  0  0  0  0  0  0  0
   -3.3754   -7.3000    7.2884 H   0  0  0  0  0  0  0  0  0  0  0  0
   -1.4538   -5.9064    7.3603 H   0  0  0  0  0  0  0  0  0  0  0  0
    0.4986   -4.8809    6.2762 H   0  0  0  0  0  0  0  0  0  0  0  0
    2.9013   -3.0765    3.9451 H   0  0  0  0  0  0  0  0  0  0  0  0
    5.0867   -3.2400    5.0525 H   0  0  0  0  0  0  0  0  0  0  0  0
    6.9525   -5.3809    5.5230 H   0  0  0  0  0  0  0  0  0  0  0  0
    6.3645   -4.5182    6.9400 H   0  0  0  0  0  0  0  0  0  0  0  0
    6.2739   -6.2861    6.8790 H   0  0  0  0  0  0  0  0  0  0  0  0
    4.2409   -7.2810    6.1313 H   0  0  0  0  0  0  0  0  0  0  0  0
    2.0706   -7.1339    5.0010 H   0  0  0  0  0  0  0  0  0  0  0  0
   -0.9897    0.0880    0.9133 H   0  0  0  0  0  0  0  0  0  0  0  0
   -1.8250    2.3874    0.7642 H   0  0  0  0  0  0  0  0  0  0  0  0
   -3.0959    4.0822   -0.3374 H   0  0  0  0  0  0  0  0  0  0  0  0
   -4.6730    3.4375   -0.8173 H   0  0  0  0  0  0  0  0  0  0  0  0
   -3.4729    3.8053   -2.0435 H   0  0  0  0  0  0  0  0  0  0  0  0
   -4.2000    1.3138   -2.6127 H   0  0  0  0  0  0  0  0  0  0  0  0
   -3.2858   -0.9680   -2.5243 H   0  0  0  0  0  0  0  0  0  0  0  0
   -0.6255   -0.6692   -2.9391 H   0  0  0  0  0  0  0  0  0  0  0  0
    0.2163   -1.7656   -4.9604 H   0  0  0  0  0  0  0  0  0  0  0  0
    0.4054   -5.4892   -5.3944 H   0  0  0  0  0  0  0  0  0  0  0  0
    1.4918   -4.1171   -5.6364 H   0  0  0  0  0  0  0  0  0  0  0  0
   -0.1211   -4.0914   -6.3416 H   0  0  0  0  0  0  0  0  0  0  0  0
   -0.4852   -5.5825   -3.1944 H   0  0  0  0  0  0  0  0  0  0  0  0
   -1.3634   -4.4980   -1.1898 H   0  0  0  0  0  0  0  0  0  0  0  0
   -3.7058   -4.7899    0.9179 H   0  0  0  0  0  0  0  0  0  0  0  0
   -3.4556   -6.7242   -0.5788 H   0  0  0  0  0  0  0  0  0  0  0  0
   -3.9837   -6.5155   -2.9750 H   0  0  0  0  0  0  0  0  0  0  0  0
   -5.2291   -5.2568   -4.6986 H   0  0  0  0  0  0  0  0  0  0  0  0
   -5.6208   -3.5496   -4.4467 H   0  0  0  0  0  0  0  0  0  0  0  0
   -3.1924   -2.9739   -4.6858 H   0  0  0  0  0  0  0  0  0  0  0  0
   -3.8082   -3.7940   -6.1259 H   0  0  0  0  0  0  0  0  0  0  0  0
   -2.8198   -4.6707   -4.9504 H   0  0  0  0  0  0  0  0  0  0  0  0
   -5.0592   -2.4371   -2.3817 H   0  0  0  0  0  0  0  0  0  0  0  0
   -3.6473    6.7650   -3.9021 H   0  0  0  0  0  0  0  0  0  0  0  0
   -2.5029    7.5320   -5.9320 H   0  0  0  0  0  0  0  0  0  0  0  0
   -0.7263    9.2312   -5.7930 H   0  0  0  0  0  0  0  0  0  0  0  0
    0.7005   10.4460   -2.6202 H   0  0  0  0  0  0  0  0  0  0  0  0
    0.9177   10.3777   -4.3754 H   0  0  0  0  0  0  0  0  0  0  0  0
   -1.1849   12.0532   -2.9195 H   0  0  0  0  0  0  0  0  0  0  0  0
   -0.9718   11.9830   -4.6683 H   0  0  0  0  0  0  0  0  0  0  0  0
    0.2985   12.6735   -3.6526 H   0  0  0  0  0  0  0  0  0  0  0  0
   -1.2553    9.4288   -1.5671 H   0  0  0  0  0  0  0  0  0  0  0  0
   -6.4608    3.0261    3.2527 H   0  0  0  0  0  0  0  0  0  0  0  0
   -5.7372    1.4210    3.2881 H   0  0  0  0  0  0  0  0  0  0  0  0
   -4.0044    3.2073    3.4411 H   0  0  0  0  0  0  0  0  0  0  0  0
   -3.7913    2.1751    2.0247 H   0  0  0  0  0  0  0  0  0  0  0  0
   -4.4667    3.7920    1.8366 H   0  0  0  0  0  0  0  0  0  0  0  0
   -5.7672    5.4443    2.9485 H   0  0  0  0  0  0  0  0  0  0  0  0
   -7.3806    4.6838    2.8251 H   0  0  0  0  0  0  0  0  0  0  0  0
   -6.7223    7.5822    2.1408 H   0  0  0  0  0  0  0  0  0  0  0  0
   -8.3048    6.8223    1.9343 H   0  0  0  0  0  0  0  0  0  0  0  0
   -7.6133    7.0075    3.5509 H   0  0  0  0  0  0  0  0  0  0  0  0
   -0.8745    6.2018   -1.7295 H   0  0  0  0  0  0  0  0  0  0  0  0
    0.8697    5.0798   -2.8794 H   0  0  0  0  0  0  0  0  0  0  0  0
    2.1712    3.9064   -2.6161 H   0  0  0  0  0  0  0  0  0  0  0  0
   -0.7733    3.4757   -1.8779 H   0  0  0  0  0  0  0  0  0  0  0  0
    0.0601    2.7502   -3.2555 H   0  0  0  0  0  0  0  0  0  0  0  0
    0.5189    2.3097   -1.6084 H   0  0  0  0  0  0  0  0  0  0  0  0
    0.9624    7.1562    2.8059 H   0  0  0  0  0  0  0  0  0  0  0  0
   -1.1145    8.2368    2.0301 H   0  0  0  0  0  0  0  0  0  0  0  0
    2.9064    5.2334    3.2379 H   0  0  0  0  0  0  0  0  0  0  0  0
    4.2576    3.1786    3.1226 H   0  0  0  0  0  0  0  0  0  0  0  0
    3.1072    2.5387   -0.9596 H   0  0  0  0  0  0  0  0  0  0  0  0
    4.5340    1.0845    2.1540 H   0  0  0  0  0  0  0  0  0  0  0  0
    9.2835   -0.5559   -3.4615 H   0  0  0  0  0  0  0  0  0  0  0  0
    9.5244   -2.2812   -1.7069 H   0  0  0  0  0  0  0  0  0  0  0  0
    7.9396   -2.3934    0.1692 H   0  0  0  0  0  0  0  0  0  0  0  0
  1  2  2  0  0  0  0
  2  3  1  0  0  0  0
  3  4  2  0  0  0  0
  3  5  1  0  0  0  0
  5  6  2  0  0  0  0
  6  7  1  0  0  0  0
  6  8  1  0  0  0  0
  8  9  2  0  0  0  0
  9 10  1  0  0  0  0
 10 11  2  0  0  0  0
 11 12  1  0  0  0  0
 12 13  2  0  0  0  0
 13 14  1  0  0  0  0
 14 15  3  0  0  0  0
 13 16  1  0  0  0  0
 16 17  3  0  0  0  0
  1 18  1  0  0  0  0
 18 19  2  0  0  0  0
 19 20  1  0  0  0  0
 20 21  1  0  0  0  0
 21 22  2  0  0  0  0
 22 23  1  0  0  0  0
 23 24  2  0  0  0  0
 24 25  1  0  0  0  0
 24 26  1  0  0  0  0
 26 27  2  0  0  0  0
 20 28  1  0  0  0  0
 28 29  2  0  0  0  0
 29 30  1  0  0  0  0
 30 31  2  0  0  0  0
 31 32  1  0  0  0  0
 31 33  1  0  0  0  0
 33 34  2  0  0  0  0
 19 35  1  0  0  0  0
 35 36  1  0  0  0  0
 36 37  1  0  0  0  0
 37 38  2  0  0  0  0
 38 39  1  0  0  0  0
 39 40  1  0  0  0  0
 40 41  2  0  0  0  0
 41 42  1  0  0  0  0
 42 43  2  0  0  0  0
 43 44  1  0  0  0  0
 43 45  1  0  0  0  0
 45 46  2  0  0  0  0
 39 47  1  0  0  0  0
 47 48  2  0  0  0  0
 48 49  1  0  0  0  0
 49 50  2  0  0  0  0
 50 51  1  0  0  0  0
 50 52  1  0  0  0  0
 52 53  2  0  0  0  0
 38 54  1  0  0  0  0
 54 55  1  0  0  0  0
 37 56  1  0  0  0  0
 56 57  2  0  0  0  0
 57 58  1  0  0  0  0
 58 59  2  0  0  0  0
 59 60  1  0  0  0  0
 60 61  2  0  0  0  0
 61 62  1  0  0  0  0
 62 63  1  0  0  0  0
 63 64  1  0  0  0  0
 62 65  2  0  0  0  0
 57 66  1  0  0  0  0
 66 67  1  0  0  0  0
 67 68  1  0  0  0  0
 68 69  1  0  0  0  0
 69 70  1  0  0  0  0
 70 71  1  0  0  0  0
 71 72  2  0  0  0  0
 72 73  1  0  0  0  0
 73 74  1  0  0  0  0
 71 75  1  0  0  0  0
 75 76  1  0  0  0  0
 76 77  1  0  0  0  0
 77 78  1  0  0  0  0
 78 79  1  0  0  0  0
 79 80  1  0  0  0  0
 80 81  2  0  0  0  0
 81 82  1  0  0  0  0
 82 83  2  0  0  0  0
 83 84  1  0  0  0  0
 84 85  1  0  0  0  0
 85 86  1  0  0  0  0
 84 87  2  0  0  0  0
 79 88  2  0  0  0  0
 88 89  1  0  0  0  0
 89 90  1  0  0  0  0
 90 91  1  0  0  0  0
 91 92  1  0  0  0  0
 92 93  1  0  0  0  0
 93 94  1  0  0  0  0
 94 95  1  0  0  0  0
 95 96  1  0  0  0  0
 96 97  1  0  0  0  0
 97 98  1  0  0  0  0
 95 99  1  0  0  0  0
 99100  1  0  0  0  0
 92101  1  0  0  0  0
101102  1  0  0  0  0
 88103  1  0  0  0  0
103104  2  0  0  0  0
104105  1  0  0  0  0
105106  1  0  0  0  0
106107  1  0  0  0  0
107108  1  0  0  0  0
106109  1  0  0  0  0
109110  2  0  0  0  0
110111  1  0  0  0  0
111112  1  0  0  0  0
112113  2  0  0  0  0
110114  1  0  0  0  0
114115  2  0  0  0  0
115116  1  0  0  0  0
116117  2  0  0  0  0
116118  1  0  0  0  0
118119  2  0  0  0  0
119120  1  0  0  0  0
120121  2  0  0  0  0
120122  1  0  0  0  0
122123  2  0  0  0  0
123124  1  0  0  0  0
123125  1  0  0  0  0
125126  2  0  0  0  0
126127  1  0  0  0  0
127128  2  0  0  0  0
128129  1  0  0  0  0
129130  2  0  0  0  0
130131  1  0  0  0  0
131132  3  0  0  0  0
130133  1  0  0  0  0
133134  3  0  0  0  0
 12  2  1  0  0  0  0
 55 18  1  0  0  0  0
 98 56  1  0  0  0  0
113103  1  0  0  0  0
129119  1  0  0  0  0
 11  5  1  0  0  0  0
 27 21  1  0  0  0  0
 34 28  1  0  0  0  0
 54 35  2  0  0  0  0
 65 58  1  0  0  0  0
 97 66  2  0  0  0  0
111105  2  0  0  0  0
128122  1  0  0  0  0
 46 40  1  0  0  0  0
 53 47  1  0  0  0  0
 96 68  2  0  0  0  0
117109  1  0  0  0  0
 94 69  2  0  0  0  0
 74 70  2  0  0  0  0
 93 75  2  0  0  0  0
 91 76  2  0  0  0  0
 90 78  2  0  0  0  0
 87 80  1  0  0  0  0
  1135  1  0  0  0  0
  8136  1  0  0  0  0
  9137  1  0  0  0  0
 10138  1  0  0  0  0
 22139  1  0  0  0  0
 23140  1  0  0  0  0
 25141  1  0  0  0  0
 25142  1  0  0  0  0
 25143  1  0  0  0  0
 26144  1  0  0  0  0
 27145  1  0  0  0  0
 29146  1  0  0  0  0
 30147  1  0  0  0  0
 32148  1  0  0  0  0
 32149  1  0  0  0  0
 32150  1  0  0  0  0
 33151  1  0  0  0  0
 34152  1  0  0  0  0
 41153  1  0  0  0  0
 42154  1  0  0  0  0
 44155  1  0  0  0  0
 44156  1  0  0  0  0
 44157  1  0  0  0  0
 45158  1  0  0  0  0
 46159  1  0  0  0  0
 48160  1  0  0  0  0
 49161  1  0  0  0  0
 51162  1  0  0  0  0
 51163  1  0  0  0  0
 51164  1  0  0  0  0
 52165  1  0  0  0  0
 53166  1  0  0  0  0
 59167  1  0  0  0  0
 60168  1  0  0  0  0
 61169  1  0  0  0  0
 63170  1  0  0  0  0
 63171  1  0  0  0  0
 64172  1  0  0  0  0
 64173  1  0  0  0  0
 64174  1  0  0  0  0
 65175  1  0  0  0  0
 81176  1  0  0  0  0
 82177  1  0  0  0  0
 83178  1  0  0  0  0
 85179  1  0  0  0  0
 85180  1  0  0  0  0
 86181  1  0  0  0  0
 86182  1  0  0  0  0
 86183  1  0  0  0  0
 87184  1  0  0  0  0
 99185  1  0  0  0  0
 99186  1  0  0  0  0
100187  1  0  0  0  0
100188  1  0  0  0  0
100189  1  0  0  0  0
101190  1  0  0  0  0
101191  1  0  0  0  0
102192  1  0  0  0  0
102193  1  0  0  0  0
102194  1  0  0  0  0
104195  1  0  0  0  0
107196  1  0  0  0  0
107197  1  0  0  0  0
108198  1  0  0  0  0
108199  1  0  0  0  0
108200  1  0  0  0  0
112201  1  0  0  0  0
113202  1  0  0  0  0
114203  1  0  0  0  0
115204  1  0  0  0  0
117205  1  0  0  0  0
118206  1  0  0  0  0
125207  1  0  0  0  0
126208  1  0  0  0  0
127209  1  0  0  0  0
M  END
