151

C          2.32040        3.78340      -10.43520
C          3.60160        3.70640      -10.90610
C          3.85710        4.02280      -12.33760
O          3.02630        4.15740      -13.20310
C          5.32730        4.16980      -12.43920
C          6.12610        4.56030      -13.49840
F          5.59650        4.85820      -14.68820
C          7.50380        4.64900      -13.33520
C          8.06900        4.35140      -12.10780
C          7.28950        3.94890      -11.03000
C          5.91940        3.85310      -11.20150
C          4.86630        3.42350      -10.27730
C          5.08550        2.66540       -9.15380
C          4.07830        2.01250       -8.41850
N          3.32540        1.42110       -7.78360
C          6.35850        2.37540       -8.62290
N          7.35780        2.13000       -8.11310
C          1.87450        3.87160       -9.10410
C          2.54120        4.30120       -7.97090
C          1.77730        4.22110       -6.81220
S          2.37960        4.67270       -5.21700
C          3.70370        3.41600       -4.99490
C          5.07570        3.94010       -5.36450
C          0.48730        3.73610       -7.02520
S          0.22250        3.44320       -8.71450
C         -0.46050        3.34070       -6.05130
C         -1.78310        2.96380       -6.25380
C         -2.55990        3.21460       -7.46770
C         -2.59100        4.48600       -8.03750
C         -3.37470        4.71920       -9.15020
C         -4.13240        3.69770       -9.69820
C         -4.11680        2.42680       -9.13900
C         -4.97960        1.32640       -9.68440
C         -6.27250        1.21800       -8.87320
C         -3.32850        2.19770       -8.02100
C         -2.31750        2.34360       -5.11460
S         -3.87090        1.60880       -4.79000
C         -3.30060        1.16300       -3.21800
C         -3.70450        0.37600       -2.12920
C         -4.81780       -0.47660       -1.95050
C         -4.81920       -1.39890       -0.84800
N         -5.87300       -2.19920       -0.86140
S         -6.79000       -1.82160       -2.14100
N         -5.87390       -0.62530       -2.73360
C         -3.77790       -1.32990        0.10460
C         -3.52080       -2.05440        1.28080
S         -4.13130       -3.43150        2.13490
C         -2.85840       -3.23110        3.31630
C         -2.50410       -3.96280        4.46230
C         -3.27160       -5.13030        4.90980
C         -3.43750       -6.21330        4.05220
C         -4.20830       -7.29000        4.44760
C         -4.84160       -7.27900        5.67820
C         -4.70670       -6.19370        6.53510
C         -5.40210       -6.17190        7.86650
C         -4.44710       -6.58860        8.98480
C         -3.90140       -5.13160        6.14890
C         -1.38930       -3.41820        5.07900
S         -0.79710       -1.98070        4.25250
C         -2.03250       -2.13180        3.05950
C         -2.40490       -1.46760        1.88760
N         -1.94960       -0.42050        1.12850
C         -2.75410       -0.34780        0.00520
C         -2.63590        0.40300       -1.18970
N         -1.60150        1.15120       -1.71560
C         -1.99850        1.60130       -2.94630
C         -1.42960        2.26730       -4.03670
S          0.08880        2.99870       -4.41430
C         -0.20420        1.19400       -1.34280
C          0.23680        2.59310       -0.91410
C         -1.20060        0.64880        1.75360
C         -1.99000        1.28140        2.89950
C         -0.60040       -3.92570        6.14460
C         -0.56410       -5.19520        6.68200
C          0.48150       -5.37090        7.59410
S          0.95150       -6.88670        8.33260
C         -0.65730       -7.51660        8.94060
C         -1.05910       -6.79840       10.21420
C          1.27540       -4.23680        7.77110
S          0.65280       -2.91950        6.81060
C          2.33910       -4.10810        8.67780
C          3.25760       -3.10090        8.78160
C          3.93330       -2.84730       10.07730
O          3.96260       -3.57830       11.04250
C          4.49420       -1.48430        9.95730
C          5.11110       -0.72140       10.90520
C          5.53440        0.58540       10.57110
C          6.17290        1.41600       11.51420
C          6.56980        2.68230       11.18470
C          6.33310        3.14920        9.88510
F          6.72860        4.39970        9.57850
C          5.72010        2.38520        8.93170
C          5.30580        1.07820        9.25360
C          4.67460        0.26040        8.28710
C          4.27920       -1.00210        8.63390
C          3.64820       -2.06510        7.85620
C          3.67560       -2.16760        6.48760
C          3.35950       -3.35530        5.79640
N          3.16510       -4.31870        5.20250
C          4.09630       -1.13610        5.62840
N          4.39430       -0.31660        4.88050
H          1.55390        3.82770      -11.20280
H          8.11270        4.95200      -14.17220
H          9.13810        4.43090      -11.98480
H          7.75440        3.72750      -10.08350
H          3.53870        4.70150       -7.99030
H          3.42260        2.55200       -5.59510
H          3.65890        3.15420       -3.93850
H          5.82200        3.16730       -5.19190
H          5.11960        4.22140       -6.41400
H          5.32630        4.81200       -4.76470
H         -2.01470        5.28570       -7.59530
H         -3.40160        5.70540       -9.58950
H         -4.74450        3.89060      -10.56730
H         -4.44300        0.37700       -9.63290
H         -5.22230        1.52660      -10.72960
H         -6.89780        0.41700       -9.26030
H         -6.83030        2.15040       -8.92530
H         -6.04880        1.01190       -7.82890
H         -3.30010        1.21150       -7.58110
H         -2.95490       -6.20890        3.08670
H         -4.32700       -8.13590        3.78730
H         -5.45890       -8.11550        5.97240
H         -6.25570       -6.85160        7.84650
H         -5.77260       -5.16490        8.06910
H         -4.07330       -7.59510        8.80740
H         -4.95560       -6.57240        9.94580
H         -3.60190       -5.90630        9.02800
H         -3.78260       -4.27910        6.80320
H         -0.02120        0.45450       -0.56310
H          0.38160        0.90180       -2.22180
H          0.20750        3.27230       -1.76180
H         -0.40700        2.99960       -0.13710
H          1.25560        2.55550       -0.53950
H         -0.25780        0.24180        2.13310
H         -0.99540        1.41630        1.01530
H         -1.42270        2.10950        3.31500
H         -2.94470        1.65690        2.53670
H         -2.17670        0.56180        3.69150
H         -1.23590       -5.97420        6.37080
H         -1.39700       -7.40010        8.15100
H         -0.48800       -8.57700        9.12270
H         -1.20920       -5.73710       10.02440
H         -0.28160       -6.90490       10.96700
H         -1.98270       -7.21830       10.60590
H          2.37920       -4.86530        9.45610
H          5.27430       -1.10790       11.90010
H          6.34410        1.03380       12.50940
H          7.05840        3.33020       11.89500
H          5.55750        2.77610        7.93940
H          4.50850        0.65720        7.29780
