
  xtb     02052217143D
 energy: -257.371075070924 gnorm: 0.000638768843 xtb: 6.4.1 (unknown)
145160  0     0  0            999 V2000
  -10.4975    2.9984    1.7081 C   0  0  0  0  0  0  0  0  0  0  0  0
  -11.2634    3.3038    2.8078 C   0  0  0  0  0  0  0  0  0  0  0  0
  -10.8128    3.5445    4.1948 C   0  0  0  0  0  0  0  0  0  0  0  0
   -9.6811    3.6540    4.6184 O   0  0  0  0  0  0  0  0  0  0  0  0
  -12.0499    3.6077    5.0041 C   0  0  0  0  0  0  0  0  0  0  0  0
  -12.2161    3.7644    6.3678 C   0  0  0  0  0  0  0  0  0  0  0  0
  -11.1619    3.8985    7.1808 F   0  0  0  0  0  0  0  0  0  0  0  0
  -13.4930    3.7821    6.9150 C   0  0  0  0  0  0  0  0  0  0  0  0
  -14.5918    3.6401    6.0859 C   0  0  0  0  0  0  0  0  0  0  0  0
  -14.4498    3.4837    4.7123 C   0  0  0  0  0  0  0  0  0  0  0  0
  -13.1746    3.4695    4.1718 C   0  0  0  0  0  0  0  0  0  0  0  0
  -12.7114    3.3230    2.7910 C   0  0  0  0  0  0  0  0  0  0  0  0
  -13.5326    3.2738    1.6923 C   0  0  0  0  0  0  0  0  0  0  0  0
  -13.1225    3.2078    0.3442 C   0  0  0  0  0  0  0  0  0  0  0  0
  -12.8964    3.1703   -0.7820 N   0  0  0  0  0  0  0  0  0  0  0  0
  -14.9415    3.3156    1.7515 C   0  0  0  0  0  0  0  0  0  0  0  0
  -16.0891    3.3420    1.7194 N   0  0  0  0  0  0  0  0  0  0  0  0
   -9.1077    2.9594    1.5245 C   0  0  0  0  0  0  0  0  0  0  0  0
   -8.0383    3.3755    2.2998 C   0  0  0  0  0  0  0  0  0  0  0  0
   -6.7987    3.1535    1.7104 C   0  0  0  0  0  0  0  0  0  0  0  0
   -5.2628    3.5925    2.4359 S   0  0  0  0  0  0  0  0  0  0  0  0
   -5.6611    3.7025    4.2184 C   0  0  0  0  0  0  0  0  0  0  0  0
   -6.0571    2.3655    4.8099 C   0  0  0  0  0  0  0  0  0  0  0  0
   -6.8804    2.5782    0.4334 C   0  0  0  0  0  0  0  0  0  0  0  0
   -8.5376    2.3148   -0.0057 S   0  0  0  0  0  0  0  0  0  0  0  0
   -5.8307    2.1550   -0.4158 C   0  0  0  0  0  0  0  0  0  0  0  0
   -5.9310    1.7309   -1.7378 C   0  0  0  0  0  0  0  0  0  0  0  0
   -7.1263    1.8616   -2.5756 C   0  0  0  0  0  0  0  0  0  0  0  0
   -7.6569    0.7506   -3.2219 C   0  0  0  0  0  0  0  0  0  0  0  0
   -8.7898    0.8897   -4.0018 C   0  0  0  0  0  0  0  0  0  0  0  0
   -9.3940    2.1264   -4.1439 C   0  0  0  0  0  0  0  0  0  0  0  0
   -8.8603    3.2514   -3.5270 C   0  0  0  0  0  0  0  0  0  0  0  0
   -9.5257    4.5918   -3.6395 C   0  0  0  0  0  0  0  0  0  0  0  0
  -10.3354    4.8917   -2.3761 C   0  0  0  0  0  0  0  0  0  0  0  0
   -7.7198    3.1078   -2.7523 C   0  0  0  0  0  0  0  0  0  0  0  0
   -4.7214    1.1984   -2.2021 C   0  0  0  0  0  0  0  0  0  0  0  0
   -4.2548    0.4953   -3.7333 S   0  0  0  0  0  0  0  0  0  0  0  0
   -2.6650    0.2409   -3.0968 C   0  0  0  0  0  0  0  0  0  0  0  0
   -1.4478   -0.3403   -3.4789 C   0  0  0  0  0  0  0  0  0  0  0  0
   -1.0951   -1.0555   -4.6443 C   0  0  0  0  0  0  0  0  0  0  0  0
    0.1912   -1.6847   -4.7063 C   0  0  0  0  0  0  0  0  0  0  0  0
    0.3671   -2.3689   -5.8259 N   0  0  0  0  0  0  0  0  0  0  0  0
   -0.9704   -2.2278   -6.7274 S   0  0  0  0  0  0  0  0  0  0  0  0
   -1.8266   -1.2911   -5.7220 N   0  0  0  0  0  0  0  0  0  0  0  0
    1.1005   -1.4821   -3.6455 C   0  0  0  0  0  0  0  0  0  0  0  0
    2.4277   -1.9051   -3.4827 C   0  0  0  0  0  0  0  0  0  0  0  0
    3.6033   -2.8827   -4.2944 S   0  0  0  0  0  0  0  0  0  0  0  0
    4.7489   -2.5074   -3.0279 C   0  0  0  0  0  0  0  0  0  0  0  0
    6.0722   -2.9197   -2.7941 C   0  0  0  0  0  0  0  0  0  0  0  0
    6.7660   -3.8825   -3.6537 C   0  0  0  0  0  0  0  0  0  0  0  0
    6.8165   -3.6807   -5.0288 C   0  0  0  0  0  0  0  0  0  0  0  0
    7.4595   -4.6020   -5.8356 C   0  0  0  0  0  0  0  0  0  0  0  0
    8.0382   -5.7300   -5.2830 C   0  0  0  0  0  0  0  0  0  0  0  0
    7.9762   -5.9591   -3.9123 C   0  0  0  0  0  0  0  0  0  0  0  0
    8.5469   -7.2177   -3.3241 C   0  0  0  0  0  0  0  0  0  0  0  0
    7.5583   -8.3748   -3.4797 C   0  0  0  0  0  0  0  0  0  0  0  0
    7.3373   -5.0291   -3.1081 C   0  0  0  0  0  0  0  0  0  0  0  0
    6.5749   -2.3562   -1.6296 C   0  0  0  0  0  0  0  0  0  0  0  0
    5.3947   -1.3458   -0.8077 S   0  0  0  0  0  0  0  0  0  0  0  0
    4.2290   -1.6640   -2.0405 C   0  0  0  0  0  0  0  0  0  0  0  0
    2.8958   -1.3261   -2.3002 C   0  0  0  0  0  0  0  0  0  0  0  0
    1.9053   -0.5870   -1.7122 N   0  0  0  0  0  0  0  0  0  0  0  0
    0.7776   -0.6780   -2.5138 C   0  0  0  0  0  0  0  0  0  0  0  0
   -0.5495   -0.1884   -2.3822 C   0  0  0  0  0  0  0  0  0  0  0  0
   -1.2268    0.4494   -1.3559 N   0  0  0  0  0  0  0  0  0  0  0  0
   -2.5031    0.6942   -1.7837 C   0  0  0  0  0  0  0  0  0  0  0  0
   -3.6828    1.2387   -1.2655 C   0  0  0  0  0  0  0  0  0  0  0  0
   -4.2025    1.9435    0.2242 S   0  0  0  0  0  0  0  0  0  0  0  0
   -0.9206    0.5482    0.0532 C   0  0  0  0  0  0  0  0  0  0  0  0
   -0.7636   -0.8303    0.6904 C   0  0  0  0  0  0  0  0  0  0  0  0
    2.2550    0.3823   -0.6969 C   0  0  0  0  0  0  0  0  0  0  0  0
    2.1544    1.8098   -1.2281 C   0  0  0  0  0  0  0  0  0  0  0  0
    7.8755   -2.4458   -1.0694 C   0  0  0  0  0  0  0  0  0  0  0  0
    9.0430   -2.8588   -1.6918 C   0  0  0  0  0  0  0  0  0  0  0  0
   10.1432   -2.7962   -0.8508 C   0  0  0  0  0  0  0  0  0  0  0  0
   11.7830   -3.1908   -1.3389 S   0  0  0  0  0  0  0  0  0  0  0  0
   11.5378   -4.8913   -1.9694 C   0  0  0  0  0  0  0  0  0  0  0  0
   11.2102   -5.8374   -0.8317 C   0  0  0  0  0  0  0  0  0  0  0  0
    9.8475   -2.3310    0.4441 C   0  0  0  0  0  0  0  0  0  0  0  0
    8.1564   -1.9175    0.5626 S   0  0  0  0  0  0  0  0  0  0  0  0
   10.7759   -2.3571    1.4829 C   0  0  0  0  0  0  0  0  0  0  0  0
   10.6502   -1.9377    2.7858 C   0  0  0  0  0  0  0  0  0  0  0  0
    9.5516   -1.1240    3.3133 C   0  0  0  0  0  0  0  0  0  0  0  0
    8.5089   -0.8382    2.7560 O   0  0  0  0  0  0  0  0  0  0  0  0
    9.9866   -0.7041    4.6641 C   0  0  0  0  0  0  0  0  0  0  0  0
    9.3769    0.1178    5.5931 C   0  0  0  0  0  0  0  0  0  0  0  0
    8.1865    0.6761    5.3460 F   0  0  0  0  0  0  0  0  0  0  0  0
   10.0011    0.3775    6.8076 C   0  0  0  0  0  0  0  0  0  0  0  0
   11.2331   -0.1906    7.0787 C   0  0  0  0  0  0  0  0  0  0  0  0
   11.8642   -1.0254    6.1635 C   0  0  0  0  0  0  0  0  0  0  0  0
   11.2376   -1.2816    4.9563 C   0  0  0  0  0  0  0  0  0  0  0  0
   11.6379   -2.1148    3.8208 C   0  0  0  0  0  0  0  0  0  0  0  0
   12.6979   -2.9863    3.7979 C   0  0  0  0  0  0  0  0  0  0  0  0
   12.9480   -3.9123    2.7636 C   0  0  0  0  0  0  0  0  0  0  0  0
   13.1851   -4.7259    1.9877 N   0  0  0  0  0  0  0  0  0  0  0  0
   13.6346   -3.1217    4.8420 C   0  0  0  0  0  0  0  0  0  0  0  0
   14.4285   -3.2737    5.6576 N   0  0  0  0  0  0  0  0  0  0  0  0
  -11.0437    2.7056    0.8194 H   0  0  0  0  0  0  0  0  0  0  0  0
  -13.6073    3.9048    7.9804 H   0  0  0  0  0  0  0  0  0  0  0  0
  -15.5818    3.6502    6.5151 H   0  0  0  0  0  0  0  0  0  0  0  0
  -15.3249    3.3719    4.0949 H   0  0  0  0  0  0  0  0  0  0  0  0
   -8.1835    3.8287    3.2611 H   0  0  0  0  0  0  0  0  0  0  0  0
   -4.7301    4.0653    4.6544 H   0  0  0  0  0  0  0  0  0  0  0  0
   -6.4330    4.4570    4.3582 H   0  0  0  0  0  0  0  0  0  0  0  0
   -5.2814    1.6239    4.6309 H   0  0  0  0  0  0  0  0  0  0  0  0
   -6.9896    2.0097    4.3783 H   0  0  0  0  0  0  0  0  0  0  0  0
   -6.2001    2.4739    5.8826 H   0  0  0  0  0  0  0  0  0  0  0  0
   -7.1912   -0.2153   -3.0967 H   0  0  0  0  0  0  0  0  0  0  0  0
   -9.2070    0.0259   -4.4976 H   0  0  0  0  0  0  0  0  0  0  0  0
  -10.2872    2.2226   -4.7434 H   0  0  0  0  0  0  0  0  0  0  0  0
  -10.1895    4.6059   -4.5052 H   0  0  0  0  0  0  0  0  0  0  0  0
   -8.7691    5.3686   -3.7752 H   0  0  0  0  0  0  0  0  0  0  0  0
  -10.8209    5.8612   -2.4596 H   0  0  0  0  0  0  0  0  0  0  0  0
   -9.6864    4.9046   -1.5026 H   0  0  0  0  0  0  0  0  0  0  0  0
  -11.1000    4.1346   -2.2217 H   0  0  0  0  0  0  0  0  0  0  0  0
   -7.2824    3.9741   -2.2750 H   0  0  0  0  0  0  0  0  0  0  0  0
    6.3682   -2.7974   -5.4574 H   0  0  0  0  0  0  0  0  0  0  0  0
    7.5081   -4.4381   -6.9016 H   0  0  0  0  0  0  0  0  0  0  0  0
    8.5409   -6.4445   -5.9186 H   0  0  0  0  0  0  0  0  0  0  0  0
    8.7602   -7.0686   -2.2642 H   0  0  0  0  0  0  0  0  0  0  0  0
    9.4807   -7.4725   -3.8306 H   0  0  0  0  0  0  0  0  0  0  0  0
    7.3379   -8.5480   -4.5305 H   0  0  0  0  0  0  0  0  0  0  0  0
    7.9720   -9.2868   -3.0562 H   0  0  0  0  0  0  0  0  0  0  0  0
    6.6259   -8.1456   -2.9686 H   0  0  0  0  0  0  0  0  0  0  0  0
    7.2740   -5.1939   -2.0415 H   0  0  0  0  0  0  0  0  0  0  0  0
   -1.7642    1.0651    0.5174 H   0  0  0  0  0  0  0  0  0  0  0  0
   -0.0393    1.1695    0.2120 H   0  0  0  0  0  0  0  0  0  0  0  0
   -1.6975   -1.3822    0.6129 H   0  0  0  0  0  0  0  0  0  0  0  0
   -0.5097   -0.7261    1.7417 H   0  0  0  0  0  0  0  0  0  0  0  0
    0.0131   -1.4081    0.1950 H   0  0  0  0  0  0  0  0  0  0  0  0
    3.2906    0.1762   -0.4157 H   0  0  0  0  0  0  0  0  0  0  0  0
    1.6488    0.2415    0.1979 H   0  0  0  0  0  0  0  0  0  0  0  0
    1.1499    2.0304   -1.5817 H   0  0  0  0  0  0  0  0  0  0  0  0
    2.8429    1.9456   -2.0590 H   0  0  0  0  0  0  0  0  0  0  0  0
    2.4157    2.5152   -0.4441 H   0  0  0  0  0  0  0  0  0  0  0  0
    9.0925   -3.1583   -2.7224 H   0  0  0  0  0  0  0  0  0  0  0  0
   12.4896   -5.1451   -2.4337 H   0  0  0  0  0  0  0  0  0  0  0  0
   10.7565   -4.8708   -2.7284 H   0  0  0  0  0  0  0  0  0  0  0  0
   11.1747   -6.8608   -1.1992 H   0  0  0  0  0  0  0  0  0  0  0  0
   11.9681   -5.7707   -0.0538 H   0  0  0  0  0  0  0  0  0  0  0  0
   10.2447   -5.5886   -0.3935 H   0  0  0  0  0  0  0  0  0  0  0  0
   11.7329   -2.7739    1.1877 H   0  0  0  0  0  0  0  0  0  0  0  0
    9.5128    1.0219    7.5216 H   0  0  0  0  0  0  0  0  0  0  0  0
   11.7150    0.0182    8.0214 H   0  0  0  0  0  0  0  0  0  0  0  0
   12.8245   -1.4527    6.3996 H   0  0  0  0  0  0  0  0  0  0  0  0
  1  2  2  0  0  0  0
  2  3  1  0  0  0  0
  3  4  2  0  0  0  0
  3  5  1  0  0  0  0
  5  6  2  0  0  0  0
  6  7  1  0  0  0  0
  6  8  1  0  0  0  0
  8  9  2  0  0  0  0
  9 10  1  0  0  0  0
 10 11  2  0  0  0  0
 11 12  1  0  0  0  0
 12 13  2  0  0  0  0
 13 14  1  0  0  0  0
 14 15  3  0  0  0  0
 13 16  1  0  0  0  0
 16 17  3  0  0  0  0
  1 18  1  0  0  0  0
 18 19  2  0  0  0  0
 19 20  1  0  0  0  0
 20 21  1  0  0  0  0
 21 22  1  0  0  0  0
 22 23  1  0  0  0  0
 20 24  2  0  0  0  0
 24 25  1  0  0  0  0
 24 26  1  0  0  0  0
 26 27  2  0  0  0  0
 27 28  1  0  0  0  0
 28 29  2  0  0  0  0
 29 30  1  0  0  0  0
 30 31  2  0  0  0  0
 31 32  1  0  0  0  0
 32 33  1  0  0  0  0
 33 34  1  0  0  0  0
 32 35  2  0  0  0  0
 27 36  1  0  0  0  0
 36 37  1  0  0  0  0
 37 38  1  0  0  0  0
 38 39  1  0  0  0  0
 39 40  1  0  0  0  0
 40 41  1  0  0  0  0
 41 42  2  0  0  0  0
 42 43  1  0  0  0  0
 43 44  1  0  0  0  0
 41 45  1  0  0  0  0
 45 46  1  0  0  0  0
 46 47  1  0  0  0  0
 47 48  1  0  0  0  0
 48 49  1  0  0  0  0
 49 50  1  0  0  0  0
 50 51  2  0  0  0  0
 51 52  1  0  0  0  0
 52 53  2  0  0  0  0
 53 54  1  0  0  0  0
 54 55  1  0  0  0  0
 55 56  1  0  0  0  0
 54 57  2  0  0  0  0
 49 58  2  0  0  0  0
 58 59  1  0  0  0  0
 59 60  1  0  0  0  0
 60 61  1  0  0  0  0
 61 62  1  0  0  0  0
 62 63  1  0  0  0  0
 63 64  1  0  0  0  0
 64 65  1  0  0  0  0
 65 66  1  0  0  0  0
 66 67  1  0  0  0  0
 67 68  1  0  0  0  0
 65 69  1  0  0  0  0
 69 70  1  0  0  0  0
 62 71  1  0  0  0  0
 71 72  1  0  0  0  0
 58 73  1  0  0  0  0
 73 74  2  0  0  0  0
 74 75  1  0  0  0  0
 75 76  1  0  0  0  0
 76 77  1  0  0  0  0
 77 78  1  0  0  0  0
 75 79  2  0  0  0  0
 79 80  1  0  0  0  0
 79 81  1  0  0  0  0
 81 82  2  0  0  0  0
 82 83  1  0  0  0  0
 83 84  2  0  0  0  0
 83 85  1  0  0  0  0
 85 86  2  0  0  0  0
 86 87  1  0  0  0  0
 86 88  1  0  0  0  0
 88 89  2  0  0  0  0
 89 90  1  0  0  0  0
 90 91  2  0  0  0  0
 91 92  1  0  0  0  0
 92 93  2  0  0  0  0
 93 94  1  0  0  0  0
 94 95  3  0  0  0  0
 93 96  1  0  0  0  0
 96 97  3  0  0  0  0
 12  2  1  0  0  0  0
 25 18  1  0  0  0  0
 68 26  1  0  0  0  0
 80 73  1  0  0  0  0
 92 82  1  0  0  0  0
 11  5  1  0  0  0  0
 35 28  1  0  0  0  0
 67 36  2  0  0  0  0
 91 85  1  0  0  0  0
 66 38  2  0  0  0  0
 64 39  2  0  0  0  0
 44 40  2  0  0  0  0
 63 45  2  0  0  0  0
 61 46  2  0  0  0  0
 60 48  2  0  0  0  0
 57 50  1  0  0  0  0
  1 98  1  0  0  0  0
  8 99  1  0  0  0  0
  9100  1  0  0  0  0
 10101  1  0  0  0  0
 19102  1  0  0  0  0
 22103  1  0  0  0  0
 22104  1  0  0  0  0
 23105  1  0  0  0  0
 23106  1  0  0  0  0
 23107  1  0  0  0  0
 29108  1  0  0  0  0
 30109  1  0  0  0  0
 31110  1  0  0  0  0
 33111  1  0  0  0  0
 33112  1  0  0  0  0
 34113  1  0  0  0  0
 34114  1  0  0  0  0
 34115  1  0  0  0  0
 35116  1  0  0  0  0
 51117  1  0  0  0  0
 52118  1  0  0  0  0
 53119  1  0  0  0  0
 55120  1  0  0  0  0
 55121  1  0  0  0  0
 56122  1  0  0  0  0
 56123  1  0  0  0  0
 56124  1  0  0  0  0
 57125  1  0  0  0  0
 69126  1  0  0  0  0
 69127  1  0  0  0  0
 70128  1  0  0  0  0
 70129  1  0  0  0  0
 70130  1  0  0  0  0
 71131  1  0  0  0  0
 71132  1  0  0  0  0
 72133  1  0  0  0  0
 72134  1  0  0  0  0
 72135  1  0  0  0  0
 74136  1  0  0  0  0
 77137  1  0  0  0  0
 77138  1  0  0  0  0
 78139  1  0  0  0  0
 78140  1  0  0  0  0
 78141  1  0  0  0  0
 81142  1  0  0  0  0
 88143  1  0  0  0  0
 89144  1  0  0  0  0
 90145  1  0  0  0  0
M  END
