175

C         -1.01110        7.85580       -0.84680
C         -1.30330        8.94570       -1.62720
C         -2.08700       10.14500       -1.26540
O         -2.58530       10.42760       -0.19610
C         -2.14080       10.96380       -2.49630
C         -2.76350       12.17520       -2.73470
F         -3.45360       12.79670       -1.77240
C         -2.68120       12.76400       -3.99050
C         -1.97290       12.12930       -4.99560
C         -1.33830       10.91200       -4.77950
C         -1.42300       10.32900       -3.52580
C         -0.87870        9.07300       -3.00680
C         -0.10270        8.20070       -3.72980
C          0.44320        6.97960       -3.28000
N          0.93120        5.97130       -3.02080
C          0.28420        8.40500       -5.07140
N          0.64420        8.49540       -6.15810
C         -1.33800        7.52290        0.47670
C         -1.99470        8.17410        1.50800
C         -2.08670        7.42820        2.68280
S         -2.71880        8.02090        4.20820
C         -3.94570        9.27410        3.67650
C         -3.38470       10.68220        3.64270
C         -1.50940        6.16040        2.57340
S         -0.80300        5.94020        1.00550
C         -1.41900        5.06890        3.47900
C         -2.32170        4.55550        4.39830
C         -3.66010        5.08410        4.65460
C         -4.49870        5.43650        3.60020
C         -5.76360        5.92490        3.86210
C         -6.19840        6.06990        5.16820
C         -5.38020        5.70740        6.23080
C         -5.82700        5.91270        7.64880
C         -5.42690        7.30990        8.12770
C         -4.11610        5.20590        5.96170
C         -1.84980        3.35060        4.95660
S         -2.58820        2.13320        5.97980
C         -1.26930        1.05390        5.63880
C         -0.91240       -0.30440        5.78390
C         -1.47550       -1.41220        6.46090
C         -0.91850       -2.72970        6.25850
N         -1.54280       -3.65040        6.97340
S         -2.72220       -2.94010        7.82340
N         -2.49020       -1.42280        7.30920
C          0.09510       -2.91600        5.28700
C          0.56280       -4.04690        4.58820
S          0.29780       -5.76320        4.49520
C          1.17070       -5.80760        2.97330
C          1.32740       -6.79250        1.97580
C          0.73360       -8.12390        2.08750
C          0.00290       -8.67100        1.03530
C         -0.58540       -9.91180        1.17950
C         -0.46040      -10.61090        2.36790
C          0.25430      -10.07490        3.43090
C          0.34600      -10.79480        4.74490
C         -0.71770      -10.26860        5.71090
C          0.84350       -8.82890        3.28030
C          1.96730       -6.27250        0.86030
S          2.36130       -4.57970        1.03090
C          1.69020       -4.56370        2.61450
C          1.35140       -3.56920        3.53650
N          1.43580       -2.20700        3.57980
C          0.66420       -1.78550        4.64020
C          0.25820       -0.48540        5.00230
N          0.67140        0.73030        4.48790
C         -0.28700        1.64590        4.83780
C         -0.61430        2.94250        4.44960
S          0.01950        4.06510        3.30960
C          2.03980        1.15030        4.26240
C          2.55320        2.01060        5.41600
C          1.88880       -1.47430        2.41930
C          3.41120       -1.48260        2.29560
C          2.30700       -6.88360       -0.39690
C          2.70530       -8.20360       -0.54660
F          2.86130       -8.99130        0.52950
C          3.01490       -8.75130       -1.79790
F          3.41390      -10.03110       -1.84380
C          2.98100       -8.01000       -2.96410
C          2.56310       -6.65320       -2.85110
N          2.44860       -5.90100       -3.95310
C          2.12910       -4.63190       -3.86280
C          2.13500       -3.89330       -5.12720
C          2.62110       -2.59500       -5.22660
C          2.68750       -1.95170       -6.44890
C          2.27200       -2.58650       -7.61690
O          2.29680       -2.05960       -8.85550
C          2.71880       -0.71810       -9.02900
C          2.59000       -0.38630      -10.50650
C          1.79880       -3.90320       -7.49860
C          1.73380       -4.55200       -6.29120
F          1.40800       -4.54980       -8.61400
C          1.83210       -4.06060       -2.58640
N          1.90010       -4.80470       -1.50750
C          2.26420       -6.09170       -1.58680
C          1.35960       -2.68300       -2.39950
C          1.84740       -1.91310       -1.35070
C          1.38130       -0.63020       -1.12200
C          0.38470       -0.07570       -1.92200
O         -0.19340        1.13200       -1.77290
C          0.13790        1.96060       -0.67220
C          1.38670        2.80140       -0.91230
C         -0.08940       -0.86870       -2.98140
F         -1.05140       -0.36710       -3.78030
C          0.37640       -2.13800       -3.22680
C          3.30100       -8.54200       -4.26790
C          3.91130       -7.81000       -5.21940
C          4.60000       -6.50290       -5.05060
O          5.13690       -6.06820       -4.05500
C          4.65950       -5.92500       -6.41410
C          5.06840       -4.66660       -6.81490
C          5.02100       -4.36190       -8.16810
C          4.58340       -5.29610       -9.09750
C          4.19020       -6.56690       -8.70140
C          4.23610       -6.87520       -7.35350
C          3.87130       -8.13880       -6.66820
O          3.56050       -9.19110       -7.17260
H         -0.43190        7.07940       -1.33140
H         -3.17290       13.70840       -4.16230
H         -1.91200       12.58890       -5.96990
H         -0.79700       10.44360       -5.58390
H         -2.37500        9.17080        1.38840
H         -4.74150        9.19030        4.41730
H         -4.32890        8.95970        2.70780
H         -2.97650       10.95060        4.61430
H         -2.59870       10.77980        2.89850
H         -4.17900       11.38200        3.39140
H         -4.16060        5.31410        2.58150
H         -6.41430        6.19620        3.04350
H         -7.18590        6.46200        5.36520
H         -5.36490        5.16380        8.29420
H         -6.91100        5.80360        7.71770
H         -4.34880        7.43750        8.06060
H         -5.89940        8.07130        7.51080
H         -5.73320        7.46120        9.16000
H         -3.46520        4.92640        6.77730
H         -0.11360       -8.11510        0.11540
H         -1.14950      -10.33550        0.36140
H         -0.92350      -11.58160        2.47070
H          0.20070      -11.86590        4.59340
H          1.33500      -10.64180        5.18120
H         -1.71240      -10.42880        5.30080
H         -0.58480       -9.20180        5.87600
H         -0.64980      -10.78100        6.66760
H          1.41310       -8.40590        4.09500
H          2.09100        1.72190        3.32920
H          2.66320        0.26260        4.18710
H          3.59830        2.25610        5.24870
H          1.98930        2.93630        5.49170
H          2.46640        1.47070        6.35650
H          1.46460       -1.96330        1.53470
H          1.49280       -0.46090        2.46370
H          3.89010       -1.08740        3.18830
H          3.71610       -0.88150        1.44370
H          3.76540       -2.49840        2.14480
H          2.97760       -2.08420       -4.34580
H          3.07440       -0.94630       -6.48680
H          3.76180       -0.60820       -8.70170
H          2.08850       -0.04720       -8.43050
H          1.55810       -0.50690      -10.82380
H          3.21200       -1.05540      -11.09420
H          2.90070        0.63940      -10.68250
H          1.37240       -5.56660       -6.24550
H          2.61430       -2.32730       -0.71530
H          1.79940       -0.06110       -0.30750
H          0.23290        1.35920        0.24090
H         -0.72740        2.61960       -0.56090
H          2.25870        2.17320       -1.07870
H          1.24540        3.43590       -1.78300
H          1.56340        3.43460       -0.04680
H         -0.04720       -2.70150       -4.04290
H          2.95640       -9.54100       -4.50870
H          5.40090       -3.94450       -6.08500
H          5.32870       -3.38290       -8.50570
H          4.54770       -5.02880      -10.14280
H          3.85340       -7.29980       -9.41800
