212

C          4.63060       -3.84960       14.31480
C          4.27840       -3.91560       15.63980
C          2.92550       -3.86320       16.23100
O          1.84490       -3.87830       15.67840
C          3.13470       -3.75730       17.69240
C          2.17810       -3.63860       18.68000
C          2.63690       -3.54640       19.98510
F          1.74420       -3.42950       20.98300
C          3.98720       -3.56810       20.30050
C          4.93650       -3.69000       19.29710
C          4.50850       -3.78760       17.98050
C          5.24400       -3.93030       16.72520
C          6.60060       -4.10660       16.62990
C          7.33310       -4.33390       15.44510
N          8.01180       -4.54520       14.54250
C          7.47570       -4.11810       17.73680
N          8.24690       -4.13400       18.58710
C          3.85250       -3.85860       13.14560
C          2.51300       -4.11190       12.89410
C          2.16110       -4.04910       11.54810
C          0.81130       -4.36880       11.06610
C         -0.29610       -3.71790       11.59960
C         -1.56800       -4.03810       11.16130
C         -1.74760       -5.01800       10.19930
C         -0.65020       -5.68390        9.67900
C          0.62320       -5.36280       10.10850
C          3.23710       -3.71320       10.72220
S          4.69540       -3.53220       11.63950
C          3.24150       -3.43770        9.33140
C          4.35090       -3.32780        8.51580
C          4.00880       -2.98260        7.21160
S          4.92360       -2.70830        5.75930
C          3.45340       -2.35160        4.91160
C          3.09960       -1.96850        3.58230
C          1.70590       -1.83710        3.54880
C          1.09120       -2.08450        4.90920
C          0.52310       -0.74400        5.45790
C         -0.54160       -0.14040        4.58970
C         -0.25050        0.94950        3.77670
C         -1.22850        1.53120        2.99270
C         -2.52810        1.03920        2.99360
C         -3.59470        1.68900        2.15780
C         -3.45100        1.33350        0.67780
C         -2.81150       -0.06310        3.78860
C         -1.83660       -0.64270        4.58050
C          0.08590       -3.21650        4.96020
C         -0.60150       -3.48910        6.13810
C         -1.48980       -4.54390        6.21410
C         -1.71910       -5.36420        5.11760
C         -2.65170       -6.53680        5.21490
C         -1.89420       -7.78510        5.67180
C         -1.02000       -5.10230        3.94800
C         -0.12730       -4.04860        3.86930
C          2.31840       -2.44460        5.70420
C          2.62910       -2.80250        7.01230
S          1.74970       -3.08820        8.46870
C          1.06540       -1.46210        2.38270
C          1.81480       -1.18790        1.24890
C          1.19870       -0.70940        0.05690
C          1.88270       -0.42370       -1.10360
C          3.36260       -0.66420       -1.24220
C          4.00010       -1.04030        0.08930
C          3.23520       -1.32140        1.24370
C          3.89600       -1.71810        2.43870
C          5.29590       -1.82450        2.45640
C          6.01900       -1.52710        1.33290
C          5.37240       -1.13410        0.15980
C          3.94560        0.64380       -1.76180
C          4.23570        1.65930       -0.85820
C          4.70210        2.88350       -1.29760
C          4.88300        3.13410       -2.65150
C          5.34510        4.47870       -3.13330
C          4.14430        5.38350       -3.41730
C          4.57060        2.12610       -3.55260
C          4.10400        0.89900       -3.11750
C          3.60060       -1.85890       -2.16510
C          4.78320       -2.00470       -2.88050
C          4.99430       -3.11210       -3.67980
C          4.04010       -4.11520       -3.78230
C          4.24850       -5.28640       -4.69740
C          3.70910       -4.97180       -6.09450
C          2.86970       -3.97970       -3.04960
C          2.65520       -2.87320       -2.24910
C          1.01050        0.07270       -2.08690
C         -0.32220        0.15670       -1.66740
S         -0.51620       -0.38100       -0.03770
C         -1.20160        0.65420       -2.63040
C         -0.54760        0.96080       -3.80080
S          1.17360        0.61960       -3.71580
C         -1.09420        1.51600       -4.98800
C         -0.41150        1.90460       -6.10650
C         -1.23640        2.44500       -7.11840
C         -0.84760        2.94030       -8.37460
C          0.55650        2.88320       -8.80490
C          1.20500        4.02320       -9.26740
C          2.53340        3.94690       -9.63730
F          3.14070        5.07190      -10.06240
C          3.27380        2.77120       -9.58500
C          4.72970        2.71910       -9.94070
C          5.59090        2.90810       -8.68910
C          2.58440        1.65220       -9.13020
F          3.24080        0.47600       -9.05910
C          1.25980        1.68340       -8.74440
C         -1.84620        3.47740       -9.17180
C         -3.21480        3.49650       -8.78360
C         -3.60790        2.96950       -7.53560
C         -5.02150        2.94090       -7.13890
C         -5.42320        3.44370       -5.90590
C         -6.75980        3.40910       -5.56140
C         -7.74670        2.87870       -6.38410
C         -9.19890        2.89260       -6.01150
C         -9.87190        4.15660       -6.55230
C         -7.30180        2.37760       -7.60330
C         -5.97800        2.39810       -7.99220
F         -8.20400        1.83320       -8.44230
F         -7.11990        3.91210       -4.36330
C         -2.60200        2.48050       -6.72440
S         -2.81700        1.80120       -5.12990
C         -4.03720        4.10610       -9.74890
C         -3.36010        4.52910      -10.86720
S         -1.63410        4.16880      -10.75030
C         -3.78570        5.16500      -12.05440
C         -5.00480        5.65230      -12.43750
C         -6.25710        5.75150      -11.65120
O         -6.51430        5.30130      -10.55450
C         -7.18450        6.54980      -12.48020
C         -8.46370        6.95970      -12.16210
C         -9.12990        7.71830      -13.11210
F        -10.37610        8.14320      -12.84930
C         -8.55330        8.05910      -14.32730
C         -7.26950        7.63590      -14.63440
C         -6.57710        6.87170      -13.70460
C         -5.24230        6.27920      -13.73270
C         -4.41090        6.27760      -14.82050
C         -4.71780        6.90120      -16.05000
N         -4.89720        7.38820      -17.07350
C         -3.15400        5.64040      -14.91760
N         -2.13680        5.14100      -15.10390
H          5.69050       -3.74620       14.11410
H          1.12560       -3.61860       18.44690
H          4.28670       -3.48880       21.33370
H          5.98210       -3.70200       19.55590
H          1.81430       -4.35290       13.67360
H         -0.15290       -2.95620       12.35160
H         -2.42270       -3.52380       11.57510
H         -2.74330       -5.26880        9.86350
H         -0.78430       -6.45910        8.93910
H          1.47880       -5.89030        9.71120
H          5.35300       -3.50240        8.86370
H          1.35900       -0.04460        5.54150
H          0.13060       -0.92010        6.46030
H          0.75300        1.35230        3.76510
H         -0.98320        2.38750        2.38060
H         -3.53080        2.77420        2.26950
H         -4.57770        1.37020        2.50980
H         -4.25240        1.78910        0.10030
H         -2.49920        1.69130        0.29240
H         -3.49160        0.25490        0.54170
H         -3.81430       -0.46630        3.80220
H         -2.08760       -1.49010        5.20130
H         -0.44960       -2.87940        7.01640
H         -2.01140       -4.72740        7.14220
H         -3.44840       -6.31800        5.92880
H         -3.10770       -6.72970        4.24180
H         -2.56800       -8.63560        5.74380
H         -1.44140       -7.61740        6.64650
H         -1.10260       -8.02690        4.96610
H         -1.17320       -5.73170        3.08280
H          0.40860       -3.88020        2.94750
H         -0.00930       -1.37040        2.34430
H          5.79040       -2.13260        3.36500
H          7.09630       -1.59320        1.34510
H          5.96950       -0.89390       -0.70540
H          4.09690        1.48920        0.20000
H          4.92800        3.65650       -0.57680
H          5.93200        4.36320       -4.04680
H          5.97780        4.94690       -2.37680
H          3.50610        4.93780       -4.17740
H          3.55370        5.52200       -2.51440
H          4.47580        6.35770       -3.76870
H          4.69250        2.30090       -4.61210
H          3.86970        0.13610       -3.84470
H          5.54890       -1.24550       -2.83030
H          5.91900       -3.19760       -4.23250
H          3.73240       -6.16320       -4.30100
H          5.31320       -5.51810       -4.76640
H          4.21950       -4.10670       -6.51170
H          3.85930       -5.81840       -6.76020
H          2.64510       -4.75040       -6.04800
H          2.11470       -4.75130       -3.10120
H          1.73720       -2.80660       -1.68360
H         -2.25750        0.79350       -2.48520
H          0.65760        1.82270       -6.18460
H          0.69650        4.97230       -9.32100
H          4.95590        3.50630      -10.66090
H          4.95720        1.75220      -10.39280
H          5.38810        2.12010       -7.96700
H          6.64440        2.87280       -8.95340
H          5.38100        3.86990       -8.22600
H          0.78110        0.77380       -8.41790
H         -4.71370        3.88320       -5.22350
H         -9.29660        2.86350       -4.92540
H         -9.68910        2.01350       -6.43330
H         -9.40550        5.04420       -6.13080
H         -9.78320        4.19810       -7.63530
H        -10.92630        4.15920       -6.28880
H         -5.70010        1.97520       -8.94430
H         -5.09380        4.25070       -9.62360
H         -2.98000        5.29370      -12.76790
H         -8.92130        6.70240      -11.22030
H         -9.11710        8.65610      -15.02670
H         -6.83340        7.91060      -15.58020
