
  xtb     02032218373D
 energy: -363.486661610541 gnorm: 0.000487756131 xtb: 6.4.1 (unknown)
212234  0     0  0            999 V2000
    4.6306   -3.8496   14.3148 C   0  0  0  0  0  0  0  0  0  0  0  0
    4.2784   -3.9156   15.6398 C   0  0  0  0  0  0  0  0  0  0  0  0
    2.9255   -3.8632   16.2310 C   0  0  0  0  0  0  0  0  0  0  0  0
    1.8449   -3.8783   15.6784 O   0  0  0  0  0  0  0  0  0  0  0  0
    3.1347   -3.7573   17.6924 C   0  0  0  0  0  0  0  0  0  0  0  0
    2.1781   -3.6386   18.6800 C   0  0  0  0  0  0  0  0  0  0  0  0
    2.6369   -3.5464   19.9851 C   0  0  0  0  0  0  0  0  0  0  0  0
    1.7442   -3.4295   20.9830 F   0  0  0  0  0  0  0  0  0  0  0  0
    3.9872   -3.5681   20.3005 C   0  0  0  0  0  0  0  0  0  0  0  0
    4.9365   -3.6900   19.2971 C   0  0  0  0  0  0  0  0  0  0  0  0
    4.5085   -3.7876   17.9805 C   0  0  0  0  0  0  0  0  0  0  0  0
    5.2440   -3.9303   16.7252 C   0  0  0  0  0  0  0  0  0  0  0  0
    6.6006   -4.1066   16.6299 C   0  0  0  0  0  0  0  0  0  0  0  0
    7.3331   -4.3339   15.4451 C   0  0  0  0  0  0  0  0  0  0  0  0
    8.0118   -4.5452   14.5425 N   0  0  0  0  0  0  0  0  0  0  0  0
    7.4757   -4.1181   17.7368 C   0  0  0  0  0  0  0  0  0  0  0  0
    8.2469   -4.1340   18.5871 N   0  0  0  0  0  0  0  0  0  0  0  0
    3.8525   -3.8586   13.1456 C   0  0  0  0  0  0  0  0  0  0  0  0
    2.5130   -4.1119   12.8941 C   0  0  0  0  0  0  0  0  0  0  0  0
    2.1611   -4.0491   11.5481 C   0  0  0  0  0  0  0  0  0  0  0  0
    0.8113   -4.3688   11.0661 C   0  0  0  0  0  0  0  0  0  0  0  0
   -0.2961   -3.7179   11.5996 C   0  0  0  0  0  0  0  0  0  0  0  0
   -1.5680   -4.0381   11.1613 C   0  0  0  0  0  0  0  0  0  0  0  0
   -1.7476   -5.0180   10.1993 C   0  0  0  0  0  0  0  0  0  0  0  0
   -0.6502   -5.6839    9.6790 C   0  0  0  0  0  0  0  0  0  0  0  0
    0.6232   -5.3628   10.1085 C   0  0  0  0  0  0  0  0  0  0  0  0
    3.2371   -3.7132   10.7222 C   0  0  0  0  0  0  0  0  0  0  0  0
    4.6954   -3.5322   11.6395 S   0  0  0  0  0  0  0  0  0  0  0  0
    3.2415   -3.4377    9.3314 C   0  0  0  0  0  0  0  0  0  0  0  0
    4.3509   -3.3278    8.5158 C   0  0  0  0  0  0  0  0  0  0  0  0
    4.0088   -2.9826    7.2116 C   0  0  0  0  0  0  0  0  0  0  0  0
    4.9236   -2.7083    5.7593 S   0  0  0  0  0  0  0  0  0  0  0  0
    3.4534   -2.3516    4.9116 C   0  0  0  0  0  0  0  0  0  0  0  0
    3.0996   -1.9685    3.5823 C   0  0  0  0  0  0  0  0  0  0  0  0
    1.7059   -1.8371    3.5488 C   0  0  0  0  0  0  0  0  0  0  0  0
    1.0912   -2.0845    4.9092 C   0  0  0  0  0  0  0  0  0  0  0  0
    0.5231   -0.7440    5.4579 C   0  0  0  0  0  0  0  0  0  0  0  0
   -0.5416   -0.1404    4.5897 C   0  0  0  0  0  0  0  0  0  0  0  0
   -0.2505    0.9495    3.7767 C   0  0  0  0  0  0  0  0  0  0  0  0
   -1.2285    1.5312    2.9927 C   0  0  0  0  0  0  0  0  0  0  0  0
   -2.5281    1.0392    2.9936 C   0  0  0  0  0  0  0  0  0  0  0  0
   -3.5947    1.6890    2.1578 C   0  0  0  0  0  0  0  0  0  0  0  0
   -3.4510    1.3335    0.6778 C   0  0  0  0  0  0  0  0  0  0  0  0
   -2.8115   -0.0631    3.7886 C   0  0  0  0  0  0  0  0  0  0  0  0
   -1.8366   -0.6427    4.5805 C   0  0  0  0  0  0  0  0  0  0  0  0
    0.0859   -3.2165    4.9602 C   0  0  0  0  0  0  0  0  0  0  0  0
   -0.6015   -3.4891    6.1381 C   0  0  0  0  0  0  0  0  0  0  0  0
   -1.4898   -4.5439    6.2141 C   0  0  0  0  0  0  0  0  0  0  0  0
   -1.7191   -5.3642    5.1176 C   0  0  0  0  0  0  0  0  0  0  0  0
   -2.6517   -6.5368    5.2149 C   0  0  0  0  0  0  0  0  0  0  0  0
   -1.8942   -7.7851    5.6718 C   0  0  0  0  0  0  0  0  0  0  0  0
   -1.0200   -5.1023    3.9480 C   0  0  0  0  0  0  0  0  0  0  0  0
   -0.1273   -4.0486    3.8693 C   0  0  0  0  0  0  0  0  0  0  0  0
    2.3184   -2.4446    5.7042 C   0  0  0  0  0  0  0  0  0  0  0  0
    2.6291   -2.8025    7.0123 C   0  0  0  0  0  0  0  0  0  0  0  0
    1.7497   -3.0882    8.4687 S   0  0  0  0  0  0  0  0  0  0  0  0
    1.0654   -1.4621    2.3827 C   0  0  0  0  0  0  0  0  0  0  0  0
    1.8148   -1.1879    1.2489 C   0  0  0  0  0  0  0  0  0  0  0  0
    1.1987   -0.7094    0.0569 C   0  0  0  0  0  0  0  0  0  0  0  0
    1.8827   -0.4237   -1.1036 C   0  0  0  0  0  0  0  0  0  0  0  0
    3.3626   -0.6642   -1.2422 C   0  0  0  0  0  0  0  0  0  0  0  0
    4.0001   -1.0403    0.0893 C   0  0  0  0  0  0  0  0  0  0  0  0
    3.2352   -1.3214    1.2437 C   0  0  0  0  0  0  0  0  0  0  0  0
    3.8960   -1.7181    2.4387 C   0  0  0  0  0  0  0  0  0  0  0  0
    5.2959   -1.8245    2.4564 C   0  0  0  0  0  0  0  0  0  0  0  0
    6.0190   -1.5271    1.3329 C   0  0  0  0  0  0  0  0  0  0  0  0
    5.3724   -1.1341    0.1598 C   0  0  0  0  0  0  0  0  0  0  0  0
    3.9456    0.6438   -1.7618 C   0  0  0  0  0  0  0  0  0  0  0  0
    4.2357    1.6593   -0.8582 C   0  0  0  0  0  0  0  0  0  0  0  0
    4.7021    2.8835   -1.2976 C   0  0  0  0  0  0  0  0  0  0  0  0
    4.8830    3.1341   -2.6515 C   0  0  0  0  0  0  0  0  0  0  0  0
    5.3451    4.4787   -3.1333 C   0  0  0  0  0  0  0  0  0  0  0  0
    4.1443    5.3835   -3.4173 C   0  0  0  0  0  0  0  0  0  0  0  0
    4.5706    2.1261   -3.5526 C   0  0  0  0  0  0  0  0  0  0  0  0
    4.1040    0.8990   -3.1175 C   0  0  0  0  0  0  0  0  0  0  0  0
    3.6006   -1.8589   -2.1651 C   0  0  0  0  0  0  0  0  0  0  0  0
    4.7832   -2.0047   -2.8805 C   0  0  0  0  0  0  0  0  0  0  0  0
    4.9943   -3.1121   -3.6798 C   0  0  0  0  0  0  0  0  0  0  0  0
    4.0401   -4.1152   -3.7823 C   0  0  0  0  0  0  0  0  0  0  0  0
    4.2485   -5.2864   -4.6974 C   0  0  0  0  0  0  0  0  0  0  0  0
    3.7091   -4.9718   -6.0945 C   0  0  0  0  0  0  0  0  0  0  0  0
    2.8697   -3.9797   -3.0496 C   0  0  0  0  0  0  0  0  0  0  0  0
    2.6552   -2.8732   -2.2491 C   0  0  0  0  0  0  0  0  0  0  0  0
    1.0105    0.0727   -2.0869 C   0  0  0  0  0  0  0  0  0  0  0  0
   -0.3222    0.1567   -1.6674 C   0  0  0  0  0  0  0  0  0  0  0  0
   -0.5162   -0.3810   -0.0377 S   0  0  0  0  0  0  0  0  0  0  0  0
   -1.2016    0.6542   -2.6304 C   0  0  0  0  0  0  0  0  0  0  0  0
   -0.5476    0.9608   -3.8008 C   0  0  0  0  0  0  0  0  0  0  0  0
    1.1736    0.6196   -3.7158 S   0  0  0  0  0  0  0  0  0  0  0  0
   -1.0942    1.5160   -4.9880 C   0  0  0  0  0  0  0  0  0  0  0  0
   -0.4115    1.9046   -6.1065 C   0  0  0  0  0  0  0  0  0  0  0  0
   -1.2364    2.4450   -7.1184 C   0  0  0  0  0  0  0  0  0  0  0  0
   -0.8476    2.9403   -8.3746 C   0  0  0  0  0  0  0  0  0  0  0  0
    0.5565    2.8832   -8.8049 C   0  0  0  0  0  0  0  0  0  0  0  0
    1.2050    4.0232   -9.2674 C   0  0  0  0  0  0  0  0  0  0  0  0
    2.5334    3.9469   -9.6373 C   0  0  0  0  0  0  0  0  0  0  0  0
    3.1407    5.0719  -10.0624 F   0  0  0  0  0  0  0  0  0  0  0  0
    3.2738    2.7712   -9.5850 C   0  0  0  0  0  0  0  0  0  0  0  0
    4.7297    2.7191   -9.9407 C   0  0  0  0  0  0  0  0  0  0  0  0
    5.5909    2.9081   -8.6891 C   0  0  0  0  0  0  0  0  0  0  0  0
    2.5844    1.6522   -9.1302 C   0  0  0  0  0  0  0  0  0  0  0  0
    3.2408    0.4760   -9.0591 F   0  0  0  0  0  0  0  0  0  0  0  0
    1.2598    1.6834   -8.7444 C   0  0  0  0  0  0  0  0  0  0  0  0
   -1.8462    3.4774   -9.1718 C   0  0  0  0  0  0  0  0  0  0  0  0
   -3.2148    3.4965   -8.7836 C   0  0  0  0  0  0  0  0  0  0  0  0
   -3.6079    2.9695   -7.5356 C   0  0  0  0  0  0  0  0  0  0  0  0
   -5.0215    2.9409   -7.1389 C   0  0  0  0  0  0  0  0  0  0  0  0
   -5.4232    3.4437   -5.9059 C   0  0  0  0  0  0  0  0  0  0  0  0
   -6.7598    3.4091   -5.5614 C   0  0  0  0  0  0  0  0  0  0  0  0
   -7.7467    2.8787   -6.3841 C   0  0  0  0  0  0  0  0  0  0  0  0
   -9.1989    2.8926   -6.0115 C   0  0  0  0  0  0  0  0  0  0  0  0
   -9.8719    4.1566   -6.5523 C   0  0  0  0  0  0  0  0  0  0  0  0
   -7.3018    2.3776   -7.6033 C   0  0  0  0  0  0  0  0  0  0  0  0
   -5.9780    2.3981   -7.9922 C   0  0  0  0  0  0  0  0  0  0  0  0
   -8.2040    1.8332   -8.4423 F   0  0  0  0  0  0  0  0  0  0  0  0
   -7.1199    3.9121   -4.3633 F   0  0  0  0  0  0  0  0  0  0  0  0
   -2.6020    2.4805   -6.7244 C   0  0  0  0  0  0  0  0  0  0  0  0
   -2.8170    1.8012   -5.1299 S   0  0  0  0  0  0  0  0  0  0  0  0
   -4.0372    4.1061   -9.7489 C   0  0  0  0  0  0  0  0  0  0  0  0
   -3.3601    4.5291  -10.8672 C   0  0  0  0  0  0  0  0  0  0  0  0
   -1.6341    4.1688  -10.7503 S   0  0  0  0  0  0  0  0  0  0  0  0
   -3.7857    5.1650  -12.0544 C   0  0  0  0  0  0  0  0  0  0  0  0
   -5.0048    5.6523  -12.4375 C   0  0  0  0  0  0  0  0  0  0  0  0
   -6.2571    5.7515  -11.6512 C   0  0  0  0  0  0  0  0  0  0  0  0
   -6.5143    5.3013  -10.5545 O   0  0  0  0  0  0  0  0  0  0  0  0
   -7.1845    6.5498  -12.4802 C   0  0  0  0  0  0  0  0  0  0  0  0
   -8.4637    6.9597  -12.1621 C   0  0  0  0  0  0  0  0  0  0  0  0
   -9.1299    7.7183  -13.1121 C   0  0  0  0  0  0  0  0  0  0  0  0
  -10.3761    8.1432  -12.8493 F   0  0  0  0  0  0  0  0  0  0  0  0
   -8.5533    8.0591  -14.3273 C   0  0  0  0  0  0  0  0  0  0  0  0
   -7.2695    7.6359  -14.6344 C   0  0  0  0  0  0  0  0  0  0  0  0
   -6.5771    6.8717  -13.7046 C   0  0  0  0  0  0  0  0  0  0  0  0
   -5.2423    6.2792  -13.7327 C   0  0  0  0  0  0  0  0  0  0  0  0
   -4.4109    6.2776  -14.8205 C   0  0  0  0  0  0  0  0  0  0  0  0
   -4.7178    6.9012  -16.0500 C   0  0  0  0  0  0  0  0  0  0  0  0
   -4.8972    7.3882  -17.0735 N   0  0  0  0  0  0  0  0  0  0  0  0
   -3.1540    5.6404  -14.9176 C   0  0  0  0  0  0  0  0  0  0  0  0
   -2.1368    5.1410  -15.1039 N   0  0  0  0  0  0  0  0  0  0  0  0
    5.6905   -3.7462   14.1141 H   0  0  0  0  0  0  0  0  0  0  0  0
    1.1256   -3.6186   18.4469 H   0  0  0  0  0  0  0  0  0  0  0  0
    4.2867   -3.4888   21.3337 H   0  0  0  0  0  0  0  0  0  0  0  0
    5.9821   -3.7020   19.5559 H   0  0  0  0  0  0  0  0  0  0  0  0
    1.8143   -4.3529   13.6736 H   0  0  0  0  0  0  0  0  0  0  0  0
   -0.1529   -2.9562   12.3516 H   0  0  0  0  0  0  0  0  0  0  0  0
   -2.4227   -3.5238   11.5751 H   0  0  0  0  0  0  0  0  0  0  0  0
   -2.7433   -5.2688    9.8635 H   0  0  0  0  0  0  0  0  0  0  0  0
   -0.7843   -6.4591    8.9391 H   0  0  0  0  0  0  0  0  0  0  0  0
    1.4788   -5.8903    9.7112 H   0  0  0  0  0  0  0  0  0  0  0  0
    5.3530   -3.5024    8.8637 H   0  0  0  0  0  0  0  0  0  0  0  0
    1.3590   -0.0446    5.5415 H   0  0  0  0  0  0  0  0  0  0  0  0
    0.1306   -0.9201    6.4603 H   0  0  0  0  0  0  0  0  0  0  0  0
    0.7530    1.3523    3.7651 H   0  0  0  0  0  0  0  0  0  0  0  0
   -0.9832    2.3875    2.3806 H   0  0  0  0  0  0  0  0  0  0  0  0
   -3.5308    2.7742    2.2695 H   0  0  0  0  0  0  0  0  0  0  0  0
   -4.5777    1.3702    2.5098 H   0  0  0  0  0  0  0  0  0  0  0  0
   -4.2524    1.7891    0.1003 H   0  0  0  0  0  0  0  0  0  0  0  0
   -2.4992    1.6913    0.2924 H   0  0  0  0  0  0  0  0  0  0  0  0
   -3.4916    0.2549    0.5417 H   0  0  0  0  0  0  0  0  0  0  0  0
   -3.8143   -0.4663    3.8022 H   0  0  0  0  0  0  0  0  0  0  0  0
   -2.0876   -1.4901    5.2013 H   0  0  0  0  0  0  0  0  0  0  0  0
   -0.4496   -2.8794    7.0164 H   0  0  0  0  0  0  0  0  0  0  0  0
   -2.0114   -4.7274    7.1422 H   0  0  0  0  0  0  0  0  0  0  0  0
   -3.4484   -6.3180    5.9288 H   0  0  0  0  0  0  0  0  0  0  0  0
   -3.1077   -6.7297    4.2418 H   0  0  0  0  0  0  0  0  0  0  0  0
   -2.5680   -8.6356    5.7438 H   0  0  0  0  0  0  0  0  0  0  0  0
   -1.4414   -7.6174    6.6465 H   0  0  0  0  0  0  0  0  0  0  0  0
   -1.1026   -8.0269    4.9661 H   0  0  0  0  0  0  0  0  0  0  0  0
   -1.1732   -5.7317    3.0828 H   0  0  0  0  0  0  0  0  0  0  0  0
    0.4086   -3.8802    2.9475 H   0  0  0  0  0  0  0  0  0  0  0  0
   -0.0093   -1.3704    2.3443 H   0  0  0  0  0  0  0  0  0  0  0  0
    5.7904   -2.1326    3.3650 H   0  0  0  0  0  0  0  0  0  0  0  0
    7.0963   -1.5932    1.3451 H   0  0  0  0  0  0  0  0  0  0  0  0
    5.9695   -0.8939   -0.7054 H   0  0  0  0  0  0  0  0  0  0  0  0
    4.0969    1.4892    0.2000 H   0  0  0  0  0  0  0  0  0  0  0  0
    4.9280    3.6565   -0.5768 H   0  0  0  0  0  0  0  0  0  0  0  0
    5.9320    4.3632   -4.0468 H   0  0  0  0  0  0  0  0  0  0  0  0
    5.9778    4.9469   -2.3768 H   0  0  0  0  0  0  0  0  0  0  0  0
    3.5061    4.9378   -4.1774 H   0  0  0  0  0  0  0  0  0  0  0  0
    3.5537    5.5220   -2.5144 H   0  0  0  0  0  0  0  0  0  0  0  0
    4.4758    6.3577   -3.7687 H   0  0  0  0  0  0  0  0  0  0  0  0
    4.6925    2.3009   -4.6121 H   0  0  0  0  0  0  0  0  0  0  0  0
    3.8697    0.1361   -3.8447 H   0  0  0  0  0  0  0  0  0  0  0  0
    5.5489   -1.2455   -2.8303 H   0  0  0  0  0  0  0  0  0  0  0  0
    5.9190   -3.1976   -4.2325 H   0  0  0  0  0  0  0  0  0  0  0  0
    3.7324   -6.1632   -4.3010 H   0  0  0  0  0  0  0  0  0  0  0  0
    5.3132   -5.5181   -4.7664 H   0  0  0  0  0  0  0  0  0  0  0  0
    4.2195   -4.1067   -6.5117 H   0  0  0  0  0  0  0  0  0  0  0  0
    3.8593   -5.8184   -6.7602 H   0  0  0  0  0  0  0  0  0  0  0  0
    2.6451   -4.7504   -6.0480 H   0  0  0  0  0  0  0  0  0  0  0  0
    2.1147   -4.7513   -3.1012 H   0  0  0  0  0  0  0  0  0  0  0  0
    1.7372   -2.8066   -1.6836 H   0  0  0  0  0  0  0  0  0  0  0  0
   -2.2575    0.7935   -2.4852 H   0  0  0  0  0  0  0  0  0  0  0  0
    0.6576    1.8227   -6.1846 H   0  0  0  0  0  0  0  0  0  0  0  0
    0.6965    4.9723   -9.3210 H   0  0  0  0  0  0  0  0  0  0  0  0
    4.9559    3.5063  -10.6609 H   0  0  0  0  0  0  0  0  0  0  0  0
    4.9572    1.7522  -10.3928 H   0  0  0  0  0  0  0  0  0  0  0  0
    5.3881    2.1201   -7.9670 H   0  0  0  0  0  0  0  0  0  0  0  0
    6.6444    2.8728   -8.9534 H   0  0  0  0  0  0  0  0  0  0  0  0
    5.3810    3.8699   -8.2260 H   0  0  0  0  0  0  0  0  0  0  0  0
    0.7811    0.7738   -8.4179 H   0  0  0  0  0  0  0  0  0  0  0  0
   -4.7137    3.8832   -5.2235 H   0  0  0  0  0  0  0  0  0  0  0  0
   -9.2966    2.8635   -4.9254 H   0  0  0  0  0  0  0  0  0  0  0  0
   -9.6891    2.0135   -6.4333 H   0  0  0  0  0  0  0  0  0  0  0  0
   -9.4055    5.0442   -6.1308 H   0  0  0  0  0  0  0  0  0  0  0  0
   -9.7832    4.1981   -7.6353 H   0  0  0  0  0  0  0  0  0  0  0  0
  -10.9263    4.1592   -6.2888 H   0  0  0  0  0  0  0  0  0  0  0  0
   -5.7001    1.9752   -8.9443 H   0  0  0  0  0  0  0  0  0  0  0  0
   -5.0938    4.2507   -9.6236 H   0  0  0  0  0  0  0  0  0  0  0  0
   -2.9800    5.2937  -12.7679 H   0  0  0  0  0  0  0  0  0  0  0  0
   -8.9213    6.7024  -11.2203 H   0  0  0  0  0  0  0  0  0  0  0  0
   -9.1171    8.6561  -15.0267 H   0  0  0  0  0  0  0  0  0  0  0  0
   -6.8334    7.9106  -15.5802 H   0  0  0  0  0  0  0  0  0  0  0  0
  1  2  2  0  0  0  0
  2  3  1  0  0  0  0
  3  4  2  0  0  0  0
  3  5  1  0  0  0  0
  5  6  2  0  0  0  0
  6  7  1  0  0  0  0
  7  8  1  0  0  0  0
  7  9  2  0  0  0  0
  9 10  1  0  0  0  0
 10 11  2  0  0  0  0
 11 12  1  0  0  0  0
 12 13  2  0  0  0  0
 13 14  1  0  0  0  0
 14 15  3  0  0  0  0
 13 16  1  0  0  0  0
 16 17  3  0  0  0  0
  1 18  1  0  0  0  0
 18 19  2  0  0  0  0
 19 20  1  0  0  0  0
 20 21  1  0  0  0  0
 21 22  2  0  0  0  0
 22 23  1  0  0  0  0
 23 24  2  0  0  0  0
 24 25  1  0  0  0  0
 25 26  2  0  0  0  0
 20 27  2  0  0  0  0
 27 28  1  0  0  0  0
 27 29  1  0  0  0  0
 29 30  2  0  0  0  0
 30 31  1  0  0  0  0
 31 32  1  0  0  0  0
 32 33  1  0  0  0  0
 33 34  1  0  0  0  0
 34 35  2  0  0  0  0
 35 36  1  0  0  0  0
 36 37  1  0  0  0  0
 37 38  1  0  0  0  0
 38 39  2  0  0  0  0
 39 40  1  0  0  0  0
 40 41  2  0  0  0  0
 41 42  1  0  0  0  0
 42 43  1  0  0  0  0
 41 44  1  0  0  0  0
 44 45  2  0  0  0  0
 36 46  1  0  0  0  0
 46 47  2  0  0  0  0
 47 48  1  0  0  0  0
 48 49  2  0  0  0  0
 49 50  1  0  0  0  0
 50 51  1  0  0  0  0
 49 52  1  0  0  0  0
 52 53  2  0  0  0  0
 36 54  1  0  0  0  0
 54 55  1  0  0  0  0
 55 56  1  0  0  0  0
 35 57  1  0  0  0  0
 57 58  2  0  0  0  0
 58 59  1  0  0  0  0
 59 60  2  0  0  0  0
 60 61  1  0  0  0  0
 61 62  1  0  0  0  0
 62 63  1  0  0  0  0
 63 64  2  0  0  0  0
 64 65  1  0  0  0  0
 65 66  2  0  0  0  0
 66 67  1  0  0  0  0
 61 68  1  0  0  0  0
 68 69  2  0  0  0  0
 69 70  1  0  0  0  0
 70 71  2  0  0  0  0
 71 72  1  0  0  0  0
 72 73  1  0  0  0  0
 71 74  1  0  0  0  0
 74 75  2  0  0  0  0
 61 76  1  0  0  0  0
 76 77  2  0  0  0  0
 77 78  1  0  0  0  0
 78 79  2  0  0  0  0
 79 80  1  0  0  0  0
 80 81  1  0  0  0  0
 79 82  1  0  0  0  0
 82 83  2  0  0  0  0
 60 84  1  0  0  0  0
 84 85  2  0  0  0  0
 85 86  1  0  0  0  0
 85 87  1  0  0  0  0
 87 88  2  0  0  0  0
 88 89  1  0  0  0  0
 88 90  1  0  0  0  0
 90 91  2  0  0  0  0
 91 92  1  0  0  0  0
 92 93  2  0  0  0  0
 93 94  1  0  0  0  0
 94 95  2  0  0  0  0
 95 96  1  0  0  0  0
 96 97  1  0  0  0  0
 96 98  2  0  0  0  0
 98 99  1  0  0  0  0
 99100  1  0  0  0  0
 98101  1  0  0  0  0
101102  1  0  0  0  0
101103  2  0  0  0  0
 93104  1  0  0  0  0
104105  2  0  0  0  0
105106  1  0  0  0  0
106107  1  0  0  0  0
107108  2  0  0  0  0
108109  1  0  0  0  0
109110  2  0  0  0  0
110111  1  0  0  0  0
111112  1  0  0  0  0
110113  1  0  0  0  0
113114  2  0  0  0  0
113115  1  0  0  0  0
109116  1  0  0  0  0
106117  2  0  0  0  0
117118  1  0  0  0  0
105119  1  0  0  0  0
119120  2  0  0  0  0
120121  1  0  0  0  0
120122  1  0  0  0  0
122123  2  0  0  0  0
123124  1  0  0  0  0
124125  2  0  0  0  0
124126  1  0  0  0  0
126127  2  0  0  0  0
127128  1  0  0  0  0
128129  1  0  0  0  0
128130  2  0  0  0  0
130131  1  0  0  0  0
131132  2  0  0  0  0
132133  1  0  0  0  0
133134  2  0  0  0  0
134135  1  0  0  0  0
135136  3  0  0  0  0
134137  1  0  0  0  0
137138  3  0  0  0  0
 12  2  1  0  0  0  0
 28 18  1  0  0  0  0
 56 29  1  0  0  0  0
 63 58  1  0  0  0  0
 75 68  1  0  0  0  0
 83 76  1  0  0  0  0
 89 84  1  0  0  0  0
118 90  1  0  0  0  0
133123  1  0  0  0  0
 11  5  1  0  0  0  0
 26 21  1  0  0  0  0
 55 31  2  0  0  0  0
 86 59  1  0  0  0  0
117 92  1  0  0  0  0
132126  1  0  0  0  0
 54 33  2  0  0  0  0
 67 62  2  0  0  0  0
103 94  1  0  0  0  0
121104  1  0  0  0  0
 64 34  1  0  0  0  0
114107  1  0  0  0  0
 45 38  1  0  0  0  0
 53 46  1  0  0  0  0
  1139  1  0  0  0  0
  6140  1  0  0  0  0
  9141  1  0  0  0  0
 10142  1  0  0  0  0
 19143  1  0  0  0  0
 22144  1  0  0  0  0
 23145  1  0  0  0  0
 24146  1  0  0  0  0
 25147  1  0  0  0  0
 26148  1  0  0  0  0
 30149  1  0  0  0  0
 37150  1  0  0  0  0
 37151  1  0  0  0  0
 39152  1  0  0  0  0
 40153  1  0  0  0  0
 42154  1  0  0  0  0
 42155  1  0  0  0  0
 43156  1  0  0  0  0
 43157  1  0  0  0  0
 43158  1  0  0  0  0
 44159  1  0  0  0  0
 45160  1  0  0  0  0
 47161  1  0  0  0  0
 48162  1  0  0  0  0
 50163  1  0  0  0  0
 50164  1  0  0  0  0
 51165  1  0  0  0  0
 51166  1  0  0  0  0
 51167  1  0  0  0  0
 52168  1  0  0  0  0
 53169  1  0  0  0  0
 57170  1  0  0  0  0
 65171  1  0  0  0  0
 66172  1  0  0  0  0
 67173  1  0  0  0  0
 69174  1  0  0  0  0
 70175  1  0  0  0  0
 72176  1  0  0  0  0
 72177  1  0  0  0  0
 73178  1  0  0  0  0
 73179  1  0  0  0  0
 73180  1  0  0  0  0
 74181  1  0  0  0  0
 75182  1  0  0  0  0
 77183  1  0  0  0  0
 78184  1  0  0  0  0
 80185  1  0  0  0  0
 80186  1  0  0  0  0
 81187  1  0  0  0  0
 81188  1  0  0  0  0
 81189  1  0  0  0  0
 82190  1  0  0  0  0
 83191  1  0  0  0  0
 87192  1  0  0  0  0
 91193  1  0  0  0  0
 95194  1  0  0  0  0
 99195  1  0  0  0  0
 99196  1  0  0  0  0
100197  1  0  0  0  0
100198  1  0  0  0  0
100199  1  0  0  0  0
103200  1  0  0  0  0
108201  1  0  0  0  0
111202  1  0  0  0  0
111203  1  0  0  0  0
112204  1  0  0  0  0
112205  1  0  0  0  0
112206  1  0  0  0  0
114207  1  0  0  0  0
119208  1  0  0  0  0
122209  1  0  0  0  0
127210  1  0  0  0  0
130211  1  0  0  0  0
131212  1  0  0  0  0
M  END
