
  xtb     02122211013D
 energy: -266.969532547429 gnorm: 0.000764961814 xtb: 6.4.1 (unknown)
151167  0     0  0            999 V2000
   -1.5178   -7.6993   -8.9887 C   0  0  0  0  0  0  0  0  0  0  0  0
   -1.3232   -8.4337  -10.1292 C   0  0  0  0  0  0  0  0  0  0  0  0
   -1.2277   -7.9564  -11.5261 C   0  0  0  0  0  0  0  0  0  0  0  0
   -1.3367   -6.8295  -11.9602 O   0  0  0  0  0  0  0  0  0  0  0  0
   -0.9533   -9.1605  -12.3406 C   0  0  0  0  0  0  0  0  0  0  0  0
   -0.7638   -9.2336  -13.7057 C   0  0  0  0  0  0  0  0  0  0  0  0
   -0.5118  -10.4903  -14.2339 C   0  0  0  0  0  0  0  0  0  0  0  0
   -0.3200  -10.6150  -15.5575 F   0  0  0  0  0  0  0  0  0  0  0  0
   -0.4486  -11.6281  -13.4429 C   0  0  0  0  0  0  0  0  0  0  0  0
   -0.6420  -11.5381  -12.0730 C   0  0  0  0  0  0  0  0  0  0  0  0
   -0.8982  -10.2935  -11.5135 C   0  0  0  0  0  0  0  0  0  0  0  0
   -1.1403   -9.8773  -10.1328 C   0  0  0  0  0  0  0  0  0  0  0  0
   -1.1946  -10.7320   -9.0622 C   0  0  0  0  0  0  0  0  0  0  0  0
   -1.4410  -10.3895   -7.7151 C   0  0  0  0  0  0  0  0  0  0  0  0
   -1.6338  -10.2223   -6.5946 N   0  0  0  0  0  0  0  0  0  0  0  0
   -1.0143  -12.1293   -9.1542 C   0  0  0  0  0  0  0  0  0  0  0  0
   -0.8799  -13.2694   -9.1463 N   0  0  0  0  0  0  0  0  0  0  0  0
   -1.7177   -6.3222   -8.7797 C   0  0  0  0  0  0  0  0  0  0  0  0
   -1.7710   -5.2207   -9.6134 C   0  0  0  0  0  0  0  0  0  0  0  0
   -1.9596   -4.0105   -8.9448 C   0  0  0  0  0  0  0  0  0  0  0  0
   -1.9283   -2.4960   -9.8408 S   0  0  0  0  0  0  0  0  0  0  0  0
   -0.7930   -1.4735   -8.8169 C   0  0  0  0  0  0  0  0  0  0  0  0
    0.0488   -0.6047   -9.7304 C   0  0  0  0  0  0  0  0  0  0  0  0
   -2.1029   -4.1555   -7.5650 C   0  0  0  0  0  0  0  0  0  0  0  0
   -1.9160   -5.8185   -7.1083 S   0  0  0  0  0  0  0  0  0  0  0  0
   -2.3346   -3.1807   -6.5527 C   0  0  0  0  0  0  0  0  0  0  0  0
   -3.1153   -2.0367   -6.5884 C   0  0  0  0  0  0  0  0  0  0  0  0
   -4.0269   -1.6779   -7.6733 C   0  0  0  0  0  0  0  0  0  0  0  0
   -4.8095   -2.6511   -8.2909 C   0  0  0  0  0  0  0  0  0  0  0  0
   -5.6680   -2.2970   -9.3121 C   0  0  0  0  0  0  0  0  0  0  0  0
   -5.7518   -0.9797   -9.7292 C   0  0  0  0  0  0  0  0  0  0  0  0
   -4.9930    0.0064   -9.1128 C   0  0  0  0  0  0  0  0  0  0  0  0
   -5.0377    1.4300   -9.5863 C   0  0  0  0  0  0  0  0  0  0  0  0
   -3.8699    1.7056  -10.5359 C   0  0  0  0  0  0  0  0  0  0  0  0
   -4.1413   -0.3526   -8.0797 C   0  0  0  0  0  0  0  0  0  0  0  0
   -2.9979   -1.3051   -5.3890 C   0  0  0  0  0  0  0  0  0  0  0  0
   -3.6999    0.2030   -4.8523 S   0  0  0  0  0  0  0  0  0  0  0  0
   -2.8825    0.0160   -3.3394 C   0  0  0  0  0  0  0  0  0  0  0  0
   -2.7473    0.6864   -2.1147 C   0  0  0  0  0  0  0  0  0  0  0  0
   -3.3640    1.8636   -1.6403 C   0  0  0  0  0  0  0  0  0  0  0  0
   -3.1014    2.2872   -0.2975 C   0  0  0  0  0  0  0  0  0  0  0  0
   -3.7733    3.3803    0.0295 N   0  0  0  0  0  0  0  0  0  0  0  0
   -4.6580    3.8379   -1.2461 S   0  0  0  0  0  0  0  0  0  0  0  0
   -4.2179    2.6596   -2.2655 N   0  0  0  0  0  0  0  0  0  0  0  0
   -2.1686    1.5616    0.4742 C   0  0  0  0  0  0  0  0  0  0  0  0
   -1.6505    1.8164    1.7525 C   0  0  0  0  0  0  0  0  0  0  0  0
   -1.8296    2.9687    3.0318 S   0  0  0  0  0  0  0  0  0  0  0  0
   -0.5671    2.1414    3.9101 C   0  0  0  0  0  0  0  0  0  0  0  0
    0.0291    2.3830    5.1565 C   0  0  0  0  0  0  0  0  0  0  0  0
   -0.3432    3.4764    6.0678 C   0  0  0  0  0  0  0  0  0  0  0  0
   -1.1364    3.2133    7.1790 C   0  0  0  0  0  0  0  0  0  0  0  0
   -1.4520    4.2378    8.0497 C   0  0  0  0  0  0  0  0  0  0  0  0
   -0.9709    5.5149    7.8249 C   0  0  0  0  0  0  0  0  0  0  0  0
   -0.1873    5.7934    6.7141 C   0  0  0  0  0  0  0  0  0  0  0  0
    0.3939    7.1609    6.5014 C   0  0  0  0  0  0  0  0  0  0  0  0
    1.8611    7.1716    6.9358 C   0  0  0  0  0  0  0  0  0  0  0  0
    0.1115    4.7655    5.8317 C   0  0  0  0  0  0  0  0  0  0  0  0
    1.0102    1.4517    5.4428 C   0  0  0  0  0  0  0  0  0  0  0  0
    1.1850    0.2544    4.1596 S   0  0  0  0  0  0  0  0  0  0  0  0
   -0.0526    1.0289    3.2351 C   0  0  0  0  0  0  0  0  0  0  0  0
   -0.6763    0.8444    1.9958 C   0  0  0  0  0  0  0  0  0  0  0  0
   -0.5918   -0.0137    0.9322 N   0  0  0  0  0  0  0  0  0  0  0  0
   -1.5038    0.4046   -0.0256 C   0  0  0  0  0  0  0  0  0  0  0  0
   -1.8654   -0.0895   -1.3084 C   0  0  0  0  0  0  0  0  0  0  0  0
   -1.5015   -1.2172   -2.0308 N   0  0  0  0  0  0  0  0  0  0  0  0
   -2.1177   -1.1485   -3.2519 C   0  0  0  0  0  0  0  0  0  0  0  0
   -2.1820   -1.9065   -4.4277 C   0  0  0  0  0  0  0  0  0  0  0  0
   -1.5196   -3.3932   -5.0055 S   0  0  0  0  0  0  0  0  0  0  0  0
   -0.9739   -2.4864   -1.5805 C   0  0  0  0  0  0  0  0  0  0  0  0
   -1.8666   -3.1166   -0.5144 C   0  0  0  0  0  0  0  0  0  0  0  0
    0.5594   -0.8797    0.8160 C   0  0  0  0  0  0  0  0  0  0  0  0
    1.5370   -0.3721   -0.2414 C   0  0  0  0  0  0  0  0  0  0  0  0
    1.8691    1.4021    6.5690 C   0  0  0  0  0  0  0  0  0  0  0  0
    2.7383    0.3680    6.8750 C   0  0  0  0  0  0  0  0  0  0  0  0
    3.4851    0.6121    8.0202 C   0  0  0  0  0  0  0  0  0  0  0  0
    4.6469   -0.4638    8.7513 S   0  0  0  0  0  0  0  0  0  0  0  0
    4.8708   -1.7730    7.4962 C   0  0  0  0  0  0  0  0  0  0  0  0
    5.6618   -1.2899    6.2959 C   0  0  0  0  0  0  0  0  0  0  0  0
    3.2025    1.8648    8.6122 C   0  0  0  0  0  0  0  0  0  0  0  0
    1.9575    2.7046    7.7098 S   0  0  0  0  0  0  0  0  0  0  0  0
    3.8721    2.3346    9.7391 C   0  0  0  0  0  0  0  0  0  0  0  0
    3.7374    3.5225   10.4257 C   0  0  0  0  0  0  0  0  0  0  0  0
    2.7753    4.5789   10.1188 C   0  0  0  0  0  0  0  0  0  0  0  0
    1.9409    4.5985    9.2268 O   0  0  0  0  0  0  0  0  0  0  0  0
    3.0038    5.6468   11.1068 C   0  0  0  0  0  0  0  0  0  0  0  0
    2.3663    6.8461   11.2329 C   0  0  0  0  0  0  0  0  0  0  0  0
    2.7655    7.7326   12.2581 C   0  0  0  0  0  0  0  0  0  0  0  0
    2.1492    8.9882   12.4310 C   0  0  0  0  0  0  0  0  0  0  0  0
    2.5473    9.8375   13.4260 C   0  0  0  0  0  0  0  0  0  0  0  0
    3.5841    9.4405   14.2804 C   0  0  0  0  0  0  0  0  0  0  0  0
    3.9626   10.2898   15.2543 F   0  0  0  0  0  0  0  0  0  0  0  0
    4.2150    8.2338   14.1565 C   0  0  0  0  0  0  0  0  0  0  0  0
    3.8190    7.3476   13.1363 C   0  0  0  0  0  0  0  0  0  0  0  0
    4.4580    6.0941   12.9812 C   0  0  0  0  0  0  0  0  0  0  0  0
    4.0584    5.2537   11.9776 C   0  0  0  0  0  0  0  0  0  0  0  0
    4.5263    3.9292   11.5671 C   0  0  0  0  0  0  0  0  0  0  0  0
    5.5438    3.2351   12.1743 C   0  0  0  0  0  0  0  0  0  0  0  0
    6.0317    1.9678   11.7952 C   0  0  0  0  0  0  0  0  0  0  0  0
    6.5019    0.9450   11.5632 N   0  0  0  0  0  0  0  0  0  0  0  0
    6.2656    3.7100   13.2883 C   0  0  0  0  0  0  0  0  0  0  0  0
    6.8927    4.0333   14.1947 N   0  0  0  0  0  0  0  0  0  0  0  0
   -1.5184   -8.2617   -8.0626 H   0  0  0  0  0  0  0  0  0  0  0  0
   -0.8095   -8.3549  -14.3290 H   0  0  0  0  0  0  0  0  0  0  0  0
   -0.2473  -12.5804  -13.9077 H   0  0  0  0  0  0  0  0  0  0  0  0
   -0.5881  -12.4304  -11.4722 H   0  0  0  0  0  0  0  0  0  0  0  0
   -1.6511   -5.2837  -10.6793 H   0  0  0  0  0  0  0  0  0  0  0  0
   -1.3946   -0.8649   -8.1425 H   0  0  0  0  0  0  0  0  0  0  0  0
   -0.1747   -2.1595   -8.2397 H   0  0  0  0  0  0  0  0  0  0  0  0
    0.6454   -1.2212  -10.3984 H   0  0  0  0  0  0  0  0  0  0  0  0
    0.7147    0.0191   -9.1376 H   0  0  0  0  0  0  0  0  0  0  0  0
   -0.5883    0.0377  -10.3338 H   0  0  0  0  0  0  0  0  0  0  0  0
   -4.7509   -3.6773   -7.9596 H   0  0  0  0  0  0  0  0  0  0  0  0
   -6.2726   -3.0537   -9.7893 H   0  0  0  0  0  0  0  0  0  0  0  0
   -6.4171   -0.7134  -10.5376 H   0  0  0  0  0  0  0  0  0  0  0  0
   -4.9754    2.1067   -8.7313 H   0  0  0  0  0  0  0  0  0  0  0  0
   -5.9786    1.6192  -10.1060 H   0  0  0  0  0  0  0  0  0  0  0  0
   -3.9088    1.0303  -11.3879 H   0  0  0  0  0  0  0  0  0  0  0  0
   -3.9077    2.7297  -10.8996 H   0  0  0  0  0  0  0  0  0  0  0  0
   -2.9223    1.5541  -10.0236 H   0  0  0  0  0  0  0  0  0  0  0  0
   -3.5435    0.4082   -7.5979 H   0  0  0  0  0  0  0  0  0  0  0  0
   -1.4929    2.2091    7.3569 H   0  0  0  0  0  0  0  0  0  0  0  0
   -2.0662    4.0361    8.9148 H   0  0  0  0  0  0  0  0  0  0  0  0
   -1.2056    6.3054    8.5229 H   0  0  0  0  0  0  0  0  0  0  0  0
   -0.1643    7.8943    7.0864 H   0  0  0  0  0  0  0  0  0  0  0  0
    0.3236    7.4403    5.4476 H   0  0  0  0  0  0  0  0  0  0  0  0
    1.9518    6.7845    7.9475 H   0  0  0  0  0  0  0  0  0  0  0  0
    2.2664    8.1806    6.9014 H   0  0  0  0  0  0  0  0  0  0  0  0
    2.4542    6.5352    6.2834 H   0  0  0  0  0  0  0  0  0  0  0  0
    0.7223    4.9622    4.9618 H   0  0  0  0  0  0  0  0  0  0  0  0
    0.0536   -2.3767   -1.2339 H   0  0  0  0  0  0  0  0  0  0  0  0
   -0.9464   -3.1390   -2.4566 H   0  0  0  0  0  0  0  0  0  0  0  0
   -1.4397   -4.0592   -0.1826 H   0  0  0  0  0  0  0  0  0  0  0  0
   -2.8545   -3.3106   -0.9257 H   0  0  0  0  0  0  0  0  0  0  0  0
   -1.9811   -2.4581    0.3435 H   0  0  0  0  0  0  0  0  0  0  0  0
    1.0511   -0.8733    1.7919 H   0  0  0  0  0  0  0  0  0  0  0  0
    0.2505   -1.9066    0.6212 H   0  0  0  0  0  0  0  0  0  0  0  0
    1.0572   -0.2893   -1.2139 H   0  0  0  0  0  0  0  0  0  0  0  0
    2.3832   -1.0491   -0.3213 H   0  0  0  0  0  0  0  0  0  0  0  0
    1.9062    0.6119    0.0382 H   0  0  0  0  0  0  0  0  0  0  0  0
    2.7922   -0.5234    6.2761 H   0  0  0  0  0  0  0  0  0  0  0  0
    5.4171   -2.5479    8.0336 H   0  0  0  0  0  0  0  0  0  0  0  0
    3.8903   -2.1605    7.2240 H   0  0  0  0  0  0  0  0  0  0  0  0
    6.6391   -0.9328    6.6110 H   0  0  0  0  0  0  0  0  0  0  0  0
    5.1469   -0.4779    5.7873 H   0  0  0  0  0  0  0  0  0  0  0  0
    5.8001   -2.1087    5.5925 H   0  0  0  0  0  0  0  0  0  0  0  0
    4.6218    1.6444   10.1095 H   0  0  0  0  0  0  0  0  0  0  0  0
    1.5674    7.1174   10.5587 H   0  0  0  0  0  0  0  0  0  0  0  0
    1.3524    9.2721   11.7598 H   0  0  0  0  0  0  0  0  0  0  0  0
    2.0870   10.8021   13.5709 H   0  0  0  0  0  0  0  0  0  0  0  0
    5.0104    7.9611   14.8324 H   0  0  0  0  0  0  0  0  0  0  0  0
    5.2511    5.8361   13.6640 H   0  0  0  0  0  0  0  0  0  0  0  0
  1  2  2  0  0  0  0
  2  3  1  0  0  0  0
  3  4  2  0  0  0  0
  3  5  1  0  0  0  0
  5  6  2  0  0  0  0
  6  7  1  0  0  0  0
  7  8  1  0  0  0  0
  7  9  2  0  0  0  0
  9 10  1  0  0  0  0
 10 11  2  0  0  0  0
 11 12  1  0  0  0  0
 12 13  2  0  0  0  0
 13 14  1  0  0  0  0
 14 15  3  0  0  0  0
 13 16  1  0  0  0  0
 16 17  3  0  0  0  0
  1 18  1  0  0  0  0
 18 19  2  0  0  0  0
 19 20  1  0  0  0  0
 20 21  1  0  0  0  0
 21 22  1  0  0  0  0
 22 23  1  0  0  0  0
 20 24  2  0  0  0  0
 24 25  1  0  0  0  0
 24 26  1  0  0  0  0
 26 27  2  0  0  0  0
 27 28  1  0  0  0  0
 28 29  2  0  0  0  0
 29 30  1  0  0  0  0
 30 31  2  0  0  0  0
 31 32  1  0  0  0  0
 32 33  1  0  0  0  0
 33 34  1  0  0  0  0
 32 35  2  0  0  0  0
 27 36  1  0  0  0  0
 36 37  1  0  0  0  0
 37 38  1  0  0  0  0
 38 39  1  0  0  0  0
 39 40  1  0  0  0  0
 40 41  1  0  0  0  0
 41 42  2  0  0  0  0
 42 43  1  0  0  0  0
 43 44  1  0  0  0  0
 41 45  1  0  0  0  0
 45 46  1  0  0  0  0
 46 47  1  0  0  0  0
 47 48  1  0  0  0  0
 48 49  1  0  0  0  0
 49 50  1  0  0  0  0
 50 51  2  0  0  0  0
 51 52  1  0  0  0  0
 52 53  2  0  0  0  0
 53 54  1  0  0  0  0
 54 55  1  0  0  0  0
 55 56  1  0  0  0  0
 54 57  2  0  0  0  0
 49 58  2  0  0  0  0
 58 59  1  0  0  0  0
 59 60  1  0  0  0  0
 60 61  1  0  0  0  0
 61 62  1  0  0  0  0
 62 63  1  0  0  0  0
 63 64  1  0  0  0  0
 64 65  1  0  0  0  0
 65 66  1  0  0  0  0
 66 67  1  0  0  0  0
 67 68  1  0  0  0  0
 65 69  1  0  0  0  0
 69 70  1  0  0  0  0
 62 71  1  0  0  0  0
 71 72  1  0  0  0  0
 58 73  1  0  0  0  0
 73 74  2  0  0  0  0
 74 75  1  0  0  0  0
 75 76  1  0  0  0  0
 76 77  1  0  0  0  0
 77 78  1  0  0  0  0
 75 79  2  0  0  0  0
 79 80  1  0  0  0  0
 79 81  1  0  0  0  0
 81 82  2  0  0  0  0
 82 83  1  0  0  0  0
 83 84  2  0  0  0  0
 83 85  1  0  0  0  0
 85 86  2  0  0  0  0
 86 87  1  0  0  0  0
 87 88  2  0  0  0  0
 88 89  1  0  0  0  0
 89 90  2  0  0  0  0
 90 91  1  0  0  0  0
 90 92  1  0  0  0  0
 92 93  2  0  0  0  0
 93 94  1  0  0  0  0
 94 95  2  0  0  0  0
 95 96  1  0  0  0  0
 96 97  2  0  0  0  0
 97 98  1  0  0  0  0
 98 99  3  0  0  0  0
 97100  1  0  0  0  0
100101  3  0  0  0  0
 12  2  1  0  0  0  0
 25 18  1  0  0  0  0
 68 26  1  0  0  0  0
 80 73  1  0  0  0  0
 96 82  1  0  0  0  0
 11  5  1  0  0  0  0
 35 28  1  0  0  0  0
 67 36  2  0  0  0  0
 95 85  1  0  0  0  0
 66 38  2  0  0  0  0
 93 87  1  0  0  0  0
 64 39  2  0  0  0  0
 44 40  2  0  0  0  0
 63 45  2  0  0  0  0
 61 46  2  0  0  0  0
 60 48  2  0  0  0  0
 57 50  1  0  0  0  0
  1102  1  0  0  0  0
  6103  1  0  0  0  0
  9104  1  0  0  0  0
 10105  1  0  0  0  0
 19106  1  0  0  0  0
 22107  1  0  0  0  0
 22108  1  0  0  0  0
 23109  1  0  0  0  0
 23110  1  0  0  0  0
 23111  1  0  0  0  0
 29112  1  0  0  0  0
 30113  1  0  0  0  0
 31114  1  0  0  0  0
 33115  1  0  0  0  0
 33116  1  0  0  0  0
 34117  1  0  0  0  0
 34118  1  0  0  0  0
 34119  1  0  0  0  0
 35120  1  0  0  0  0
 51121  1  0  0  0  0
 52122  1  0  0  0  0
 53123  1  0  0  0  0
 55124  1  0  0  0  0
 55125  1  0  0  0  0
 56126  1  0  0  0  0
 56127  1  0  0  0  0
 56128  1  0  0  0  0
 57129  1  0  0  0  0
 69130  1  0  0  0  0
 69131  1  0  0  0  0
 70132  1  0  0  0  0
 70133  1  0  0  0  0
 70134  1  0  0  0  0
 71135  1  0  0  0  0
 71136  1  0  0  0  0
 72137  1  0  0  0  0
 72138  1  0  0  0  0
 72139  1  0  0  0  0
 74140  1  0  0  0  0
 77141  1  0  0  0  0
 77142  1  0  0  0  0
 78143  1  0  0  0  0
 78144  1  0  0  0  0
 78145  1  0  0  0  0
 81146  1  0  0  0  0
 86147  1  0  0  0  0
 88148  1  0  0  0  0
 89149  1  0  0  0  0
 92150  1  0  0  0  0
 94151  1  0  0  0  0
M  END
