
  xtb     02112214443D
 energy: -265.827472154168 gnorm: 0.000348279329 xtb: 6.4.1 (unknown)
145161  0     0  0            999 V2000
   -2.2716    8.3770    5.3155 C   0  0  0  0  0  0  0  0  0  0  0  0
   -3.6108    8.2129    5.0544 C   0  0  0  0  0  0  0  0  0  0  0  0
   -4.2156    7.0288    4.4436 C   0  0  0  0  0  0  0  0  0  0  0  0
   -3.6513    6.0275    4.0379 O   0  0  0  0  0  0  0  0  0  0  0  0
   -5.6697    7.2854    4.4076 C   0  0  0  0  0  0  0  0  0  0  0  0
   -6.6745    6.4664    3.9359 C   0  0  0  0  0  0  0  0  0  0  0  0
   -7.9698    6.9552    4.0225 C   0  0  0  0  0  0  0  0  0  0  0  0
   -8.9831    6.1942    3.5760 F   0  0  0  0  0  0  0  0  0  0  0  0
   -8.2589    8.2024    4.5544 C   0  0  0  0  0  0  0  0  0  0  0  0
   -7.2372    9.0152    5.0241 C   0  0  0  0  0  0  0  0  0  0  0  0
   -5.9304    8.5559    4.9506 C   0  0  0  0  0  0  0  0  0  0  0  0
   -4.6613    9.1647    5.3530 C   0  0  0  0  0  0  0  0  0  0  0  0
   -4.5252   10.4137    5.9030 C   0  0  0  0  0  0  0  0  0  0  0  0
   -3.3095   11.0191    6.2829 C   0  0  0  0  0  0  0  0  0  0  0  0
   -2.3659   11.5841    6.6159 N   0  0  0  0  0  0  0  0  0  0  0  0
   -5.6025   11.2861    6.1649 C   0  0  0  0  0  0  0  0  0  0  0  0
   -6.4289   12.0457    6.4061 N   0  0  0  0  0  0  0  0  0  0  0  0
   -1.1970    7.5070    5.0949 C   0  0  0  0  0  0  0  0  0  0  0  0
    0.1089    7.8371    5.4586 C   0  0  0  0  0  0  0  0  0  0  0  0
    1.0467    6.8498    5.1919 C   0  0  0  0  0  0  0  0  0  0  0  0
    2.7800    6.9827    5.4400 S   0  0  0  0  0  0  0  0  0  0  0  0
    3.0465    8.7939    5.4008 C   0  0  0  0  0  0  0  0  0  0  0  0
    2.7377    9.4010    4.0468 C   0  0  0  0  0  0  0  0  0  0  0  0
    0.4582    5.7127    4.6268 C   0  0  0  0  0  0  0  0  0  0  0  0
   -1.2486    5.9086    4.3947 S   0  0  0  0  0  0  0  0  0  0  0  0
    1.0718    4.4908    4.2332 C   0  0  0  0  0  0  0  0  0  0  0  0
    2.0703    3.7570    4.8537 C   0  0  0  0  0  0  0  0  0  0  0  0
    2.6366    4.0618    6.1648 C   0  0  0  0  0  0  0  0  0  0  0  0
    3.9965    3.8829    6.4052 C   0  0  0  0  0  0  0  0  0  0  0  0
    4.5204    4.1872    7.6461 C   0  0  0  0  0  0  0  0  0  0  0  0
    3.7021    4.6698    8.6531 C   0  0  0  0  0  0  0  0  0  0  0  0
    2.3399    4.8331    8.4379 C   0  0  0  0  0  0  0  0  0  0  0  0
    1.4456    5.4058    9.4996 C   0  0  0  0  0  0  0  0  0  0  0  0
    1.1998    6.8921    9.2316 C   0  0  0  0  0  0  0  0  0  0  0  0
    1.8175    4.5153    7.1944 C   0  0  0  0  0  0  0  0  0  0  0  0
    2.3846    2.6017    4.1116 C   0  0  0  0  0  0  0  0  0  0  0  0
    3.4796    1.2744    4.4120 S   0  0  0  0  0  0  0  0  0  0  0  0
    2.9106    0.5099    2.9681 C   0  0  0  0  0  0  0  0  0  0  0  0
    3.0669   -0.7018    2.2780 C   0  0  0  0  0  0  0  0  0  0  0  0
    3.7440   -1.8939    2.6210 C   0  0  0  0  0  0  0  0  0  0  0  0
    3.5189   -3.0728    1.8317 C   0  0  0  0  0  0  0  0  0  0  0  0
    4.1418   -4.1336    2.3199 N   0  0  0  0  0  0  0  0  0  0  0  0
    4.9494   -3.6885    3.6503 S   0  0  0  0  0  0  0  0  0  0  0  0
    4.5312   -2.1250    3.6594 N   0  0  0  0  0  0  0  0  0  0  0  0
    2.7512   -2.9685    0.6504 C   0  0  0  0  0  0  0  0  0  0  0  0
    2.4519   -3.8985   -0.3588 C   0  0  0  0  0  0  0  0  0  0  0  0
    2.6723   -5.5791   -0.7045 S   0  0  0  0  0  0  0  0  0  0  0  0
    1.8893   -5.3430   -2.2491 C   0  0  0  0  0  0  0  0  0  0  0  0
    1.5686   -6.2195   -3.2996 C   0  0  0  0  0  0  0  0  0  0  0  0
    1.7346   -7.6679   -3.2417 C   0  0  0  0  0  0  0  0  0  0  0  0
    2.8948   -8.2275   -2.7153 C   0  0  0  0  0  0  0  0  0  0  0  0
    3.0389   -9.6010   -2.6782 C   0  0  0  0  0  0  0  0  0  0  0  0
    2.0345  -10.4232   -3.1553 C   0  0  0  0  0  0  0  0  0  0  0  0
    0.8597   -9.8819   -3.6652 C   0  0  0  0  0  0  0  0  0  0  0  0
   -0.2557  -10.7715   -4.1357 C   0  0  0  0  0  0  0  0  0  0  0  0
   -1.1910  -11.1166   -2.9753 C   0  0  0  0  0  0  0  0  0  0  0  0
    0.7169   -8.5050   -3.6929 C   0  0  0  0  0  0  0  0  0  0  0  0
    0.9638   -5.5330   -4.3476 C   0  0  0  0  0  0  0  0  0  0  0  0
    0.7136   -3.8277   -3.9938 S   0  0  0  0  0  0  0  0  0  0  0  0
    1.4842   -4.0189   -2.4631 C   0  0  0  0  0  0  0  0  0  0  0  0
    1.7923   -3.1990   -1.3751 C   0  0  0  0  0  0  0  0  0  0  0  0
    1.6366   -1.8824   -1.0217 N   0  0  0  0  0  0  0  0  0  0  0  0
    2.1971   -1.7255    0.2347 C   0  0  0  0  0  0  0  0  0  0  0  0
    2.2252   -0.6299    1.1331 C   0  0  0  0  0  0  0  0  0  0  0  0
    1.5383    0.5687    1.1654 N   0  0  0  0  0  0  0  0  0  0  0  0
    1.9475    1.2541    2.2778 C   0  0  0  0  0  0  0  0  0  0  0  0
    1.6288    2.4431    2.9465 C   0  0  0  0  0  0  0  0  0  0  0  0
    0.4968    3.7338    2.7555 S   0  0  0  0  0  0  0  0  0  0  0  0
    0.3412    0.9681    0.4593 C   0  0  0  0  0  0  0  0  0  0  0  0
    0.5783    2.1870   -0.4325 C   0  0  0  0  0  0  0  0  0  0  0  0
    1.4900   -0.8958   -2.0710 C   0  0  0  0  0  0  0  0  0  0  0  0
    2.7478   -0.8204   -2.9361 C   0  0  0  0  0  0  0  0  0  0  0  0
    0.5939   -6.0128   -5.6249 C   0  0  0  0  0  0  0  0  0  0  0  0
    1.1045   -7.0466   -6.3856 C   0  0  0  0  0  0  0  0  0  0  0  0
    2.2565   -7.9611   -6.3566 C   0  0  0  0  0  0  0  0  0  0  0  0
    3.1849   -8.0407   -5.5939 O   0  0  0  0  0  0  0  0  0  0  0  0
    2.1165   -8.7424   -7.5048 N   0  0  0  0  0  0  0  0  0  0  0  0
    3.0446   -9.7914   -7.8448 C   0  0  0  0  0  0  0  0  0  0  0  0
    1.0635   -8.3642   -8.3225 C   0  0  0  0  0  0  0  0  0  0  0  0
    0.7720   -8.8794   -9.3714 O   0  0  0  0  0  0  0  0  0  0  0  0
    0.4272   -7.2418   -7.6055 C   0  0  0  0  0  0  0  0  0  0  0  0
   -0.5634   -6.3275   -7.8784 C   0  0  0  0  0  0  0  0  0  0  0  0
   -0.7186   -5.2443   -6.4985 S   0  0  0  0  0  0  0  0  0  0  0  0
   -1.3792   -6.2597   -9.0328 C   0  0  0  0  0  0  0  0  0  0  0  0
   -2.0582   -5.1883   -9.5215 C   0  0  0  0  0  0  0  0  0  0  0  0
   -3.2026   -5.3822  -10.4552 C   0  0  0  0  0  0  0  0  0  0  0  0
   -3.4921   -6.3858  -11.0584 O   0  0  0  0  0  0  0  0  0  0  0  0
   -3.9374   -4.0955  -10.4221 C   0  0  0  0  0  0  0  0  0  0  0  0
   -5.1422   -3.7781  -11.0163 C   0  0  0  0  0  0  0  0  0  0  0  0
   -5.6243   -2.4943  -10.8070 C   0  0  0  0  0  0  0  0  0  0  0  0
   -6.7927   -2.1401  -11.3648 F   0  0  0  0  0  0  0  0  0  0  0  0
   -4.9463   -1.5584  -10.0386 C   0  0  0  0  0  0  0  0  0  0  0  0
   -3.7330   -1.8858   -9.4536 C   0  0  0  0  0  0  0  0  0  0  0  0
   -3.2238   -3.1612   -9.6478 C   0  0  0  0  0  0  0  0  0  0  0  0
   -1.9735   -3.7754   -9.2100 C   0  0  0  0  0  0  0  0  0  0  0  0
   -0.8412   -3.1002   -8.8394 C   0  0  0  0  0  0  0  0  0  0  0  0
    0.4293   -3.7092   -8.7484 C   0  0  0  0  0  0  0  0  0  0  0  0
    1.4870   -4.1535   -8.7198 N   0  0  0  0  0  0  0  0  0  0  0  0
   -0.7946   -1.7136   -8.5918 C   0  0  0  0  0  0  0  0  0  0  0  0
   -0.7097   -0.5955   -8.3469 N   0  0  0  0  0  0  0  0  0  0  0  0
   -1.9749    9.3086    5.7814 H   0  0  0  0  0  0  0  0  0  0  0  0
   -6.4636    5.4939    3.5209 H   0  0  0  0  0  0  0  0  0  0  0  0
   -9.2855    8.5303    4.5977 H   0  0  0  0  0  0  0  0  0  0  0  0
   -7.4760    9.9817    5.4356 H   0  0  0  0  0  0  0  0  0  0  0  0
    0.3359    8.7874    5.9080 H   0  0  0  0  0  0  0  0  0  0  0  0
    2.4650    9.2476    6.2019 H   0  0  0  0  0  0  0  0  0  0  0  0
    4.1050    8.8937    5.6407 H   0  0  0  0  0  0  0  0  0  0  0  0
    1.6894    9.2669    3.7882 H   0  0  0  0  0  0  0  0  0  0  0  0
    3.3454    8.9322    3.2764 H   0  0  0  0  0  0  0  0  0  0  0  0
    2.9557   10.4668    4.0632 H   0  0  0  0  0  0  0  0  0  0  0  0
    4.6397    3.5318    5.6132 H   0  0  0  0  0  0  0  0  0  0  0  0
    5.5767    4.0556    7.8278 H   0  0  0  0  0  0  0  0  0  0  0  0
    4.1233    4.9177    9.6168 H   0  0  0  0  0  0  0  0  0  0  0  0
    0.4890    4.8787    9.5032 H   0  0  0  0  0  0  0  0  0  0  0  0
    1.9066    5.2858   10.4814 H   0  0  0  0  0  0  0  0  0  0  0  0
    0.5628    7.3198   10.0023 H   0  0  0  0  0  0  0  0  0  0  0  0
    2.1437    7.4327    9.2194 H   0  0  0  0  0  0  0  0  0  0  0  0
    0.7154    7.0265    8.2665 H   0  0  0  0  0  0  0  0  0  0  0  0
    0.7547    4.6143    7.0235 H   0  0  0  0  0  0  0  0  0  0  0  0
    3.6926   -7.5870   -2.3745 H   0  0  0  0  0  0  0  0  0  0  0  0
    3.9465  -10.0326   -2.2841 H   0  0  0  0  0  0  0  0  0  0  0  0
    2.1597  -11.4964   -3.1352 H   0  0  0  0  0  0  0  0  0  0  0  0
    0.1571  -11.6934   -4.5504 H   0  0  0  0  0  0  0  0  0  0  0  0
   -0.8254  -10.2695   -4.9212 H   0  0  0  0  0  0  0  0  0  0  0  0
   -0.6435  -11.6308   -2.1888 H   0  0  0  0  0  0  0  0  0  0  0  0
   -1.9983  -11.7606   -3.3158 H   0  0  0  0  0  0  0  0  0  0  0  0
   -1.6222  -10.2107   -2.5549 H   0  0  0  0  0  0  0  0  0  0  0  0
   -0.2031   -8.0742   -4.0641 H   0  0  0  0  0  0  0  0  0  0  0  0
   -0.0367    0.1157   -0.1065 H   0  0  0  0  0  0  0  0  0  0  0  0
   -0.4154    1.2298    1.2081 H   0  0  0  0  0  0  0  0  0  0  0  0
    0.7755    3.0635    0.1781 H   0  0  0  0  0  0  0  0  0  0  0  0
    1.4293    2.0432   -1.0947 H   0  0  0  0  0  0  0  0  0  0  0  0
   -0.3063    2.3796   -1.0329 H   0  0  0  0  0  0  0  0  0  0  0  0
    1.3064    0.0793   -1.6365 H   0  0  0  0  0  0  0  0  0  0  0  0
    0.6324   -1.1842   -2.6867 H   0  0  0  0  0  0  0  0  0  0  0  0
    2.9467   -1.7734   -3.4186 H   0  0  0  0  0  0  0  0  0  0  0  0
    3.6087   -0.5529   -2.3269 H   0  0  0  0  0  0  0  0  0  0  0  0
    2.6148   -0.0666   -3.7070 H   0  0  0  0  0  0  0  0  0  0  0  0
    2.8599  -10.6737   -7.2289 H   0  0  0  0  0  0  0  0  0  0  0  0
    4.0619   -9.4436   -7.6676 H   0  0  0  0  0  0  0  0  0  0  0  0
    2.9036  -10.0404   -8.8950 H   0  0  0  0  0  0  0  0  0  0  0  0
   -1.5144   -7.2002   -9.5589 H   0  0  0  0  0  0  0  0  0  0  0  0
   -5.6824   -4.4923  -11.6168 H   0  0  0  0  0  0  0  0  0  0  0  0
   -5.3759   -0.5779   -9.9063 H   0  0  0  0  0  0  0  0  0  0  0  0
   -3.2117   -1.1580   -8.8532 H   0  0  0  0  0  0  0  0  0  0  0  0
  1  2  2  0  0  0  0
  2  3  1  0  0  0  0
  3  4  2  0  0  0  0
  3  5  1  0  0  0  0
  5  6  2  0  0  0  0
  6  7  1  0  0  0  0
  7  8  1  0  0  0  0
  7  9  2  0  0  0  0
  9 10  1  0  0  0  0
 10 11  2  0  0  0  0
 11 12  1  0  0  0  0
 12 13  2  0  0  0  0
 13 14  1  0  0  0  0
 14 15  3  0  0  0  0
 13 16  1  0  0  0  0
 16 17  3  0  0  0  0
  1 18  1  0  0  0  0
 18 19  2  0  0  0  0
 19 20  1  0  0  0  0
 20 21  1  0  0  0  0
 21 22  1  0  0  0  0
 22 23  1  0  0  0  0
 20 24  2  0  0  0  0
 24 25  1  0  0  0  0
 24 26  1  0  0  0  0
 26 27  2  0  0  0  0
 27 28  1  0  0  0  0
 28 29  2  0  0  0  0
 29 30  1  0  0  0  0
 30 31  2  0  0  0  0
 31 32  1  0  0  0  0
 32 33  1  0  0  0  0
 33 34  1  0  0  0  0
 32 35  2  0  0  0  0
 27 36  1  0  0  0  0
 36 37  1  0  0  0  0
 37 38  1  0  0  0  0
 38 39  1  0  0  0  0
 39 40  1  0  0  0  0
 40 41  1  0  0  0  0
 41 42  2  0  0  0  0
 42 43  1  0  0  0  0
 43 44  1  0  0  0  0
 41 45  1  0  0  0  0
 45 46  1  0  0  0  0
 46 47  1  0  0  0  0
 47 48  1  0  0  0  0
 48 49  1  0  0  0  0
 49 50  1  0  0  0  0
 50 51  2  0  0  0  0
 51 52  1  0  0  0  0
 52 53  2  0  0  0  0
 53 54  1  0  0  0  0
 54 55  1  0  0  0  0
 55 56  1  0  0  0  0
 54 57  2  0  0  0  0
 49 58  2  0  0  0  0
 58 59  1  0  0  0  0
 59 60  1  0  0  0  0
 60 61  1  0  0  0  0
 61 62  1  0  0  0  0
 62 63  1  0  0  0  0
 63 64  1  0  0  0  0
 64 65  1  0  0  0  0
 65 66  1  0  0  0  0
 66 67  1  0  0  0  0
 67 68  1  0  0  0  0
 65 69  1  0  0  0  0
 69 70  1  0  0  0  0
 62 71  1  0  0  0  0
 71 72  1  0  0  0  0
 58 73  1  0  0  0  0
 73 74  2  0  0  0  0
 74 75  1  0  0  0  0
 75 76  2  0  0  0  0
 75 77  1  0  0  0  0
 77 78  1  0  0  0  0
 77 79  1  0  0  0  0
 79 80  2  0  0  0  0
 79 81  1  0  0  0  0
 81 82  2  0  0  0  0
 82 83  1  0  0  0  0
 82 84  1  0  0  0  0
 84 85  2  0  0  0  0
 85 86  1  0  0  0  0
 86 87  2  0  0  0  0
 86 88  1  0  0  0  0
 88 89  2  0  0  0  0
 89 90  1  0  0  0  0
 90 91  1  0  0  0  0
 90 92  2  0  0  0  0
 92 93  1  0  0  0  0
 93 94  2  0  0  0  0
 94 95  1  0  0  0  0
 95 96  2  0  0  0  0
 96 97  1  0  0  0  0
 97 98  3  0  0  0  0
 96 99  1  0  0  0  0
 99100  3  0  0  0  0
 12  2  1  0  0  0  0
 25 18  1  0  0  0  0
 68 26  1  0  0  0  0
 83 73  1  0  0  0  0
 95 85  1  0  0  0  0
 11  5  1  0  0  0  0
 35 28  1  0  0  0  0
 67 36  2  0  0  0  0
 81 74  1  0  0  0  0
 94 88  1  0  0  0  0
 66 38  2  0  0  0  0
 64 39  2  0  0  0  0
 44 40  2  0  0  0  0
 63 45  2  0  0  0  0
 61 46  2  0  0  0  0
 60 48  2  0  0  0  0
 57 50  1  0  0  0  0
  1101  1  0  0  0  0
  6102  1  0  0  0  0
  9103  1  0  0  0  0
 10104  1  0  0  0  0
 19105  1  0  0  0  0
 22106  1  0  0  0  0
 22107  1  0  0  0  0
 23108  1  0  0  0  0
 23109  1  0  0  0  0
 23110  1  0  0  0  0
 29111  1  0  0  0  0
 30112  1  0  0  0  0
 31113  1  0  0  0  0
 33114  1  0  0  0  0
 33115  1  0  0  0  0
 34116  1  0  0  0  0
 34117  1  0  0  0  0
 34118  1  0  0  0  0
 35119  1  0  0  0  0
 51120  1  0  0  0  0
 52121  1  0  0  0  0
 53122  1  0  0  0  0
 55123  1  0  0  0  0
 55124  1  0  0  0  0
 56125  1  0  0  0  0
 56126  1  0  0  0  0
 56127  1  0  0  0  0
 57128  1  0  0  0  0
 69129  1  0  0  0  0
 69130  1  0  0  0  0
 70131  1  0  0  0  0
 70132  1  0  0  0  0
 70133  1  0  0  0  0
 71134  1  0  0  0  0
 71135  1  0  0  0  0
 72136  1  0  0  0  0
 72137  1  0  0  0  0
 72138  1  0  0  0  0
 78139  1  0  0  0  0
 78140  1  0  0  0  0
 78141  1  0  0  0  0
 84142  1  0  0  0  0
 89143  1  0  0  0  0
 92144  1  0  0  0  0
 93145  1  0  0  0  0
M  END
