
  xtb     02112210233D
 energy: -291.105553177440 gnorm: 0.000475083744 xtb: 6.4.1 (unknown)
161178  0     0  0            999 V2000
   -7.7461   -0.4105  -12.9922 C   0  0  0  0  0  0  0  0  0  0  0  0
   -9.1093   -0.4931  -13.0185 C   0  0  0  0  0  0  0  0  0  0  0  0
   -9.8383   -0.3983  -14.3047 C   0  0  0  0  0  0  0  0  0  0  0  0
   -9.3691   -0.4548  -15.4191 O   0  0  0  0  0  0  0  0  0  0  0  0
  -11.2526   -0.1644  -13.9267 C   0  0  0  0  0  0  0  0  0  0  0  0
  -12.3319    0.1039  -14.7437 C   0  0  0  0  0  0  0  0  0  0  0  0
  -13.5538    0.3081  -14.1196 C   0  0  0  0  0  0  0  0  0  0  0  0
  -14.6336    0.5722  -14.8762 F   0  0  0  0  0  0  0  0  0  0  0  0
  -13.7066    0.2544  -12.7423 C   0  0  0  0  0  0  0  0  0  0  0  0
  -12.6165   -0.0261  -11.9321 C   0  0  0  0  0  0  0  0  0  0  0  0
  -11.3833   -0.2398  -12.5276 C   0  0  0  0  0  0  0  0  0  0  0  0
  -10.0848   -0.5956  -11.9579 C   0  0  0  0  0  0  0  0  0  0  0  0
   -9.8943   -1.2050  -10.7441 C   0  0  0  0  0  0  0  0  0  0  0  0
  -10.9064   -1.3680   -9.7788 C   0  0  0  0  0  0  0  0  0  0  0  0
  -11.6942   -1.5103   -8.9557 N   0  0  0  0  0  0  0  0  0  0  0  0
   -8.6863   -1.8370  -10.3829 C   0  0  0  0  0  0  0  0  0  0  0  0
   -7.7429   -2.4211  -10.0875 N   0  0  0  0  0  0  0  0  0  0  0  0
   -6.9043   -0.0649  -11.9173 C   0  0  0  0  0  0  0  0  0  0  0  0
   -7.4788    0.8848  -10.5408 S   0  0  0  0  0  0  0  0  0  0  0  0
   -5.9102    0.8422   -9.8410 C   0  0  0  0  0  0  0  0  0  0  0  0
   -5.2117    1.2503   -8.7107 C   0  0  0  0  0  0  0  0  0  0  0  0
   -3.8920    0.7608   -8.8519 C   0  0  0  0  0  0  0  0  0  0  0  0
   -3.7722    0.0749  -10.0278 N   0  0  0  0  0  0  0  0  0  0  0  0
   -2.5699   -0.5077  -10.5644 C   0  0  0  0  0  0  0  0  0  0  0  0
   -1.8188    0.4797  -11.4556 C   0  0  0  0  0  0  0  0  0  0  0  0
   -4.9923    0.1251  -10.6516 C   0  0  0  0  0  0  0  0  0  0  0  0
   -5.5484   -0.3492  -11.8313 C   0  0  0  0  0  0  0  0  0  0  0  0
   -3.0718    1.0620   -7.7623 C   0  0  0  0  0  0  0  0  0  0  0  0
   -3.7445    1.7887   -6.8018 C   0  0  0  0  0  0  0  0  0  0  0  0
   -5.4212    2.1128   -7.2289 S   0  0  0  0  0  0  0  0  0  0  0  0
   -3.2316    2.1574   -5.5269 C   0  0  0  0  0  0  0  0  0  0  0  0
   -3.7031    3.0804   -4.6123 C   0  0  0  0  0  0  0  0  0  0  0  0
   -4.7500    4.0731   -4.8593 C   0  0  0  0  0  0  0  0  0  0  0  0
   -4.7200    4.8698   -6.0012 C   0  0  0  0  0  0  0  0  0  0  0  0
   -5.6869    5.8379   -6.1880 C   0  0  0  0  0  0  0  0  0  0  0  0
   -6.6797    6.0260   -5.2416 C   0  0  0  0  0  0  0  0  0  0  0  0
   -6.7187    5.2462   -4.0932 C   0  0  0  0  0  0  0  0  0  0  0  0
   -7.7489    5.4831   -3.0276 C   0  0  0  0  0  0  0  0  0  0  0  0
   -7.1731    6.3779   -1.9279 C   0  0  0  0  0  0  0  0  0  0  0  0
   -5.7470    4.2734   -3.9124 C   0  0  0  0  0  0  0  0  0  0  0  0
   -2.9987    3.0022   -3.3943 C   0  0  0  0  0  0  0  0  0  0  0  0
   -3.1433    3.8846   -1.8929 S   0  0  0  0  0  0  0  0  0  0  0  0
   -1.8506    2.9359   -1.2414 C   0  0  0  0  0  0  0  0  0  0  0  0
   -1.1250    2.8014   -0.0488 C   0  0  0  0  0  0  0  0  0  0  0  0
   -1.1902    3.5520    1.1439 C   0  0  0  0  0  0  0  0  0  0  0  0
   -0.2791    3.2415    2.2039 C   0  0  0  0  0  0  0  0  0  0  0  0
   -0.4251    4.0410    3.2493 N   0  0  0  0  0  0  0  0  0  0  0  0
   -1.6128    5.0931    2.9251 S   0  0  0  0  0  0  0  0  0  0  0  0
   -1.9850    4.5692    1.4382 N   0  0  0  0  0  0  0  0  0  0  0  0
    0.5993    2.1490    2.0458 C   0  0  0  0  0  0  0  0  0  0  0  0
    1.4943    1.5708    2.9585 C   0  0  0  0  0  0  0  0  0  0  0  0
    2.0500    1.7962    4.5827 S   0  0  0  0  0  0  0  0  0  0  0  0
    3.0240    0.3526    4.4274 C   0  0  0  0  0  0  0  0  0  0  0  0
    3.8626   -0.3457    5.3250 C   0  0  0  0  0  0  0  0  0  0  0  0
    4.0714    0.0235    6.7235 C   0  0  0  0  0  0  0  0  0  0  0  0
    4.1946    1.3624    7.0870 C   0  0  0  0  0  0  0  0  0  0  0  0
    4.3985    1.7019    8.4109 C   0  0  0  0  0  0  0  0  0  0  0  0
    4.4681    0.7187    9.3833 C   0  0  0  0  0  0  0  0  0  0  0  0
    4.3150   -0.6196    9.0438 C   0  0  0  0  0  0  0  0  0  0  0  0
    4.3818   -1.7006   10.0848 C   0  0  0  0  0  0  0  0  0  0  0  0
    5.7283   -2.4233   10.0367 C   0  0  0  0  0  0  0  0  0  0  0  0
    4.1194   -0.9541    7.7123 C   0  0  0  0  0  0  0  0  0  0  0  0
    4.3947   -1.4695    4.7322 C   0  0  0  0  0  0  0  0  0  0  0  0
    3.8590   -1.6927    3.0840 S   0  0  0  0  0  0  0  0  0  0  0  0
    2.9125   -0.2521    3.1757 C   0  0  0  0  0  0  0  0  0  0  0  0
    2.0389    0.4505    2.3334 C   0  0  0  0  0  0  0  0  0  0  0  0
    1.5227    0.3183    1.0747 N   0  0  0  0  0  0  0  0  0  0  0  0
    0.6397    1.3622    0.8559 C   0  0  0  0  0  0  0  0  0  0  0  0
   -0.1885    1.7423   -0.2395 C   0  0  0  0  0  0  0  0  0  0  0  0
   -0.3270    1.2901   -1.5413 N   0  0  0  0  0  0  0  0  0  0  0  0
   -1.3355    1.9975   -2.1359 C   0  0  0  0  0  0  0  0  0  0  0  0
   -1.9859    2.0419   -3.3755 C   0  0  0  0  0  0  0  0  0  0  0  0
   -1.8817    1.2186   -4.8917 S   0  0  0  0  0  0  0  0  0  0  0  0
    0.4266    0.3585   -2.3458 C   0  0  0  0  0  0  0  0  0  0  0  0
   -0.3074   -0.9734   -2.5100 C   0  0  0  0  0  0  0  0  0  0  0  0
    1.8829   -0.8508    0.3090 C   0  0  0  0  0  0  0  0  0  0  0  0
    3.2461   -0.6861   -0.3641 C   0  0  0  0  0  0  0  0  0  0  0  0
    5.3396   -2.4199    5.2984 C   0  0  0  0  0  0  0  0  0  0  0  0
    5.0749   -3.7854    5.2539 C   0  0  0  0  0  0  0  0  0  0  0  0
    3.9426   -4.2247    4.6776 F   0  0  0  0  0  0  0  0  0  0  0  0
    5.9420   -4.6974    5.8210 C   0  0  0  0  0  0  0  0  0  0  0  0
    5.6750   -6.0127    5.7224 F   0  0  0  0  0  0  0  0  0  0  0  0
    7.1299   -4.2701    6.4113 C   0  0  0  0  0  0  0  0  0  0  0  0
    7.4478   -2.8977    6.4100 C   0  0  0  0  0  0  0  0  0  0  0  0
    8.6751   -2.4939    6.8671 O   0  0  0  0  0  0  0  0  0  0  0  0
    9.0139   -2.7364    8.2291 C   0  0  0  0  0  0  0  0  0  0  0  0
   10.5274   -2.7895    8.3470 C   0  0  0  0  0  0  0  0  0  0  0  0
    6.5484   -1.9638    5.8749 C   0  0  0  0  0  0  0  0  0  0  0  0
    6.7313   -0.6337    5.7780 O   0  0  0  0  0  0  0  0  0  0  0  0
    7.7717    0.0457    6.4665 C   0  0  0  0  0  0  0  0  0  0  0  0
    7.6245    1.5241    6.1457 C   0  0  0  0  0  0  0  0  0  0  0  0
    8.0787   -5.2508    6.9131 C   0  0  0  0  0  0  0  0  0  0  0  0
    7.7380   -6.2874    7.7096 C   0  0  0  0  0  0  0  0  0  0  0  0
    6.4061   -6.4268    8.3709 C   0  0  0  0  0  0  0  0  0  0  0  0
    5.5573   -5.5756    8.4887 O   0  0  0  0  0  0  0  0  0  0  0  0
    6.4035   -7.7852    8.9502 C   0  0  0  0  0  0  0  0  0  0  0  0
    5.3691   -8.4408    9.5870 C   0  0  0  0  0  0  0  0  0  0  0  0
    5.6276   -9.7263   10.0379 C   0  0  0  0  0  0  0  0  0  0  0  0
    4.6524  -10.4070   10.6578 F   0  0  0  0  0  0  0  0  0  0  0  0
    6.8623  -10.3392    9.8715 C   0  0  0  0  0  0  0  0  0  0  0  0
    7.8956   -9.6663    9.2401 C   0  0  0  0  0  0  0  0  0  0  0  0
    7.6686   -8.3767    8.7760 C   0  0  0  0  0  0  0  0  0  0  0  0
    8.5494   -7.4350    8.0930 C   0  0  0  0  0  0  0  0  0  0  0  0
    9.8908   -7.5946    7.8836 C   0  0  0  0  0  0  0  0  0  0  0  0
   10.7324   -6.6203    7.3066 C   0  0  0  0  0  0  0  0  0  0  0  0
   11.4719   -5.8550    6.8757 N   0  0  0  0  0  0  0  0  0  0  0  0
   10.6251   -8.7378    8.2683 C   0  0  0  0  0  0  0  0  0  0  0  0
   11.2772   -9.6367    8.5565 N   0  0  0  0  0  0  0  0  0  0  0  0
   -7.2544   -0.5645  -13.9482 H   0  0  0  0  0  0  0  0  0  0  0  0
  -12.2324    0.1503  -15.8164 H   0  0  0  0  0  0  0  0  0  0  0  0
  -14.6808    0.4313  -12.3144 H   0  0  0  0  0  0  0  0  0  0  0  0
  -12.7378   -0.0625  -10.8616 H   0  0  0  0  0  0  0  0  0  0  0  0
   -1.9384   -0.8162   -9.7276 H   0  0  0  0  0  0  0  0  0  0  0  0
   -2.8473   -1.3968  -11.1370 H   0  0  0  0  0  0  0  0  0  0  0  0
   -0.9213    0.0149  -11.8537 H   0  0  0  0  0  0  0  0  0  0  0  0
   -1.5337    1.3611  -10.8859 H   0  0  0  0  0  0  0  0  0  0  0  0
   -2.4479    0.7931  -12.2853 H   0  0  0  0  0  0  0  0  0  0  0  0
   -5.0331   -0.9168  -12.5847 H   0  0  0  0  0  0  0  0  0  0  0  0
   -2.0403    0.7773   -7.6568 H   0  0  0  0  0  0  0  0  0  0  0  0
   -3.9311    4.7369   -6.7273 H   0  0  0  0  0  0  0  0  0  0  0  0
   -5.6627    6.4557   -7.0737 H   0  0  0  0  0  0  0  0  0  0  0  0
   -7.4298    6.7885   -5.3944 H   0  0  0  0  0  0  0  0  0  0  0  0
   -8.6298    5.9606   -3.4605 H   0  0  0  0  0  0  0  0  0  0  0  0
   -8.0551    4.5302   -2.5915 H   0  0  0  0  0  0  0  0  0  0  0  0
   -6.8781    7.3404   -2.3400 H   0  0  0  0  0  0  0  0  0  0  0  0
   -7.9124    6.5456   -1.1483 H   0  0  0  0  0  0  0  0  0  0  0  0
   -6.2958    5.9142   -1.4827 H   0  0  0  0  0  0  0  0  0  0  0  0
   -5.7715    3.6536   -3.0279 H   0  0  0  0  0  0  0  0  0  0  0  0
    4.1389    2.1305    6.3305 H   0  0  0  0  0  0  0  0  0  0  0  0
    4.5018    2.7409    8.6881 H   0  0  0  0  0  0  0  0  0  0  0  0
    4.6258    0.9937   10.4164 H   0  0  0  0  0  0  0  0  0  0  0  0
    3.5869   -2.4280    9.9087 H   0  0  0  0  0  0  0  0  0  0  0  0
    4.2373   -1.2679   11.0766 H   0  0  0  0  0  0  0  0  0  0  0  0
    5.8615   -2.9118    9.0738 H   0  0  0  0  0  0  0  0  0  0  0  0
    5.7781   -3.1832   10.8128 H   0  0  0  0  0  0  0  0  0  0  0  0
    6.5423   -1.7167   10.1909 H   0  0  0  0  0  0  0  0  0  0  0  0
    3.9772   -1.9915    7.4467 H   0  0  0  0  0  0  0  0  0  0  0  0
    0.5474    0.8117   -3.3360 H   0  0  0  0  0  0  0  0  0  0  0  0
    1.4186    0.2275   -1.9235 H   0  0  0  0  0  0  0  0  0  0  0  0
   -1.2065   -0.8319   -3.1036 H   0  0  0  0  0  0  0  0  0  0  0  0
    0.3319   -1.6887   -3.0199 H   0  0  0  0  0  0  0  0  0  0  0  0
   -0.6050   -1.3861   -1.5482 H   0  0  0  0  0  0  0  0  0  0  0  0
    1.9423   -1.6899    1.0104 H   0  0  0  0  0  0  0  0  0  0  0  0
    1.1005   -1.0794   -0.4076 H   0  0  0  0  0  0  0  0  0  0  0  0
    3.4489   -1.5404   -1.0039 H   0  0  0  0  0  0  0  0  0  0  0  0
    3.2885    0.2228   -0.9615 H   0  0  0  0  0  0  0  0  0  0  0  0
    4.0269   -0.6279    0.3896 H   0  0  0  0  0  0  0  0  0  0  0  0
    8.5633   -3.6732    8.5763 H   0  0  0  0  0  0  0  0  0  0  0  0
    8.6129   -1.9162    8.8427 H   0  0  0  0  0  0  0  0  0  0  0  0
   10.9580   -1.8616    7.9815 H   0  0  0  0  0  0  0  0  0  0  0  0
   10.8081   -2.9260    9.3874 H   0  0  0  0  0  0  0  0  0  0  0  0
   10.9302   -3.6115    7.7604 H   0  0  0  0  0  0  0  0  0  0  0  0
    8.7486   -0.3216    6.1378 H   0  0  0  0  0  0  0  0  0  0  0  0
    7.6684   -0.1190    7.5461 H   0  0  0  0  0  0  0  0  0  0  0  0
    7.6812    1.6764    5.0716 H   0  0  0  0  0  0  0  0  0  0  0  0
    8.4207    2.0835    6.6279 H   0  0  0  0  0  0  0  0  0  0  0  0
    6.6643    1.8871    6.5002 H   0  0  0  0  0  0  0  0  0  0  0  0
    9.0958   -5.1283    6.5632 H   0  0  0  0  0  0  0  0  0  0  0  0
    4.4043   -7.9782    9.7199 H   0  0  0  0  0  0  0  0  0  0  0  0
    7.0033  -11.3428   10.2407 H   0  0  0  0  0  0  0  0  0  0  0  0
    8.8498  -10.1513    9.1156 H   0  0  0  0  0  0  0  0  0  0  0  0
  1  2  2  0  0  0  0
  2  3  1  0  0  0  0
  3  4  2  0  0  0  0
  3  5  1  0  0  0  0
  5  6  2  0  0  0  0
  6  7  1  0  0  0  0
  7  8  1  0  0  0  0
  7  9  2  0  0  0  0
  9 10  1  0  0  0  0
 10 11  2  0  0  0  0
 11 12  1  0  0  0  0
 12 13  2  0  0  0  0
 13 14  1  0  0  0  0
 14 15  3  0  0  0  0
 13 16  1  0  0  0  0
 16 17  3  0  0  0  0
  1 18  1  0  0  0  0
 18 19  1  0  0  0  0
 19 20  1  0  0  0  0
 20 21  1  0  0  0  0
 21 22  2  0  0  0  0
 22 23  1  0  0  0  0
 23 24  1  0  0  0  0
 24 25  1  0  0  0  0
 23 26  1  0  0  0  0
 26 27  1  0  0  0  0
 22 28  1  0  0  0  0
 28 29  2  0  0  0  0
 29 30  1  0  0  0  0
 29 31  1  0  0  0  0
 31 32  2  0  0  0  0
 32 33  1  0  0  0  0
 33 34  2  0  0  0  0
 34 35  1  0  0  0  0
 35 36  2  0  0  0  0
 36 37  1  0  0  0  0
 37 38  1  0  0  0  0
 38 39  1  0  0  0  0
 37 40  2  0  0  0  0
 32 41  1  0  0  0  0
 41 42  1  0  0  0  0
 42 43  1  0  0  0  0
 43 44  1  0  0  0  0
 44 45  1  0  0  0  0
 45 46  1  0  0  0  0
 46 47  2  0  0  0  0
 47 48  1  0  0  0  0
 48 49  1  0  0  0  0
 46 50  1  0  0  0  0
 50 51  1  0  0  0  0
 51 52  1  0  0  0  0
 52 53  1  0  0  0  0
 53 54  1  0  0  0  0
 54 55  1  0  0  0  0
 55 56  2  0  0  0  0
 56 57  1  0  0  0  0
 57 58  2  0  0  0  0
 58 59  1  0  0  0  0
 59 60  1  0  0  0  0
 60 61  1  0  0  0  0
 59 62  2  0  0  0  0
 54 63  2  0  0  0  0
 63 64  1  0  0  0  0
 64 65  1  0  0  0  0
 65 66  1  0  0  0  0
 66 67  1  0  0  0  0
 67 68  1  0  0  0  0
 68 69  1  0  0  0  0
 69 70  1  0  0  0  0
 70 71  1  0  0  0  0
 71 72  1  0  0  0  0
 72 73  1  0  0  0  0
 70 74  1  0  0  0  0
 74 75  1  0  0  0  0
 67 76  1  0  0  0  0
 76 77  1  0  0  0  0
 63 78  1  0  0  0  0
 78 79  2  0  0  0  0
 79 80  1  0  0  0  0
 79 81  1  0  0  0  0
 81 82  1  0  0  0  0
 81 83  2  0  0  0  0
 83 84  1  0  0  0  0
 84 85  1  0  0  0  0
 85 86  1  0  0  0  0
 86 87  1  0  0  0  0
 84 88  2  0  0  0  0
 88 89  1  0  0  0  0
 89 90  1  0  0  0  0
 90 91  1  0  0  0  0
 83 92  1  0  0  0  0
 92 93  2  0  0  0  0
 93 94  1  0  0  0  0
 94 95  2  0  0  0  0
 94 96  1  0  0  0  0
 96 97  2  0  0  0  0
 97 98  1  0  0  0  0
 98 99  1  0  0  0  0
 98100  2  0  0  0  0
100101  1  0  0  0  0
101102  2  0  0  0  0
102103  1  0  0  0  0
103104  2  0  0  0  0
104105  1  0  0  0  0
105106  3  0  0  0  0
104107  1  0  0  0  0
107108  3  0  0  0  0
 12  2  1  0  0  0  0
 27 18  2  0  0  0  0
 73 31  1  0  0  0  0
 88 78  1  0  0  0  0
103 93  1  0  0  0  0
 11  5  1  0  0  0  0
 26 20  2  0  0  0  0
 40 33  1  0  0  0  0
 72 41  2  0  0  0  0
102 96  1  0  0  0  0
 30 21  1  0  0  0  0
 71 43  2  0  0  0  0
 69 44  2  0  0  0  0
 49 45  2  0  0  0  0
 68 50  2  0  0  0  0
 66 51  2  0  0  0  0
 65 53  2  0  0  0  0
 62 55  1  0  0  0  0
  1109  1  0  0  0  0
  6110  1  0  0  0  0
  9111  1  0  0  0  0
 10112  1  0  0  0  0
 24113  1  0  0  0  0
 24114  1  0  0  0  0
 25115  1  0  0  0  0
 25116  1  0  0  0  0
 25117  1  0  0  0  0
 27118  1  0  0  0  0
 28119  1  0  0  0  0
 34120  1  0  0  0  0
 35121  1  0  0  0  0
 36122  1  0  0  0  0
 38123  1  0  0  0  0
 38124  1  0  0  0  0
 39125  1  0  0  0  0
 39126  1  0  0  0  0
 39127  1  0  0  0  0
 40128  1  0  0  0  0
 56129  1  0  0  0  0
 57130  1  0  0  0  0
 58131  1  0  0  0  0
 60132  1  0  0  0  0
 60133  1  0  0  0  0
 61134  1  0  0  0  0
 61135  1  0  0  0  0
 61136  1  0  0  0  0
 62137  1  0  0  0  0
 74138  1  0  0  0  0
 74139  1  0  0  0  0
 75140  1  0  0  0  0
 75141  1  0  0  0  0
 75142  1  0  0  0  0
 76143  1  0  0  0  0
 76144  1  0  0  0  0
 77145  1  0  0  0  0
 77146  1  0  0  0  0
 77147  1  0  0  0  0
 86148  1  0  0  0  0
 86149  1  0  0  0  0
 87150  1  0  0  0  0
 87151  1  0  0  0  0
 87152  1  0  0  0  0
 90153  1  0  0  0  0
 90154  1  0  0  0  0
 91155  1  0  0  0  0
 91156  1  0  0  0  0
 91157  1  0  0  0  0
 92158  1  0  0  0  0
 97159  1  0  0  0  0
100160  1  0  0  0  0
101161  1  0  0  0  0
M  END
