
  xtb     02042212143D
 energy: -321.953248238107 gnorm: 0.000614156370 xtb: 6.4.1 (unknown)
175192  0     0  0            999 V2000
    9.6184   -5.7425    2.2802 C   0  0  0  0  0  0  0  0  0  0  0  0
   10.5372   -5.0980    3.0599 C   0  0  0  0  0  0  0  0  0  0  0  0
   11.9397   -5.5893    3.0660 C   0  0  0  0  0  0  0  0  0  0  0  0
   12.3439   -6.6385    2.6180 O   0  0  0  0  0  0  0  0  0  0  0  0
   12.7281   -4.5033    3.6855 C   0  0  0  0  0  0  0  0  0  0  0  0
   14.0973   -4.4026    3.8343 C   0  0  0  0  0  0  0  0  0  0  0  0
   14.6396   -3.2673    4.4269 C   0  0  0  0  0  0  0  0  0  0  0  0
   16.1100   -3.0903    4.6201 C   0  0  0  0  0  0  0  0  0  0  0  0
   13.7545   -2.2725    4.8464 C   0  0  0  0  0  0  0  0  0  0  0  0
   14.2721   -1.1627    5.4070 F   0  0  0  0  0  0  0  0  0  0  0  0
   12.3771   -2.3524    4.7201 C   0  0  0  0  0  0  0  0  0  0  0  0
   11.8580   -3.4921    4.1289 C   0  0  0  0  0  0  0  0  0  0  0  0
   10.4789   -3.9093    3.8770 C   0  0  0  0  0  0  0  0  0  0  0  0
    9.3788   -3.3994    4.5193 C   0  0  0  0  0  0  0  0  0  0  0  0
    8.1024   -3.9942    4.4899 C   0  0  0  0  0  0  0  0  0  0  0  0
    7.0531   -4.4578    4.5375 N   0  0  0  0  0  0  0  0  0  0  0  0
    9.4097   -2.2646    5.3541 C   0  0  0  0  0  0  0  0  0  0  0  0
    9.3703   -1.3303    6.0202 N   0  0  0  0  0  0  0  0  0  0  0  0
    8.3730   -5.2879    1.8102 C   0  0  0  0  0  0  0  0  0  0  0  0
    7.8698   -4.0023    1.6979 C   0  0  0  0  0  0  0  0  0  0  0  0
    6.5987   -3.9307    1.1383 C   0  0  0  0  0  0  0  0  0  0  0  0
    5.8924   -2.6510    0.9625 C   0  0  0  0  0  0  0  0  0  0  0  0
    5.5070   -1.9422    2.0891 C   0  0  0  0  0  0  0  0  0  0  0  0
    4.7983   -0.7503    1.9537 C   0  0  0  0  0  0  0  0  0  0  0  0
    4.4850   -0.2720    0.6845 C   0  0  0  0  0  0  0  0  0  0  0  0
    4.8929   -0.9745   -0.4453 C   0  0  0  0  0  0  0  0  0  0  0  0
    4.6152   -0.6152   -1.7294 O   0  0  0  0  0  0  0  0  0  0  0  0
    3.9161    0.5815   -2.0006 C   0  0  0  0  0  0  0  0  0  0  0  0
    4.8003    1.8215   -1.8988 C   0  0  0  0  0  0  0  0  0  0  0  0
    5.6106   -2.1588   -0.3048 C   0  0  0  0  0  0  0  0  0  0  0  0
    4.4382   -0.1573    3.1201 O   0  0  0  0  0  0  0  0  0  0  0  0
    3.8064    1.1060    3.1191 C   0  0  0  0  0  0  0  0  0  0  0  0
    4.7773    2.2501    2.8398 C   0  0  0  0  0  0  0  0  0  0  0  0
    6.0737   -5.1843    0.8133 C   0  0  0  0  0  0  0  0  0  0  0  0
    7.2238   -6.4329    1.1696 S   0  0  0  0  0  0  0  0  0  0  0  0
    4.7657   -5.4719    0.3378 C   0  0  0  0  0  0  0  0  0  0  0  0
    4.2439   -6.6443   -0.1927 C   0  0  0  0  0  0  0  0  0  0  0  0
    4.9599   -7.9372   -0.4062 C   0  0  0  0  0  0  0  0  0  0  0  0
    4.7983   -8.8534    0.8087 C   0  0  0  0  0  0  0  0  0  0  0  0
    2.8872   -6.4948   -0.5189 C   0  0  0  0  0  0  0  0  0  0  0  0
    1.7098   -7.5842   -1.2220 S   0  0  0  0  0  0  0  0  0  0  0  0
    0.5294   -6.3173   -1.1619 C   0  0  0  0  0  0  0  0  0  0  0  0
   -0.8286   -6.1006   -1.4469 C   0  0  0  0  0  0  0  0  0  0  0  0
   -1.8635   -6.9796   -1.8384 C   0  0  0  0  0  0  0  0  0  0  0  0
   -3.2142   -6.4911   -1.8855 C   0  0  0  0  0  0  0  0  0  0  0  0
   -4.0837   -7.4399   -2.1944 N   0  0  0  0  0  0  0  0  0  0  0  0
   -3.2761   -8.8260   -2.4148 S   0  0  0  0  0  0  0  0  0  0  0  0
   -1.7847   -8.2699   -2.1216 N   0  0  0  0  0  0  0  0  0  0  0  0
   -3.4547   -5.1148   -1.6744 C   0  0  0  0  0  0  0  0  0  0  0  0
   -4.6193   -4.3373   -1.7853 C   0  0  0  0  0  0  0  0  0  0  0  0
   -6.3137   -4.5129   -2.0786 S   0  0  0  0  0  0  0  0  0  0  0  0
   -6.5062   -2.7592   -1.9891 C   0  0  0  0  0  0  0  0  0  0  0  0
   -7.5907   -1.8639   -2.0952 C   0  0  0  0  0  0  0  0  0  0  0  0
   -8.8863   -2.1418   -2.2353 O   0  0  0  0  0  0  0  0  0  0  0  0
   -9.3426   -3.4836   -2.2523 C   0  0  0  0  0  0  0  0  0  0  0  0
   -9.4923   -4.0515   -0.8463 C   0  0  0  0  0  0  0  0  0  0  0  0
   -7.1776   -0.5225   -1.9839 C   0  0  0  0  0  0  0  0  0  0  0  0
   -5.4586   -0.3931   -1.6505 S   0  0  0  0  0  0  0  0  0  0  0  0
   -5.2919   -2.1093   -1.7633 C   0  0  0  0  0  0  0  0  0  0  0  0
   -4.2312   -3.0041   -1.6269 C   0  0  0  0  0  0  0  0  0  0  0  0
   -2.8869   -2.9210   -1.3802 N   0  0  0  0  0  0  0  0  0  0  0  0
   -2.3891   -4.2128   -1.3894 C   0  0  0  0  0  0  0  0  0  0  0  0
   -1.0978   -4.7365   -1.1360 C   0  0  0  0  0  0  0  0  0  0  0  0
    0.0490   -4.1675   -0.6187 N   0  0  0  0  0  0  0  0  0  0  0  0
    1.0283   -5.1202   -0.6374 C   0  0  0  0  0  0  0  0  0  0  0  0
    2.3661   -5.2275   -0.2487 C   0  0  0  0  0  0  0  0  0  0  0  0
    3.5560   -4.1938    0.4410 S   0  0  0  0  0  0  0  0  0  0  0  0
    0.2216   -2.9680    0.1691 C   0  0  0  0  0  0  0  0  0  0  0  0
    1.0547   -1.9067   -0.5503 C   0  0  0  0  0  0  0  0  0  0  0  0
   -2.2133   -1.6758   -1.6847 C   0  0  0  0  0  0  0  0  0  0  0  0
   -1.6928   -1.6772   -3.1200 C   0  0  0  0  0  0  0  0  0  0  0  0
   -7.9228    0.6860   -2.0870 C   0  0  0  0  0  0  0  0  0  0  0  0
   -9.2014    0.8630   -2.6278 C   0  0  0  0  0  0  0  0  0  0  0  0
   -9.8799   -0.1468   -3.1906 F   0  0  0  0  0  0  0  0  0  0  0  0
   -9.8173    2.1140   -2.7014 C   0  0  0  0  0  0  0  0  0  0  0  0
  -11.0270    2.1698   -3.2758 F   0  0  0  0  0  0  0  0  0  0  0  0
   -9.2253    3.2979   -2.2770 C   0  0  0  0  0  0  0  0  0  0  0  0
   -7.9387    3.1613   -1.6848 C   0  0  0  0  0  0  0  0  0  0  0  0
   -7.3492    4.1964   -1.0873 N   0  0  0  0  0  0  0  0  0  0  0  0
   -6.0998    4.1259   -0.6718 C   0  0  0  0  0  0  0  0  0  0  0  0
   -5.6383    5.2745    0.0674 C   0  0  0  0  0  0  0  0  0  0  0  0
   -4.0010    5.5377    0.5813 S   0  0  0  0  0  0  0  0  0  0  0  0
   -4.3907    7.0633    1.2909 C   0  0  0  0  0  0  0  0  0  0  0  0
   -3.3690    7.9086    1.9675 C   0  0  0  0  0  0  0  0  0  0  0  0
   -2.8054    7.2211    3.2116 C   0  0  0  0  0  0  0  0  0  0  0  0
   -5.7260    7.3120    1.1342 C   0  0  0  0  0  0  0  0  0  0  0  0
   -6.4427    6.3169    0.4559 C   0  0  0  0  0  0  0  0  0  0  0  0
   -6.3062    8.4367    1.5816 F   0  0  0  0  0  0  0  0  0  0  0  0
   -5.3526    2.9383   -0.9372 C   0  0  0  0  0  0  0  0  0  0  0  0
   -6.0023    1.8668   -1.3317 N   0  0  0  0  0  0  0  0  0  0  0  0
   -7.2873    1.9013   -1.6686 C   0  0  0  0  0  0  0  0  0  0  0  0
   -3.9117    2.7743   -0.8187 C   0  0  0  0  0  0  0  0  0  0  0  0
   -3.2602    1.7664   -0.1689 C   0  0  0  0  0  0  0  0  0  0  0  0
   -1.8710    1.8228   -0.3834 C   0  0  0  0  0  0  0  0  0  0  0  0
   -1.0173    0.9386    0.1743 F   0  0  0  0  0  0  0  0  0  0  0  0
   -1.4458    2.8312   -1.1978 C   0  0  0  0  0  0  0  0  0  0  0  0
   -0.0554    3.1185   -1.6539 C   0  0  0  0  0  0  0  0  0  0  0  0
    0.3581    2.1777   -2.7886 C   0  0  0  0  0  0  0  0  0  0  0  0
   -2.8057    3.7514   -1.7351 S   0  0  0  0  0  0  0  0  0  0  0  0
   -9.8681    4.5766   -2.3503 C   0  0  0  0  0  0  0  0  0  0  0  0
   -9.1630    5.7306   -2.4745 C   0  0  0  0  0  0  0  0  0  0  0  0
   -7.7344    5.8039   -2.9053 C   0  0  0  0  0  0  0  0  0  0  0  0
   -7.1303    5.0211   -3.6057 O   0  0  0  0  0  0  0  0  0  0  0  0
   -7.2737    7.1373   -2.4692 C   0  0  0  0  0  0  0  0  0  0  0  0
   -5.9864    7.6345   -2.4244 C   0  0  0  0  0  0  0  0  0  0  0  0
   -5.7656    8.9124   -1.9248 C   0  0  0  0  0  0  0  0  0  0  0  0
   -4.3964    9.4973   -1.8031 C   0  0  0  0  0  0  0  0  0  0  0  0
   -6.8808    9.6510   -1.5213 C   0  0  0  0  0  0  0  0  0  0  0  0
   -6.6735   10.8921   -1.0483 F   0  0  0  0  0  0  0  0  0  0  0  0
   -8.1831    9.1826   -1.5720 C   0  0  0  0  0  0  0  0  0  0  0  0
   -8.3800    7.8947   -2.0474 C   0  0  0  0  0  0  0  0  0  0  0  0
   -9.5907    7.0828   -2.1593 C   0  0  0  0  0  0  0  0  0  0  0  0
  -10.8709    7.5233   -1.9663 C   0  0  0  0  0  0  0  0  0  0  0  0
  -11.2061    8.8604   -1.6630 C   0  0  0  0  0  0  0  0  0  0  0  0
  -11.5386    9.9315   -1.4206 N   0  0  0  0  0  0  0  0  0  0  0  0
  -12.0234    6.7159   -2.0772 C   0  0  0  0  0  0  0  0  0  0  0  0
  -12.9991    6.1153   -2.1440 N   0  0  0  0  0  0  0  0  0  0  0  0
    9.9337   -6.7199    1.9274 H   0  0  0  0  0  0  0  0  0  0  0  0
   14.7351   -5.2029    3.4912 H   0  0  0  0  0  0  0  0  0  0  0  0
   16.3401   -2.9966    5.6810 H   0  0  0  0  0  0  0  0  0  0  0  0
   16.6582   -3.9337    4.2108 H   0  0  0  0  0  0  0  0  0  0  0  0
   16.4459   -2.1748    4.1343 H   0  0  0  0  0  0  0  0  0  0  0  0
   11.7638   -1.5379    5.0690 H   0  0  0  0  0  0  0  0  0  0  0  0
    8.4306   -3.1240    1.9646 H   0  0  0  0  0  0  0  0  0  0  0  0
    5.7208   -2.3154    3.0776 H   0  0  0  0  0  0  0  0  0  0  0  0
    3.9164    0.6359    0.5783 H   0  0  0  0  0  0  0  0  0  0  0  0
    3.5687    0.4617   -3.0311 H   0  0  0  0  0  0  0  0  0  0  0  0
    3.0356    0.6714   -1.3519 H   0  0  0  0  0  0  0  0  0  0  0  0
    4.2247    2.7075   -2.1535 H   0  0  0  0  0  0  0  0  0  0  0  0
    5.6368    1.7336   -2.5870 H   0  0  0  0  0  0  0  0  0  0  0  0
    5.1985    1.9362   -0.8939 H   0  0  0  0  0  0  0  0  0  0  0  0
    5.9145   -2.6922   -1.1911 H   0  0  0  0  0  0  0  0  0  0  0  0
    3.4032    1.2049    4.1306 H   0  0  0  0  0  0  0  0  0  0  0  0
    2.9651    1.1212    2.4140 H   0  0  0  0  0  0  0  0  0  0  0  0
    5.5734    2.2422    3.5795 H   0  0  0  0  0  0  0  0  0  0  0  0
    5.2275    2.1500    1.8550 H   0  0  0  0  0  0  0  0  0  0  0  0
    4.2526    3.2001    2.8946 H   0  0  0  0  0  0  0  0  0  0  0  0
    4.5239   -8.4265   -1.2803 H   0  0  0  0  0  0  0  0  0  0  0  0
    6.0191   -7.7622   -0.5997 H   0  0  0  0  0  0  0  0  0  0  0  0
    5.2026   -8.3828    1.7013 H   0  0  0  0  0  0  0  0  0  0  0  0
    5.3244   -9.7890    0.6414 H   0  0  0  0  0  0  0  0  0  0  0  0
    3.7460   -9.0702    0.9755 H   0  0  0  0  0  0  0  0  0  0  0  0
  -10.3185   -3.4227   -2.7406 H   0  0  0  0  0  0  0  0  0  0  0  0
   -8.6815   -4.1110   -2.8586 H   0  0  0  0  0  0  0  0  0  0  0  0
  -10.1678   -3.4283   -0.2656 H   0  0  0  0  0  0  0  0  0  0  0  0
   -9.8982   -5.0567   -0.9043 H   0  0  0  0  0  0  0  0  0  0  0  0
   -8.5312   -4.0932   -0.3400 H   0  0  0  0  0  0  0  0  0  0  0  0
   -0.7618   -2.5929    0.4542 H   0  0  0  0  0  0  0  0  0  0  0  0
    0.7441   -3.2506    1.0899 H   0  0  0  0  0  0  0  0  0  0  0  0
    2.0958   -2.2150   -0.5992 H   0  0  0  0  0  0  0  0  0  0  0  0
    0.9963   -0.9710   -0.0012 H   0  0  0  0  0  0  0  0  0  0  0  0
    0.7017   -1.7457   -1.5652 H   0  0  0  0  0  0  0  0  0  0  0  0
   -2.9574   -0.8847   -1.5666 H   0  0  0  0  0  0  0  0  0  0  0  0
   -1.4048   -1.4797   -0.9880 H   0  0  0  0  0  0  0  0  0  0  0  0
   -0.9636   -2.4722   -3.2647 H   0  0  0  0  0  0  0  0  0  0  0  0
   -1.2261   -0.7225   -3.3469 H   0  0  0  0  0  0  0  0  0  0  0  0
   -2.5134   -1.8335   -3.8163 H   0  0  0  0  0  0  0  0  0  0  0  0
   -2.5514    8.1182    1.2727 H   0  0  0  0  0  0  0  0  0  0  0  0
   -3.8370    8.8549    2.2460 H   0  0  0  0  0  0  0  0  0  0  0  0
   -2.0630    7.8578    3.6850 H   0  0  0  0  0  0  0  0  0  0  0  0
   -2.3366    6.2775    2.9413 H   0  0  0  0  0  0  0  0  0  0  0  0
   -3.5990    7.0225    3.9278 H   0  0  0  0  0  0  0  0  0  0  0  0
   -7.4982    6.3532    0.2681 H   0  0  0  0  0  0  0  0  0  0  0  0
   -3.7473    1.0331    0.4449 H   0  0  0  0  0  0  0  0  0  0  0  0
    0.6281    2.9893   -0.8109 H   0  0  0  0  0  0  0  0  0  0  0  0
    0.0052    4.1527   -1.9938 H   0  0  0  0  0  0  0  0  0  0  0  0
    0.3449    1.1456   -2.4464 H   0  0  0  0  0  0  0  0  0  0  0  0
   -0.3256    2.2770   -3.6282 H   0  0  0  0  0  0  0  0  0  0  0  0
    1.3626    2.4172   -3.1273 H   0  0  0  0  0  0  0  0  0  0  0  0
  -10.9434    4.5907   -2.2302 H   0  0  0  0  0  0  0  0  0  0  0  0
   -5.1616    7.0214   -2.7559 H   0  0  0  0  0  0  0  0  0  0  0  0
   -3.6374    8.7514   -2.0222 H   0  0  0  0  0  0  0  0  0  0  0  0
   -4.2826   10.3318   -2.4950 H   0  0  0  0  0  0  0  0  0  0  0  0
   -4.2432    9.8875   -0.7977 H   0  0  0  0  0  0  0  0  0  0  0  0
   -8.9856    9.8160   -1.2317 H   0  0  0  0  0  0  0  0  0  0  0  0
  1  2  2  0  0  0  0
  2  3  1  0  0  0  0
  3  4  2  0  0  0  0
  3  5  1  0  0  0  0
  5  6  2  0  0  0  0
  6  7  1  0  0  0  0
  7  8  1  0  0  0  0
  7  9  2  0  0  0  0
  9 10  1  0  0  0  0
  9 11  1  0  0  0  0
 11 12  2  0  0  0  0
 12 13  1  0  0  0  0
 13 14  2  0  0  0  0
 14 15  1  0  0  0  0
 15 16  3  0  0  0  0
 14 17  1  0  0  0  0
 17 18  3  0  0  0  0
  1 19  1  0  0  0  0
 19 20  2  0  0  0  0
 20 21  1  0  0  0  0
 21 22  1  0  0  0  0
 22 23  2  0  0  0  0
 23 24  1  0  0  0  0
 24 25  2  0  0  0  0
 25 26  1  0  0  0  0
 26 27  1  0  0  0  0
 27 28  1  0  0  0  0
 28 29  1  0  0  0  0
 26 30  2  0  0  0  0
 24 31  1  0  0  0  0
 31 32  1  0  0  0  0
 32 33  1  0  0  0  0
 21 34  2  0  0  0  0
 34 35  1  0  0  0  0
 34 36  1  0  0  0  0
 36 37  2  0  0  0  0
 37 38  1  0  0  0  0
 38 39  1  0  0  0  0
 37 40  1  0  0  0  0
 40 41  1  0  0  0  0
 41 42  1  0  0  0  0
 42 43  1  0  0  0  0
 43 44  1  0  0  0  0
 44 45  1  0  0  0  0
 45 46  2  0  0  0  0
 46 47  1  0  0  0  0
 47 48  1  0  0  0  0
 45 49  1  0  0  0  0
 49 50  1  0  0  0  0
 50 51  1  0  0  0  0
 51 52  1  0  0  0  0
 52 53  1  0  0  0  0
 53 54  1  0  0  0  0
 54 55  1  0  0  0  0
 55 56  1  0  0  0  0
 53 57  2  0  0  0  0
 57 58  1  0  0  0  0
 58 59  1  0  0  0  0
 59 60  1  0  0  0  0
 60 61  1  0  0  0  0
 61 62  1  0  0  0  0
 62 63  1  0  0  0  0
 63 64  1  0  0  0  0
 64 65  1  0  0  0  0
 65 66  1  0  0  0  0
 66 67  1  0  0  0  0
 64 68  1  0  0  0  0
 68 69  1  0  0  0  0
 61 70  1  0  0  0  0
 70 71  1  0  0  0  0
 57 72  1  0  0  0  0
 72 73  2  0  0  0  0
 73 74  1  0  0  0  0
 73 75  1  0  0  0  0
 75 76  1  0  0  0  0
 75 77  2  0  0  0  0
 77 78  1  0  0  0  0
 78 79  2  0  0  0  0
 79 80  1  0  0  0  0
 80 81  1  0  0  0  0
 81 82  1  0  0  0  0
 82 83  1  0  0  0  0
 83 84  1  0  0  0  0
 84 85  1  0  0  0  0
 83 86  2  0  0  0  0
 86 87  1  0  0  0  0
 86 88  1  0  0  0  0
 80 89  2  0  0  0  0
 89 90  1  0  0  0  0
 90 91  2  0  0  0  0
 89 92  1  0  0  0  0
 92 93  2  0  0  0  0
 93 94  1  0  0  0  0
 94 95  1  0  0  0  0
 94 96  2  0  0  0  0
 96 97  1  0  0  0  0
 97 98  1  0  0  0  0
 96 99  1  0  0  0  0
 77100  1  0  0  0  0
100101  2  0  0  0  0
101102  1  0  0  0  0
102103  2  0  0  0  0
102104  1  0  0  0  0
104105  2  0  0  0  0
105106  1  0  0  0  0
106107  1  0  0  0  0
106108  2  0  0  0  0
108109  1  0  0  0  0
108110  1  0  0  0  0
110111  2  0  0  0  0
111112  1  0  0  0  0
112113  2  0  0  0  0
113114  1  0  0  0  0
114115  3  0  0  0  0
113116  1  0  0  0  0
116117  3  0  0  0  0
 13  2  1  0  0  0  0
 35 19  1  0  0  0  0
 67 36  1  0  0  0  0
 91 72  1  0  0  0  0
 99 92  1  0  0  0  0
112101  1  0  0  0  0
 12  5  1  0  0  0  0
 30 22  1  0  0  0  0
 66 40  2  0  0  0  0
 91 78  1  0  0  0  0
111104  1  0  0  0  0
 65 42  2  0  0  0  0
 87 81  2  0  0  0  0
 63 43  2  0  0  0  0
 48 44  2  0  0  0  0
 62 49  2  0  0  0  0
 60 50  2  0  0  0  0
 59 52  2  0  0  0  0
  1118  1  0  0  0  0
  6119  1  0  0  0  0
  8120  1  0  0  0  0
  8121  1  0  0  0  0
  8122  1  0  0  0  0
 11123  1  0  0  0  0
 20124  1  0  0  0  0
 23125  1  0  0  0  0
 25126  1  0  0  0  0
 28127  1  0  0  0  0
 28128  1  0  0  0  0
 29129  1  0  0  0  0
 29130  1  0  0  0  0
 29131  1  0  0  0  0
 30132  1  0  0  0  0
 32133  1  0  0  0  0
 32134  1  0  0  0  0
 33135  1  0  0  0  0
 33136  1  0  0  0  0
 33137  1  0  0  0  0
 38138  1  0  0  0  0
 38139  1  0  0  0  0
 39140  1  0  0  0  0
 39141  1  0  0  0  0
 39142  1  0  0  0  0
 55143  1  0  0  0  0
 55144  1  0  0  0  0
 56145  1  0  0  0  0
 56146  1  0  0  0  0
 56147  1  0  0  0  0
 68148  1  0  0  0  0
 68149  1  0  0  0  0
 69150  1  0  0  0  0
 69151  1  0  0  0  0
 69152  1  0  0  0  0
 70153  1  0  0  0  0
 70154  1  0  0  0  0
 71155  1  0  0  0  0
 71156  1  0  0  0  0
 71157  1  0  0  0  0
 84158  1  0  0  0  0
 84159  1  0  0  0  0
 85160  1  0  0  0  0
 85161  1  0  0  0  0
 85162  1  0  0  0  0
 87163  1  0  0  0  0
 93164  1  0  0  0  0
 97165  1  0  0  0  0
 97166  1  0  0  0  0
 98167  1  0  0  0  0
 98168  1  0  0  0  0
 98169  1  0  0  0  0
100170  1  0  0  0  0
105171  1  0  0  0  0
107172  1  0  0  0  0
107173  1  0  0  0  0
107174  1  0  0  0  0
110175  1  0  0  0  0
M  END
