200

C          2.79800        4.23830       -5.00360
C          4.06670        4.16790       -5.50430
C          5.15830        5.15680       -5.31670
O          5.23000        6.06350       -4.51640
C          6.14350        4.85210       -6.37710
C          7.30310        5.53460       -6.68800
C          8.09390        5.09270       -7.74300
C          9.35870        5.78160       -8.13790
C          7.66490        3.96290       -8.44290
F          8.42020        3.53450       -9.47150
C          6.50950        3.25740       -8.14910
C          5.73610        3.71540       -7.09450
C          4.48610        3.22770       -6.52560
C          3.88430        2.03310       -6.82340
C          2.75920        1.49940       -6.16230
N          1.87830        0.95770       -5.66190
C          4.36180        1.12970       -7.79510
N          4.69430        0.34840       -8.56790
C          2.28350        5.00820       -3.92440
C          3.00530        5.45710       -2.82110
C          2.39940        6.02670       -1.71060
F          3.21680        6.25500       -0.66400
C          1.02410        6.25820       -1.57710
C          0.27470        5.85880       -2.72410
C          0.87860        5.22600       -3.86040
N         -0.02080        4.89060       -4.78000
S         -1.48390        5.32350       -4.26950
N         -1.04410        5.96050       -2.85660
C          0.33460        6.61400       -0.38210
C          0.81670        7.08610        0.84530
C          2.01910        7.89140        1.02170
C          2.35200        8.85010        0.06410
C          3.44990        9.66390        0.25630
C          4.22380        9.53420        1.39660
C          3.90530        8.58800        2.36310
C          4.77050        8.40850        3.57690
C          5.87820        7.39260        3.29070
C          2.80130        7.77440        2.16660
C         -0.08630        6.79210        1.88360
S          0.04590        6.77330        3.63610
C         -1.44870        5.89570        3.73470
C         -2.15600        5.07430        4.63830
C         -1.95870        4.70920        5.99110
C         -2.65870        3.56450        6.52560
N         -2.34670        3.33440        7.78950
S         -1.27600        4.44860        8.27520
N         -1.15590        5.26590        6.88170
C         -3.43330        2.76080        5.65430
C         -3.76850        1.39350        5.68760
S         -3.43480       -0.01420        6.65470
C         -3.68950       -1.04430        5.25350
C         -3.28210       -2.36570        4.92600
C         -2.75530       -3.35030        5.86670
C         -3.01040       -4.70630        5.66990
C         -2.50790       -5.64370        6.55110
C         -1.76280       -5.24290        7.64590
C         -1.52400       -3.89340        7.87770
C         -0.70380       -3.44980        9.05540
C          0.78300       -3.41800        8.69630
C         -2.02080       -2.95930        6.98290
C         -3.38330       -2.58470        3.56450
S         -4.18460       -1.26010        2.72570
C         -4.15860       -0.31800        4.16400
C         -4.20590        1.05930        4.40250
N         -4.22000        2.16140        3.59980
C         -3.71070        3.21120        4.33290
C         -3.16740        4.43040        3.87450
N         -3.16560        4.93120        2.58220
C         -2.06630        5.75110        2.48660
C         -1.28680        6.22840        1.43780
S         -1.33790        6.05980       -0.27550
C         -4.32680        5.19230        1.75300
C         -4.75810        6.65480        1.85620
C         -4.44260        2.02680        2.18060
C         -5.93200        1.97810        1.84670
C         -2.66150       -3.43320        2.64920
C         -1.80030       -2.87760        1.71170
N         -1.38580       -1.55370        1.67920
C         -1.21200       -0.94480        0.42030
C         -2.17900       -1.09730       -0.56730
C         -2.01460       -0.49170       -1.79910
C         -0.89680        0.28360       -2.07470
C         -0.71480        0.95460       -3.40000
C          0.06770        0.42340       -1.08150
C         -0.07840       -0.18350        0.14780
C         -1.01890       -0.86530        2.83970
C         -1.15350        0.52190        2.90210
C         -0.78450        1.21280        4.03810
C         -0.27610        0.55050        5.14880
C          0.09820        1.29730        6.39140
C         -0.13930       -0.83010        5.07770
C         -0.50430       -1.53410        3.94800
C         -1.34590       -3.84340        0.78610
S         -0.40280       -3.73040       -0.64820
C         -0.57540       -5.47090       -0.89910
C         -1.40080       -6.07360        0.08690
N         -1.77620       -7.38970        0.12950
C         -2.04480       -7.96530        1.38700
C         -3.17280       -8.75840        1.57900
C         -3.43210       -9.29800        2.82170
C         -2.58520       -9.06260        3.90070
C         -2.89530       -9.64780        5.24400
C         -1.45700       -8.27970        3.69640
C         -1.18180       -7.73950        2.45520
C         -2.02960       -8.14900       -1.02880
C         -2.63500       -7.56930       -2.14120
C         -2.84930       -8.32010       -3.27940
C         -2.49110       -9.66260       -3.33260
C         -2.68410      -10.46780       -4.58000
C         -1.92720      -10.24110       -2.20170
C         -1.69100       -9.49880       -1.06180
C         -1.82100       -5.12270        1.03520
S         -2.84740       -5.16400        2.43730
C          0.08090       -6.17670       -1.90690
C          0.79760       -5.71960       -2.99150
C          0.96450       -4.32190       -3.40140
O          0.65290       -3.31560       -2.78920
C          1.58850       -4.35940       -4.73680
C          1.91400       -3.30290       -5.56280
C          2.49390       -3.55920       -6.80170
C          2.86400       -2.46140       -7.74270
C          2.72250       -4.89400       -7.13910
F          3.28110       -5.15890       -8.33630
C          2.40620       -5.97170       -6.32530
C          1.82360       -5.69630       -5.09930
C          1.37720       -6.56420       -4.01020
C          1.51610       -7.93070       -3.97910
C          2.01030       -8.69800       -5.05240
N          2.37650       -9.38960       -5.89330
C          1.22380       -8.75770       -2.87810
N          1.04970       -9.50000       -2.01710
H          2.03530        3.64970       -5.50290
H          7.58560        6.40290       -6.11240
H          9.30690        6.09240       -9.18080
H         10.20270        5.09870       -8.04610
H          9.53590        6.65250       -7.51390
H          6.24720        2.39730       -8.74310
H          4.07060        5.30520       -2.77070
H          1.73920        8.95980       -0.81930
H          3.70370       10.40560       -0.48670
H          5.08260       10.17410        1.53930
H          4.16440        8.05560        4.41340
H          5.21980        9.36340        3.85690
H          6.50450        7.25460        4.16900
H          5.44710        6.43320        3.01470
H          6.50180        7.73450        2.46790
H          2.55940        7.02220        2.90260
H         -3.62560       -5.02270        4.84170
H         -2.70870       -6.69130        6.38360
H         -1.37590       -5.97950        8.33560
H         -1.02010       -2.45300        9.36850
H         -0.85600       -4.13610        9.89080
H          1.12020       -4.40410        8.38470
H          0.96090       -2.72320        7.87860
H          1.37470       -3.10270        9.55250
H         -1.82780       -1.91160        7.15300
H         -4.07990        4.95880        0.71190
H         -5.14670        4.56130        2.09000
H         -4.95990        6.91830        2.89250
H         -5.66230        6.80930        1.27380
H         -3.98320        7.31350        1.47330
H         -3.98600        1.08480        1.86140
H         -3.93270        2.83020        1.65510
H         -6.06640        1.92830        0.77010
H         -6.45620        2.85250        2.22680
H         -6.38090        1.09420        2.29270
H         -3.06010       -1.68880       -0.36150
H         -2.77380       -0.62270       -2.55680
H         -1.60610        0.85750       -4.01450
H         -0.49330        2.01340       -3.26710
H          0.12310        0.51280       -3.93620
H          0.95310        1.00930       -1.28300
H          0.68430       -0.07580        0.90520
H         -1.53810        1.05700        2.04620
H         -0.89240        2.28860        4.06140
H          0.93050        0.81430        6.89860
H         -0.74730        1.32330        7.08090
H          0.37460        2.32340        6.15740
H          0.27280       -1.36820        5.91850
H         -0.37510       -2.60610        3.91730
H         -3.84390       -8.93920        0.75250
H         -4.31340       -9.90680        2.96260
H         -2.97210      -10.73230        5.17750
H         -3.85030       -9.27120        5.60980
H         -2.12170       -9.39920        5.96620
H         -0.77920       -8.09010        4.51590
H         -0.29400       -7.14250        2.30640
H         -2.92240       -6.52830       -2.11300
H         -3.30850       -7.85490       -4.13990
H         -3.33090       -9.95060       -5.28420
H         -1.72120      -10.64080       -5.06160
H         -3.11740      -11.43890       -4.34880
H         -1.64520      -11.28270       -2.22110
H         -1.22750       -9.95440       -0.20090
H         -0.01560       -7.25190       -1.82920
H          1.71630       -2.28930       -5.24790
H          3.94720       -2.35070       -7.79190
H          2.51870       -2.68800       -8.74970
H          2.43570       -1.51730       -7.41800
H          2.61610       -6.97140       -6.66850
