175

C          9.61840       -5.74250        2.28020
C         10.53720       -5.09800        3.05990
C         11.93970       -5.58930        3.06600
O         12.34390       -6.63850        2.61800
C         12.72810       -4.50330        3.68550
C         14.09730       -4.40260        3.83430
C         14.63960       -3.26730        4.42690
C         16.11000       -3.09030        4.62010
C         13.75450       -2.27250        4.84640
F         14.27210       -1.16270        5.40700
C         12.37710       -2.35240        4.72010
C         11.85800       -3.49210        4.12890
C         10.47890       -3.90930        3.87700
C          9.37880       -3.39940        4.51930
C          8.10240       -3.99420        4.48990
N          7.05310       -4.45780        4.53750
C          9.40970       -2.26460        5.35410
N          9.37030       -1.33030        6.02020
C          8.37300       -5.28790        1.81020
C          7.86980       -4.00230        1.69790
C          6.59870       -3.93070        1.13830
C          5.89240       -2.65100        0.96250
C          5.50700       -1.94220        2.08910
C          4.79830       -0.75030        1.95370
C          4.48500       -0.27200        0.68450
C          4.89290       -0.97450       -0.44530
O          4.61520       -0.61520       -1.72940
C          3.91610        0.58150       -2.00060
C          4.80030        1.82150       -1.89880
C          5.61060       -2.15880       -0.30480
O          4.43820       -0.15730        3.12010
C          3.80640        1.10600        3.11910
C          4.77730        2.25010        2.83980
C          6.07370       -5.18430        0.81330
S          7.22380       -6.43290        1.16960
C          4.76570       -5.47190        0.33780
C          4.24390       -6.64430       -0.19270
C          4.95990       -7.93720       -0.40620
C          4.79830       -8.85340        0.80870
C          2.88720       -6.49480       -0.51890
S          1.70980       -7.58420       -1.22200
C          0.52940       -6.31730       -1.16190
C         -0.82860       -6.10060       -1.44690
C         -1.86350       -6.97960       -1.83840
C         -3.21420       -6.49110       -1.88550
N         -4.08370       -7.43990       -2.19440
S         -3.27610       -8.82600       -2.41480
N         -1.78470       -8.26990       -2.12160
C         -3.45470       -5.11480       -1.67440
C         -4.61930       -4.33730       -1.78530
S         -6.31370       -4.51290       -2.07860
C         -6.50620       -2.75920       -1.98910
C         -7.59070       -1.86390       -2.09520
O         -8.88630       -2.14180       -2.23530
C         -9.34260       -3.48360       -2.25230
C         -9.49230       -4.05150       -0.84630
C         -7.17760       -0.52250       -1.98390
S         -5.45860       -0.39310       -1.65050
C         -5.29190       -2.10930       -1.76330
C         -4.23120       -3.00410       -1.62690
N         -2.88690       -2.92100       -1.38020
C         -2.38910       -4.21280       -1.38940
C         -1.09780       -4.73650       -1.13600
N          0.04900       -4.16750       -0.61870
C          1.02830       -5.12020       -0.63740
C          2.36610       -5.22750       -0.24870
S          3.55600       -4.19380        0.44100
C          0.22160       -2.96800        0.16910
C          1.05470       -1.90670       -0.55030
C         -2.21330       -1.67580       -1.68470
C         -1.69280       -1.67720       -3.12000
C         -7.92280        0.68600       -2.08700
C         -9.20140        0.86300       -2.62780
F         -9.87990       -0.14680       -3.19060
C         -9.81730        2.11400       -2.70140
F        -11.02700        2.16980       -3.27580
C         -9.22530        3.29790       -2.27700
C         -7.93870        3.16130       -1.68480
N         -7.34920        4.19640       -1.08730
C         -6.09980        4.12590       -0.67180
C         -5.63830        5.27450        0.06740
S         -4.00100        5.53770        0.58130
C         -4.39070        7.06330        1.29090
C         -3.36900        7.90860        1.96750
C         -2.80540        7.22110        3.21160
C         -5.72600        7.31200        1.13420
C         -6.44270        6.31690        0.45590
F         -6.30620        8.43670        1.58160
C         -5.35260        2.93830       -0.93720
N         -6.00230        1.86680       -1.33170
C         -7.28730        1.90130       -1.66860
C         -3.91170        2.77430       -0.81870
C         -3.26020        1.76640       -0.16890
C         -1.87100        1.82280       -0.38340
F         -1.01730        0.93860        0.17430
C         -1.44580        2.83120       -1.19780
C         -0.05540        3.11850       -1.65390
C          0.35810        2.17770       -2.78860
S         -2.80570        3.75140       -1.73510
C         -9.86810        4.57660       -2.35030
C         -9.16300        5.73060       -2.47450
C         -7.73440        5.80390       -2.90530
O         -7.13030        5.02110       -3.60570
C         -7.27370        7.13730       -2.46920
C         -5.98640        7.63450       -2.42440
C         -5.76560        8.91240       -1.92480
C         -4.39640        9.49730       -1.80310
C         -6.88080        9.65100       -1.52130
F         -6.67350       10.89210       -1.04830
C         -8.18310        9.18260       -1.57200
C         -8.38000        7.89470       -2.04740
C         -9.59070        7.08280       -2.15930
C        -10.87090        7.52330       -1.96630
C        -11.20610        8.86040       -1.66300
N        -11.53860        9.93150       -1.42060
C        -12.02340        6.71590       -2.07720
N        -12.99910        6.11530       -2.14400
H          9.93370       -6.71990        1.92740
H         14.73510       -5.20290        3.49120
H         16.34010       -2.99660        5.68100
H         16.65820       -3.93370        4.21080
H         16.44590       -2.17480        4.13430
H         11.76380       -1.53790        5.06900
H          8.43060       -3.12400        1.96460
H          5.72080       -2.31540        3.07760
H          3.91640        0.63590        0.57830
H          3.56870        0.46170       -3.03110
H          3.03560        0.67140       -1.35190
H          4.22470        2.70750       -2.15350
H          5.63680        1.73360       -2.58700
H          5.19850        1.93620       -0.89390
H          5.91450       -2.69220       -1.19110
H          3.40320        1.20490        4.13060
H          2.96510        1.12120        2.41400
H          5.57340        2.24220        3.57950
H          5.22750        2.15000        1.85500
H          4.25260        3.20010        2.89460
H          4.52390       -8.42650       -1.28030
H          6.01910       -7.76220       -0.59970
H          5.20260       -8.38280        1.70130
H          5.32440       -9.78900        0.64140
H          3.74600       -9.07020        0.97550
H        -10.31850       -3.42270       -2.74060
H         -8.68150       -4.11100       -2.85860
H        -10.16780       -3.42830       -0.26560
H         -9.89820       -5.05670       -0.90430
H         -8.53120       -4.09320       -0.34000
H         -0.76180       -2.59290        0.45420
H          0.74410       -3.25060        1.08990
H          2.09580       -2.21500       -0.59920
H          0.99630       -0.97100       -0.00120
H          0.70170       -1.74570       -1.56520
H         -2.95740       -0.88470       -1.56660
H         -1.40480       -1.47970       -0.98800
H         -0.96360       -2.47220       -3.26470
H         -1.22610       -0.72250       -3.34690
H         -2.51340       -1.83350       -3.81630
H         -2.55140        8.11820        1.27270
H         -3.83700        8.85490        2.24600
H         -2.06300        7.85780        3.68500
H         -2.33660        6.27750        2.94130
H         -3.59900        7.02250        3.92780
H         -7.49820        6.35320        0.26810
H         -3.74730        1.03310        0.44490
H          0.62810        2.98930       -0.81090
H          0.00520        4.15270       -1.99380
H          0.34490        1.14560       -2.44640
H         -0.32560        2.27700       -3.62820
H          1.36260        2.41720       -3.12730
H        -10.94340        4.59070       -2.23020
H         -5.16160        7.02140       -2.75590
H         -3.63740        8.75140       -2.02220
H         -4.28260       10.33180       -2.49500
H         -4.24320        9.88750       -0.79770
H         -8.98560        9.81600       -1.23170
