179

C         -5.43070       -6.42390        6.78450
C         -4.91410       -5.66480        7.79990
C         -4.26730       -4.35240        7.66900
O         -3.91270       -3.79440        6.64590
C         -4.14410       -3.82550        9.04010
C         -3.65300       -2.60150        9.45040
C         -3.63030       -2.29500       10.80610
C         -3.11200       -0.99340       11.32350
C         -4.11540       -3.25870       11.69300
F         -4.10380       -2.96680       13.00670
C         -4.60850       -4.49510       11.30810
C         -4.62040       -4.78280        9.95280
C         -5.04240       -5.96970        9.21320
C         -5.39810       -7.17110        9.76390
C         -5.49410       -7.39590       11.15380
N         -5.59120       -7.63260       12.27260
C         -5.64530       -8.36240        9.04530
N         -5.80890       -9.38680        8.55370
C         -5.34130       -6.24980        5.39410
S         -4.39310       -5.03220        4.57710
C         -4.78570       -5.69870        3.02400
C         -5.56870       -6.85070        3.13350
C         -5.80960       -7.80630        2.04150
O         -5.17640       -7.78960        0.99960
C         -6.81500       -8.81580        2.36800
C         -7.33400       -9.71400        1.47220
C         -6.96580       -9.93470        0.05130
C         -5.82710      -10.95380       -0.05340
S         -8.53600      -10.70940        2.22360
C         -8.33560       -9.92920        3.75370
C         -9.16560      -10.33730        4.91530
C        -10.40170       -9.44010        5.03460
C         -7.39310       -8.93260        3.67390
C         -6.98840       -8.09740        4.80080
O         -7.52030       -8.15150        5.89860
C         -5.94460       -7.11130        4.46410
C         -4.40830       -4.98100        1.85860
C         -5.08550       -4.82410        0.65590
C         -6.37840       -5.42890        0.34210
C         -6.58670       -6.01100       -0.90390
C         -7.77970       -6.65790       -1.17020
C         -8.75990       -6.74710       -0.19860
C         -8.57730       -6.15110        1.04420
C         -9.64860       -6.22080        2.09470
C        -10.61570       -5.04360        1.96060
C         -7.39660       -5.46990        1.29080
C         -4.38860       -3.96210       -0.20810
S         -4.74050       -3.36300       -1.81260
C         -3.30250       -2.40390       -1.74240
C         -2.58200       -1.50710       -2.54240
C         -2.81750       -1.08250       -3.86740
C         -1.87830       -0.19540       -4.48340
N         -2.20120        0.09740       -5.73340
S         -3.57410       -0.67880       -6.10130
N         -3.80840       -1.41750       -4.67890
C         -0.78930        0.27740       -3.72010
C          0.19900        1.21460       -4.04590
S          0.67760        2.21230       -5.37840
C          1.93390        2.89710       -4.36660
C          2.90790        3.86710       -4.60520
C          3.05800        4.51400       -5.91390
C          1.98030        5.17890       -6.48570
C          2.12810        5.79810       -7.71320
C          3.34270        5.76100       -8.37110
C          4.42410        5.08010       -7.82390
C          5.76370        5.09820       -8.50250
C          6.56200        6.31970       -8.04010
C          4.26600        4.44610       -6.60320
C          3.70600        4.09150       -3.47650
S          3.26970        3.02260       -2.14560
C          1.97240        2.36330       -3.07240
C          0.97840        1.39340       -2.90000
N          0.51060        0.60150       -1.88860
C         -0.57030       -0.11810       -2.36380
C         -1.44600       -1.08320       -1.78830
N         -1.47270       -1.75490       -0.57770
C         -2.59410       -2.53680       -0.54600
C         -3.21200       -3.43260        0.33390
S         -2.93760       -4.02370        1.93160
C         -0.53140       -1.85670        0.51260
C         -0.96770       -1.02620        1.72060
C          1.12050        0.72910       -0.58630
C          2.42110       -0.06900       -0.48830
C          4.65260        5.13610       -3.33910
S          4.60000        6.44160       -4.48930
C          5.96840        7.23090       -3.75870
C          6.39540        6.53170       -2.62420
C          7.50000        6.98800       -1.76220
O          7.96390        8.11610       -1.80540
C          7.97150        5.96410       -0.83640
C          9.12590        6.04350       -0.09990
C         10.12220        7.14240       -0.05130
C          9.69150        8.21910        0.94970
S          9.32470        4.63120        0.88270
C          7.84480        3.93510        0.31800
C          7.36040        2.62150        0.81390
C          8.39650        1.86520        1.63260
C          7.24310        4.75590       -0.60610
C          5.99300        4.44730       -1.28750
O          5.30120        3.48430       -0.96610
C          5.66050        5.35160       -2.38120
C          6.66500        8.31200       -4.32660
C          6.36810        9.05130       -5.43860
C          5.09510        9.05720       -6.17750
O          4.13940        8.31940       -6.02630
C          5.18840       10.18260       -7.12570
C          4.23460       10.63570       -8.01620
C          4.51630       11.73770       -8.81550
C          3.53350       12.28820       -9.79600
C          5.77040       12.33560       -8.67040
F          6.04750       13.40850       -9.43400
C          6.74720       11.89590       -7.79170
C          6.44780       10.79530       -7.00480
C          7.23040       10.07000       -6.00810
C          8.56110       10.25430       -5.74400
C          9.35300        9.43250       -4.91110
N         10.09010        8.79120       -4.30790
C          9.34400       11.26520       -6.34070
N         10.02120       12.07580       -6.78960
H         -6.02410       -7.28570        7.06800
H         -3.29200       -1.89510        8.71840
H         -2.26250       -1.16410       11.98410
H         -2.80310       -0.34810       10.50650
H         -3.87980       -0.48840       11.90850
H         -4.96510       -5.17950       12.05990
H         -7.83480      -10.29670       -0.50190
H         -6.63230       -8.98730       -0.37520
H         -4.94460      -10.57100        0.45220
H         -5.58130      -11.12740       -1.09720
H         -6.11460      -11.89950        0.40170
H         -9.47680      -11.37670        4.79660
H         -8.57250      -10.23810        5.82650
H        -11.01430       -9.76670        5.87000
H        -10.09660       -8.41220        5.21040
H        -10.99670       -9.48380        4.12450
H         -5.80270       -5.98740       -1.64410
H         -7.93670       -7.11290       -2.13710
H         -9.67530       -7.28400       -0.40180
H         -9.19350       -6.20440        3.08800
H        -10.20220       -7.15660        1.99160
H        -11.08950       -5.05390        0.98160
H        -10.08250       -4.10220        2.07220
H        -11.38920       -5.09800        2.72300
H         -7.26250       -4.97060        2.24020
H          1.03980        5.22610       -5.95830
H          1.29130        6.32050       -8.15230
H          3.45790        6.26310       -9.32110
H          5.63490        5.14160       -9.58560
H          6.31990        4.19110       -8.25880
H          7.53550        6.34880       -8.52460
H          6.71060        6.28850       -6.96230
H          6.02440        7.23460       -8.28200
H          5.09540        3.90650       -6.16600
H         -0.49710       -2.91000        0.81120
H          0.46090       -1.58220        0.16660
H         -1.86570       -1.45080        2.16120
H         -1.18690        0.00210        1.43970
H         -0.18380       -1.02850        2.47270
H          0.40880        0.44580        0.18290
H          1.35740        1.78890       -0.44580
H          3.17820        0.37850       -1.12630
H          2.28010       -1.10160       -0.80230
H          2.78610       -0.05570        0.53480
H         11.09670        6.74240        0.23510
H         10.19440        7.59840       -1.04120
H         10.44700        8.99800        0.99860
H          9.56140        7.79230        1.94230
H          8.75450        8.66520        0.62800
H          7.03890        2.02670       -0.04650
H          6.45890        2.79220        1.41210
H          8.68550        2.43940        2.51050
H          7.99070        0.91240        1.96220
H          9.28800        1.67430        1.03900
H          7.56890        8.57290       -3.78800
H          3.28180       10.13260       -8.08260
H          3.96580       12.30180      -10.79580
H          2.62430       11.69450       -9.80710
H          3.28410       13.31710       -9.53820
H          7.68850       12.41790       -7.74240
