
  xtb     02242214403D
 energy: -405.767306072644 gnorm: 0.000522462097 xtb: 6.4.1 (unknown)
239263  0     0  0            999 V2000
   -6.4428   10.3079    2.9036 C   0  0  0  0  0  0  0  0  0  0  0  0
   -7.1387   11.1218    2.0315 C   0  0  0  0  0  0  0  0  0  0  0  0
   -8.2392   10.6526    1.1775 C   0  0  0  0  0  0  0  0  0  0  0  0
   -8.6713    9.5187    1.0798 O   0  0  0  0  0  0  0  0  0  0  0  0
   -8.8060   11.8723    0.5587 C   0  0  0  0  0  0  0  0  0  0  0  0
   -9.8617   11.9830   -0.3216 C   0  0  0  0  0  0  0  0  0  0  0  0
  -10.2234   13.2383   -0.8017 C   0  0  0  0  0  0  0  0  0  0  0  0
  -11.3501   13.4315   -1.7647 C   0  0  0  0  0  0  0  0  0  0  0  0
   -9.4915   14.3358   -0.3510 C   0  0  0  0  0  0  0  0  0  0  0  0
   -9.8361   15.5568   -0.8093 F   0  0  0  0  0  0  0  0  0  0  0  0
   -8.4314   14.2524    0.5384 C   0  0  0  0  0  0  0  0  0  0  0  0
   -8.0853   12.9941    0.9980 C   0  0  0  0  0  0  0  0  0  0  0  0
   -7.0276   12.5460    1.9013 C   0  0  0  0  0  0  0  0  0  0  0  0
   -6.0067   13.3227    2.3931 C   0  0  0  0  0  0  0  0  0  0  0  0
   -5.8734   14.6993    2.1384 C   0  0  0  0  0  0  0  0  0  0  0  0
   -5.7067   15.8200    1.9467 N   0  0  0  0  0  0  0  0  0  0  0  0
   -4.9231   12.8164    3.1367 C   0  0  0  0  0  0  0  0  0  0  0  0
   -3.9962   12.4680    3.7195 N   0  0  0  0  0  0  0  0  0  0  0  0
   -6.2521    8.9330    2.7643 C   0  0  0  0  0  0  0  0  0  0  0  0
   -6.2635    8.1019    1.6228 C   0  0  0  0  0  0  0  0  0  0  0  0
   -6.3308    8.4970    0.3182 N   0  0  0  0  0  0  0  0  0  0  0  0
   -6.8303    7.5937   -0.6454 C   0  0  0  0  0  0  0  0  0  0  0  0
   -6.1576    7.4164   -1.8491 C   0  0  0  0  0  0  0  0  0  0  0  0
   -6.6512    6.5329   -2.7896 C   0  0  0  0  0  0  0  0  0  0  0  0
   -7.8150    5.8113   -2.5542 C   0  0  0  0  0  0  0  0  0  0  0  0
   -8.3343    4.8341   -3.5631 C   0  0  0  0  0  0  0  0  0  0  0  0
   -8.4842    6.0061   -1.3506 C   0  0  0  0  0  0  0  0  0  0  0  0
   -8.0047    6.8873   -0.4033 C   0  0  0  0  0  0  0  0  0  0  0  0
   -5.9042    9.7579   -0.1188 C   0  0  0  0  0  0  0  0  0  0  0  0
   -6.6173   10.4266   -1.1117 C   0  0  0  0  0  0  0  0  0  0  0  0
   -6.2262   11.6881   -1.5203 C   0  0  0  0  0  0  0  0  0  0  0  0
   -5.1205   12.3136   -0.9609 C   0  0  0  0  0  0  0  0  0  0  0  0
   -4.7207   13.6982   -1.3621 C   0  0  0  0  0  0  0  0  0  0  0  0
   -4.3864   11.6185   -0.0017 C   0  0  0  0  0  0  0  0  0  0  0  0
   -4.7662   10.3612    0.4162 C   0  0  0  0  0  0  0  0  0  0  0  0
   -6.0659    6.7527    1.9966 C   0  0  0  0  0  0  0  0  0  0  0  0
   -5.9107    5.2809    1.0969 S   0  0  0  0  0  0  0  0  0  0  0  0
   -5.6139    4.3896    2.5780 C   0  0  0  0  0  0  0  0  0  0  0  0
   -5.5697    5.2025    3.7015 C   0  0  0  0  0  0  0  0  0  0  0  0
   -5.2491    4.7841    4.9791 N   0  0  0  0  0  0  0  0  0  0  0  0
   -5.8671    5.3958    6.0809 C   0  0  0  0  0  0  0  0  0  0  0  0
   -5.1527    5.6079    7.2575 C   0  0  0  0  0  0  0  0  0  0  0  0
   -5.7612    6.2118    8.3383 C   0  0  0  0  0  0  0  0  0  0  0  0
   -7.0867    6.6281    8.2787 C   0  0  0  0  0  0  0  0  0  0  0  0
   -7.7264    7.3098    9.4491 C   0  0  0  0  0  0  0  0  0  0  0  0
   -7.7899    6.4152    7.1007 C   0  0  0  0  0  0  0  0  0  0  0  0
   -7.1954    5.8048    6.0140 C   0  0  0  0  0  0  0  0  0  0  0  0
   -4.3410    3.7323    5.1744 C   0  0  0  0  0  0  0  0  0  0  0  0
   -3.2115    3.6084    4.3692 C   0  0  0  0  0  0  0  0  0  0  0  0
   -2.3736    2.5187    4.5062 C   0  0  0  0  0  0  0  0  0  0  0  0
   -2.6249    1.5340    5.4527 C   0  0  0  0  0  0  0  0  0  0  0  0
   -1.7575    0.3164    5.5530 C   0  0  0  0  0  0  0  0  0  0  0  0
   -3.7182    1.6985    6.2951 C   0  0  0  0  0  0  0  0  0  0  0  0
   -4.5645    2.7809    6.1665 C   0  0  0  0  0  0  0  0  0  0  0  0
   -5.8470    6.5466    3.3517 C   0  0  0  0  0  0  0  0  0  0  0  0
   -5.8726    8.0243    4.2384 S   0  0  0  0  0  0  0  0  0  0  0  0
   -5.3929    2.9728    2.5449 C   0  0  0  0  0  0  0  0  0  0  0  0
   -5.9874    2.0133    3.3385 C   0  0  0  0  0  0  0  0  0  0  0  0
   -7.1695    2.2640    4.1603 C   0  0  0  0  0  0  0  0  0  0  0  0
   -7.3577    1.5924    5.3652 C   0  0  0  0  0  0  0  0  0  0  0  0
   -8.4677    1.8642    6.1424 C   0  0  0  0  0  0  0  0  0  0  0  0
   -9.4059    2.7912    5.7261 C   0  0  0  0  0  0  0  0  0  0  0  0
   -9.2549    3.4454    4.5094 C   0  0  0  0  0  0  0  0  0  0  0  0
  -10.3038    4.4014    4.0165 C   0  0  0  0  0  0  0  0  0  0  0  0
  -11.4018    3.6473    3.2646 C   0  0  0  0  0  0  0  0  0  0  0  0
   -8.1391    3.1697    3.7359 C   0  0  0  0  0  0  0  0  0  0  0  0
   -5.3314    0.7688    3.2015 C   0  0  0  0  0  0  0  0  0  0  0  0
   -5.5615   -0.7920    3.9493 S   0  0  0  0  0  0  0  0  0  0  0  0
   -4.2228   -1.4085    3.0403 C   0  0  0  0  0  0  0  0  0  0  0  0
   -3.4648   -2.5863    2.9166 C   0  0  0  0  0  0  0  0  0  0  0  0
   -3.5043   -3.8096    3.6216 C   0  0  0  0  0  0  0  0  0  0  0  0
   -2.4731   -4.7851    3.3929 C   0  0  0  0  0  0  0  0  0  0  0  0
   -2.5996   -5.8462    4.1744 N   0  0  0  0  0  0  0  0  0  0  0  0
   -3.9045   -5.6421    5.1109 S   0  0  0  0  0  0  0  0  0  0  0  0
   -4.3574   -4.1891    4.5602 N   0  0  0  0  0  0  0  0  0  0  0  0
   -1.5133   -4.5415    2.3869 C   0  0  0  0  0  0  0  0  0  0  0  0
   -0.4357   -5.3037    1.8980 C   0  0  0  0  0  0  0  0  0  0  0  0
    0.3744   -6.7996    2.2243 S   0  0  0  0  0  0  0  0  0  0  0  0
    1.4867   -6.4564    0.9210 C   0  0  0  0  0  0  0  0  0  0  0  0
    2.6323   -7.1240    0.4448 C   0  0  0  0  0  0  0  0  0  0  0  0
    3.1246   -8.3770    1.0232 C   0  0  0  0  0  0  0  0  0  0  0  0
    4.4419   -8.4949    1.4580 C   0  0  0  0  0  0  0  0  0  0  0  0
    4.8773   -9.6824    2.0133 C   0  0  0  0  0  0  0  0  0  0  0  0
    4.0072  -10.7503    2.1497 C   0  0  0  0  0  0  0  0  0  0  0  0
    2.6844  -10.6412    1.7414 C   0  0  0  0  0  0  0  0  0  0  0  0
    1.7133  -11.7660    1.9533 C   0  0  0  0  0  0  0  0  0  0  0  0
    0.9501  -11.5626    3.2638 C   0  0  0  0  0  0  0  0  0  0  0  0
    2.2536   -9.4475    1.1816 C   0  0  0  0  0  0  0  0  0  0  0  0
    3.2385   -6.4129   -0.5727 C   0  0  0  0  0  0  0  0  0  0  0  0
    2.3950   -4.9132   -0.9459 S   0  0  0  0  0  0  0  0  0  0  0  0
    1.2210   -5.2480    0.2749 C   0  0  0  0  0  0  0  0  0  0  0  0
    0.1151   -4.5942    0.8282 C   0  0  0  0  0  0  0  0  0  0  0  0
   -0.5762   -3.4252    0.6284 N   0  0  0  0  0  0  0  0  0  0  0  0
   -1.5583   -3.3583    1.6024 C   0  0  0  0  0  0  0  0  0  0  0  0
   -2.4516   -2.3188    1.9560 C   0  0  0  0  0  0  0  0  0  0  0  0
   -2.5629   -0.9984    1.5443 N   0  0  0  0  0  0  0  0  0  0  0  0
   -3.6389   -0.4594    2.2004 C   0  0  0  0  0  0  0  0  0  0  0  0
   -4.2760    0.7850    2.2911 C   0  0  0  0  0  0  0  0  0  0  0  0
   -4.0878    2.3359    1.5591 S   0  0  0  0  0  0  0  0  0  0  0  0
   -1.5493   -0.1118    1.0054 C   0  0  0  0  0  0  0  0  0  0  0  0
   -0.2143   -0.2539    1.7274 C   0  0  0  0  0  0  0  0  0  0  0  0
   -0.6175   -2.8323   -0.6906 C   0  0  0  0  0  0  0  0  0  0  0  0
   -1.0986   -3.8356   -1.7385 C   0  0  0  0  0  0  0  0  0  0  0  0
    4.4030   -6.7206   -1.3342 C   0  0  0  0  0  0  0  0  0  0  0  0
    5.1945   -5.8194   -1.9885 C   0  0  0  0  0  0  0  0  0  0  0  0
    6.3077   -6.4017   -2.6371 C   0  0  0  0  0  0  0  0  0  0  0  0
    7.3279   -5.7520   -3.3488 C   0  0  0  0  0  0  0  0  0  0  0  0
    7.2842   -4.3049   -3.5917 C   0  0  0  0  0  0  0  0  0  0  0  0
    6.1482   -3.7091   -4.1382 C   0  0  0  0  0  0  0  0  0  0  0  0
    6.1201   -2.3553   -4.3940 C   0  0  0  0  0  0  0  0  0  0  0  0
    7.2099   -1.5389   -4.0976 C   0  0  0  0  0  0  0  0  0  0  0  0
    7.0410    0.1896   -4.4319 S   0  0  0  0  0  0  0  0  0  0  0  0
    8.6883    0.6893   -5.0555 C   0  0  0  0  0  0  0  0  0  0  0  0
    9.1203   -0.1334   -6.2524 C   0  0  0  0  0  0  0  0  0  0  0  0
    8.3229   -2.1417   -3.5194 C   0  0  0  0  0  0  0  0  0  0  0  0
    9.3941   -1.4058   -3.1518 F   0  0  0  0  0  0  0  0  0  0  0  0
    8.3769   -3.5008   -3.2868 C   0  0  0  0  0  0  0  0  0  0  0  0
    8.3696   -6.5411   -3.8149 C   0  0  0  0  0  0  0  0  0  0  0  0
    8.4024   -7.9515   -3.6368 C   0  0  0  0  0  0  0  0  0  0  0  0
    7.3553   -8.6123   -2.9542 C   0  0  0  0  0  0  0  0  0  0  0  0
    7.3374  -10.0685   -2.7900 C   0  0  0  0  0  0  0  0  0  0  0  0
    7.0937  -10.6542   -1.5469 C   0  0  0  0  0  0  0  0  0  0  0  0
    7.0540  -12.0227   -1.4130 C   0  0  0  0  0  0  0  0  0  0  0  0
    7.2525  -12.8750   -2.5029 C   0  0  0  0  0  0  0  0  0  0  0  0
    7.1939  -14.5975   -2.1451 S   0  0  0  0  0  0  0  0  0  0  0  0
    6.9582  -15.4435   -3.7577 C   0  0  0  0  0  0  0  0  0  0  0  0
    6.5683  -16.8840   -3.4895 C   0  0  0  0  0  0  0  0  0  0  0  0
    7.5066  -12.2759   -3.7337 C   0  0  0  0  0  0  0  0  0  0  0  0
    7.5445  -10.9040   -3.8826 C   0  0  0  0  0  0  0  0  0  0  0  0
    7.7269  -13.0137   -4.8463 F   0  0  0  0  0  0  0  0  0  0  0  0
    6.3474   -7.8101   -2.4531 C   0  0  0  0  0  0  0  0  0  0  0  0
    4.9674   -8.3675   -1.5368 S   0  0  0  0  0  0  0  0  0  0  0  0
    9.5762   -8.5029   -4.1716 C   0  0  0  0  0  0  0  0  0  0  0  0
   10.4174   -7.5793   -4.7680 C   0  0  0  0  0  0  0  0  0  0  0  0
    9.7594   -5.9568   -4.6847 S   0  0  0  0  0  0  0  0  0  0  0  0
   11.6522   -7.9607   -5.3307 C   0  0  0  0  0  0  0  0  0  0  0  0
   12.6304   -7.2127   -5.9254 C   0  0  0  0  0  0  0  0  0  0  0  0
   12.6069   -5.7540   -6.1369 C   0  0  0  0  0  0  0  0  0  0  0  0
   11.7134   -4.9744   -5.8705 O   0  0  0  0  0  0  0  0  0  0  0  0
   13.9012   -5.4141   -6.7551 C   0  0  0  0  0  0  0  0  0  0  0  0
   14.3744   -4.1700   -7.1239 C   0  0  0  0  0  0  0  0  0  0  0  0
   15.6391   -4.0615   -7.6904 C   0  0  0  0  0  0  0  0  0  0  0  0
   16.2194   -2.7512   -8.1099 C   0  0  0  0  0  0  0  0  0  0  0  0
   16.3713   -5.2389   -7.8596 C   0  0  0  0  0  0  0  0  0  0  0  0
   17.5972   -5.1441   -8.4068 F   0  0  0  0  0  0  0  0  0  0  0  0
   15.9191   -6.4977   -7.4992 C   0  0  0  0  0  0  0  0  0  0  0  0
   14.6562   -6.5851   -6.9339 C   0  0  0  0  0  0  0  0  0  0  0  0
   13.8885   -7.7261   -6.4405 C   0  0  0  0  0  0  0  0  0  0  0  0
   14.3073   -9.0302   -6.4756 C   0  0  0  0  0  0  0  0  0  0  0  0
   15.5489   -9.4460   -7.0032 C   0  0  0  0  0  0  0  0  0  0  0  0
   16.5383   -9.8554   -7.4164 N   0  0  0  0  0  0  0  0  0  0  0  0
   13.5862  -10.1486   -6.0068 C   0  0  0  0  0  0  0  0  0  0  0  0
   13.0744  -11.1145   -5.6536 N   0  0  0  0  0  0  0  0  0  0  0  0
   -6.0286   10.7499    3.8019 H   0  0  0  0  0  0  0  0  0  0  0  0
  -10.3945   11.0990   -0.6382 H   0  0  0  0  0  0  0  0  0  0  0  0
  -10.9941   13.9242   -2.6688 H   0  0  0  0  0  0  0  0  0  0  0  0
  -12.1126   14.0739   -1.3253 H   0  0  0  0  0  0  0  0  0  0  0  0
  -11.7988   12.4787   -2.0304 H   0  0  0  0  0  0  0  0  0  0  0  0
   -7.9231   15.1524    0.8429 H   0  0  0  0  0  0  0  0  0  0  0  0
   -5.2500    7.9700   -2.0409 H   0  0  0  0  0  0  0  0  0  0  0  0
   -6.1193    6.3996   -3.7204 H   0  0  0  0  0  0  0  0  0  0  0  0
   -7.9403    5.0487   -4.5533 H   0  0  0  0  0  0  0  0  0  0  0  0
   -8.0327    3.8228   -3.2889 H   0  0  0  0  0  0  0  0  0  0  0  0
   -9.4213    4.8589   -3.6015 H   0  0  0  0  0  0  0  0  0  0  0  0
   -9.3994    5.4652   -1.1579 H   0  0  0  0  0  0  0  0  0  0  0  0
   -8.5433    7.0648    0.5143 H   0  0  0  0  0  0  0  0  0  0  0  0
   -7.4850    9.9566   -1.5495 H   0  0  0  0  0  0  0  0  0  0  0  0
   -6.8032   12.1989   -2.2774 H   0  0  0  0  0  0  0  0  0  0  0  0
   -5.3217   14.0516   -2.1958 H   0  0  0  0  0  0  0  0  0  0  0  0
   -3.6704   13.7258   -1.6473 H   0  0  0  0  0  0  0  0  0  0  0  0
   -4.8522   14.3868   -0.5272 H   0  0  0  0  0  0  0  0  0  0  0  0
   -3.5074   12.0755    0.4289 H   0  0  0  0  0  0  0  0  0  0  0  0
   -4.1831    9.8438    1.1633 H   0  0  0  0  0  0  0  0  0  0  0  0
   -4.1195    5.2989    7.3161 H   0  0  0  0  0  0  0  0  0  0  0  0
   -5.1940    6.3716    9.2439 H   0  0  0  0  0  0  0  0  0  0  0  0
   -7.3733    6.8844   10.3860 H   0  0  0  0  0  0  0  0  0  0  0  0
   -8.8093    7.2219    9.4065 H   0  0  0  0  0  0  0  0  0  0  0  0
   -7.4721    8.3703    9.4462 H   0  0  0  0  0  0  0  0  0  0  0  0
   -8.8223    6.7258    7.0310 H   0  0  0  0  0  0  0  0  0  0  0  0
   -7.7637    5.6307    5.1135 H   0  0  0  0  0  0  0  0  0  0  0  0
   -2.9977    4.3651    3.6281 H   0  0  0  0  0  0  0  0  0  0  0  0
   -1.5104    2.4340    3.8607 H   0  0  0  0  0  0  0  0  0  0  0  0
   -0.7465    0.5282    5.2109 H   0  0  0  0  0  0  0  0  0  0  0  0
   -1.7124   -0.0440    6.5779 H   0  0  0  0  0  0  0  0  0  0  0  0
   -2.1677   -0.4862    4.9371 H   0  0  0  0  0  0  0  0  0  0  0  0
   -3.9197    0.9561    7.0536 H   0  0  0  0  0  0  0  0  0  0  0  0
   -5.4175    2.8887    6.8190 H   0  0  0  0  0  0  0  0  0  0  0  0
   -6.6268    0.8727    5.6983 H   0  0  0  0  0  0  0  0  0  0  0  0
   -8.6001    1.3494    7.0827 H   0  0  0  0  0  0  0  0  0  0  0  0
  -10.2661    3.0045    6.3440 H   0  0  0  0  0  0  0  0  0  0  0  0
   -9.8529    5.1382    3.3477 H   0  0  0  0  0  0  0  0  0  0  0  0
  -10.7458    4.9325    4.8622 H   0  0  0  0  0  0  0  0  0  0  0  0
  -12.1564    4.3395    2.8982 H   0  0  0  0  0  0  0  0  0  0  0  0
  -10.9791    3.1118    2.4173 H   0  0  0  0  0  0  0  0  0  0  0  0
  -11.8816    2.9242    3.9203 H   0  0  0  0  0  0  0  0  0  0  0  0
   -8.0272    3.6587    2.7786 H   0  0  0  0  0  0  0  0  0  0  0  0
    5.1127   -7.6526    1.3707 H   0  0  0  0  0  0  0  0  0  0  0  0
    5.9001   -9.7745    2.3485 H   0  0  0  0  0  0  0  0  0  0  0  0
    4.3565  -11.6758    2.5842 H   0  0  0  0  0  0  0  0  0  0  0  0
    2.2473  -12.7175    1.9881 H   0  0  0  0  0  0  0  0  0  0  0  0
    1.0023  -11.8022    1.1254 H   0  0  0  0  0  0  0  0  0  0  0  0
    0.2362  -12.3685    3.4174 H   0  0  0  0  0  0  0  0  0  0  0  0
    0.4113  -10.6180    3.2455 H   0  0  0  0  0  0  0  0  0  0  0  0
    1.6406  -11.5451    4.1041 H   0  0  0  0  0  0  0  0  0  0  0  0
    1.2292   -9.3507    0.8515 H   0  0  0  0  0  0  0  0  0  0  0  0
   -1.4211   -0.2531   -0.0711 H   0  0  0  0  0  0  0  0  0  0  0  0
   -1.9292    0.9032    1.1470 H   0  0  0  0  0  0  0  0  0  0  0  0
    0.4854    0.4838    1.3441 H   0  0  0  0  0  0  0  0  0  0  0  0
   -0.3492   -0.0880    2.7934 H   0  0  0  0  0  0  0  0  0  0  0  0
    0.2113   -1.2428    1.5842 H   0  0  0  0  0  0  0  0  0  0  0  0
    0.3837   -2.4729   -0.9493 H   0  0  0  0  0  0  0  0  0  0  0  0
   -1.3132   -1.9994   -0.6735 H   0  0  0  0  0  0  0  0  0  0  0  0
   -1.1823   -3.3416   -2.7025 H   0  0  0  0  0  0  0  0  0  0  0  0
   -2.0744   -4.2289   -1.4606 H   0  0  0  0  0  0  0  0  0  0  0  0
   -0.4035   -4.6644   -1.8361 H   0  0  0  0  0  0  0  0  0  0  0  0
    5.0090   -4.7601   -1.9654 H   0  0  0  0  0  0  0  0  0  0  0  0
    5.2964   -4.3204   -4.3947 H   0  0  0  0  0  0  0  0  0  0  0  0
    5.2468   -1.9000   -4.8349 H   0  0  0  0  0  0  0  0  0  0  0  0
    8.5408    1.7345   -5.3285 H   0  0  0  0  0  0  0  0  0  0  0  0
    9.4071    0.6336   -4.2410 H   0  0  0  0  0  0  0  0  0  0  0  0
    8.3631   -0.0994   -7.0333 H   0  0  0  0  0  0  0  0  0  0  0  0
    9.2845   -1.1727   -5.9741 H   0  0  0  0  0  0  0  0  0  0  0  0
   10.0513    0.2652   -6.6506 H   0  0  0  0  0  0  0  0  0  0  0  0
    9.2668   -3.9128   -2.8384 H   0  0  0  0  0  0  0  0  0  0  0  0
    6.9489  -10.0325   -0.6775 H   0  0  0  0  0  0  0  0  0  0  0  0
    6.8652  -12.4686   -0.4489 H   0  0  0  0  0  0  0  0  0  0  0  0
    6.1708  -14.9161   -4.2937 H   0  0  0  0  0  0  0  0  0  0  0  0
    7.8910  -15.3870   -4.3160 H   0  0  0  0  0  0  0  0  0  0  0  0
    5.6454  -16.9307   -2.9156 H   0  0  0  0  0  0  0  0  0  0  0  0
    6.4209  -17.4042   -4.4333 H   0  0  0  0  0  0  0  0  0  0  0  0
    7.3491  -17.3931   -2.9290 H   0  0  0  0  0  0  0  0  0  0  0  0
    7.7159  -10.4999   -4.8684 H   0  0  0  0  0  0  0  0  0  0  0  0
    9.8285   -9.5469   -4.1086 H   0  0  0  0  0  0  0  0  0  0  0  0
   11.8340   -9.0259   -5.2509 H   0  0  0  0  0  0  0  0  0  0  0  0
   13.7615   -3.2954   -6.9675 H   0  0  0  0  0  0  0  0  0  0  0  0
   16.4443   -2.7640   -9.1759 H   0  0  0  0  0  0  0  0  0  0  0  0
   17.1566   -2.5702   -7.5845 H   0  0  0  0  0  0  0  0  0  0  0  0
   15.5304   -1.9384   -7.9005 H   0  0  0  0  0  0  0  0  0  0  0  0
   16.5538   -7.3521   -7.6653 H   0  0  0  0  0  0  0  0  0  0  0  0
  1  2  2  0  0  0  0
  2  3  1  0  0  0  0
  3  4  2  0  0  0  0
  3  5  1  0  0  0  0
  5  6  2  0  0  0  0
  6  7  1  0  0  0  0
  7  8  1  0  0  0  0
  7  9  2  0  0  0  0
  9 10  1  0  0  0  0
  9 11  1  0  0  0  0
 11 12  2  0  0  0  0
 12 13  1  0  0  0  0
 13 14  2  0  0  0  0
 14 15  1  0  0  0  0
 15 16  3  0  0  0  0
 14 17  1  0  0  0  0
 17 18  3  0  0  0  0
  1 19  1  0  0  0  0
 19 20  2  0  0  0  0
 20 21  1  0  0  0  0
 21 22  1  0  0  0  0
 22 23  2  0  0  0  0
 23 24  1  0  0  0  0
 24 25  2  0  0  0  0
 25 26  1  0  0  0  0
 25 27  1  0  0  0  0
 27 28  2  0  0  0  0
 21 29  1  0  0  0  0
 29 30  2  0  0  0  0
 30 31  1  0  0  0  0
 31 32  2  0  0  0  0
 32 33  1  0  0  0  0
 32 34  1  0  0  0  0
 34 35  2  0  0  0  0
 20 36  1  0  0  0  0
 36 37  1  0  0  0  0
 37 38  1  0  0  0  0
 38 39  2  0  0  0  0
 39 40  1  0  0  0  0
 40 41  1  0  0  0  0
 41 42  2  0  0  0  0
 42 43  1  0  0  0  0
 43 44  2  0  0  0  0
 44 45  1  0  0  0  0
 44 46  1  0  0  0  0
 46 47  2  0  0  0  0
 40 48  1  0  0  0  0
 48 49  2  0  0  0  0
 49 50  1  0  0  0  0
 50 51  2  0  0  0  0
 51 52  1  0  0  0  0
 51 53  1  0  0  0  0
 53 54  2  0  0  0  0
 39 55  1  0  0  0  0
 55 56  1  0  0  0  0
 38 57  1  0  0  0  0
 57 58  2  0  0  0  0
 58 59  1  0  0  0  0
 59 60  2  0  0  0  0
 60 61  1  0  0  0  0
 61 62  2  0  0  0  0
 62 63  1  0  0  0  0
 63 64  1  0  0  0  0
 64 65  1  0  0  0  0
 63 66  2  0  0  0  0
 58 67  1  0  0  0  0
 67 68  1  0  0  0  0
 68 69  1  0  0  0  0
 69 70  1  0  0  0  0
 70 71  1  0  0  0  0
 71 72  1  0  0  0  0
 72 73  2  0  0  0  0
 73 74  1  0  0  0  0
 74 75  1  0  0  0  0
 72 76  1  0  0  0  0
 76 77  1  0  0  0  0
 77 78  1  0  0  0  0
 78 79  1  0  0  0  0
 79 80  1  0  0  0  0
 80 81  1  0  0  0  0
 81 82  2  0  0  0  0
 82 83  1  0  0  0  0
 83 84  2  0  0  0  0
 84 85  1  0  0  0  0
 85 86  1  0  0  0  0
 86 87  1  0  0  0  0
 85 88  2  0  0  0  0
 80 89  2  0  0  0  0
 89 90  1  0  0  0  0
 90 91  1  0  0  0  0
 91 92  1  0  0  0  0
 92 93  1  0  0  0  0
 93 94  1  0  0  0  0
 94 95  1  0  0  0  0
 95 96  1  0  0  0  0
 96 97  1  0  0  0  0
 97 98  1  0  0  0  0
 98 99  1  0  0  0  0
 96100  1  0  0  0  0
100101  1  0  0  0  0
 93102  1  0  0  0  0
102103  1  0  0  0  0
 89104  1  0  0  0  0
104105  2  0  0  0  0
105106  1  0  0  0  0
106107  2  0  0  0  0
107108  1  0  0  0  0
108109  2  0  0  0  0
109110  1  0  0  0  0
110111  2  0  0  0  0
111112  1  0  0  0  0
112113  1  0  0  0  0
113114  1  0  0  0  0
111115  1  0  0  0  0
115116  1  0  0  0  0
115117  2  0  0  0  0
107118  1  0  0  0  0
118119  2  0  0  0  0
119120  1  0  0  0  0
120121  1  0  0  0  0
121122  2  0  0  0  0
122123  1  0  0  0  0
123124  2  0  0  0  0
124125  1  0  0  0  0
125126  1  0  0  0  0
126127  1  0  0  0  0
124128  1  0  0  0  0
128129  2  0  0  0  0
128130  1  0  0  0  0
120131  2  0  0  0  0
131132  1  0  0  0  0
119133  1  0  0  0  0
133134  2  0  0  0  0
134135  1  0  0  0  0
134136  1  0  0  0  0
136137  2  0  0  0  0
137138  1  0  0  0  0
138139  2  0  0  0  0
138140  1  0  0  0  0
140141  2  0  0  0  0
141142  1  0  0  0  0
142143  1  0  0  0  0
142144  2  0  0  0  0
144145  1  0  0  0  0
144146  1  0  0  0  0
146147  2  0  0  0  0
147148  1  0  0  0  0
148149  2  0  0  0  0
149150  1  0  0  0  0
150151  3  0  0  0  0
149152  1  0  0  0  0
152153  3  0  0  0  0
 13  2  1  0  0  0  0
 56 19  1  0  0  0  0
 99 57  1  0  0  0  0
132104  1  0  0  0  0
148137  1  0  0  0  0
 12  5  1  0  0  0  0
 28 22  1  0  0  0  0
 35 29  1  0  0  0  0
 55 36  2  0  0  0  0
 66 59  1  0  0  0  0
 98 67  2  0  0  0  0
131106  1  0  0  0  0
147140  1  0  0  0  0
 47 41  1  0  0  0  0
 54 48  1  0  0  0  0
 97 69  2  0  0  0  0
117108  1  0  0  0  0
135118  1  0  0  0  0
 95 70  2  0  0  0  0
129121  1  0  0  0  0
 75 71  2  0  0  0  0
 94 76  2  0  0  0  0
 92 77  2  0  0  0  0
 91 79  2  0  0  0  0
 88 81  1  0  0  0  0
  1154  1  0  0  0  0
  6155  1  0  0  0  0
  8156  1  0  0  0  0
  8157  1  0  0  0  0
  8158  1  0  0  0  0
 11159  1  0  0  0  0
 23160  1  0  0  0  0
 24161  1  0  0  0  0
 26162  1  0  0  0  0
 26163  1  0  0  0  0
 26164  1  0  0  0  0
 27165  1  0  0  0  0
 28166  1  0  0  0  0
 30167  1  0  0  0  0
 31168  1  0  0  0  0
 33169  1  0  0  0  0
 33170  1  0  0  0  0
 33171  1  0  0  0  0
 34172  1  0  0  0  0
 35173  1  0  0  0  0
 42174  1  0  0  0  0
 43175  1  0  0  0  0
 45176  1  0  0  0  0
 45177  1  0  0  0  0
 45178  1  0  0  0  0
 46179  1  0  0  0  0
 47180  1  0  0  0  0
 49181  1  0  0  0  0
 50182  1  0  0  0  0
 52183  1  0  0  0  0
 52184  1  0  0  0  0
 52185  1  0  0  0  0
 53186  1  0  0  0  0
 54187  1  0  0  0  0
 60188  1  0  0  0  0
 61189  1  0  0  0  0
 62190  1  0  0  0  0
 64191  1  0  0  0  0
 64192  1  0  0  0  0
 65193  1  0  0  0  0
 65194  1  0  0  0  0
 65195  1  0  0  0  0
 66196  1  0  0  0  0
 82197  1  0  0  0  0
 83198  1  0  0  0  0
 84199  1  0  0  0  0
 86200  1  0  0  0  0
 86201  1  0  0  0  0
 87202  1  0  0  0  0
 87203  1  0  0  0  0
 87204  1  0  0  0  0
 88205  1  0  0  0  0
100206  1  0  0  0  0
100207  1  0  0  0  0
101208  1  0  0  0  0
101209  1  0  0  0  0
101210  1  0  0  0  0
102211  1  0  0  0  0
102212  1  0  0  0  0
103213  1  0  0  0  0
103214  1  0  0  0  0
103215  1  0  0  0  0
105216  1  0  0  0  0
109217  1  0  0  0  0
110218  1  0  0  0  0
113219  1  0  0  0  0
113220  1  0  0  0  0
114221  1  0  0  0  0
114222  1  0  0  0  0
114223  1  0  0  0  0
117224  1  0  0  0  0
122225  1  0  0  0  0
123226  1  0  0  0  0
126227  1  0  0  0  0
126228  1  0  0  0  0
127229  1  0  0  0  0
127230  1  0  0  0  0
127231  1  0  0  0  0
129232  1  0  0  0  0
133233  1  0  0  0  0
136234  1  0  0  0  0
141235  1  0  0  0  0
143236  1  0  0  0  0
143237  1  0  0  0  0
143238  1  0  0  0  0
146239  1  0  0  0  0
M  END
