
  xtb     02042219243D
 energy: -285.102621298664 gnorm: 0.000457997353 xtb: 6.4.1 (unknown)
153170  0     0  0            999 V2000
   -8.3482    6.8713   -8.6651 C   0  0  0  0  0  0  0  0  0  0  0  0
   -9.4502    6.4284   -9.3581 C   0  0  0  0  0  0  0  0  0  0  0  0
  -10.0870    5.0967   -9.3364 C   0  0  0  0  0  0  0  0  0  0  0  0
   -9.7185    4.0722   -8.7922 O   0  0  0  0  0  0  0  0  0  0  0  0
  -11.3222    5.2288  -10.1343 C   0  0  0  0  0  0  0  0  0  0  0  0
  -12.2844    4.2690  -10.3793 C   0  0  0  0  0  0  0  0  0  0  0  0
  -13.3919    4.5948  -11.1534 C   0  0  0  0  0  0  0  0  0  0  0  0
  -14.4742    3.6112  -11.4578 C   0  0  0  0  0  0  0  0  0  0  0  0
  -13.4680    5.8976  -11.6490 C   0  0  0  0  0  0  0  0  0  0  0  0
  -14.5394    6.2252  -12.3969 F   0  0  0  0  0  0  0  0  0  0  0  0
  -12.5143    6.8763  -11.4208 C   0  0  0  0  0  0  0  0  0  0  0  0
  -11.4180    6.5312  -10.6461 C   0  0  0  0  0  0  0  0  0  0  0  0
  -10.2467    7.2910  -10.2144 C   0  0  0  0  0  0  0  0  0  0  0  0
   -9.9682    8.5754  -10.6063 C   0  0  0  0  0  0  0  0  0  0  0  0
   -8.8224    9.3303  -10.2773 C   0  0  0  0  0  0  0  0  0  0  0  0
   -7.9257   10.0223  -10.0833 N   0  0  0  0  0  0  0  0  0  0  0  0
  -10.8054    9.3402  -11.4464 C   0  0  0  0  0  0  0  0  0  0  0  0
  -11.4364   10.0226  -12.1206 N   0  0  0  0  0  0  0  0  0  0  0  0
   -7.4665    6.2187   -7.7932 C   0  0  0  0  0  0  0  0  0  0  0  0
   -6.2210    7.2445   -7.0441 S   0  0  0  0  0  0  0  0  0  0  0  0
   -5.6008    5.8937   -6.1893 C   0  0  0  0  0  0  0  0  0  0  0  0
   -4.6132    5.5311   -5.2795 C   0  0  0  0  0  0  0  0  0  0  0  0
   -4.7651    4.1441   -5.0445 C   0  0  0  0  0  0  0  0  0  0  0  0
   -5.8162    3.6584   -5.7689 N   0  0  0  0  0  0  0  0  0  0  0  0
   -6.2212    2.2805   -5.8771 C   0  0  0  0  0  0  0  0  0  0  0  0
   -5.4492    1.5565   -6.9781 C   0  0  0  0  0  0  0  0  0  0  0  0
   -6.3305    4.7081   -6.4872 C   0  0  0  0  0  0  0  0  0  0  0  0
   -7.3679    4.8936   -7.3839 C   0  0  0  0  0  0  0  0  0  0  0  0
   -3.8438    3.6349   -4.1290 C   0  0  0  0  0  0  0  0  0  0  0  0
   -2.9977    4.6172   -3.6526 C   0  0  0  0  0  0  0  0  0  0  0  0
   -3.3171    6.1988   -4.3507 S   0  0  0  0  0  0  0  0  0  0  0  0
   -1.9343    4.4051   -2.7337 C   0  0  0  0  0  0  0  0  0  0  0  0
   -1.1335    5.3087   -2.0618 C   0  0  0  0  0  0  0  0  0  0  0  0
   -1.2833    6.7672   -2.0510 C   0  0  0  0  0  0  0  0  0  0  0  0
   -2.4826    7.3584   -1.6650 C   0  0  0  0  0  0  0  0  0  0  0  0
   -2.5808    8.7354   -1.6102 C   0  0  0  0  0  0  0  0  0  0  0  0
   -1.4904    9.5265   -1.9278 C   0  0  0  0  0  0  0  0  0  0  0  0
   -0.2827    8.9510   -2.3008 C   0  0  0  0  0  0  0  0  0  0  0  0
    0.9254    9.7979   -2.5765 C   0  0  0  0  0  0  0  0  0  0  0  0
    1.7731    9.9319   -1.3095 C   0  0  0  0  0  0  0  0  0  0  0  0
   -0.1900    7.5684   -2.3552 C   0  0  0  0  0  0  0  0  0  0  0  0
   -0.1427    4.6546   -1.3035 C   0  0  0  0  0  0  0  0  0  0  0  0
    1.1070    5.2546   -0.2402 S   0  0  0  0  0  0  0  0  0  0  0  0
    1.5522    3.6189    0.1147 C   0  0  0  0  0  0  0  0  0  0  0  0
    2.4450    2.9119    0.9351 C   0  0  0  0  0  0  0  0  0  0  0  0
    3.3491    3.3627    1.9215 C   0  0  0  0  0  0  0  0  0  0  0  0
    4.0228    2.3949    2.7375 C   0  0  0  0  0  0  0  0  0  0  0  0
    4.7882    2.9560    3.6607 N   0  0  0  0  0  0  0  0  0  0  0  0
    4.6754    4.5643    3.5110 S   0  0  0  0  0  0  0  0  0  0  0  0
    3.6434    4.6069    2.2650 N   0  0  0  0  0  0  0  0  0  0  0  0
    3.8473    1.0231    2.4537 C   0  0  0  0  0  0  0  0  0  0  0  0
    4.4378   -0.1181    3.0186 C   0  0  0  0  0  0  0  0  0  0  0  0
    5.5102   -0.5408    4.3086 S   0  0  0  0  0  0  0  0  0  0  0  0
    5.3802   -2.2184    3.8363 C   0  0  0  0  0  0  0  0  0  0  0  0
    5.9134   -3.4070    4.3739 C   0  0  0  0  0  0  0  0  0  0  0  0
    6.6888   -3.4483    5.6122 C   0  0  0  0  0  0  0  0  0  0  0  0
    6.4398   -4.4222    6.5774 C   0  0  0  0  0  0  0  0  0  0  0  0
    7.1569   -4.4172    7.7577 C   0  0  0  0  0  0  0  0  0  0  0  0
    8.1149   -3.4452    7.9910 C   0  0  0  0  0  0  0  0  0  0  0  0
    8.3708   -2.4639    7.0423 C   0  0  0  0  0  0  0  0  0  0  0  0
    9.3613   -1.3673    7.3050 C   0  0  0  0  0  0  0  0  0  0  0  0
    8.6390   -0.1146    7.8058 C   0  0  0  0  0  0  0  0  0  0  0  0
    7.6515   -2.4756    5.8572 C   0  0  0  0  0  0  0  0  0  0  0  0
    5.4978   -4.5095    3.6479 C   0  0  0  0  0  0  0  0  0  0  0  0
    4.4170   -4.0891    2.3312 S   0  0  0  0  0  0  0  0  0  0  0  0
    4.5474   -2.4173    2.7323 C   0  0  0  0  0  0  0  0  0  0  0  0
    4.0019   -1.2135    2.2697 C   0  0  0  0  0  0  0  0  0  0  0  0
    3.1428   -0.8019    1.2864 N   0  0  0  0  0  0  0  0  0  0  0  0
    3.0150    0.5746    1.3888 C   0  0  0  0  0  0  0  0  0  0  0  0
    2.2188    1.5261    0.6983 C   0  0  0  0  0  0  0  0  0  0  0  0
    1.1911    1.4060   -0.2240 N   0  0  0  0  0  0  0  0  0  0  0  0
    0.7850    2.6678   -0.5624 C   0  0  0  0  0  0  0  0  0  0  0  0
   -0.1911    3.2619   -1.3713 C   0  0  0  0  0  0  0  0  0  0  0  0
   -1.4684    2.7347   -2.4080 S   0  0  0  0  0  0  0  0  0  0  0  0
    0.3422    0.2778   -0.5329 C   0  0  0  0  0  0  0  0  0  0  0  0
   -0.3385   -0.2733    0.7174 C   0  0  0  0  0  0  0  0  0  0  0  0
    2.8634   -1.6815    0.1728 C   0  0  0  0  0  0  0  0  0  0  0  0
    3.5365   -1.1950   -1.1079 C   0  0  0  0  0  0  0  0  0  0  0  0
    5.8867   -5.8881    3.8231 C   0  0  0  0  0  0  0  0  0  0  0  0
    7.2053   -6.2521    4.1383 C   0  0  0  0  0  0  0  0  0  0  0  0
    8.1546   -5.3101    4.2161 F   0  0  0  0  0  0  0  0  0  0  0  0
    7.5667   -7.5736    4.3201 C   0  0  0  0  0  0  0  0  0  0  0  0
    8.8361   -7.8712    4.6269 F   0  0  0  0  0  0  0  0  0  0  0  0
    6.6393   -8.6162    4.2169 C   0  0  0  0  0  0  0  0  0  0  0  0
    5.3370   -8.2621    3.8457 C   0  0  0  0  0  0  0  0  0  0  0  0
    4.4332   -9.2191    3.6102 F   0  0  0  0  0  0  0  0  0  0  0  0
    4.9781   -6.9427    3.6468 C   0  0  0  0  0  0  0  0  0  0  0  0
    3.7131   -6.6674    3.2947 F   0  0  0  0  0  0  0  0  0  0  0  0
    7.0417   -9.9928    4.4197 C   0  0  0  0  0  0  0  0  0  0  0  0
    6.3197  -10.8923    5.1231 C   0  0  0  0  0  0  0  0  0  0  0  0
    5.2005  -10.5261    6.0471 C   0  0  0  0  0  0  0  0  0  0  0  0
    4.7769   -9.4183    6.2811 O   0  0  0  0  0  0  0  0  0  0  0  0
    4.8104  -11.7862    6.7020 C   0  0  0  0  0  0  0  0  0  0  0  0
    3.8151  -11.9878    7.6398 C   0  0  0  0  0  0  0  0  0  0  0  0
    3.6012  -13.2638    8.1468 C   0  0  0  0  0  0  0  0  0  0  0  0
    2.5376  -13.5601    9.1509 C   0  0  0  0  0  0  0  0  0  0  0  0
    4.4268  -14.2907    7.6786 C   0  0  0  0  0  0  0  0  0  0  0  0
    4.2304  -15.5270    8.1679 F   0  0  0  0  0  0  0  0  0  0  0  0
    5.4342  -14.1156    6.7453 C   0  0  0  0  0  0  0  0  0  0  0  0
    5.6276  -12.8359    6.2455 C   0  0  0  0  0  0  0  0  0  0  0  0
    6.5690  -12.3213    5.2593 C   0  0  0  0  0  0  0  0  0  0  0  0
    7.4669  -13.0601    4.5413 C   0  0  0  0  0  0  0  0  0  0  0  0
    8.3129  -12.5484    3.5326 C   0  0  0  0  0  0  0  0  0  0  0  0
    9.0134  -12.2083    2.6898 N   0  0  0  0  0  0  0  0  0  0  0  0
    7.6529  -14.4513    4.7003 C   0  0  0  0  0  0  0  0  0  0  0  0
    7.8531  -15.5772    4.7895 N   0  0  0  0  0  0  0  0  0  0  0  0
   -8.1135    7.9223   -8.7847 H   0  0  0  0  0  0  0  0  0  0  0  0
  -12.1700    3.2777   -9.9677 H   0  0  0  0  0  0  0  0  0  0  0  0
  -14.2673    2.6524  -10.9915 H   0  0  0  0  0  0  0  0  0  0  0  0
  -15.4328    3.9842  -11.0985 H   0  0  0  0  0  0  0  0  0  0  0  0
  -14.5641    3.4728  -12.5347 H   0  0  0  0  0  0  0  0  0  0  0  0
  -12.6567    7.8570  -11.8428 H   0  0  0  0  0  0  0  0  0  0  0  0
   -6.0472    1.7964   -4.9124 H   0  0  0  0  0  0  0  0  0  0  0  0
   -7.2921    2.2581   -6.0935 H   0  0  0  0  0  0  0  0  0  0  0  0
   -5.6322    2.0313   -7.9388 H   0  0  0  0  0  0  0  0  0  0  0  0
   -5.7672    0.5194   -7.0354 H   0  0  0  0  0  0  0  0  0  0  0  0
   -4.3813    1.5856   -6.7732 H   0  0  0  0  0  0  0  0  0  0  0  0
   -8.0392    4.1351   -7.7408 H   0  0  0  0  0  0  0  0  0  0  0  0
   -3.7821    2.6101   -3.8094 H   0  0  0  0  0  0  0  0  0  0  0  0
   -3.3252    6.7381   -1.3967 H   0  0  0  0  0  0  0  0  0  0  0  0
   -3.5116    9.1945   -1.3119 H   0  0  0  0  0  0  0  0  0  0  0  0
   -1.5759   10.6024   -1.8812 H   0  0  0  0  0  0  0  0  0  0  0  0
    1.5267    9.3408   -3.3650 H   0  0  0  0  0  0  0  0  0  0  0  0
    0.6162   10.7893   -2.9125 H   0  0  0  0  0  0  0  0  0  0  0  0
    2.6515   10.5433   -1.5022 H   0  0  0  0  0  0  0  0  0  0  0  0
    2.0981    8.9524   -0.9657 H   0  0  0  0  0  0  0  0  0  0  0  0
    1.1934   10.3967   -0.5151 H   0  0  0  0  0  0  0  0  0  0  0  0
    0.7417    7.1052   -2.6473 H   0  0  0  0  0  0  0  0  0  0  0  0
    5.6743   -5.1666    6.4112 H   0  0  0  0  0  0  0  0  0  0  0  0
    6.9620   -5.1736    8.5037 H   0  0  0  0  0  0  0  0  0  0  0  0
    8.6680   -3.4484    8.9191 H   0  0  0  0  0  0  0  0  0  0  0  0
    9.8992   -1.1282    6.3856 H   0  0  0  0  0  0  0  0  0  0  0  0
   10.0872   -1.6919    8.0526 H   0  0  0  0  0  0  0  0  0  0  0  0
    9.3518    0.6836    7.9983 H   0  0  0  0  0  0  0  0  0  0  0  0
    7.9208    0.2306    7.0653 H   0  0  0  0  0  0  0  0  0  0  0  0
    8.1026   -0.3310    8.7273 H   0  0  0  0  0  0  0  0  0  0  0  0
    7.8569   -1.7298    5.1039 H   0  0  0  0  0  0  0  0  0  0  0  0
   -0.4201    0.6450   -1.2247 H   0  0  0  0  0  0  0  0  0  0  0  0
    0.9048   -0.4942   -1.0589 H   0  0  0  0  0  0  0  0  0  0  0  0
   -0.9593   -1.1261    0.4565 H   0  0  0  0  0  0  0  0  0  0  0  0
   -0.9701    0.4918    1.1628 H   0  0  0  0  0  0  0  0  0  0  0  0
    0.3921   -0.5835    1.4606 H   0  0  0  0  0  0  0  0  0  0  0  0
    3.2679   -2.6602    0.4422 H   0  0  0  0  0  0  0  0  0  0  0  0
    1.7886   -1.8081    0.0393 H   0  0  0  0  0  0  0  0  0  0  0  0
    3.3093   -1.8730   -1.9262 H   0  0  0  0  0  0  0  0  0  0  0  0
    3.2021   -0.1953   -1.3748 H   0  0  0  0  0  0  0  0  0  0  0  0
    4.6151   -1.1657   -0.9720 H   0  0  0  0  0  0  0  0  0  0  0  0
    7.9936  -10.2685    3.9844 H   0  0  0  0  0  0  0  0  0  0  0  0
    3.2095  -11.1556    7.9648 H   0  0  0  0  0  0  0  0  0  0  0  0
    2.9731  -14.0276   10.0333 H   0  0  0  0  0  0  0  0  0  0  0  0
    2.0185  -12.6529    9.4450 H   0  0  0  0  0  0  0  0  0  0  0  0
    1.8172  -14.2646    8.7358 H   0  0  0  0  0  0  0  0  0  0  0  0
    6.0272  -14.9629    6.4431 H   0  0  0  0  0  0  0  0  0  0  0  0
  1  2  2  0  0  0  0
  2  3  1  0  0  0  0
  3  4  2  0  0  0  0
  3  5  1  0  0  0  0
  5  6  2  0  0  0  0
  6  7  1  0  0  0  0
  7  8  1  0  0  0  0
  7  9  2  0  0  0  0
  9 10  1  0  0  0  0
  9 11  1  0  0  0  0
 11 12  2  0  0  0  0
 12 13  1  0  0  0  0
 13 14  2  0  0  0  0
 14 15  1  0  0  0  0
 15 16  3  0  0  0  0
 14 17  1  0  0  0  0
 17 18  3  0  0  0  0
  1 19  1  0  0  0  0
 19 20  1  0  0  0  0
 20 21  1  0  0  0  0
 21 22  1  0  0  0  0
 22 23  2  0  0  0  0
 23 24  1  0  0  0  0
 24 25  1  0  0  0  0
 25 26  1  0  0  0  0
 24 27  1  0  0  0  0
 27 28  1  0  0  0  0
 23 29  1  0  0  0  0
 29 30  2  0  0  0  0
 30 31  1  0  0  0  0
 30 32  1  0  0  0  0
 32 33  2  0  0  0  0
 33 34  1  0  0  0  0
 34 35  2  0  0  0  0
 35 36  1  0  0  0  0
 36 37  2  0  0  0  0
 37 38  1  0  0  0  0
 38 39  1  0  0  0  0
 39 40  1  0  0  0  0
 38 41  2  0  0  0  0
 33 42  1  0  0  0  0
 42 43  1  0  0  0  0
 43 44  1  0  0  0  0
 44 45  1  0  0  0  0
 45 46  1  0  0  0  0
 46 47  1  0  0  0  0
 47 48  2  0  0  0  0
 48 49  1  0  0  0  0
 49 50  1  0  0  0  0
 47 51  1  0  0  0  0
 51 52  1  0  0  0  0
 52 53  1  0  0  0  0
 53 54  1  0  0  0  0
 54 55  1  0  0  0  0
 55 56  1  0  0  0  0
 56 57  2  0  0  0  0
 57 58  1  0  0  0  0
 58 59  2  0  0  0  0
 59 60  1  0  0  0  0
 60 61  1  0  0  0  0
 61 62  1  0  0  0  0
 60 63  2  0  0  0  0
 55 64  2  0  0  0  0
 64 65  1  0  0  0  0
 65 66  1  0  0  0  0
 66 67  1  0  0  0  0
 67 68  1  0  0  0  0
 68 69  1  0  0  0  0
 69 70  1  0  0  0  0
 70 71  1  0  0  0  0
 71 72  1  0  0  0  0
 72 73  1  0  0  0  0
 73 74  1  0  0  0  0
 71 75  1  0  0  0  0
 75 76  1  0  0  0  0
 68 77  1  0  0  0  0
 77 78  1  0  0  0  0
 64 79  1  0  0  0  0
 79 80  2  0  0  0  0
 80 81  1  0  0  0  0
 80 82  1  0  0  0  0
 82 83  1  0  0  0  0
 82 84  2  0  0  0  0
 84 85  1  0  0  0  0
 85 86  1  0  0  0  0
 85 87  2  0  0  0  0
 87 88  1  0  0  0  0
 84 89  1  0  0  0  0
 89 90  2  0  0  0  0
 90 91  1  0  0  0  0
 91 92  2  0  0  0  0
 91 93  1  0  0  0  0
 93 94  2  0  0  0  0
 94 95  1  0  0  0  0
 95 96  1  0  0  0  0
 95 97  2  0  0  0  0
 97 98  1  0  0  0  0
 97 99  1  0  0  0  0
 99100  2  0  0  0  0
100101  1  0  0  0  0
101102  2  0  0  0  0
102103  1  0  0  0  0
103104  3  0  0  0  0
102105  1  0  0  0  0
105106  3  0  0  0  0
 13  2  1  0  0  0  0
 28 19  2  0  0  0  0
 74 32  1  0  0  0  0
 87 79  1  0  0  0  0
101 90  1  0  0  0  0
 12  5  1  0  0  0  0
 27 21  2  0  0  0  0
 41 34  1  0  0  0  0
 73 42  2  0  0  0  0
100 93  1  0  0  0  0
 31 22  1  0  0  0  0
 72 44  2  0  0  0  0
 70 45  2  0  0  0  0
 50 46  2  0  0  0  0
 69 51  2  0  0  0  0
 67 52  2  0  0  0  0
 66 54  2  0  0  0  0
 63 56  1  0  0  0  0
  1107  1  0  0  0  0
  6108  1  0  0  0  0
  8109  1  0  0  0  0
  8110  1  0  0  0  0
  8111  1  0  0  0  0
 11112  1  0  0  0  0
 25113  1  0  0  0  0
 25114  1  0  0  0  0
 26115  1  0  0  0  0
 26116  1  0  0  0  0
 26117  1  0  0  0  0
 28118  1  0  0  0  0
 29119  1  0  0  0  0
 35120  1  0  0  0  0
 36121  1  0  0  0  0
 37122  1  0  0  0  0
 39123  1  0  0  0  0
 39124  1  0  0  0  0
 40125  1  0  0  0  0
 40126  1  0  0  0  0
 40127  1  0  0  0  0
 41128  1  0  0  0  0
 57129  1  0  0  0  0
 58130  1  0  0  0  0
 59131  1  0  0  0  0
 61132  1  0  0  0  0
 61133  1  0  0  0  0
 62134  1  0  0  0  0
 62135  1  0  0  0  0
 62136  1  0  0  0  0
 63137  1  0  0  0  0
 75138  1  0  0  0  0
 75139  1  0  0  0  0
 76140  1  0  0  0  0
 76141  1  0  0  0  0
 76142  1  0  0  0  0
 77143  1  0  0  0  0
 77144  1  0  0  0  0
 78145  1  0  0  0  0
 78146  1  0  0  0  0
 78147  1  0  0  0  0
 89148  1  0  0  0  0
 94149  1  0  0  0  0
 96150  1  0  0  0  0
 96151  1  0  0  0  0
 96152  1  0  0  0  0
 99153  1  0  0  0  0
M  END
