
  xtb     02142215143D
 energy: -334.444171703190 gnorm: 0.000604234066 xtb: 6.4.1 (unknown)
197219  0     0  0            999 V2000
   12.7370   -9.7657   -0.1117 C   0  0  0  0  0  0  0  0  0  0  0  0
   11.9197  -10.7263   -0.5997 C   0  0  0  0  0  0  0  0  0  0  0  0
   10.4173  -10.7038   -0.5746 C   0  0  0  0  0  0  0  0  0  0  0  0
    9.6987   -9.8316   -0.1457 O   0  0  0  0  0  0  0  0  0  0  0  0
   10.0142  -12.0169   -1.0945 C   0  0  0  0  0  0  0  0  0  0  0  0
    8.8198  -12.7070   -1.3596 C   0  0  0  0  0  0  0  0  0  0  0  0
    9.0755  -13.9549   -1.8466 C   0  0  0  0  0  0  0  0  0  0  0  0
   10.7572  -14.3215   -1.9877 S   0  0  0  0  0  0  0  0  0  0  0  0
   11.1477  -12.7657   -1.3817 C   0  0  0  0  0  0  0  0  0  0  0  0
   12.3481  -12.0359   -1.0942 C   0  0  0  0  0  0  0  0  0  0  0  0
   13.6198  -12.5075   -1.2900 C   0  0  0  0  0  0  0  0  0  0  0  0
   14.8112  -11.8017   -1.0363 C   0  0  0  0  0  0  0  0  0  0  0  0
   15.8183  -11.2815   -0.8526 N   0  0  0  0  0  0  0  0  0  0  0  0
   13.8337  -13.8111   -1.7873 C   0  0  0  0  0  0  0  0  0  0  0  0
   14.0154  -14.8709   -2.1869 N   0  0  0  0  0  0  0  0  0  0  0  0
   12.3526   -8.4354    0.3039 C   0  0  0  0  0  0  0  0  0  0  0  0
   11.4067   -7.6812   -0.4094 C   0  0  0  0  0  0  0  0  0  0  0  0
   11.0857   -6.4276    0.0490 C   0  0  0  0  0  0  0  0  0  0  0  0
   10.1255   -5.4410   -0.5169 C   0  0  0  0  0  0  0  0  0  0  0  0
    9.4805   -5.5302   -1.5333 O   0  0  0  0  0  0  0  0  0  0  0  0
   10.1516   -4.3108    0.4505 C   0  0  0  0  0  0  0  0  0  0  0  0
   11.0811   -4.5880    1.4725 C   0  0  0  0  0  0  0  0  0  0  0  0
   11.6691   -5.8947    1.2175 C   0  0  0  0  0  0  0  0  0  0  0  0
   12.6319   -6.6176    1.8982 C   0  0  0  0  0  0  0  0  0  0  0  0
   12.9780   -7.8720    1.4218 C   0  0  0  0  0  0  0  0  0  0  0  0
   11.2560   -3.6828    2.5034 C   0  0  0  0  0  0  0  0  0  0  0  0
   10.5029   -2.5195    2.5105 C   0  0  0  0  0  0  0  0  0  0  0  0
    9.5870   -2.2297    1.4926 C   0  0  0  0  0  0  0  0  0  0  0  0
    9.4118   -3.1540    0.4493 C   0  0  0  0  0  0  0  0  0  0  0  0
    8.7731   -1.0353    1.5305 C   0  0  0  0  0  0  0  0  0  0  0  0
    9.0144    0.1877    2.1249 C   0  0  0  0  0  0  0  0  0  0  0  0
   10.2972    0.6125    2.6898 C   0  0  0  0  0  0  0  0  0  0  0  0
   10.3473    1.3066    3.8947 C   0  0  0  0  0  0  0  0  0  0  0  0
   11.5678    1.7020    4.4099 C   0  0  0  0  0  0  0  0  0  0  0  0
   12.7405    1.4096    3.7357 C   0  0  0  0  0  0  0  0  0  0  0  0
   12.7070    0.7317    2.5231 C   0  0  0  0  0  0  0  0  0  0  0  0
   13.9714    0.3601    1.8032 C   0  0  0  0  0  0  0  0  0  0  0  0
   14.3422   -1.0935    2.1053 C   0  0  0  0  0  0  0  0  0  0  0  0
   11.4803    0.3471    2.0063 C   0  0  0  0  0  0  0  0  0  0  0  0
    7.8835    1.0295    2.0463 C   0  0  0  0  0  0  0  0  0  0  0  0
    7.5600    2.6423    2.6386 S   0  0  0  0  0  0  0  0  0  0  0  0
    5.9620    2.5412    1.9797 C   0  0  0  0  0  0  0  0  0  0  0  0
    4.7649    3.2780    1.9745 C   0  0  0  0  0  0  0  0  0  0  0  0
    4.3734    4.4472    2.6646 C   0  0  0  0  0  0  0  0  0  0  0  0
    2.9830    4.8183    2.6785 C   0  0  0  0  0  0  0  0  0  0  0  0
    2.7520    5.8766    3.4388 N   0  0  0  0  0  0  0  0  0  0  0  0
    4.1567    6.3715    4.0743 S   0  0  0  0  0  0  0  0  0  0  0  0
    5.1170    5.2496    3.4092 N   0  0  0  0  0  0  0  0  0  0  0  0
    2.0697    4.0892    1.8852 C   0  0  0  0  0  0  0  0  0  0  0  0
    0.6908    4.2365    1.6412 C   0  0  0  0  0  0  0  0  0  0  0  0
   -0.6561    5.1771    2.1921 S   0  0  0  0  0  0  0  0  0  0  0  0
   -1.6976    4.3001    1.0943 C   0  0  0  0  0  0  0  0  0  0  0  0
   -3.0773    4.3786    0.8058 C   0  0  0  0  0  0  0  0  0  0  0  0
   -3.9822    5.3316    1.4499 C   0  0  0  0  0  0  0  0  0  0  0  0
   -3.8822    5.5719    2.8180 C   0  0  0  0  0  0  0  0  0  0  0  0
   -4.7027    6.5081    3.4165 C   0  0  0  0  0  0  0  0  0  0  0  0
   -5.6229    7.2178    2.6642 C   0  0  0  0  0  0  0  0  0  0  0  0
   -5.7398    6.9895    1.2998 C   0  0  0  0  0  0  0  0  0  0  0  0
   -6.6906    7.7884    0.4540 C   0  0  0  0  0  0  0  0  0  0  0  0
   -5.9473    8.9067   -0.2788 C   0  0  0  0  0  0  0  0  0  0  0  0
   -4.9166    6.0452    0.7076 C   0  0  0  0  0  0  0  0  0  0  0  0
   -3.4297    3.4871   -0.1899 C   0  0  0  0  0  0  0  0  0  0  0  0
   -2.0621    2.5354   -0.7615 S   0  0  0  0  0  0  0  0  0  0  0  0
   -1.0119    3.3549    0.3330 C   0  0  0  0  0  0  0  0  0  0  0  0
    0.3485    3.3067    0.6582 C   0  0  0  0  0  0  0  0  0  0  0  0
    1.4473    2.5692    0.2964 N   0  0  0  0  0  0  0  0  0  0  0  0
    2.5091    3.0143    1.0674 C   0  0  0  0  0  0  0  0  0  0  0  0
    3.8237    2.5143    1.2330 C   0  0  0  0  0  0  0  0  0  0  0  0
    4.4187    1.3292    0.8457 N   0  0  0  0  0  0  0  0  0  0  0  0
    5.7083    1.3424    1.3078 C   0  0  0  0  0  0  0  0  0  0  0  0
    6.8034    0.4699    1.3630 C   0  0  0  0  0  0  0  0  0  0  0  0
    7.1676   -1.1286    0.8253 S   0  0  0  0  0  0  0  0  0  0  0  0
    3.8080    0.0944    0.4064 C   0  0  0  0  0  0  0  0  0  0  0  0
    4.2641   -0.3108   -0.9953 C   0  0  0  0  0  0  0  0  0  0  0  0
    1.5012    2.0002   -1.0327 C   0  0  0  0  0  0  0  0  0  0  0  0
    1.4227    3.0897   -2.1016 C   0  0  0  0  0  0  0  0  0  0  0  0
   -4.7304    3.1518   -0.6727 C   0  0  0  0  0  0  0  0  0  0  0  0
   -5.0814    2.7429   -1.9526 C   0  0  0  0  0  0  0  0  0  0  0  0
   -4.2462    2.7469   -3.0562 N   0  0  0  0  0  0  0  0  0  0  0  0
   -4.4516    1.7575   -4.0363 C   0  0  0  0  0  0  0  0  0  0  0  0
   -4.4920    2.0914   -5.3859 C   0  0  0  0  0  0  0  0  0  0  0  0
   -4.7574    1.1192   -6.3285 C   0  0  0  0  0  0  0  0  0  0  0  0
   -4.9923   -0.1988   -5.9553 C   0  0  0  0  0  0  0  0  0  0  0  0
   -5.3563   -1.2297   -6.9777 C   0  0  0  0  0  0  0  0  0  0  0  0
   -4.9217   -0.5276   -4.6082 C   0  0  0  0  0  0  0  0  0  0  0  0
   -4.6500    0.4339   -3.6556 C   0  0  0  0  0  0  0  0  0  0  0  0
   -3.3079    3.7605   -3.2663 C   0  0  0  0  0  0  0  0  0  0  0  0
   -3.5381    5.0585   -2.8149 C   0  0  0  0  0  0  0  0  0  0  0  0
   -2.5754    6.0337   -2.9674 C   0  0  0  0  0  0  0  0  0  0  0  0
   -1.3681    5.7571   -3.6001 C   0  0  0  0  0  0  0  0  0  0  0  0
   -0.3219    6.8207   -3.7356 C   0  0  0  0  0  0  0  0  0  0  0  0
   -1.1646    4.4745   -4.0922 C   0  0  0  0  0  0  0  0  0  0  0  0
   -2.1109    3.4827   -3.9226 C   0  0  0  0  0  0  0  0  0  0  0  0
   -6.4378    2.3377   -2.0060 C   0  0  0  0  0  0  0  0  0  0  0  0
   -7.4224    1.6568   -3.2497 S   0  0  0  0  0  0  0  0  0  0  0  0
   -8.7838    1.5595   -2.1299 C   0  0  0  0  0  0  0  0  0  0  0  0
   -8.4257    1.9716   -0.8210 C   0  0  0  0  0  0  0  0  0  0  0  0
   -9.2241    1.8797    0.2866 N   0  0  0  0  0  0  0  0  0  0  0  0
   -9.0030    2.7755    1.3519 C   0  0  0  0  0  0  0  0  0  0  0  0
   -8.9130    2.3114    2.6599 C   0  0  0  0  0  0  0  0  0  0  0  0
   -8.6841    3.1986    3.6926 C   0  0  0  0  0  0  0  0  0  0  0  0
   -8.5419    4.5595    3.4515 C   0  0  0  0  0  0  0  0  0  0  0  0
   -8.2625    5.5163    4.5676 C   0  0  0  0  0  0  0  0  0  0  0  0
   -8.6456    5.0144    2.1423 C   0  0  0  0  0  0  0  0  0  0  0  0
   -8.8737    4.1387    1.1006 C   0  0  0  0  0  0  0  0  0  0  0  0
  -10.1239    0.8146    0.4865 C   0  0  0  0  0  0  0  0  0  0  0  0
  -11.3234    1.0406    1.1562 C   0  0  0  0  0  0  0  0  0  0  0  0
  -12.2086    0.0003    1.3561 C   0  0  0  0  0  0  0  0  0  0  0  0
  -11.9314   -1.2796    0.8903 C   0  0  0  0  0  0  0  0  0  0  0  0
  -12.9238   -2.3853    1.0780 C   0  0  0  0  0  0  0  0  0  0  0  0
  -10.7216   -1.4985    0.2418 C   0  0  0  0  0  0  0  0  0  0  0  0
   -9.8195   -0.4717    0.0482 C   0  0  0  0  0  0  0  0  0  0  0  0
   -7.1020    2.4430   -0.7901 C   0  0  0  0  0  0  0  0  0  0  0  0
   -6.0782    3.0832    0.4567 S   0  0  0  0  0  0  0  0  0  0  0  0
  -10.0809    1.2038   -2.4943 C   0  0  0  0  0  0  0  0  0  0  0  0
  -10.5711    0.6910   -3.6729 C   0  0  0  0  0  0  0  0  0  0  0  0
   -9.7925    0.2831   -4.8563 C   0  0  0  0  0  0  0  0  0  0  0  0
   -8.5994    0.4278   -5.0531 O   0  0  0  0  0  0  0  0  0  0  0  0
  -10.7622   -0.3589   -5.7586 C   0  0  0  0  0  0  0  0  0  0  0  0
  -10.7723   -0.9788   -7.0192 C   0  0  0  0  0  0  0  0  0  0  0  0
  -12.0292   -1.3915   -7.3500 C   0  0  0  0  0  0  0  0  0  0  0  0
  -13.2182   -1.0384   -6.1468 S   0  0  0  0  0  0  0  0  0  0  0  0
  -12.0130   -0.3183   -5.1651 C   0  0  0  0  0  0  0  0  0  0  0  0
  -11.9596    0.3417   -3.8857 C   0  0  0  0  0  0  0  0  0  0  0  0
  -13.0529    0.5691   -3.0819 C   0  0  0  0  0  0  0  0  0  0  0  0
  -13.0589    1.2994   -1.8827 C   0  0  0  0  0  0  0  0  0  0  0  0
  -13.1448    1.9070   -0.9100 N   0  0  0  0  0  0  0  0  0  0  0  0
  -14.3243    0.0845   -3.4462 C   0  0  0  0  0  0  0  0  0  0  0  0
  -15.3629   -0.3188   -3.7243 N   0  0  0  0  0  0  0  0  0  0  0  0
   13.7879  -10.0002    0.0119 H   0  0  0  0  0  0  0  0  0  0  0  0
    7.8363  -12.3040   -1.2048 H   0  0  0  0  0  0  0  0  0  0  0  0
    8.3627  -14.7004   -2.1412 H   0  0  0  0  0  0  0  0  0  0  0  0
   10.9571   -8.0604   -1.3126 H   0  0  0  0  0  0  0  0  0  0  0  0
   13.1085   -6.2190    2.7810 H   0  0  0  0  0  0  0  0  0  0  0  0
   13.7254   -8.4511    1.9453 H   0  0  0  0  0  0  0  0  0  0  0  0
   11.9508   -3.8796    3.3060 H   0  0  0  0  0  0  0  0  0  0  0  0
   10.6105   -1.8276    3.3312 H   0  0  0  0  0  0  0  0  0  0  0  0
    8.7036   -2.9613   -0.3435 H   0  0  0  0  0  0  0  0  0  0  0  0
    9.4351    1.5206    4.4305 H   0  0  0  0  0  0  0  0  0  0  0  0
   11.6042    2.2380    5.3468 H   0  0  0  0  0  0  0  0  0  0  0  0
   13.6905    1.7148    4.1504 H   0  0  0  0  0  0  0  0  0  0  0  0
   14.7861    1.0151    2.1167 H   0  0  0  0  0  0  0  0  0  0  0  0
   13.8320    0.4776    0.7265 H   0  0  0  0  0  0  0  0  0  0  0  0
   14.4941   -1.2292    3.1740 H   0  0  0  0  0  0  0  0  0  0  0  0
   13.5460   -1.7626    1.7846 H   0  0  0  0  0  0  0  0  0  0  0  0
   15.2577   -1.3687    1.5869 H   0  0  0  0  0  0  0  0  0  0  0  0
   11.4390   -0.1672    1.0564 H   0  0  0  0  0  0  0  0  0  0  0  0
   -3.1689    5.0190    3.4098 H   0  0  0  0  0  0  0  0  0  0  0  0
   -4.6160    6.6928    4.4777 H   0  0  0  0  0  0  0  0  0  0  0  0
   -6.2513    7.9585    3.1384 H   0  0  0  0  0  0  0  0  0  0  0  0
   -7.4685    8.2290    1.0809 H   0  0  0  0  0  0  0  0  0  0  0  0
   -7.1696    7.1349   -0.2790 H   0  0  0  0  0  0  0  0  0  0  0  0
   -5.1736    8.4914   -0.9206 H   0  0  0  0  0  0  0  0  0  0  0  0
   -5.4741    9.5765    0.4358 H   0  0  0  0  0  0  0  0  0  0  0  0
   -6.6355    9.4831   -0.8929 H   0  0  0  0  0  0  0  0  0  0  0  0
   -4.9878    5.8761   -0.3560 H   0  0  0  0  0  0  0  0  0  0  0  0
    2.7239    0.1960    0.4658 H   0  0  0  0  0  0  0  0  0  0  0  0
    4.1064   -0.6938    1.1078 H   0  0  0  0  0  0  0  0  0  0  0  0
    4.1246    0.4940   -1.7138 H   0  0  0  0  0  0  0  0  0  0  0  0
    5.3190   -0.5694   -0.9861 H   0  0  0  0  0  0  0  0  0  0  0  0
    3.7012   -1.1788   -1.3266 H   0  0  0  0  0  0  0  0  0  0  0  0
    0.6589    1.3104   -1.1448 H   0  0  0  0  0  0  0  0  0  0  0  0
    2.4324    1.4594   -1.1568 H   0  0  0  0  0  0  0  0  0  0  0  0
    2.2404    3.7972   -1.9780 H   0  0  0  0  0  0  0  0  0  0  0  0
    1.4957    2.6369   -3.0866 H   0  0  0  0  0  0  0  0  0  0  0  0
    0.4814    3.6295   -2.0407 H   0  0  0  0  0  0  0  0  0  0  0  0
   -4.3315    3.1166   -5.6862 H   0  0  0  0  0  0  0  0  0  0  0  0
   -4.8029    1.3930   -7.3726 H   0  0  0  0  0  0  0  0  0  0  0  0
   -4.8942   -1.0110   -7.9378 H   0  0  0  0  0  0  0  0  0  0  0  0
   -6.4382   -1.2298   -7.1131 H   0  0  0  0  0  0  0  0  0  0  0  0
   -5.0559   -2.2244   -6.6559 H   0  0  0  0  0  0  0  0  0  0  0  0
   -5.0890   -1.5491   -4.2987 H   0  0  0  0  0  0  0  0  0  0  0  0
   -4.5985    0.1692   -2.6090 H   0  0  0  0  0  0  0  0  0  0  0  0
   -4.4844    5.2968   -2.3534 H   0  0  0  0  0  0  0  0  0  0  0  0
   -2.7646    7.0310   -2.5966 H   0  0  0  0  0  0  0  0  0  0  0  0
    0.0688    7.0920   -2.7546 H   0  0  0  0  0  0  0  0  0  0  0  0
   -0.7437    7.7191   -4.1835 H   0  0  0  0  0  0  0  0  0  0  0  0
    0.5047    6.4775   -4.3527 H   0  0  0  0  0  0  0  0  0  0  0  0
   -0.2434    4.2423   -4.6072 H   0  0  0  0  0  0  0  0  0  0  0  0
   -1.9261    2.4835   -4.2878 H   0  0  0  0  0  0  0  0  0  0  0  0
   -9.0154    1.2548    2.8586 H   0  0  0  0  0  0  0  0  0  0  0  0
   -8.6078    2.8248    4.7032 H   0  0  0  0  0  0  0  0  0  0  0  0
   -8.8187    6.4414    4.4317 H   0  0  0  0  0  0  0  0  0  0  0  0
   -7.2004    5.7614    4.5793 H   0  0  0  0  0  0  0  0  0  0  0  0
   -8.5261    5.0830    5.5291 H   0  0  0  0  0  0  0  0  0  0  0  0
   -8.5502    6.0694    1.9378 H   0  0  0  0  0  0  0  0  0  0  0  0
   -8.9628    4.5029    0.0875 H   0  0  0  0  0  0  0  0  0  0  0  0
  -11.5614    2.0334    1.5040 H   0  0  0  0  0  0  0  0  0  0  0  0
  -13.1412    0.1911    1.8649 H   0  0  0  0  0  0  0  0  0  0  0  0
  -13.2526   -2.4336    2.1146 H   0  0  0  0  0  0  0  0  0  0  0  0
  -12.4971   -3.3456    0.7994 H   0  0  0  0  0  0  0  0  0  0  0  0
  -13.8034   -2.2060    0.4597 H   0  0  0  0  0  0  0  0  0  0  0  0
  -10.4758   -2.4899   -0.1111 H   0  0  0  0  0  0  0  0  0  0  0  0
   -8.8798   -0.6608   -0.4497 H   0  0  0  0  0  0  0  0  0  0  0  0
  -10.8148    1.3511   -1.7115 H   0  0  0  0  0  0  0  0  0  0  0  0
   -9.9079   -1.1091   -7.6437 H   0  0  0  0  0  0  0  0  0  0  0  0
  -12.3402   -1.8915   -8.2463 H   0  0  0  0  0  0  0  0  0  0  0  0
  1  2  2  0  0  0  0
  2  3  1  0  0  0  0
  3  4  2  0  0  0  0
  3  5  1  0  0  0  0
  5  6  1  0  0  0  0
  6  7  2  0  0  0  0
  7  8  1  0  0  0  0
  8  9  1  0  0  0  0
  9 10  1  0  0  0  0
 10 11  2  0  0  0  0
 11 12  1  0  0  0  0
 12 13  3  0  0  0  0
 11 14  1  0  0  0  0
 14 15  3  0  0  0  0
  1 16  1  0  0  0  0
 16 17  2  0  0  0  0
 17 18  1  0  0  0  0
 18 19  1  0  0  0  0
 19 20  2  0  0  0  0
 19 21  1  0  0  0  0
 21 22  2  0  0  0  0
 22 23  1  0  0  0  0
 23 24  1  0  0  0  0
 24 25  2  0  0  0  0
 22 26  1  0  0  0  0
 26 27  2  0  0  0  0
 27 28  1  0  0  0  0
 28 29  2  0  0  0  0
 28 30  1  0  0  0  0
 30 31  2  0  0  0  0
 31 32  1  0  0  0  0
 32 33  2  0  0  0  0
 33 34  1  0  0  0  0
 34 35  2  0  0  0  0
 35 36  1  0  0  0  0
 36 37  1  0  0  0  0
 37 38  1  0  0  0  0
 36 39  2  0  0  0  0
 31 40  1  0  0  0  0
 40 41  1  0  0  0  0
 41 42  1  0  0  0  0
 42 43  1  0  0  0  0
 43 44  1  0  0  0  0
 44 45  1  0  0  0  0
 45 46  2  0  0  0  0
 46 47  1  0  0  0  0
 47 48  1  0  0  0  0
 45 49  1  0  0  0  0
 49 50  1  0  0  0  0
 50 51  1  0  0  0  0
 51 52  1  0  0  0  0
 52 53  1  0  0  0  0
 53 54  1  0  0  0  0
 54 55  2  0  0  0  0
 55 56  1  0  0  0  0
 56 57  2  0  0  0  0
 57 58  1  0  0  0  0
 58 59  1  0  0  0  0
 59 60  1  0  0  0  0
 58 61  2  0  0  0  0
 53 62  2  0  0  0  0
 62 63  1  0  0  0  0
 63 64  1  0  0  0  0
 64 65  1  0  0  0  0
 65 66  1  0  0  0  0
 66 67  1  0  0  0  0
 67 68  1  0  0  0  0
 68 69  1  0  0  0  0
 69 70  1  0  0  0  0
 70 71  1  0  0  0  0
 71 72  1  0  0  0  0
 69 73  1  0  0  0  0
 73 74  1  0  0  0  0
 66 75  1  0  0  0  0
 75 76  1  0  0  0  0
 62 77  1  0  0  0  0
 77 78  2  0  0  0  0
 78 79  1  0  0  0  0
 79 80  1  0  0  0  0
 80 81  2  0  0  0  0
 81 82  1  0  0  0  0
 82 83  2  0  0  0  0
 83 84  1  0  0  0  0
 83 85  1  0  0  0  0
 85 86  2  0  0  0  0
 79 87  1  0  0  0  0
 87 88  2  0  0  0  0
 88 89  1  0  0  0  0
 89 90  2  0  0  0  0
 90 91  1  0  0  0  0
 90 92  1  0  0  0  0
 92 93  2  0  0  0  0
 78 94  1  0  0  0  0
 94 95  1  0  0  0  0
 95 96  1  0  0  0  0
 96 97  2  0  0  0  0
 97 98  1  0  0  0  0
 98 99  1  0  0  0  0
 99100  2  0  0  0  0
100101  1  0  0  0  0
101102  2  0  0  0  0
102103  1  0  0  0  0
102104  1  0  0  0  0
104105  2  0  0  0  0
 98106  1  0  0  0  0
106107  2  0  0  0  0
107108  1  0  0  0  0
108109  2  0  0  0  0
109110  1  0  0  0  0
109111  1  0  0  0  0
111112  2  0  0  0  0
 97113  1  0  0  0  0
113114  1  0  0  0  0
 96115  1  0  0  0  0
115116  2  0  0  0  0
116117  1  0  0  0  0
117118  2  0  0  0  0
117119  1  0  0  0  0
119120  1  0  0  0  0
120121  2  0  0  0  0
121122  1  0  0  0  0
122123  1  0  0  0  0
123124  1  0  0  0  0
124125  2  0  0  0  0
125126  1  0  0  0  0
126127  3  0  0  0  0
125128  1  0  0  0  0
128129  3  0  0  0  0
 10  2  1  0  0  0  0
 25 16  1  0  0  0  0
 72 30  1  0  0  0  0
114 77  1  0  0  0  0
124116  1  0  0  0  0
  9  5  2  0  0  0  0
 23 18  2  0  0  0  0
 39 32  1  0  0  0  0
 71 40  2  0  0  0  0
 86 80  1  0  0  0  0
 93 87  1  0  0  0  0
113 94  2  0  0  0  0
123119  2  0  0  0  0
 29 21  1  0  0  0  0
 70 42  2  0  0  0  0
105 99  1  0  0  0  0
112106  1  0  0  0  0
 68 43  2  0  0  0  0
 48 44  2  0  0  0  0
 67 49  2  0  0  0  0
 65 50  2  0  0  0  0
 64 52  2  0  0  0  0
 61 54  1  0  0  0  0
  1130  1  0  0  0  0
  6131  1  0  0  0  0
  7132  1  0  0  0  0
 17133  1  0  0  0  0
 24134  1  0  0  0  0
 25135  1  0  0  0  0
 26136  1  0  0  0  0
 27137  1  0  0  0  0
 29138  1  0  0  0  0
 33139  1  0  0  0  0
 34140  1  0  0  0  0
 35141  1  0  0  0  0
 37142  1  0  0  0  0
 37143  1  0  0  0  0
 38144  1  0  0  0  0
 38145  1  0  0  0  0
 38146  1  0  0  0  0
 39147  1  0  0  0  0
 55148  1  0  0  0  0
 56149  1  0  0  0  0
 57150  1  0  0  0  0
 59151  1  0  0  0  0
 59152  1  0  0  0  0
 60153  1  0  0  0  0
 60154  1  0  0  0  0
 60155  1  0  0  0  0
 61156  1  0  0  0  0
 73157  1  0  0  0  0
 73158  1  0  0  0  0
 74159  1  0  0  0  0
 74160  1  0  0  0  0
 74161  1  0  0  0  0
 75162  1  0  0  0  0
 75163  1  0  0  0  0
 76164  1  0  0  0  0
 76165  1  0  0  0  0
 76166  1  0  0  0  0
 81167  1  0  0  0  0
 82168  1  0  0  0  0
 84169  1  0  0  0  0
 84170  1  0  0  0  0
 84171  1  0  0  0  0
 85172  1  0  0  0  0
 86173  1  0  0  0  0
 88174  1  0  0  0  0
 89175  1  0  0  0  0
 91176  1  0  0  0  0
 91177  1  0  0  0  0
 91178  1  0  0  0  0
 92179  1  0  0  0  0
 93180  1  0  0  0  0
100181  1  0  0  0  0
101182  1  0  0  0  0
103183  1  0  0  0  0
103184  1  0  0  0  0
103185  1  0  0  0  0
104186  1  0  0  0  0
105187  1  0  0  0  0
107188  1  0  0  0  0
108189  1  0  0  0  0
110190  1  0  0  0  0
110191  1  0  0  0  0
110192  1  0  0  0  0
111193  1  0  0  0  0
112194  1  0  0  0  0
115195  1  0  0  0  0
120196  1  0  0  0  0
121197  1  0  0  0  0
M  END
