197

C         12.73700       -9.76570       -0.11170
C         11.91970      -10.72630       -0.59970
C         10.41730      -10.70380       -0.57460
O          9.69870       -9.83160       -0.14570
C         10.01420      -12.01690       -1.09450
C          8.81980      -12.70700       -1.35960
C          9.07550      -13.95490       -1.84660
S         10.75720      -14.32150       -1.98770
C         11.14770      -12.76570       -1.38170
C         12.34810      -12.03590       -1.09420
C         13.61980      -12.50750       -1.29000
C         14.81120      -11.80170       -1.03630
N         15.81830      -11.28150       -0.85260
C         13.83370      -13.81110       -1.78730
N         14.01540      -14.87090       -2.18690
C         12.35260       -8.43540        0.30390
C         11.40670       -7.68120       -0.40940
C         11.08570       -6.42760        0.04900
C         10.12550       -5.44100       -0.51690
O          9.48050       -5.53020       -1.53330
C         10.15160       -4.31080        0.45050
C         11.08110       -4.58800        1.47250
C         11.66910       -5.89470        1.21750
C         12.63190       -6.61760        1.89820
C         12.97800       -7.87200        1.42180
C         11.25600       -3.68280        2.50340
C         10.50290       -2.51950        2.51050
C          9.58700       -2.22970        1.49260
C          9.41180       -3.15400        0.44930
C          8.77310       -1.03530        1.53050
C          9.01440        0.18770        2.12490
C         10.29720        0.61250        2.68980
C         10.34730        1.30660        3.89470
C         11.56780        1.70200        4.40990
C         12.74050        1.40960        3.73570
C         12.70700        0.73170        2.52310
C         13.97140        0.36010        1.80320
C         14.34220       -1.09350        2.10530
C         11.48030        0.34710        2.00630
C          7.88350        1.02950        2.04630
S          7.56000        2.64230        2.63860
C          5.96200        2.54120        1.97970
C          4.76490        3.27800        1.97450
C          4.37340        4.44720        2.66460
C          2.98300        4.81830        2.67850
N          2.75200        5.87660        3.43880
S          4.15670        6.37150        4.07430
N          5.11700        5.24960        3.40920
C          2.06970        4.08920        1.88520
C          0.69080        4.23650        1.64120
S         -0.65610        5.17710        2.19210
C         -1.69760        4.30010        1.09430
C         -3.07730        4.37860        0.80580
C         -3.98220        5.33160        1.44990
C         -3.88220        5.57190        2.81800
C         -4.70270        6.50810        3.41650
C         -5.62290        7.21780        2.66420
C         -5.73980        6.98950        1.29980
C         -6.69060        7.78840        0.45400
C         -5.94730        8.90670       -0.27880
C         -4.91660        6.04520        0.70760
C         -3.42970        3.48710       -0.18990
S         -2.06210        2.53540       -0.76150
C         -1.01190        3.35490        0.33300
C          0.34850        3.30670        0.65820
N          1.44730        2.56920        0.29640
C          2.50910        3.01430        1.06740
C          3.82370        2.51430        1.23300
N          4.41870        1.32920        0.84570
C          5.70830        1.34240        1.30780
C          6.80340        0.46990        1.36300
S          7.16760       -1.12860        0.82530
C          3.80800        0.09440        0.40640
C          4.26410       -0.31080       -0.99530
C          1.50120        2.00020       -1.03270
C          1.42270        3.08970       -2.10160
C         -4.73040        3.15180       -0.67270
C         -5.08140        2.74290       -1.95260
N         -4.24620        2.74690       -3.05620
C         -4.45160        1.75750       -4.03630
C         -4.49200        2.09140       -5.38590
C         -4.75740        1.11920       -6.32850
C         -4.99230       -0.19880       -5.95530
C         -5.35630       -1.22970       -6.97770
C         -4.92170       -0.52760       -4.60820
C         -4.65000        0.43390       -3.65560
C         -3.30790        3.76050       -3.26630
C         -3.53810        5.05850       -2.81490
C         -2.57540        6.03370       -2.96740
C         -1.36810        5.75710       -3.60010
C         -0.32190        6.82070       -3.73560
C         -1.16460        4.47450       -4.09220
C         -2.11090        3.48270       -3.92260
C         -6.43780        2.33770       -2.00600
S         -7.42240        1.65680       -3.24970
C         -8.78380        1.55950       -2.12990
C         -8.42570        1.97160       -0.82100
N         -9.22410        1.87970        0.28660
C         -9.00300        2.77550        1.35190
C         -8.91300        2.31140        2.65990
C         -8.68410        3.19860        3.69260
C         -8.54190        4.55950        3.45150
C         -8.26250        5.51630        4.56760
C         -8.64560        5.01440        2.14230
C         -8.87370        4.13870        1.10060
C        -10.12390        0.81460        0.48650
C        -11.32340        1.04060        1.15620
C        -12.20860        0.00030        1.35610
C        -11.93140       -1.27960        0.89030
C        -12.92380       -2.38530        1.07800
C        -10.72160       -1.49850        0.24180
C         -9.81950       -0.47170        0.04820
C         -7.10200        2.44300       -0.79010
S         -6.07820        3.08320        0.45670
C        -10.08090        1.20380       -2.49430
C        -10.57110        0.69100       -3.67290
C         -9.79250        0.28310       -4.85630
O         -8.59940        0.42780       -5.05310
C        -10.76220       -0.35890       -5.75860
C        -10.77230       -0.97880       -7.01920
C        -12.02920       -1.39150       -7.35000
S        -13.21820       -1.03840       -6.14680
C        -12.01300       -0.31830       -5.16510
C        -11.95960        0.34170       -3.88570
C        -13.05290        0.56910       -3.08190
C        -13.05890        1.29940       -1.88270
N        -13.14480        1.90700       -0.91000
C        -14.32430        0.08450       -3.44620
N        -15.36290       -0.31880       -3.72430
H         13.78790      -10.00020        0.01190
H          7.83630      -12.30400       -1.20480
H          8.36270      -14.70040       -2.14120
H         10.95710       -8.06040       -1.31260
H         13.10850       -6.21900        2.78100
H         13.72540       -8.45110        1.94530
H         11.95080       -3.87960        3.30600
H         10.61050       -1.82760        3.33120
H          8.70360       -2.96130       -0.34350
H          9.43510        1.52060        4.43050
H         11.60420        2.23800        5.34680
H         13.69050        1.71480        4.15040
H         14.78610        1.01510        2.11670
H         13.83200        0.47760        0.72650
H         14.49410       -1.22920        3.17400
H         13.54600       -1.76260        1.78460
H         15.25770       -1.36870        1.58690
H         11.43900       -0.16720        1.05640
H         -3.16890        5.01900        3.40980
H         -4.61600        6.69280        4.47770
H         -6.25130        7.95850        3.13840
H         -7.46850        8.22900        1.08090
H         -7.16960        7.13490       -0.27900
H         -5.17360        8.49140       -0.92060
H         -5.47410        9.57650        0.43580
H         -6.63550        9.48310       -0.89290
H         -4.98780        5.87610       -0.35600
H          2.72390        0.19600        0.46580
H          4.10640       -0.69380        1.10780
H          4.12460        0.49400       -1.71380
H          5.31900       -0.56940       -0.98610
H          3.70120       -1.17880       -1.32660
H          0.65890        1.31040       -1.14480
H          2.43240        1.45940       -1.15680
H          2.24040        3.79720       -1.97800
H          1.49570        2.63690       -3.08660
H          0.48140        3.62950       -2.04070
H         -4.33150        3.11660       -5.68620
H         -4.80290        1.39300       -7.37260
H         -4.89420       -1.01100       -7.93780
H         -6.43820       -1.22980       -7.11310
H         -5.05590       -2.22440       -6.65590
H         -5.08900       -1.54910       -4.29870
H         -4.59850        0.16920       -2.60900
H         -4.48440        5.29680       -2.35340
H         -2.76460        7.03100       -2.59660
H          0.06880        7.09200       -2.75460
H         -0.74370        7.71910       -4.18350
H          0.50470        6.47750       -4.35270
H         -0.24340        4.24230       -4.60720
H         -1.92610        2.48350       -4.28780
H         -9.01540        1.25480        2.85860
H         -8.60780        2.82480        4.70320
H         -8.81870        6.44140        4.43170
H         -7.20040        5.76140        4.57930
H         -8.52610        5.08300        5.52910
H         -8.55020        6.06940        1.93780
H         -8.96280        4.50290        0.08750
H        -11.56140        2.03340        1.50400
H        -13.14120        0.19110        1.86490
H        -13.25260       -2.43360        2.11460
H        -12.49710       -3.34560        0.79940
H        -13.80340       -2.20600        0.45970
H        -10.47580       -2.48990       -0.11110
H         -8.87980       -0.66080       -0.44970
H        -10.81480        1.35110       -1.71150
H         -9.90790       -1.10910       -7.64370
H        -12.34020       -1.89150       -8.24630
