149

C         -6.52420       -8.46540       -7.22110
C         -6.22420       -9.61130       -7.89720
C         -4.92120      -10.32280       -7.91410
O         -3.90790      -10.02460       -7.31660
C         -5.11950      -11.47160       -8.80770
C         -4.37030      -12.55150       -9.30290
C         -5.12410      -13.32610      -10.13470
S         -6.74640      -12.76730      -10.33280
C         -6.42480      -11.45560       -9.27760
C         -7.15760      -10.33740       -8.75050
C         -8.47260      -10.06530       -9.03410
C         -9.20690      -10.90520       -9.89780
N         -9.80870      -11.58490      -10.59970
C         -9.22620       -8.98620       -8.53690
N         -9.90120       -8.13140       -8.17110
C         -5.72970       -7.65200       -6.38450
C         -6.22840       -6.49490       -5.81520
C         -5.29970       -5.79700       -5.02750
C         -5.48450       -4.57970       -4.33510
C         -6.74190       -3.83080       -4.42520
C         -7.29940       -3.52610       -5.66750
C         -8.47750       -2.81780       -5.75220
C         -9.13260       -2.39740       -4.59630
S        -10.61820       -1.47240       -4.82880
C        -11.51480       -1.63630       -3.24510
C        -11.96140       -3.06220       -2.98630
C         -8.57730       -2.68420       -3.35620
C         -7.39460       -3.39300       -3.27660
C         -4.40960       -4.12740       -3.59380
C         -3.16200       -4.80510       -3.53670
C         -2.97030       -5.99900       -4.25110
C         -1.67330       -6.68770       -4.25870
C         -1.58050       -8.04630       -3.96120
C         -0.35790       -8.68130       -3.96070
C          0.80330       -7.97830       -4.27320
S          2.30920       -8.90290       -4.26490
C          3.62380       -7.64140       -4.12230
C          3.59010       -6.92490       -2.78580
C          0.71680       -6.63160       -4.60010
C         -0.50960       -5.99600       -4.58290
C         -4.05490       -6.48040       -4.97010
S         -4.05850       -7.93030       -5.93520
C         -2.23230       -4.12770       -2.71340
C         -2.70900       -2.95930       -2.18640
S         -4.36380       -2.64670       -2.66720
C         -2.00630       -2.03570       -1.35960
S         -2.71960       -0.47480       -0.97550
C         -1.29960       -0.03160       -0.10090
C         -0.71710        1.01410        0.61050
O         -0.97180        2.29080        0.97900
C          0.16290        2.71310        1.63510
C          0.37810        3.98880        2.13680
O         -0.47840        5.03790        2.11590
C         -1.72110        4.91530        1.43620
C         -2.43030        6.25570        1.53970
C          1.63530        4.19980        2.72810
C          2.59090        3.14730        2.85150
C          2.36210        1.86510        2.37970
O          3.28120        0.84930        2.52030
C          3.15330        0.09240        3.72230
C          3.44590        0.88500        4.98870
C          1.14080        1.67270        1.72200
C          0.55190        0.58480        1.02410
N          0.77830       -0.69540        0.59360
C         -0.33900       -1.07030       -0.10630
C         -0.74860       -2.20030       -0.82190
C          2.03090       -1.41010        0.59180
C          2.70950       -1.33740       -0.77470
O          3.74240        3.56050        3.45340
C          3.55830        4.87610        3.70830
C          4.23500        5.96820        4.23670
S          5.74140        6.44070        4.92600
C          5.17040        8.10210        5.05360
C          3.87530        8.26410        4.59420
C          3.33900        7.06430        4.12930
N          2.15230        6.65500        3.57640
C          1.05390        7.51740        3.22060
C          1.27710        8.16740        1.85710
C          2.29040        5.32460        3.29880
C          6.03180        9.10710        5.55770
C          5.75190       10.45100        5.74470
C          6.85410       11.16460        6.19760
F          6.76440       12.44690        6.55110
C          8.00990       10.41420        6.38400
S          7.66730        8.74500        6.01060
C          9.28200       10.80110        6.85850
C          9.86220       12.02130        6.65790
C          9.45000       12.97960        5.59130
O          8.57830       12.84340        4.76350
C         10.44230       14.05100        5.68470
S         10.73930       15.51810        4.86040
C         12.14840       15.76680        5.85110
Br        13.19210       17.30310        5.61230
C         12.38120       14.77340        6.76150
C         11.39180       13.77900        6.65930
C         11.06760       12.51450        7.29420
C         11.76690       11.95880        8.33300
C         11.43040       10.76010        8.99220
N         11.20560        9.79760        9.57650
C         12.92460       12.57050        8.85750
N         13.87000       13.05380        9.29280
H         -7.53350       -8.08630       -7.33570
H         -3.34140      -12.74220       -9.06040
H         -4.82090      -14.21250      -10.65690
H         -7.24480       -6.17410       -5.96330
H         -6.78990       -3.82970       -6.57000
H         -8.90620       -2.57910       -6.71350
H        -10.88670       -1.24550       -2.44530
H        -12.37260       -0.97490       -3.36690
H        -11.10580       -3.73010       -2.90890
H        -12.59530       -3.41010       -3.79850
H        -12.52620       -3.11060       -2.05720
H         -9.05100       -2.35660       -2.44440
H         -6.98250       -3.62550       -2.30580
H         -2.47040       -8.60050       -3.70560
H         -0.28600       -9.73050       -3.71910
H          4.54360       -8.21550       -4.23250
H          3.54210       -6.95390       -4.96360
H          3.68890       -7.64180       -1.97410
H          2.65240       -6.38800       -2.65710
H          4.41130       -6.21300       -2.72560
H          1.59290       -6.06860       -4.88240
H         -0.56880       -4.95180       -4.85540
H         -1.24290       -4.50000       -2.52250
H         -1.54720        4.65390        0.38660
H         -2.32370        4.12510        1.89680
H         -1.82380        7.03630        1.08830
H         -2.60650        6.50850        2.58200
H         -3.38360        6.20330        1.02280
H          2.14450       -0.34370        3.77740
H          3.88380       -0.71240        3.60690
H          4.40470        1.38840        4.89970
H          2.67490        1.63120        5.16630
H          3.47530        0.20690        5.83750
H         -0.17030       -3.09710       -0.94290
H          1.83830       -2.45280        0.86370
H          2.67850       -0.95380        1.33950
H          2.06750       -1.75500       -1.54670
H          3.64200       -1.89400       -0.75280
H          2.92840       -0.30260       -1.02610
H          3.36820        9.21060        4.59330
H          0.14780        6.91120        3.19680
H          0.95780        8.28370        3.99460
H          0.45480        8.83900        1.62660
H          1.33230        7.40270        1.08650
H          2.20470        8.73520        1.85120
H          4.79550       10.90350        5.56430
H          9.83200       10.04180        7.40060
H         13.21030       14.77250        7.44460
