191

C          2.38390       -8.58200       -5.53000
C          3.32300       -9.26880       -4.81360
C          3.76040      -10.61780       -5.26800
O          3.50750      -11.14170       -6.33090
C          4.52160      -11.16360       -4.13120
C          5.17170      -12.35860       -3.77920
C          5.74570      -12.25900       -2.54660
S          5.52250      -10.71840       -1.79640
C          4.62070      -10.18670       -3.15120
C          3.99520       -8.95870       -3.57140
C          4.24670       -7.72450       -3.01730
C          5.02670       -7.60690       -1.85370
N          5.66980       -7.50930       -0.90690
C          3.88840       -6.50180       -3.61040
N          3.68030       -5.48190       -4.09820
C          1.55570       -7.53720       -5.08300
C          0.97910       -6.49970       -5.83040
N          1.14920       -6.26830       -7.16790
C          1.22300       -7.31280       -8.09980
C          2.12070       -7.24840       -9.16140
C          2.18880       -8.28430      -10.07200
C          1.37430       -9.40400       -9.95070
C          1.48060      -10.54590      -10.91170
C          0.47090       -9.45320       -8.89450
C          0.38800       -8.42290       -7.98010
C          1.28070       -4.93540       -7.60930
C          2.06260       -4.03670       -6.88770
C          2.18000       -2.73100       -7.31900
C          1.53870       -2.29390       -8.47290
C          1.65740       -0.86840       -8.91630
C          0.77410       -3.20500       -9.19150
C          0.63970       -4.51310       -8.76860
C          0.26460       -5.61440       -4.98770
S         -0.67790       -4.19440       -5.27530
C         -1.08490       -4.09230       -3.57410
C         -0.52570       -5.12050       -2.83490
N         -0.70010       -5.28460       -1.47340
C         -1.94090       -4.97810       -0.89100
C         -2.00890       -4.23610        0.28560
C         -3.23550       -3.89100        0.81450
C         -4.42030       -4.29190        0.20610
C         -5.74290       -3.86980        0.76910
C         -4.34140       -5.06710       -0.94340
C         -3.12030       -5.39920       -1.49590
C          0.37960       -5.70340       -0.68350
C          0.16410       -6.52630        0.41790
C          1.23050       -6.94260        1.19020
C          2.53140       -6.55730        0.89000
C          3.68770       -6.99580        1.73310
C          2.73500       -5.73110       -0.20970
C          1.67910       -5.30560       -0.98990
C          0.23330       -5.98650       -3.65560
S          1.11570       -7.43940       -3.37200
C         -1.75170       -2.96200       -2.97070
C         -3.06470       -2.55080       -2.96270
C         -4.15020       -3.09160       -3.78030
C         -3.95780       -3.43420       -5.11570
C         -5.01180       -3.92170       -5.86470
C         -6.26830       -4.06070       -5.30140
C         -6.48490       -3.70430       -3.97680
C         -7.85250       -3.77960       -3.36090
C         -8.50730       -2.39710       -3.35470
C         -5.42190       -3.22100       -3.23040
C         -3.26070       -1.50920       -2.02110
S         -4.67460       -0.61950       -1.50710
C         -3.68580        0.31280       -0.43460
C         -3.79990        1.39350        0.46110
C         -4.86670        2.25490        0.80270
C         -4.60400        3.40760        1.62680
N         -5.67910        4.16100        1.79500
S         -6.91540        3.48130        1.00100
N         -6.12810        2.19870        0.40540
C         -3.31740        3.57720        2.18600
C         -2.76900        4.51850        3.07640
S         -3.21770        5.99120        3.86620
C         -1.62470        6.06830        4.58250
C         -1.00910        6.99970        5.43770
C         -1.73280        8.12480        6.03130
C         -1.67080        8.36170        7.40330
C         -2.40160        9.39390        7.95760
C         -3.20520       10.18900        7.15730
C         -3.28860        9.95950        5.79030
C         -4.20830       10.76830        4.92270
C         -5.53950       10.03540        4.74290
C         -2.54860        8.92350        5.23870
C          0.30900        6.64620        5.69500
S          0.75990        5.12560        4.93450
C         -0.80910        4.98930        4.22780
C         -1.46670        4.10010        3.37190
N         -1.18090        2.93540        2.70070
C         -2.29300        2.62760        1.93830
C         -2.49420        1.62890        0.96220
N         -1.60420        0.75310        0.36460
C         -2.33790       -0.04870       -0.47450
C         -2.10110       -1.09990       -1.37070
S         -0.73980       -2.03110       -1.86620
C         -0.20830        1.01320        0.07070
C         -0.03760        1.59980       -1.33050
C         -0.22940        1.98650        3.24570
C         -0.56100        1.63770        4.69650
C          1.31720        7.37780        6.37490
C          1.32150        8.73060        6.68200
C          2.48580        9.12740        7.31700
S          2.76610       10.79920        7.82870
C          2.45830       10.61730        9.62730
C          0.99200       10.37040        9.91670
C          3.42790        8.10170        7.48710
S          2.79540        6.60280        6.85580
C          4.68740        8.31180        8.06070
C          5.73610        7.45000        8.23800
C          5.81100        6.05240        7.76860
O          4.92000        5.39320        7.26560
C          7.19440        5.62940        8.02890
C          7.99570        4.49120        7.84040
C          9.25840        4.70100        8.31100
S          9.49930        6.27000        8.99240
C          7.87250        6.67420        8.63930
C          7.01130        7.81000        8.83510
C          7.35940        8.95270        9.51210
C          6.48960       10.01140        9.83180
N          5.81730       10.88400       10.15830
C          8.66690        9.12090       10.01200
N          9.73240        9.26280       10.41440
H          2.23120       -8.94450       -6.54130
H          5.21470      -13.23480       -4.39920
H          6.30510      -13.00820       -2.02130
H          2.76820       -6.38970       -9.25890
H          2.89720       -8.22630      -10.88540
H          0.49750      -10.94900      -11.14530
H          2.07230      -11.34520      -10.46480
H          1.96630      -10.23710      -11.83390
H         -0.17560      -10.31160       -8.78670
H         -0.32130       -8.46920       -7.16630
H          2.58220       -4.36870       -6.00090
H          2.78910       -2.04110       -6.75370
H          1.46050       -0.77300       -9.98120
H          2.65030       -0.47850       -8.70310
H          0.93390       -0.25220       -8.38120
H          0.27030       -2.88570      -10.09230
H          0.03780       -5.21190       -9.33080
H         -1.09410       -3.91980        0.76550
H         -3.27720       -3.29050        1.71220
H         -6.55610       -4.43040        0.31450
H         -5.90850       -2.80820        0.57980
H         -5.77140       -4.02190        1.84650
H         -5.24530       -5.41530       -1.42140
H         -3.07580       -5.98250       -2.40410
H         -0.84170       -6.83820        0.65930
H          1.04750       -7.58580        2.03930
H          4.53180       -7.27310        1.10430
H          3.41500       -7.84210        2.35880
H          4.00940       -6.18000        2.38110
H          3.73720       -5.41010       -0.45360
H          1.85860       -4.65570       -1.83440
H         -2.99260       -3.29120       -5.57490
H         -4.85260       -4.18590       -6.89990
H         -7.08750       -4.43910       -5.89590
H         -7.77520       -4.14130       -2.33320
H         -8.47770       -4.47610       -3.92300
H         -9.49280       -2.44440       -2.89720
H         -8.61370       -2.02570       -4.37150
H         -7.89650       -1.69210       -2.79550
H         -5.58450       -2.95270       -2.19860
H         -1.05970        7.72550        8.02680
H         -2.35080        9.57630        9.02100
H         -3.77620       10.99240        7.59960
H         -4.38920       11.74360        5.37830
H         -3.75060       10.92610        3.94410
H         -6.01950        9.88240        5.70700
H         -6.20860       10.61290        4.10950
H         -5.37740        9.06280        4.28390
H         -2.59660        8.74250        4.17490
H          0.18440        1.72840        0.78970
H          0.34380        0.07140        0.14940
H         -0.35980        0.89500       -2.09160
H          1.00930        1.83530       -1.49970
H         -0.62250        2.51210       -1.42820
H          0.77510        2.41880        3.19060
H         -0.26940        1.07130        2.65720
H          0.12120        0.86870        5.04790
H         -0.46120        2.50580        5.34140
H         -1.57970        1.26230        4.76880
H          0.52200        9.40700        6.44370
H          2.80150       11.55840       10.05290
H          3.08780        9.80980        9.99850
H          0.83260       10.31550       10.99180
H          0.38440       11.17700        9.51260
H          0.66360        9.43470        9.46730
H          4.84350        9.33870        8.37450
H          7.66060        3.57680        7.38690
H         10.08260        4.01480        8.30210
