
  xtb     02032215453D
 energy: -371.090624459699 gnorm: 0.000875744763 xtb: 6.4.1 (unknown)
206226  0     0  0            999 V2000
   -8.8236   -7.4006   -9.1014 C   0  0  0  0  0  0  0  0  0  0  0  0
  -10.0259   -7.8655   -8.6928 C   0  0  0  0  0  0  0  0  0  0  0  0
  -10.8486   -8.7433   -9.5889 C   0  0  0  0  0  0  0  0  0  0  0  0
  -10.6778   -8.9228  -10.7710 O   0  0  0  0  0  0  0  0  0  0  0  0
  -11.8440   -9.3462   -8.6932 C   0  0  0  0  0  0  0  0  0  0  0  0
  -12.8788  -10.2941   -8.7675 C   0  0  0  0  0  0  0  0  0  0  0  0
  -13.5063  -10.4277   -7.5644 C   0  0  0  0  0  0  0  0  0  0  0  0
  -12.8709   -9.4057   -6.3252 S   0  0  0  0  0  0  0  0  0  0  0  0
  -11.7168   -8.7857   -7.4268 C   0  0  0  0  0  0  0  0  0  0  0  0
  -10.6988   -7.7721   -7.4025 C   0  0  0  0  0  0  0  0  0  0  0  0
  -10.5869   -6.7852   -6.4584 C   0  0  0  0  0  0  0  0  0  0  0  0
  -11.3773   -6.8038   -5.2901 C   0  0  0  0  0  0  0  0  0  0  0  0
  -12.0143   -6.8121   -4.3362 N   0  0  0  0  0  0  0  0  0  0  0  0
   -9.7917   -5.6316   -6.6039 C   0  0  0  0  0  0  0  0  0  0  0  0
   -9.2107   -4.6471   -6.7119 N   0  0  0  0  0  0  0  0  0  0  0  0
   -7.7706   -6.8811   -8.2909 C   0  0  0  0  0  0  0  0  0  0  0  0
   -6.8615   -5.9239   -8.6402 C   0  0  0  0  0  0  0  0  0  0  0  0
   -5.9524   -5.5957   -7.6068 C   0  0  0  0  0  0  0  0  0  0  0  0
   -4.9319   -4.6280   -7.6257 C   0  0  0  0  0  0  0  0  0  0  0  0
   -4.7537   -3.7231   -8.7667 C   0  0  0  0  0  0  0  0  0  0  0  0
   -5.8307   -3.0098   -9.2766 C   0  0  0  0  0  0  0  0  0  0  0  0
   -5.6615   -2.1423  -10.3393 C   0  0  0  0  0  0  0  0  0  0  0  0
   -6.7692   -1.4917  -10.7710 F   0  0  0  0  0  0  0  0  0  0  0  0
   -4.4229   -1.9303  -10.9515 C   0  0  0  0  0  0  0  0  0  0  0  0
   -4.1108   -1.1499  -12.0046 O   0  0  0  0  0  0  0  0  0  0  0  0
   -5.0002   -0.1515  -12.4828 C   0  0  0  0  0  0  0  0  0  0  0  0
   -5.1235    1.0240  -11.5212 C   0  0  0  0  0  0  0  0  0  0  0  0
   -3.3610   -2.6725  -10.4052 C   0  0  0  0  0  0  0  0  0  0  0  0
   -2.1441   -2.5181  -10.9583 F   0  0  0  0  0  0  0  0  0  0  0  0
   -3.5012   -3.5403   -9.3480 C   0  0  0  0  0  0  0  0  0  0  0  0
   -4.1308   -4.5461   -6.4987 C   0  0  0  0  0  0  0  0  0  0  0  0
   -4.3116   -5.3707   -5.3588 C   0  0  0  0  0  0  0  0  0  0  0  0
   -5.3401   -6.3293   -5.3336 C   0  0  0  0  0  0  0  0  0  0  0  0
   -5.5455   -7.1792   -4.1548 C   0  0  0  0  0  0  0  0  0  0  0  0
   -6.8012   -7.3044   -3.5650 C   0  0  0  0  0  0  0  0  0  0  0  0
   -6.9496   -8.0698   -2.4317 C   0  0  0  0  0  0  0  0  0  0  0  0
   -5.8915   -8.7557   -1.8096 C   0  0  0  0  0  0  0  0  0  0  0  0
   -6.2104   -9.4638   -0.7072 O   0  0  0  0  0  0  0  0  0  0  0  0
   -5.2121   -9.8938    0.2064 C   0  0  0  0  0  0  0  0  0  0  0  0
   -4.5558   -8.7302    0.9405 C   0  0  0  0  0  0  0  0  0  0  0  0
   -4.6566   -8.6315   -2.4503 C   0  0  0  0  0  0  0  0  0  0  0  0
   -4.4799   -7.8646   -3.5859 C   0  0  0  0  0  0  0  0  0  0  0  0
   -3.5555   -9.2626   -1.9703 F   0  0  0  0  0  0  0  0  0  0  0  0
   -8.1656   -8.1624   -1.8673 F   0  0  0  0  0  0  0  0  0  0  0  0
   -6.1447   -6.4048   -6.4578 C   0  0  0  0  0  0  0  0  0  0  0  0
   -7.4774   -7.5033   -6.6727 S   0  0  0  0  0  0  0  0  0  0  0  0
   -3.4214   -5.0296   -4.3149 C   0  0  0  0  0  0  0  0  0  0  0  0
   -2.5828   -3.9940   -4.6210 C   0  0  0  0  0  0  0  0  0  0  0  0
   -2.8514   -3.3882   -6.2416 S   0  0  0  0  0  0  0  0  0  0  0  0
   -1.6095   -3.4163   -3.7572 C   0  0  0  0  0  0  0  0  0  0  0  0
   -1.1391   -3.9546   -2.5732 C   0  0  0  0  0  0  0  0  0  0  0  0
   -0.2561   -3.0967   -1.9268 C   0  0  0  0  0  0  0  0  0  0  0  0
    0.5394   -3.1134   -0.6443 C   0  0  0  0  0  0  0  0  0  0  0  0
    1.7213   -4.0986   -0.8247 C   0  0  0  0  0  0  0  0  0  0  0  0
    2.5883   -4.2579    0.4163 C   0  0  0  0  0  0  0  0  0  0  0  0
   -0.3716   -3.4732    0.5099 C   0  0  0  0  0  0  0  0  0  0  0  0
   -0.9660   -2.4866    1.2865 C   0  0  0  0  0  0  0  0  0  0  0  0
   -1.8453   -2.8178    2.3013 C   0  0  0  0  0  0  0  0  0  0  0  0
   -2.1717   -4.1411    2.5631 C   0  0  0  0  0  0  0  0  0  0  0  0
   -3.0921   -4.5026    3.6927 C   0  0  0  0  0  0  0  0  0  0  0  0
   -2.3007   -4.6861    4.9893 C   0  0  0  0  0  0  0  0  0  0  0  0
   -1.5914   -5.1254    1.7750 C   0  0  0  0  0  0  0  0  0  0  0  0
   -0.7098   -4.7983    0.7624 C   0  0  0  0  0  0  0  0  0  0  0  0
    1.0768   -1.6929   -0.6271 C   0  0  0  0  0  0  0  0  0  0  0  0
    0.7758   -1.0270   -1.8401 C   0  0  0  0  0  0  0  0  0  0  0  0
   -0.0513   -1.9084   -2.6050 C   0  0  0  0  0  0  0  0  0  0  0  0
   -0.9280   -1.8376   -4.0790 S   0  0  0  0  0  0  0  0  0  0  0  0
    1.2091    0.2699   -2.1009 C   0  0  0  0  0  0  0  0  0  0  0  0
    1.9179    0.9080   -1.1110 C   0  0  0  0  0  0  0  0  0  0  0  0
    2.5029    2.3149   -1.1237 C   0  0  0  0  0  0  0  0  0  0  0  0
    1.4361    3.3235   -1.4958 C   0  0  0  0  0  0  0  0  0  0  0  0
    1.1376    3.6159   -2.8215 C   0  0  0  0  0  0  0  0  0  0  0  0
    0.1357    4.5134   -3.1408 C   0  0  0  0  0  0  0  0  0  0  0  0
   -0.6050    5.1434   -2.1503 C   0  0  0  0  0  0  0  0  0  0  0  0
   -1.6524    6.1596   -2.5018 C   0  0  0  0  0  0  0  0  0  0  0  0
   -1.0197    7.5438   -2.6611 C   0  0  0  0  0  0  0  0  0  0  0  0
   -0.3175    4.8394   -0.8271 C   0  0  0  0  0  0  0  0  0  0  0  0
    0.6809    3.9395   -0.5049 C   0  0  0  0  0  0  0  0  0  0  0  0
    3.7206    2.3227   -2.0764 C   0  0  0  0  0  0  0  0  0  0  0  0
    4.4140    3.6757   -2.1573 C   0  0  0  0  0  0  0  0  0  0  0  0
    2.9763    2.4355    0.3016 C   0  0  0  0  0  0  0  0  0  0  0  0
    2.8092    1.2299    0.9640 C   0  0  0  0  0  0  0  0  0  0  0  0
    2.1670    0.2679    0.1238 C   0  0  0  0  0  0  0  0  0  0  0  0
    1.7640   -1.0415    0.3720 C   0  0  0  0  0  0  0  0  0  0  0  0
    3.3284    1.2946    2.5973 S   0  0  0  0  0  0  0  0  0  0  0  0
    3.7520    2.9817    2.4012 C   0  0  0  0  0  0  0  0  0  0  0  0
    3.5099    3.4323    1.1154 C   0  0  0  0  0  0  0  0  0  0  0  0
    4.2242    3.7381    3.5096 C   0  0  0  0  0  0  0  0  0  0  0  0
    4.5306    5.0711    3.5428 C   0  0  0  0  0  0  0  0  0  0  0  0
    4.9114    5.5379    4.8228 C   0  0  0  0  0  0  0  0  0  0  0  0
    5.2435    6.8481    5.2049 C   0  0  0  0  0  0  0  0  0  0  0  0
    5.1826    7.9617    4.2491 C   0  0  0  0  0  0  0  0  0  0  0  0
    4.0461    8.1735    3.4804 C   0  0  0  0  0  0  0  0  0  0  0  0
    3.9852    9.2170    2.5757 C   0  0  0  0  0  0  0  0  0  0  0  0
    2.8324    9.3324    1.8677 F   0  0  0  0  0  0  0  0  0  0  0  0
    5.0408   10.1109    2.3846 C   0  0  0  0  0  0  0  0  0  0  0  0
    5.1462   11.1422    1.5226 O   0  0  0  0  0  0  0  0  0  0  0  0
    4.0196   11.6482    0.8234 C   0  0  0  0  0  0  0  0  0  0  0  0
    3.0653   12.4126    1.7328 C   0  0  0  0  0  0  0  0  0  0  0  0
    6.1702    9.8662    3.1863 C   0  0  0  0  0  0  0  0  0  0  0  0
    7.2241   10.6886    3.0390 F   0  0  0  0  0  0  0  0  0  0  0  0
    6.2559    8.8358    4.0924 C   0  0  0  0  0  0  0  0  0  0  0  0
    5.6086    7.0464    6.5298 C   0  0  0  0  0  0  0  0  0  0  0  0
    5.6192    5.9955    7.4863 C   0  0  0  0  0  0  0  0  0  0  0  0
    5.2557    4.6839    7.1124 C   0  0  0  0  0  0  0  0  0  0  0  0
    5.1905    3.5938    8.0923 C   0  0  0  0  0  0  0  0  0  0  0  0
    5.8043    2.3730    7.8475 C   0  0  0  0  0  0  0  0  0  0  0  0
    5.7195    1.3428    8.7649 C   0  0  0  0  0  0  0  0  0  0  0  0
    5.0146    1.4593    9.9655 C   0  0  0  0  0  0  0  0  0  0  0  0
    4.8421    0.5445   10.9346 O   0  0  0  0  0  0  0  0  0  0  0  0
    5.4206   -0.7489   10.8286 C   0  0  0  0  0  0  0  0  0  0  0  0
    5.0267   -1.5141   12.0806 C   0  0  0  0  0  0  0  0  0  0  0  0
    4.4021    2.7078   10.1738 C   0  0  0  0  0  0  0  0  0  0  0  0
    4.4814    3.7511    9.2823 C   0  0  0  0  0  0  0  0  0  0  0  0
    3.6976    2.8766   11.3074 F   0  0  0  0  0  0  0  0  0  0  0  0
    6.3610    0.1913    8.4477 F   0  0  0  0  0  0  0  0  0  0  0  0
    4.9296    4.4900    5.7840 C   0  0  0  0  0  0  0  0  0  0  0  0
    4.4247    2.9777    5.0760 S   0  0  0  0  0  0  0  0  0  0  0  0
    6.0324    6.4565    8.7469 C   0  0  0  0  0  0  0  0  0  0  0  0
    6.2925    7.8125    8.7940 C   0  0  0  0  0  0  0  0  0  0  0  0
    6.0409    8.5775    7.2374 S   0  0  0  0  0  0  0  0  0  0  0  0
    6.7201    8.4432    9.9844 C   0  0  0  0  0  0  0  0  0  0  0  0
    6.9871    9.7528   10.2495 C   0  0  0  0  0  0  0  0  0  0  0  0
    6.8550   10.8962    9.3106 C   0  0  0  0  0  0  0  0  0  0  0  0
    6.5246   10.8574    8.1435 O   0  0  0  0  0  0  0  0  0  0  0  0
    7.2028   12.0852   10.0974 C   0  0  0  0  0  0  0  0  0  0  0  0
    7.2964   13.4735    9.9061 C   0  0  0  0  0  0  0  0  0  0  0  0
    7.6878   14.0974   11.0539 C   0  0  0  0  0  0  0  0  0  0  0  0
    7.9501   13.0233   12.3807 S   0  0  0  0  0  0  0  0  0  0  0  0
    7.5266   11.6919   11.3885 C   0  0  0  0  0  0  0  0  0  0  0  0
    7.4237   10.2672   11.5438 C   0  0  0  0  0  0  0  0  0  0  0  0
    7.7070    9.5874   12.7010 C   0  0  0  0  0  0  0  0  0  0  0  0
    8.1187   10.2834   13.8575 C   0  0  0  0  0  0  0  0  0  0  0  0
    8.4531   10.8435   14.8014 N   0  0  0  0  0  0  0  0  0  0  0  0
    7.6447    8.1930   12.8825 C   0  0  0  0  0  0  0  0  0  0  0  0
    7.6123    7.0647   13.0951 N   0  0  0  0  0  0  0  0  0  0  0  0
   -8.6165   -7.4840  -10.1638 H   0  0  0  0  0  0  0  0  0  0  0  0
  -13.1440  -10.8385   -9.6547 H   0  0  0  0  0  0  0  0  0  0  0  0
  -14.3289  -11.0728   -7.3243 H   0  0  0  0  0  0  0  0  0  0  0  0
   -6.8672   -5.4436   -9.6019 H   0  0  0  0  0  0  0  0  0  0  0  0
   -6.8128   -3.1003   -8.8388 H   0  0  0  0  0  0  0  0  0  0  0  0
   -4.5342    0.1747  -13.4161 H   0  0  0  0  0  0  0  0  0  0  0  0
   -5.9826   -0.5742  -12.7127 H   0  0  0  0  0  0  0  0  0  0  0  0
   -5.7137    1.8087  -11.9852 H   0  0  0  0  0  0  0  0  0  0  0  0
   -5.6120    0.7252  -10.5972 H   0  0  0  0  0  0  0  0  0  0  0  0
   -4.1363    1.4146  -11.2848 H   0  0  0  0  0  0  0  0  0  0  0  0
   -2.6358   -4.0783   -8.9962 H   0  0  0  0  0  0  0  0  0  0  0  0
   -7.6591   -6.7824   -3.9572 H   0  0  0  0  0  0  0  0  0  0  0  0
   -4.4615  -10.5156   -0.2908 H   0  0  0  0  0  0  0  0  0  0  0  0
   -5.7677  -10.5164    0.9120 H   0  0  0  0  0  0  0  0  0  0  0  0
   -5.3176   -8.1067    1.4031 H   0  0  0  0  0  0  0  0  0  0  0  0
   -3.8969   -9.1176    1.7123 H   0  0  0  0  0  0  0  0  0  0  0  0
   -3.9695   -8.1171    0.2600 H   0  0  0  0  0  0  0  0  0  0  0  0
   -3.4981   -7.8307   -4.0316 H   0  0  0  0  0  0  0  0  0  0  0  0
   -3.4375   -5.4998   -3.3498 H   0  0  0  0  0  0  0  0  0  0  0  0
   -1.4385   -4.9195   -2.2085 H   0  0  0  0  0  0  0  0  0  0  0  0
    2.3338   -3.7354   -1.6539 H   0  0  0  0  0  0  0  0  0  0  0  0
    1.3231   -5.0703   -1.1199 H   0  0  0  0  0  0  0  0  0  0  0  0
    3.3116   -5.0549    0.2580 H   0  0  0  0  0  0  0  0  0  0  0  0
    3.1348   -3.3432    0.6274 H   0  0  0  0  0  0  0  0  0  0  0  0
    1.9804   -4.5108    1.2820 H   0  0  0  0  0  0  0  0  0  0  0  0
   -0.7457   -1.4468    1.0957 H   0  0  0  0  0  0  0  0  0  0  0  0
   -2.2910   -2.0318    2.8942 H   0  0  0  0  0  0  0  0  0  0  0  0
   -3.8339   -3.7138    3.8327 H   0  0  0  0  0  0  0  0  0  0  0  0
   -3.6188   -5.4301    3.4584 H   0  0  0  0  0  0  0  0  0  0  0  0
   -1.7787   -3.7673    5.2468 H   0  0  0  0  0  0  0  0  0  0  0  0
   -1.5631   -5.4773    4.8737 H   0  0  0  0  0  0  0  0  0  0  0  0
   -2.9667   -4.9487    5.8078 H   0  0  0  0  0  0  0  0  0  0  0  0
   -1.8365   -6.1635    1.9522 H   0  0  0  0  0  0  0  0  0  0  0  0
   -0.2864   -5.5931    0.1675 H   0  0  0  0  0  0  0  0  0  0  0  0
    0.9655    0.7525   -3.0349 H   0  0  0  0  0  0  0  0  0  0  0  0
    1.6880    3.1498   -3.6242 H   0  0  0  0  0  0  0  0  0  0  0  0
   -0.0750    4.7255   -4.1796 H   0  0  0  0  0  0  0  0  0  0  0  0
   -2.4094    6.1981   -1.7161 H   0  0  0  0  0  0  0  0  0  0  0  0
   -2.1428    5.8783   -3.4361 H   0  0  0  0  0  0  0  0  0  0  0  0
   -0.2741    7.5303   -3.4531 H   0  0  0  0  0  0  0  0  0  0  0  0
   -1.7779    8.2825   -2.9105 H   0  0  0  0  0  0  0  0  0  0  0  0
   -0.5314    7.8449   -1.7369 H   0  0  0  0  0  0  0  0  0  0  0  0
   -0.8842    5.3097   -0.0361 H   0  0  0  0  0  0  0  0  0  0  0  0
    0.8727    3.7157    0.5341 H   0  0  0  0  0  0  0  0  0  0  0  0
    3.3949    2.0124   -3.0698 H   0  0  0  0  0  0  0  0  0  0  0  0
    4.4286    1.5702   -1.7196 H   0  0  0  0  0  0  0  0  0  0  0  0
    3.7066    4.4561   -2.4277 H   0  0  0  0  0  0  0  0  0  0  0  0
    4.8686    3.9329   -1.2044 H   0  0  0  0  0  0  0  0  0  0  0  0
    5.1988    3.6440   -2.9097 H   0  0  0  0  0  0  0  0  0  0  0  0
    1.9567   -1.5001    1.3296 H   0  0  0  0  0  0  0  0  0  0  0  0
    3.6865    4.4473    0.8105 H   0  0  0  0  0  0  0  0  0  0  0  0
    4.4911    5.7034    2.6757 H   0  0  0  0  0  0  0  0  0  0  0  0
    3.1785    7.5411    3.5862 H   0  0  0  0  0  0  0  0  0  0  0  0
    4.4616   12.3275    0.0897 H   0  0  0  0  0  0  0  0  0  0  0  0
    3.4962   10.8505    0.2879 H   0  0  0  0  0  0  0  0  0  0  0  0
    2.2884   12.8761    1.1316 H   0  0  0  0  0  0  0  0  0  0  0  0
    2.5950   11.7488    2.4537 H   0  0  0  0  0  0  0  0  0  0  0  0
    3.6072   13.1862    2.2716 H   0  0  0  0  0  0  0  0  0  0  0  0
    7.1644    8.7148    4.6591 H   0  0  0  0  0  0  0  0  0  0  0  0
    6.3766    2.2065    6.9489 H   0  0  0  0  0  0  0  0  0  0  0  0
    5.0440   -1.2588    9.9340 H   0  0  0  0  0  0  0  0  0  0  0  0
    6.5118   -0.6690   10.7570 H   0  0  0  0  0  0  0  0  0  0  0  0
    3.9449   -1.5916   12.1445 H   0  0  0  0  0  0  0  0  0  0  0  0
    5.4565   -2.5109   12.0519 H   0  0  0  0  0  0  0  0  0  0  0  0
    5.3880   -0.9929   12.9627 H   0  0  0  0  0  0  0  0  0  0  0  0
    3.9648    4.6707    9.5059 H   0  0  0  0  0  0  0  0  0  0  0  0
    6.1528    5.8187    9.6049 H   0  0  0  0  0  0  0  0  0  0  0  0
    6.8403    7.7465   10.8063 H   0  0  0  0  0  0  0  0  0  0  0  0
    7.0886   13.9768    8.9803 H   0  0  0  0  0  0  0  0  0  0  0  0
    7.8429   15.1476   11.2073 H   0  0  0  0  0  0  0  0  0  0  0  0
  1  2  2  0  0  0  0
  2  3  1  0  0  0  0
  3  4  2  0  0  0  0
  3  5  1  0  0  0  0
  5  6  1  0  0  0  0
  6  7  2  0  0  0  0
  7  8  1  0  0  0  0
  8  9  1  0  0  0  0
  9 10  1  0  0  0  0
 10 11  2  0  0  0  0
 11 12  1  0  0  0  0
 12 13  3  0  0  0  0
 11 14  1  0  0  0  0
 14 15  3  0  0  0  0
  1 16  1  0  0  0  0
 16 17  2  0  0  0  0
 17 18  1  0  0  0  0
 18 19  2  0  0  0  0
 19 20  1  0  0  0  0
 20 21  2  0  0  0  0
 21 22  1  0  0  0  0
 22 23  1  0  0  0  0
 22 24  2  0  0  0  0
 24 25  1  0  0  0  0
 25 26  1  0  0  0  0
 26 27  1  0  0  0  0
 24 28  1  0  0  0  0
 28 29  1  0  0  0  0
 28 30  2  0  0  0  0
 19 31  1  0  0  0  0
 31 32  2  0  0  0  0
 32 33  1  0  0  0  0
 33 34  1  0  0  0  0
 34 35  2  0  0  0  0
 35 36  1  0  0  0  0
 36 37  2  0  0  0  0
 37 38  1  0  0  0  0
 38 39  1  0  0  0  0
 39 40  1  0  0  0  0
 37 41  1  0  0  0  0
 41 42  2  0  0  0  0
 41 43  1  0  0  0  0
 36 44  1  0  0  0  0
 33 45  2  0  0  0  0
 45 46  1  0  0  0  0
 32 47  1  0  0  0  0
 47 48  2  0  0  0  0
 48 49  1  0  0  0  0
 48 50  1  0  0  0  0
 50 51  2  0  0  0  0
 51 52  1  0  0  0  0
 52 53  1  0  0  0  0
 53 54  1  0  0  0  0
 54 55  1  0  0  0  0
 53 56  1  0  0  0  0
 56 57  2  0  0  0  0
 57 58  1  0  0  0  0
 58 59  2  0  0  0  0
 59 60  1  0  0  0  0
 60 61  1  0  0  0  0
 59 62  1  0  0  0  0
 62 63  2  0  0  0  0
 53 64  1  0  0  0  0
 64 65  2  0  0  0  0
 65 66  1  0  0  0  0
 66 67  1  0  0  0  0
 65 68  1  0  0  0  0
 68 69  2  0  0  0  0
 69 70  1  0  0  0  0
 70 71  1  0  0  0  0
 71 72  2  0  0  0  0
 72 73  1  0  0  0  0
 73 74  2  0  0  0  0
 74 75  1  0  0  0  0
 75 76  1  0  0  0  0
 74 77  1  0  0  0  0
 77 78  2  0  0  0  0
 70 79  1  0  0  0  0
 79 80  1  0  0  0  0
 70 81  1  0  0  0  0
 81 82  2  0  0  0  0
 82 83  1  0  0  0  0
 83 84  2  0  0  0  0
 82 85  1  0  0  0  0
 85 86  1  0  0  0  0
 86 87  2  0  0  0  0
 86 88  1  0  0  0  0
 88 89  2  0  0  0  0
 89 90  1  0  0  0  0
 90 91  2  0  0  0  0
 91 92  1  0  0  0  0
 92 93  2  0  0  0  0
 93 94  1  0  0  0  0
 94 95  1  0  0  0  0
 94 96  2  0  0  0  0
 96 97  1  0  0  0  0
 97 98  1  0  0  0  0
 98 99  1  0  0  0  0
 96100  1  0  0  0  0
100101  1  0  0  0  0
100102  2  0  0  0  0
 91103  1  0  0  0  0
103104  2  0  0  0  0
104105  1  0  0  0  0
105106  1  0  0  0  0
106107  2  0  0  0  0
107108  1  0  0  0  0
108109  2  0  0  0  0
109110  1  0  0  0  0
110111  1  0  0  0  0
111112  1  0  0  0  0
109113  1  0  0  0  0
113114  2  0  0  0  0
113115  1  0  0  0  0
108116  1  0  0  0  0
105117  2  0  0  0  0
117118  1  0  0  0  0
104119  1  0  0  0  0
119120  2  0  0  0  0
120121  1  0  0  0  0
120122  1  0  0  0  0
122123  2  0  0  0  0
123124  1  0  0  0  0
124125  2  0  0  0  0
124126  1  0  0  0  0
126127  1  0  0  0  0
127128  2  0  0  0  0
128129  1  0  0  0  0
129130  1  0  0  0  0
130131  1  0  0  0  0
131132  2  0  0  0  0
132133  1  0  0  0  0
133134  3  0  0  0  0
132135  1  0  0  0  0
135136  3  0  0  0  0
 10  2  1  0  0  0  0
 46 16  1  0  0  0  0
 67 50  1  0  0  0  0
 83 69  1  0  0  0  0
118 88  1  0  0  0  0
131123  1  0  0  0  0
  9  5  2  0  0  0  0
 45 18  1  0  0  0  0
 66 52  2  0  0  0  0
 78 71  1  0  0  0  0
 87 81  1  0  0  0  0
117 90  1  0  0  0  0
130126  2  0  0  0  0
 30 20  1  0  0  0  0
 49 31  1  0  0  0  0
 63 56  1  0  0  0  0
 84 64  1  0  0  0  0
102 92  1  0  0  0  0
121103  1  0  0  0  0
 42 34  1  0  0  0  0
114106  1  0  0  0  0
  1137  1  0  0  0  0
  6138  1  0  0  0  0
  7139  1  0  0  0  0
 17140  1  0  0  0  0
 21141  1  0  0  0  0
 26142  1  0  0  0  0
 26143  1  0  0  0  0
 27144  1  0  0  0  0
 27145  1  0  0  0  0
 27146  1  0  0  0  0
 30147  1  0  0  0  0
 35148  1  0  0  0  0
 39149  1  0  0  0  0
 39150  1  0  0  0  0
 40151  1  0  0  0  0
 40152  1  0  0  0  0
 40153  1  0  0  0  0
 42154  1  0  0  0  0
 47155  1  0  0  0  0
 51156  1  0  0  0  0
 54157  1  0  0  0  0
 54158  1  0  0  0  0
 55159  1  0  0  0  0
 55160  1  0  0  0  0
 55161  1  0  0  0  0
 57162  1  0  0  0  0
 58163  1  0  0  0  0
 60164  1  0  0  0  0
 60165  1  0  0  0  0
 61166  1  0  0  0  0
 61167  1  0  0  0  0
 61168  1  0  0  0  0
 62169  1  0  0  0  0
 63170  1  0  0  0  0
 68171  1  0  0  0  0
 72172  1  0  0  0  0
 73173  1  0  0  0  0
 75174  1  0  0  0  0
 75175  1  0  0  0  0
 76176  1  0  0  0  0
 76177  1  0  0  0  0
 76178  1  0  0  0  0
 77179  1  0  0  0  0
 78180  1  0  0  0  0
 79181  1  0  0  0  0
 79182  1  0  0  0  0
 80183  1  0  0  0  0
 80184  1  0  0  0  0
 80185  1  0  0  0  0
 84186  1  0  0  0  0
 87187  1  0  0  0  0
 89188  1  0  0  0  0
 93189  1  0  0  0  0
 98190  1  0  0  0  0
 98191  1  0  0  0  0
 99192  1  0  0  0  0
 99193  1  0  0  0  0
 99194  1  0  0  0  0
102195  1  0  0  0  0
107196  1  0  0  0  0
111197  1  0  0  0  0
111198  1  0  0  0  0
112199  1  0  0  0  0
112200  1  0  0  0  0
112201  1  0  0  0  0
114202  1  0  0  0  0
119203  1  0  0  0  0
122204  1  0  0  0  0
127205  1  0  0  0  0
128206  1  0  0  0  0
M  END
