261

C          4.51130      -11.92010        0.37040
C          4.55460      -12.34540       -0.93140
C          5.07600      -13.69830       -1.24490
O          5.64290      -14.45730       -0.48890
C          4.69250      -13.93840       -2.65020
C          4.83550      -15.07710       -3.41470
C          4.38470      -15.07990       -4.73100
C          4.52090      -16.31580       -5.56340
C          3.80700      -13.92130       -5.26960
C          3.32030      -13.91140       -6.68460
C          3.67650      -12.77170       -4.49540
C          4.10500      -12.77920       -3.18120
C          4.09100      -11.74580       -2.15050
C          3.90160      -10.39700       -2.35540
C          3.40060       -9.84370       -3.54550
N          2.94710       -9.34750       -4.47810
C          4.26250       -9.42870       -1.40540
N          4.58860       -8.60410       -0.67340
C          3.69850      -10.96040        0.99470
C          2.45900      -10.38680        0.65820
N          1.65460      -10.71450       -0.40800
C          0.69000       -9.76690       -0.83840
C          1.06930       -8.46700       -1.15960
C          0.12350       -7.55880       -1.59030
C         -1.21420       -7.91670       -1.71150
C         -2.22650       -6.91180       -2.16630
C         -1.58230       -9.21590       -1.38660
C         -0.64630      -10.13430       -0.95300
C          1.55960      -12.00880       -0.93890
C          1.81850      -13.14410       -0.17340
C          1.74000      -14.39940       -0.74110
C          1.38200      -14.56820       -2.07420
C          1.32440      -15.93660       -2.67710
C          1.07530      -13.43630       -2.81810
C          1.17000      -12.17420       -2.26840
C          2.07840       -9.43060        1.63030
S          0.73640       -8.35120        1.78940
C          1.38430       -7.72060        3.29670
C          2.59510       -8.30460        3.63930
N          3.37620       -7.93700        4.72150
C          4.11460       -8.89100        5.42880
C          5.28560       -8.52000        6.08810
C          6.01000       -9.45440        6.79760
C          5.60480      -10.78350        6.86580
C          6.41610      -11.78810        7.62490
C          4.44180      -11.14730        6.20370
C          3.69890      -10.21860        5.50030
C          3.38990       -6.58580        5.12650
C          3.17240       -6.23730        6.45630
C          3.11870       -4.90790        6.82240
C          3.28480       -3.89490        5.88360
C          3.20620       -2.45690        6.29610
C          3.53770       -4.25450        4.56680
C          3.59310       -5.58200        4.18620
C          2.95800       -9.29830        2.69470
S          4.29690      -10.36950        2.54930
C          0.79650       -6.51380        3.81980
C          0.30380       -6.14470        5.05330
C         -0.06040       -7.02870        6.16320
C         -1.09530       -6.63750        7.01510
C         -1.47040       -7.43010        8.08120
C         -0.82490       -8.62880        8.32150
C          0.18630       -9.05660        7.47140
C          0.91080      -10.34260        7.75110
C          2.10920      -10.09240        8.66830
C          0.55080       -8.25800        6.39730
C          0.07510       -4.74060        5.09470
S         -0.33580       -3.64200        6.39280
C         -0.17130       -2.30610        5.30580
C         -0.25400       -0.90280        5.31060
C         -0.43900        0.01860        6.36340
C         -0.37350        1.42460        6.07710
N         -0.51100        2.16880        7.16320
S         -0.70680        1.18720        8.43680
N         -0.62420       -0.22750        7.65090
C         -0.23570        1.84280        4.73590
C         -0.27910        3.12030        4.15150
S         -0.40780        4.78020        4.62930
C         -0.42110        5.23610        2.94430
C         -0.53840        6.48640        2.30430
C         -0.61920        7.74590        3.05140
C          0.34340        8.73470        2.88220
C          0.27550        9.89520        3.62940
C         -0.74180       10.07250        4.54980
C         -1.70250        9.08770        4.74220
C         -2.76630        9.23850        5.79120
C         -2.31700        8.57510        7.09470
C         -1.62770        7.92590        3.98950
C         -0.60290        6.34620        0.93530
S         -0.39800        4.66880        0.42860
C         -0.33600        4.15130        2.07420
C         -0.24070        2.93720        2.76800
N         -0.13910        1.60410        2.47270
C         -0.12120        0.90780        3.67060
C         -0.00580       -0.47290        3.97810
N          0.27600       -1.58790        3.20310
C          0.17070       -2.68910        4.01060
C          0.32990       -4.07740        3.89910
S          0.82560       -5.17410        2.66850
C          1.00410       -1.68000        1.95630
C          2.32260       -0.91360        2.01410
C         -0.46550        1.13580        1.14430
C         -1.75950        0.32780        1.13970
C         -0.95180        7.31470       -0.05980
C         -1.88720        7.13830       -1.07150
N         -2.71560        6.04040       -1.23430
C         -3.09450        5.71500       -2.55220
C         -2.12840        5.65160       -3.55220
C         -2.50090        5.41960       -4.86030
C         -3.83530        5.23860       -5.20160
C         -4.23120        5.06470       -6.63470
C         -4.78730        5.26460       -4.19090
C         -4.42870        5.50100       -2.87860
C         -3.25600        5.34450       -0.15210
C         -3.48050        5.96450        1.07760
C         -3.90480        5.22310        2.16100
C         -4.14950        3.85920        2.05410
C         -4.53230        3.05620        3.25990
C         -4.00440        3.26710        0.80610
C         -3.55350        3.98850       -0.28050
C         -1.95140        8.27270       -1.91710
S         -2.79670        8.61350       -3.38200
C         -2.07620       10.22420       -3.43460
C         -1.16130       10.43080       -2.37040
N         -0.39730       11.55400       -2.17930
C          0.17630       12.25480       -3.25640
C          0.28570       13.64270       -3.21440
C          0.84230       14.32270       -4.27880
C          1.29220       13.64880       -5.40830
C          1.85310       14.40920       -6.57030
C          1.19470       12.26250       -5.43240
C          0.65410       11.56710       -4.36950
C         -0.12610       11.97990       -0.86650
C         -1.12350       11.93860        0.10430
C         -0.87040       12.40140        1.38010
C          0.37020       12.92660        1.71850
C          0.62090       13.50220        3.07840
C          1.36690       12.94340        0.74890
C          1.13070       12.47270       -0.52640
C         -1.11870        9.31170       -1.52310
S         -0.22190        8.91390       -0.09330
C         -2.42790       11.21210       -4.35270
C         -3.21860       11.14470       -5.47870
C         -3.79820        9.93340       -6.06750
O         -3.80630        8.80290       -5.60900
C         -4.36410       10.34540       -7.36410
C         -5.00670        9.58350       -8.31670
C         -5.46270       10.18920       -9.48350
C         -6.16330        9.37340      -10.52360
C         -5.26200       11.56360       -9.67370
C         -5.74570       12.22760      -10.92410
C         -4.61530       12.32630       -8.70360
C         -4.16290       11.72310       -7.54370
C         -3.48440       12.25470       -6.36310
C         -3.19530       13.58120       -6.14690
C         -3.41810       14.60020       -7.09290
N         -3.55330       15.47630       -7.82430
C         -2.67640       14.12370       -4.95680
N         -2.29090       14.65780       -4.01380
H          5.17800      -12.45710        1.04000
H          5.29650      -15.95500       -2.98630
H          3.54480      -16.65720       -5.90730
H          5.12980      -16.11990       -6.44540
H          4.98610      -17.11460       -4.99230
H          4.13680      -14.12960       -7.37200
H          2.90200      -12.94180       -6.94070
H          2.55450      -14.67250       -6.83340
H          3.22580      -11.89080       -4.92550
H          2.10170       -8.16820       -1.06830
H          0.43210       -6.55460       -1.83940
H         -1.88070       -6.40040       -3.06270
H         -3.18100       -7.38650       -2.37760
H         -2.37870       -6.16050       -1.39150
H         -2.61710       -9.51550       -1.46720
H         -0.94690      -11.14030       -0.69870
H          2.07640      -13.04430        0.86980
H          1.96270      -15.26590       -0.13620
H          0.51540      -16.51470       -2.23090
H          1.15920      -15.88000       -3.74980
H          2.25580      -16.46880       -2.49300
H          0.77770      -13.53880       -3.85110
H          0.95510      -11.30540       -2.87340
H          5.62230       -7.49530        6.03730
H          6.91450       -9.14880        7.30360
H          7.32890      -12.02390        7.07740
H          6.70420      -11.39410        8.59790
H          5.85790      -12.70970        7.76980
H          4.10070      -12.17170        6.24410
H          2.78450      -10.52570        5.01450
H          3.02390       -7.01120        7.19430
H          2.92360       -4.64930        7.85270
H          4.14330       -2.14710        6.75990
H          3.02240       -1.81200        5.43950
H          2.40940       -2.30740        7.02190
H          3.69040       -3.48740        3.82080
H          3.78570       -5.84760        3.15670
H         -1.63060       -5.72010        6.83270
H         -2.27300       -7.10810        8.72830
H         -1.11290       -9.24170        9.16340
H          1.26140      -10.78640        6.81880
H          0.23180      -11.04940        8.23280
H          2.81700       -9.41710        8.19310
H          2.62410      -11.02540        8.88450
H          1.78210       -9.64810        9.60590
H          1.32830       -8.60330        5.74070
H          1.15660        8.58050        2.18910
H          1.02620       10.65800        3.49460
H         -0.78650       10.97860        5.13760
H         -3.69250        8.77090        5.45050
H         -2.96460       10.29680        5.97280
H         -3.08680        8.67200        7.85680
H         -2.11710        7.51840        6.93210
H         -1.40480        9.04130        7.46030
H         -2.36350        7.14760        4.12950
H          1.21030       -2.74170        1.79800
H          0.38920       -1.34460        1.11970
H          2.85230       -1.01900        1.07100
H          2.95000       -1.31040        2.80900
H          2.15840        0.14320        2.20940
H          0.36510        0.56970        0.71830
H         -0.59950        2.02790        0.52700
H         -1.67660       -0.56510        1.75380
H         -2.00810        0.03520        0.12310
H         -2.56640        0.93820        1.53610
H         -1.08920        5.80000       -3.29480
H         -1.74520        5.39000       -5.63170
H         -5.23490        4.65530       -6.71910
H         -3.53500        4.41080       -7.15650
H         -4.21250        6.03700       -7.12690
H         -5.82990        5.12100       -4.43570
H         -5.17970        5.54200       -2.10310
H         -3.31400        7.02640        1.18330
H         -4.05440        5.71300        3.11240
H         -3.64680        2.84460        3.86250
H         -4.98360        2.10890        2.97350
H         -5.23380        3.60470        3.88500
H         -4.23850        2.21970        0.67950
H         -3.40960        3.50260       -1.23400
H         -0.08180       14.18270       -2.35630
H          0.90810       15.39950       -4.24000
H          2.31790       13.73880       -7.28890
H          2.59290       15.13330       -6.23390
H          1.05810       14.95830       -7.07530
H          1.55380       11.71590       -6.29270
H          0.59040       10.48910       -4.40020
H         -2.10270       11.56140       -0.15200
H         -1.65640       12.36720        2.12010
H          0.49710       14.58550        3.04810
H         -0.08160       13.10280        3.80500
H          1.63610       13.29460        3.41030
H          2.34390       13.33290        0.99680
H          1.91510       12.49020       -1.26830
H         -1.99220       12.18110       -4.14490
H         -5.15450        8.52710       -8.14740
H         -6.23060        8.33340      -10.21580
H         -5.63060        9.42180      -11.47290
H         -7.17100        9.75180      -10.69280
H         -5.50940       13.28800      -10.91300
H         -6.82440       12.11250      -11.02580
H         -5.28270       11.77670      -11.80140
H         -4.47520       13.38170       -8.87400
