236

C         12.25250       -4.25300       -0.68850
C         12.75220       -5.31930       -1.40990
C         11.91910       -6.35050       -2.03150
O         10.69760       -6.48220       -1.99990
C         12.82960       -7.16040       -2.83970
C         12.49250       -8.25510       -3.62230
O         11.22320       -8.68040       -3.71650
C         13.53610       -8.90370       -4.29490
C         14.83140       -8.43940       -4.17450
C         15.16220       -7.33240       -3.39230
C         14.14470       -6.68960       -2.71470
C         14.11730       -5.54280       -1.80450
C         15.21800       -4.90270       -1.29010
C         15.15660       -3.89420       -0.30920
N         15.17710       -3.09060        0.51170
C         16.54290       -5.23820       -1.62250
N         17.64290       -5.48440       -1.84520
C         11.03950       -4.23070       -0.00090
C         10.24940       -5.27250        0.53570
N         10.60430       -6.58180        0.67180
C          9.59370       -7.55970        0.81340
C          9.67720       -8.49740        1.83590
C          8.68660       -9.45010        1.97820
C          7.60240       -9.49110        1.11060
C          6.51440      -10.50620        1.27730
C          7.54060       -8.55850        0.08020
C          8.52230       -7.60090       -0.07350
C         11.93690       -7.01730        0.71020
C         12.29310       -8.20460        0.07380
C         13.61120       -8.62070        0.06150
C         14.60380       -7.87730        0.68560
C         16.03990       -8.29140        0.62550
C         14.23040       -6.71960        1.36480
C         12.92010       -6.29110        1.38090
C          9.04020       -4.75220        1.05100
S          7.66570       -5.46180        1.83100
C          6.92560       -3.88080        2.03160
C          7.74560       -2.85540        1.57520
N          7.48370       -1.49950        1.69500
C          6.91670       -0.97600        2.86200
C          7.13540       -1.58010        4.09830
C          6.51490       -1.09590        5.23090
C          5.67600        0.01140        5.17490
C          4.98410        0.50460        6.40860
C          5.49110        0.63130        3.94590
C          6.09300        0.14640        2.80120
C          7.89820       -0.65130        0.65480
C          8.49780        0.57470        0.92890
C          8.91290        1.38770       -0.10600
C          8.75320        1.00300       -1.43250
C          9.23880        1.87810       -2.54690
C          8.15520       -0.22260       -1.69630
C          7.72630       -1.04120       -0.67040
C          8.93210       -3.36950        1.00330
S         10.32730       -2.63630        0.30610
C          5.59290       -3.76120        2.52870
C          4.92270       -4.53410        3.45390
C          5.49660       -5.66780        4.24470
C          6.50180       -5.18090        5.28710
C          3.59930       -4.09120        3.62200
S          2.29580       -4.64570        4.64990
C          1.27330       -3.42590        3.97050
C         -0.05840       -2.98890        4.04130
C         -1.13550       -3.51850        4.78790
C         -2.44150       -2.95120        4.59430
N         -3.40740       -3.52060        5.28960
Se        -2.71080       -4.82470        6.25350
N         -1.08410       -4.52540        5.63870
C         -2.57080       -1.85140        3.71620
C         -3.71160       -1.10050        3.39240
S         -5.40680       -1.07460        3.73650
C         -5.57440        0.29850        2.67190
C         -6.70580        0.99640        2.20910
C         -8.07600        0.79740        2.77190
C         -8.29850        1.74440        3.95320
C         -6.35810        1.94060        1.27410
S         -4.61670        2.03060        1.01820
C         -4.36960        0.71360        2.10720
C         -3.29980       -0.09180        2.52320
N         -1.95310       -0.18760        2.30500
C         -1.47440       -1.28140        3.00610
C         -0.19670       -1.90290        3.12710
N          1.02630       -1.72110        2.50550
C          1.90920       -2.62970        3.01920
C          3.24200       -3.01000        2.81660
S          4.56240       -2.51380        1.82610
C          1.49560       -0.83450        1.46850
C          2.24600        0.36180        2.05360
C         -1.31140        0.83970        1.52030
C         -1.45630        0.57940        0.02050
C         -7.22650        2.68420        0.40790
C         -8.21310        2.15090       -0.40940
N         -8.51950        0.80580       -0.52030
C         -9.84950        0.41610       -0.73680
C        -10.90070        1.12540       -0.16140
C        -12.20730        0.74300       -0.39390
C        -12.50240       -0.35630       -1.18890
C        -13.92030       -0.75730       -1.45710
C        -11.44610       -1.06620       -1.74950
C        -10.13680       -0.68860       -1.53450
C         -7.50530       -0.15930       -0.40310
C         -6.26090        0.04970       -0.98940
C         -5.23670       -0.85560       -0.78790
C         -5.42110       -1.98700       -0.00570
C         -4.29920       -2.94330        0.25990
C         -6.68490       -2.21840        0.52710
C         -7.71680       -1.32420        0.33130
C         -8.83570        3.16840       -1.17080
S        -10.03620        3.15270       -2.40710
C         -9.87980        4.90540       -2.61470
C         -8.85880        5.44330       -1.79860
N         -8.34720        6.70630       -1.85440
C         -8.38650        7.49310       -3.01350
C         -8.62400        8.86260       -2.91530
C         -8.70470        9.63890       -4.05650
C         -8.54530        9.08050       -5.31760
C         -8.68310        9.90560       -6.55780
C         -8.26270        7.71880       -5.40370
C         -8.18330        6.93250       -4.27410
C         -7.72200        7.24310       -0.70800
C         -8.33470        7.14180        0.53730
C         -7.71500        7.66870        1.65190
C         -6.48300        8.30670        1.55460
C         -5.81010        8.85040        2.77700
C         -5.88880        8.41380        0.30310
C         -6.49650        7.88960       -0.82140
C         -8.31480        4.43830       -0.96530
S         -7.01770        4.41110        0.18400
C        -10.72120        5.50170       -3.55210
C        -11.07480        6.83740       -3.59400
C        -11.13100        7.70130       -2.40670
O        -10.84730        7.40360       -1.26020
C        -11.72890        8.97200       -2.86860
C        -12.00590       10.09890       -2.15460
C        -12.57200       11.21320       -2.81700
C        -12.86980       12.40670       -2.13010
C        -13.42230       13.47620       -2.77970
C        -13.68940       13.37060       -4.15020
F        -14.23270       14.43410       -4.77470
C        -13.41840       12.23670       -4.86450
C        -12.85010       11.12670       -4.21090
C        -12.55680        9.93910       -4.92370
C        -11.99930        8.88070       -4.26240
C        -11.57290        7.56260       -4.72490
C        -11.49660        7.15690       -6.03710
C        -10.94180        5.93020       -6.44820
N        -10.47220        4.96190       -6.85120
C        -11.87950        7.95420       -7.12940
N        -12.15910        8.57110       -8.05820
H         12.81600       -3.32780       -0.67760
H         10.66330       -8.07460       -3.19020
H         13.30800       -9.76380       -4.90410
H         15.61930       -8.95060       -4.70720
H         16.18530       -6.99980       -3.33570
H         10.51560       -8.47180        2.51680
H          8.75680      -10.17000        2.78050
H          6.81020      -11.28520        1.97500
H          6.26670      -10.96420        0.32170
H          5.61310      -10.02690        1.65960
H          6.71330       -8.58790       -0.61370
H          8.48740       -6.89360       -0.88750
H         11.53300       -8.79180       -0.42010
H         13.87150       -9.53140       -0.45790
H         16.50530       -8.21120        1.60590
H         16.59000       -7.63990       -0.05450
H         16.13620       -9.31350        0.26890
H         14.98150       -6.14010        1.88160
H         12.65620       -5.38780        1.91010
H          7.79780       -2.42960        4.16810
H          6.69080       -1.58230        6.17960
H          5.67540        0.54290        7.24840
H          4.56680        1.49610        6.25170
H          4.17130       -0.17080        6.67780
H          4.85630        1.50370        3.87890
H          5.91830        0.62540        1.84920
H          8.64120        0.88030        1.95480
H          9.38080        2.33480        0.12050
H          9.15440        2.92920       -2.28050
H          8.67390        1.69710       -3.45830
H         10.28870        1.66760       -2.75320
H          8.01800       -0.54030       -2.71980
H          7.25170       -1.98690       -0.88990
H          5.98070       -6.38330        3.57660
H          4.67120       -6.17570        4.74750
H          6.04310       -4.43680        5.93390
H          6.83950       -6.01430        5.89740
H          7.36750       -4.73530        4.80410
H         -8.16600       -0.23550        3.11260
H         -8.83460        0.98400        2.01310
H         -7.55780        1.56300        4.72850
H         -8.21460        2.77960        3.62880
H         -9.28800        1.59000        4.37570
H          2.19140       -1.40940        0.84820
H          0.66900       -0.52820        0.83540
H          1.63440        0.89880        2.77640
H          3.14540        0.02070        2.56030
H          2.53530        1.04330        1.25830
H         -0.27190        0.93940        1.82050
H         -1.81420        1.78390        1.75570
H         -1.11990       -0.42140       -0.24460
H         -0.87810        1.30810       -0.54120
H         -2.50010        0.67270       -0.26700
H        -10.69350        1.97570        0.47280
H        -13.01030        1.30700        0.05800
H        -14.58410       -0.38240       -0.68190
H        -14.24850       -0.34600       -2.41230
H        -14.01350       -1.83990       -1.50990
H        -11.65370       -1.92370       -2.37300
H         -9.32720       -1.24310       -1.98530
H         -6.09550        0.93140       -1.59180
H         -4.27490       -0.67360       -1.24630
H         -3.34650       -2.52350       -0.05480
H         -4.45920       -3.87620       -0.28060
H         -4.24340       -3.18010        1.32140
H         -6.85400       -3.10220        1.12440
H         -8.68840       -1.51050        0.76350
H         -8.75790        9.30920       -1.94160
H         -8.91040       10.69540       -3.96190
H         -7.87180        9.69520       -7.25170
H         -9.61900        9.66870       -7.06490
H         -8.68260       10.96670       -6.32240
H         -8.10980        7.26750       -6.37310
H         -7.96660        5.87880       -4.36670
H         -9.30620        6.67860        0.60780
H         -8.19920        7.59190        2.61450
H         -6.53880        9.28040        3.46070
H         -5.07890        9.61090        2.51480
H         -5.29220        8.04750        3.30240
H         -4.93440        8.91060        0.20580
H         -6.02480        7.97540       -1.78950
H        -11.15750        4.83130       -4.28310
H        -11.79200       10.14720       -1.09710
H        -12.65600       12.46390       -1.07310
H        -13.65850       14.39530       -2.26710
H        -13.63670       12.19080       -5.92010
H        -12.78900        9.89850       -5.97600
