
  xtb     02152214253D
 energy: -386.559612848041 gnorm: 0.000893247953 xtb: 6.4.1 (unknown)
229253  0     0  0            999 V2000
   -5.7274  -10.1349   -2.6590 C   0  0  0  0  0  0  0  0  0  0  0  0
   -6.6010  -10.4033   -3.6931 C   0  0  0  0  0  0  0  0  0  0  0  0
   -7.8275   -9.6444   -3.9471 C   0  0  0  0  0  0  0  0  0  0  0  0
   -8.2656   -8.6616   -3.3540 O   0  0  0  0  0  0  0  0  0  0  0  0
   -8.5348  -10.3763   -4.9969 C   0  0  0  0  0  0  0  0  0  0  0  0
   -9.7571  -10.0411   -5.5612 C   0  0  0  0  0  0  0  0  0  0  0  0
  -10.4379   -8.9578   -5.1564 O   0  0  0  0  0  0  0  0  0  0  0  0
  -10.2383  -10.8731   -6.5800 C   0  0  0  0  0  0  0  0  0  0  0  0
   -9.5100  -11.9791   -6.9728 C   0  0  0  0  0  0  0  0  0  0  0  0
   -8.2852  -12.3151   -6.3951 C   0  0  0  0  0  0  0  0  0  0  0  0
   -7.7933  -11.4976   -5.3963 C   0  0  0  0  0  0  0  0  0  0  0  0
   -6.5649  -11.5199   -4.6000 C   0  0  0  0  0  0  0  0  0  0  0  0
   -5.4932  -12.3535   -4.8035 C   0  0  0  0  0  0  0  0  0  0  0  0
   -4.2714  -12.2474   -4.1110 C   0  0  0  0  0  0  0  0  0  0  0  0
   -3.2417  -12.2000   -3.6034 N   0  0  0  0  0  0  0  0  0  0  0  0
   -5.4581  -13.3538   -5.7918 C   0  0  0  0  0  0  0  0  0  0  0  0
   -5.3697  -14.1713   -6.5944 N   0  0  0  0  0  0  0  0  0  0  0  0
   -5.5337   -8.8912   -2.0554 C   0  0  0  0  0  0  0  0  0  0  0  0
   -5.7359   -7.5793   -2.5358 C   0  0  0  0  0  0  0  0  0  0  0  0
   -6.0636   -7.2085   -3.8085 N   0  0  0  0  0  0  0  0  0  0  0  0
   -6.7129   -5.9714   -4.0133 C   0  0  0  0  0  0  0  0  0  0  0  0
   -6.2819   -5.1160   -5.0206 C   0  0  0  0  0  0  0  0  0  0  0  0
   -6.9234   -3.9086   -5.2195 C   0  0  0  0  0  0  0  0  0  0  0  0
   -7.9990   -3.5288   -4.4265 C   0  0  0  0  0  0  0  0  0  0  0  0
   -8.6809   -2.2108   -4.6261 C   0  0  0  0  0  0  0  0  0  0  0  0
   -8.4274   -4.3983   -3.4288 C   0  0  0  0  0  0  0  0  0  0  0  0
   -7.7975   -5.6079   -3.2202 C   0  0  0  0  0  0  0  0  0  0  0  0
   -5.7670   -7.9916   -4.9319 C   0  0  0  0  0  0  0  0  0  0  0  0
   -4.5699   -8.7011   -5.0225 C   0  0  0  0  0  0  0  0  0  0  0  0
   -4.3162   -9.4966   -6.1195 C   0  0  0  0  0  0  0  0  0  0  0  0
   -5.2390   -9.6126   -7.1568 C   0  0  0  0  0  0  0  0  0  0  0  0
   -4.9712  -10.5255   -8.3111 C   0  0  0  0  0  0  0  0  0  0  0  0
   -6.4090   -8.8692   -7.0798 C   0  0  0  0  0  0  0  0  0  0  0  0
   -6.6741   -8.0650   -5.9873 C   0  0  0  0  0  0  0  0  0  0  0  0
   -5.4337   -6.6355   -1.5271 C   0  0  0  0  0  0  0  0  0  0  0  0
   -5.4018   -4.9039   -1.4880 S   0  0  0  0  0  0  0  0  0  0  0  0
   -4.8223   -4.9365    0.1675 C   0  0  0  0  0  0  0  0  0  0  0  0
   -4.6012   -6.2225    0.6396 C   0  0  0  0  0  0  0  0  0  0  0  0
   -4.0596   -6.5458    1.8688 N   0  0  0  0  0  0  0  0  0  0  0  0
   -3.1117   -5.7108    2.4791 C   0  0  0  0  0  0  0  0  0  0  0  0
   -3.1465   -5.4966    3.8546 C   0  0  0  0  0  0  0  0  0  0  0  0
   -2.2632   -4.6154    4.4441 C   0  0  0  0  0  0  0  0  0  0  0  0
   -1.3178   -3.9301    3.6901 C   0  0  0  0  0  0  0  0  0  0  0  0
   -0.4080   -2.9277    4.3323 C   0  0  0  0  0  0  0  0  0  0  0  0
   -1.2539   -4.1900    2.3271 C   0  0  0  0  0  0  0  0  0  0  0  0
   -2.1302   -5.0724    1.7254 C   0  0  0  0  0  0  0  0  0  0  0  0
   -4.4824   -7.7169    2.5182 C   0  0  0  0  0  0  0  0  0  0  0  0
   -3.5697   -8.4936    3.2275 C   0  0  0  0  0  0  0  0  0  0  0  0
   -3.9850   -9.6487    3.8570 C   0  0  0  0  0  0  0  0  0  0  0  0
   -5.3098  -10.0670    3.7934 C   0  0  0  0  0  0  0  0  0  0  0  0
   -5.7398  -11.3408    4.4538 C   0  0  0  0  0  0  0  0  0  0  0  0
   -6.2126   -9.2859    3.0847 C   0  0  0  0  0  0  0  0  0  0  0  0
   -5.8117   -8.1233    2.4564 C   0  0  0  0  0  0  0  0  0  0  0  0
   -4.9678   -7.1791   -0.3382 C   0  0  0  0  0  0  0  0  0  0  0  0
   -4.8659   -8.8977   -0.4136 S   0  0  0  0  0  0  0  0  0  0  0  0
   -4.5754   -3.7190    0.8841 C   0  0  0  0  0  0  0  0  0  0  0  0
   -4.9895   -3.4077    2.1635 C   0  0  0  0  0  0  0  0  0  0  0  0
   -6.0302   -4.1489    2.8722 C   0  0  0  0  0  0  0  0  0  0  0  0
   -6.0111   -4.2688    4.2592 C   0  0  0  0  0  0  0  0  0  0  0  0
   -6.9937   -4.9958    4.9042 C   0  0  0  0  0  0  0  0  0  0  0  0
   -8.0082   -5.5999    4.1836 C   0  0  0  0  0  0  0  0  0  0  0  0
   -8.0643   -5.4638    2.8019 C   0  0  0  0  0  0  0  0  0  0  0  0
   -9.1955   -6.0598    2.0127 C   0  0  0  0  0  0  0  0  0  0  0  0
  -10.3545   -5.0673    1.9054 C   0  0  0  0  0  0  0  0  0  0  0  0
   -7.0777   -4.7317    2.1620 C   0  0  0  0  0  0  0  0  0  0  0  0
   -4.3165   -2.2619    2.6458 C   0  0  0  0  0  0  0  0  0  0  0  0
   -4.3207   -1.4308    4.1810 S   0  0  0  0  0  0  0  0  0  0  0  0
   -3.1278   -0.3324    3.5742 C   0  0  0  0  0  0  0  0  0  0  0  0
   -2.3193    0.7258    4.0277 C   0  0  0  0  0  0  0  0  0  0  0  0
   -2.1167    1.2794    5.3119 C   0  0  0  0  0  0  0  0  0  0  0  0
   -1.0454    2.2197    5.5108 C   0  0  0  0  0  0  0  0  0  0  0  0
   -0.9234    2.5834    6.7776 N   0  0  0  0  0  0  0  0  0  0  0  0
   -2.0585    1.8214    7.6444 S   0  0  0  0  0  0  0  0  0  0  0  0
   -2.7484    0.9901    6.4386 N   0  0  0  0  0  0  0  0  0  0  0  0
   -0.3111    2.6680    4.3909 C   0  0  0  0  0  0  0  0  0  0  0  0
    0.7219    3.6121    4.2391 C   0  0  0  0  0  0  0  0  0  0  0  0
    1.7340    4.6181    5.2203 S   0  0  0  0  0  0  0  0  0  0  0  0
    2.5271    5.1904    3.7732 C   0  0  0  0  0  0  0  0  0  0  0  0
    3.5780    6.1021    3.5627 C   0  0  0  0  0  0  0  0  0  0  0  0
    4.1913    6.8824    4.6433 C   0  0  0  0  0  0  0  0  0  0  0  0
    4.1831    8.2734    4.5931 C   0  0  0  0  0  0  0  0  0  0  0  0
    4.7305    9.0008    5.6321 C   0  0  0  0  0  0  0  0  0  0  0  0
    5.2968    8.3520    6.7157 C   0  0  0  0  0  0  0  0  0  0  0  0
    5.3157    6.9649    6.7784 C   0  0  0  0  0  0  0  0  0  0  0  0
    5.8971    6.2629    7.9705 C   0  0  0  0  0  0  0  0  0  0  0  0
    4.8251    6.0661    9.0439 C   0  0  0  0  0  0  0  0  0  0  0  0
    4.7457    6.2388    5.7426 C   0  0  0  0  0  0  0  0  0  0  0  0
    3.8889    6.2041    2.2187 C   0  0  0  0  0  0  0  0  0  0  0  0
    2.8494    5.2132    1.2068 S   0  0  0  0  0  0  0  0  0  0  0  0
    2.0122    4.6313    2.6014 C   0  0  0  0  0  0  0  0  0  0  0  0
    0.9749    3.7304    2.8691 C   0  0  0  0  0  0  0  0  0  0  0  0
    0.1459    2.8934    2.1636 N   0  0  0  0  0  0  0  0  0  0  0  0
   -0.6218    2.2046    3.0862 C   0  0  0  0  0  0  0  0  0  0  0  0
   -1.5196    1.1236    2.9236 C   0  0  0  0  0  0  0  0  0  0  0  0
   -1.7947    0.2963    1.8448 N   0  0  0  0  0  0  0  0  0  0  0  0
   -2.7656   -0.5835    2.2496 C   0  0  0  0  0  0  0  0  0  0  0  0
   -3.4417   -1.6914    1.7225 C   0  0  0  0  0  0  0  0  0  0  0  0
   -3.4436   -2.5499    0.2256 S   0  0  0  0  0  0  0  0  0  0  0  0
   -0.9374   -0.0518    0.7279 C   0  0  0  0  0  0  0  0  0  0  0  0
    0.4897   -0.3503    1.1745 C   0  0  0  0  0  0  0  0  0  0  0  0
   -0.2327    3.1999    0.8013 C   0  0  0  0  0  0  0  0  0  0  0  0
   -0.7421    4.6346    0.6690 C   0  0  0  0  0  0  0  0  0  0  0  0
    4.9799    6.9015    1.6251 C   0  0  0  0  0  0  0  0  0  0  0  0
    6.1198    7.3336    2.2402 C   0  0  0  0  0  0  0  0  0  0  0  0
    7.0434    7.9515    1.3675 C   0  0  0  0  0  0  0  0  0  0  0  0
    8.3265    8.4410    1.6893 C   0  0  0  0  0  0  0  0  0  0  0  0
    8.8296    8.4567    3.0462 C   0  0  0  0  0  0  0  0  0  0  0  0
   10.0950    8.1723    3.4808 C   0  0  0  0  0  0  0  0  0  0  0  0
   10.2569    8.2902    4.8723 C   0  0  0  0  0  0  0  0  0  0  0  0
    9.1146    8.6923    5.5032 C   0  0  0  0  0  0  0  0  0  0  0  0
    8.7975    8.9545    7.2019 S   0  0  0  0  0  0  0  0  0  0  0  0
   10.4640    9.3567    7.8404 C   0  0  0  0  0  0  0  0  0  0  0  0
   10.9952   10.6578    7.2736 C   0  0  0  0  0  0  0  0  0  0  0  0
    7.8119    8.9265    4.3852 S   0  0  0  0  0  0  0  0  0  0  0  0
    9.0879    8.9134    0.6269 C   0  0  0  0  0  0  0  0  0  0  0  0
    8.6241    8.9339   -0.7133 C   0  0  0  0  0  0  0  0  0  0  0  0
    7.3412    8.4334   -1.0397 C   0  0  0  0  0  0  0  0  0  0  0  0
    6.8661    8.3596   -2.4010 C   0  0  0  0  0  0  0  0  0  0  0  0
    5.5843    8.4892   -2.8660 C   0  0  0  0  0  0  0  0  0  0  0  0
    5.4597    8.3310   -4.2563 C   0  0  0  0  0  0  0  0  0  0  0  0
    6.6506    8.0522   -4.8662 C   0  0  0  0  0  0  0  0  0  0  0  0
    7.0493    7.8292   -6.5508 S   0  0  0  0  0  0  0  0  0  0  0  0
    5.4404    7.3221   -7.2573 C   0  0  0  0  0  0  0  0  0  0  0  0
    4.9980    5.9643   -6.7500 C   0  0  0  0  0  0  0  0  0  0  0  0
    7.9494    7.9825   -3.7228 S   0  0  0  0  0  0  0  0  0  0  0  0
    6.5828    7.9639    0.0269 C   0  0  0  0  0  0  0  0  0  0  0  0
    5.0018    7.2389   -0.0940 S   0  0  0  0  0  0  0  0  0  0  0  0
    9.5746    9.4988   -1.5833 C   0  0  0  0  0  0  0  0  0  0  0  0
   10.7464    9.8678   -0.9736 C   0  0  0  0  0  0  0  0  0  0  0  0
   10.6873    9.5867    0.7534 S   0  0  0  0  0  0  0  0  0  0  0  0
   11.8872   10.4515   -1.5775 C   0  0  0  0  0  0  0  0  0  0  0  0
   12.2541   10.3713   -2.8851 C   0  0  0  0  0  0  0  0  0  0  0  0
   13.1937   11.3697   -3.4524 C   0  0  0  0  0  0  0  0  0  0  0  0
   13.8891   12.1748   -2.8545 O   0  0  0  0  0  0  0  0  0  0  0  0
   13.0603   11.2471   -4.8998 C   0  0  0  0  0  0  0  0  0  0  0  0
   13.6538   12.0521   -5.8669 C   0  0  0  0  0  0  0  0  0  0  0  0
   14.4809   13.0512   -5.5395 O   0  0  0  0  0  0  0  0  0  0  0  0
   13.3474   11.7717   -7.2050 C   0  0  0  0  0  0  0  0  0  0  0  0
   12.4863   10.7386   -7.5215 C   0  0  0  0  0  0  0  0  0  0  0  0
   11.9007    9.9264   -6.5505 C   0  0  0  0  0  0  0  0  0  0  0  0
   12.2002   10.1829   -5.2267 C   0  0  0  0  0  0  0  0  0  0  0  0
   11.8096    9.5235   -3.9803 C   0  0  0  0  0  0  0  0  0  0  0  0
   11.3629    8.2332   -3.8918 C   0  0  0  0  0  0  0  0  0  0  0  0
   11.2387    7.5180   -2.6823 C   0  0  0  0  0  0  0  0  0  0  0  0
   11.1714    6.8690   -1.7381 N   0  0  0  0  0  0  0  0  0  0  0  0
   11.0668    7.4281   -5.0124 C   0  0  0  0  0  0  0  0  0  0  0  0
   10.8073    6.7320   -5.8869 N   0  0  0  0  0  0  0  0  0  0  0  0
   -5.1574  -10.9545   -2.2380 H   0  0  0  0  0  0  0  0  0  0  0  0
   -9.9339   -8.5402   -4.4289 H   0  0  0  0  0  0  0  0  0  0  0  0
  -11.1813  -10.6345   -7.0457 H   0  0  0  0  0  0  0  0  0  0  0  0
   -9.9032  -12.6102   -7.7557 H   0  0  0  0  0  0  0  0  0  0  0  0
   -7.7561  -13.1931   -6.7267 H   0  0  0  0  0  0  0  0  0  0  0  0
   -5.4445   -5.4004   -5.6409 H   0  0  0  0  0  0  0  0  0  0  0  0
   -6.5778   -3.2494   -6.0025 H   0  0  0  0  0  0  0  0  0  0  0  0
   -8.4240   -1.7801   -5.5904 H   0  0  0  0  0  0  0  0  0  0  0  0
   -9.7615   -2.3233   -4.5660 H   0  0  0  0  0  0  0  0  0  0  0  0
   -8.3747   -1.5122   -3.8470 H   0  0  0  0  0  0  0  0  0  0  0  0
   -9.2720   -4.1255   -2.8130 H   0  0  0  0  0  0  0  0  0  0  0  0
   -8.1500   -6.2946   -2.4664 H   0  0  0  0  0  0  0  0  0  0  0  0
   -3.8408   -8.6301   -4.2294 H   0  0  0  0  0  0  0  0  0  0  0  0
   -3.3872  -10.0455   -6.1699 H   0  0  0  0  0  0  0  0  0  0  0  0
   -5.6647  -10.3368   -9.1263 H   0  0  0  0  0  0  0  0  0  0  0  0
   -3.9530  -10.3985   -8.6737 H   0  0  0  0  0  0  0  0  0  0  0  0
   -5.0831  -11.5652   -8.0015 H   0  0  0  0  0  0  0  0  0  0  0  0
   -7.1348   -8.9300   -7.8776 H   0  0  0  0  0  0  0  0  0  0  0  0
   -7.5909   -7.4960   -5.9415 H   0  0  0  0  0  0  0  0  0  0  0  0
   -3.8832   -6.0136    4.4507 H   0  0  0  0  0  0  0  0  0  0  0  0
   -2.3186   -4.4432    5.5092 H   0  0  0  0  0  0  0  0  0  0  0  0
   -0.2038   -3.1974    5.3656 H   0  0  0  0  0  0  0  0  0  0  0  0
    0.5360   -2.8561    3.7956 H   0  0  0  0  0  0  0  0  0  0  0  0
   -0.8772   -1.9422    4.3336 H   0  0  0  0  0  0  0  0  0  0  0  0
   -0.5072   -3.6956    1.7215 H   0  0  0  0  0  0  0  0  0  0  0  0
   -2.0602   -5.2656    0.6646 H   0  0  0  0  0  0  0  0  0  0  0  0
   -2.5354   -8.1867    3.2774 H   0  0  0  0  0  0  0  0  0  0  0  0
   -3.2653  -10.2435    4.4007 H   0  0  0  0  0  0  0  0  0  0  0  0
   -5.5054  -12.1902    3.8112 H   0  0  0  0  0  0  0  0  0  0  0  0
   -6.8113  -11.3416    4.6378 H   0  0  0  0  0  0  0  0  0  0  0  0
   -5.2183  -11.4829    5.3979 H   0  0  0  0  0  0  0  0  0  0  0  0
   -7.2485   -9.5867    3.0256 H   0  0  0  0  0  0  0  0  0  0  0  0
   -6.5309   -7.5192    1.9250 H   0  0  0  0  0  0  0  0  0  0  0  0
   -5.2192   -3.8068    4.8271 H   0  0  0  0  0  0  0  0  0  0  0  0
   -6.9654   -5.0943    5.9794 H   0  0  0  0  0  0  0  0  0  0  0  0
   -8.7665   -6.1747    4.6953 H   0  0  0  0  0  0  0  0  0  0  0  0
   -9.5457   -6.9721    2.5000 H   0  0  0  0  0  0  0  0  0  0  0  0
   -8.8527   -6.3188    1.0081 H   0  0  0  0  0  0  0  0  0  0  0  0
  -11.1697   -5.4955    1.3266 H   0  0  0  0  0  0  0  0  0  0  0  0
  -10.7265   -4.8118    2.8949 H   0  0  0  0  0  0  0  0  0  0  0  0
  -10.0238   -4.1526    1.4182 H   0  0  0  0  0  0  0  0  0  0  0  0
   -7.1314   -4.6013    1.0905 H   0  0  0  0  0  0  0  0  0  0  0  0
    3.7450    8.7743    3.7424 H   0  0  0  0  0  0  0  0  0  0  0  0
    4.7215   10.0798    5.5944 H   0  0  0  0  0  0  0  0  0  0  0  0
    5.7391    8.9259    7.5162 H   0  0  0  0  0  0  0  0  0  0  0  0
    6.2910    5.2894    7.6720 H   0  0  0  0  0  0  0  0  0  0  0  0
    6.7176    6.8562    8.3785 H   0  0  0  0  0  0  0  0  0  0  0  0
    3.9997    5.4770    8.6501 H   0  0  0  0  0  0  0  0  0  0  0  0
    4.4344    7.0281    9.3675 H   0  0  0  0  0  0  0  0  0  0  0  0
    5.2405    5.5511    9.9070 H   0  0  0  0  0  0  0  0  0  0  0  0
    4.7486    5.1586    5.7781 H   0  0  0  0  0  0  0  0  0  0  0  0
   -1.3727   -0.9477    0.2784 H   0  0  0  0  0  0  0  0  0  0  0  0
   -0.9395    0.7255   -0.0397 H   0  0  0  0  0  0  0  0  0  0  0  0
    0.4867   -1.1300    1.9323 H   0  0  0  0  0  0  0  0  0  0  0  0
    0.9649    0.5333    1.5911 H   0  0  0  0  0  0  0  0  0  0  0  0
    1.0735   -0.6906    0.3237 H   0  0  0  0  0  0  0  0  0  0  0  0
   -1.0389    2.5290    0.5159 H   0  0  0  0  0  0  0  0  0  0  0  0
    0.6297    3.0471    0.1440 H   0  0  0  0  0  0  0  0  0  0  0  0
    0.0450    5.3527    0.8783 H   0  0  0  0  0  0  0  0  0  0  0  0
   -1.0970    4.8003   -0.3446 H   0  0  0  0  0  0  0  0  0  0  0  0
   -1.5648    4.8052    1.3603 H   0  0  0  0  0  0  0  0  0  0  0  0
    6.3036    7.1698    3.2843 H   0  0  0  0  0  0  0  0  0  0  0  0
   10.8817    7.8387    2.8287 H   0  0  0  0  0  0  0  0  0  0  0  0
   11.1816    8.0734    5.3750 H   0  0  0  0  0  0  0  0  0  0  0  0
   11.1201    8.5146    7.6253 H   0  0  0  0  0  0  0  0  0  0  0  0
   10.3203    9.4257    8.9184 H   0  0  0  0  0  0  0  0  0  0  0  0
   10.3198   11.4768    7.5101 H   0  0  0  0  0  0  0  0  0  0  0  0
   11.9713   10.8751    7.7024 H   0  0  0  0  0  0  0  0  0  0  0  0
   11.0971   10.5948    6.1922 H   0  0  0  0  0  0  0  0  0  0  0  0
    4.7510    8.7421   -2.2359 H   0  0  0  0  0  0  0  0  0  0  0  0
    4.5244    8.4317   -4.7755 H   0  0  0  0  0  0  0  0  0  0  0  0
    4.7134    8.1032   -7.0393 H   0  0  0  0  0  0  0  0  0  0  0  0
    5.6242    7.3002   -8.3310 H   0  0  0  0  0  0  0  0  0  0  0  0
    5.7500    5.2134   -6.9802 H   0  0  0  0  0  0  0  0  0  0  0  0
    4.8484    5.9837   -5.6724 H   0  0  0  0  0  0  0  0  0  0  0  0
    4.0620    5.6796   -7.2263 H   0  0  0  0  0  0  0  0  0  0  0  0
    9.3923    9.6917   -2.6243 H   0  0  0  0  0  0  0  0  0  0  0  0
   12.5065   11.0829   -0.9494 H   0  0  0  0  0  0  0  0  0  0  0  0
   14.5658   13.0863   -4.5672 H   0  0  0  0  0  0  0  0  0  0  0  0
   13.7940   12.3789   -7.9762 H   0  0  0  0  0  0  0  0  0  0  0  0
   12.2586   10.5500   -8.5598 H   0  0  0  0  0  0  0  0  0  0  0  0
   11.2270    9.1362   -6.8384 H   0  0  0  0  0  0  0  0  0  0  0  0
  1  2  2  0  0  0  0
  2  3  1  0  0  0  0
  3  4  2  0  0  0  0
  3  5  1  0  0  0  0
  5  6  2  0  0  0  0
  6  7  1  0  0  0  0
  6  8  1  0  0  0  0
  8  9  2  0  0  0  0
  9 10  1  0  0  0  0
 10 11  2  0  0  0  0
 11 12  1  0  0  0  0
 12 13  2  0  0  0  0
 13 14  1  0  0  0  0
 14 15  3  0  0  0  0
 13 16  1  0  0  0  0
 16 17  3  0  0  0  0
  1 18  1  0  0  0  0
 18 19  2  0  0  0  0
 19 20  1  0  0  0  0
 20 21  1  0  0  0  0
 21 22  2  0  0  0  0
 22 23  1  0  0  0  0
 23 24  2  0  0  0  0
 24 25  1  0  0  0  0
 24 26  1  0  0  0  0
 26 27  2  0  0  0  0
 20 28  1  0  0  0  0
 28 29  2  0  0  0  0
 29 30  1  0  0  0  0
 30 31  2  0  0  0  0
 31 32  1  0  0  0  0
 31 33  1  0  0  0  0
 33 34  2  0  0  0  0
 19 35  1  0  0  0  0
 35 36  1  0  0  0  0
 36 37  1  0  0  0  0
 37 38  2  0  0  0  0
 38 39  1  0  0  0  0
 39 40  1  0  0  0  0
 40 41  2  0  0  0  0
 41 42  1  0  0  0  0
 42 43  2  0  0  0  0
 43 44  1  0  0  0  0
 43 45  1  0  0  0  0
 45 46  2  0  0  0  0
 39 47  1  0  0  0  0
 47 48  2  0  0  0  0
 48 49  1  0  0  0  0
 49 50  2  0  0  0  0
 50 51  1  0  0  0  0
 50 52  1  0  0  0  0
 52 53  2  0  0  0  0
 38 54  1  0  0  0  0
 54 55  1  0  0  0  0
 37 56  1  0  0  0  0
 56 57  2  0  0  0  0
 57 58  1  0  0  0  0
 58 59  2  0  0  0  0
 59 60  1  0  0  0  0
 60 61  2  0  0  0  0
 61 62  1  0  0  0  0
 62 63  1  0  0  0  0
 63 64  1  0  0  0  0
 62 65  2  0  0  0  0
 57 66  1  0  0  0  0
 66 67  1  0  0  0  0
 67 68  1  0  0  0  0
 68 69  1  0  0  0  0
 69 70  1  0  0  0  0
 70 71  1  0  0  0  0
 71 72  2  0  0  0  0
 72 73  1  0  0  0  0
 73 74  1  0  0  0  0
 71 75  1  0  0  0  0
 75 76  1  0  0  0  0
 76 77  1  0  0  0  0
 77 78  1  0  0  0  0
 78 79  1  0  0  0  0
 79 80  1  0  0  0  0
 80 81  2  0  0  0  0
 81 82  1  0  0  0  0
 82 83  2  0  0  0  0
 83 84  1  0  0  0  0
 84 85  1  0  0  0  0
 85 86  1  0  0  0  0
 84 87  2  0  0  0  0
 79 88  2  0  0  0  0
 88 89  1  0  0  0  0
 89 90  1  0  0  0  0
 90 91  1  0  0  0  0
 91 92  1  0  0  0  0
 92 93  1  0  0  0  0
 93 94  1  0  0  0  0
 94 95  1  0  0  0  0
 95 96  1  0  0  0  0
 96 97  1  0  0  0  0
 97 98  1  0  0  0  0
 95 99  1  0  0  0  0
 99100  1  0  0  0  0
 92101  1  0  0  0  0
101102  1  0  0  0  0
 88103  1  0  0  0  0
103104  2  0  0  0  0
104105  1  0  0  0  0
105106  2  0  0  0  0
106107  1  0  0  0  0
107108  2  0  0  0  0
108109  1  0  0  0  0
109110  2  0  0  0  0
110111  1  0  0  0  0
111112  1  0  0  0  0
112113  1  0  0  0  0
110114  1  0  0  0  0
106115  1  0  0  0  0
115116  2  0  0  0  0
116117  1  0  0  0  0
117118  1  0  0  0  0
118119  2  0  0  0  0
119120  1  0  0  0  0
120121  2  0  0  0  0
121122  1  0  0  0  0
122123  1  0  0  0  0
123124  1  0  0  0  0
121125  1  0  0  0  0
117126  2  0  0  0  0
126127  1  0  0  0  0
116128  1  0  0  0  0
128129  2  0  0  0  0
129130  1  0  0  0  0
129131  1  0  0  0  0
131132  2  0  0  0  0
132133  1  0  0  0  0
133134  2  0  0  0  0
133135  1  0  0  0  0
135136  2  0  0  0  0
136137  1  0  0  0  0
136138  1  0  0  0  0
138139  2  0  0  0  0
139140  1  0  0  0  0
140141  2  0  0  0  0
141142  1  0  0  0  0
142143  2  0  0  0  0
143144  1  0  0  0  0
144145  3  0  0  0  0
143146  1  0  0  0  0
146147  3  0  0  0  0
 12  2  1  0  0  0  0
 55 18  1  0  0  0  0
 98 56  1  0  0  0  0
127103  1  0  0  0  0
142132  1  0  0  0  0
 11  5  1  0  0  0  0
 27 21  1  0  0  0  0
 34 28  1  0  0  0  0
 54 35  2  0  0  0  0
 65 58  1  0  0  0  0
 97 66  2  0  0  0  0
126105  1  0  0  0  0
141135  1  0  0  0  0
 46 40  1  0  0  0  0
 53 47  1  0  0  0  0
 96 68  2  0  0  0  0
114107  1  0  0  0  0
130115  1  0  0  0  0
 94 69  2  0  0  0  0
125118  1  0  0  0  0
 74 70  2  0  0  0  0
 93 75  2  0  0  0  0
 91 76  2  0  0  0  0
 90 78  2  0  0  0  0
 87 80  1  0  0  0  0
  1148  1  0  0  0  0
  7149  1  0  0  0  0
  8150  1  0  0  0  0
  9151  1  0  0  0  0
 10152  1  0  0  0  0
 22153  1  0  0  0  0
 23154  1  0  0  0  0
 25155  1  0  0  0  0
 25156  1  0  0  0  0
 25157  1  0  0  0  0
 26158  1  0  0  0  0
 27159  1  0  0  0  0
 29160  1  0  0  0  0
 30161  1  0  0  0  0
 32162  1  0  0  0  0
 32163  1  0  0  0  0
 32164  1  0  0  0  0
 33165  1  0  0  0  0
 34166  1  0  0  0  0
 41167  1  0  0  0  0
 42168  1  0  0  0  0
 44169  1  0  0  0  0
 44170  1  0  0  0  0
 44171  1  0  0  0  0
 45172  1  0  0  0  0
 46173  1  0  0  0  0
 48174  1  0  0  0  0
 49175  1  0  0  0  0
 51176  1  0  0  0  0
 51177  1  0  0  0  0
 51178  1  0  0  0  0
 52179  1  0  0  0  0
 53180  1  0  0  0  0
 59181  1  0  0  0  0
 60182  1  0  0  0  0
 61183  1  0  0  0  0
 63184  1  0  0  0  0
 63185  1  0  0  0  0
 64186  1  0  0  0  0
 64187  1  0  0  0  0
 64188  1  0  0  0  0
 65189  1  0  0  0  0
 81190  1  0  0  0  0
 82191  1  0  0  0  0
 83192  1  0  0  0  0
 85193  1  0  0  0  0
 85194  1  0  0  0  0
 86195  1  0  0  0  0
 86196  1  0  0  0  0
 86197  1  0  0  0  0
 87198  1  0  0  0  0
 99199  1  0  0  0  0
 99200  1  0  0  0  0
100201  1  0  0  0  0
100202  1  0  0  0  0
100203  1  0  0  0  0
101204  1  0  0  0  0
101205  1  0  0  0  0
102206  1  0  0  0  0
102207  1  0  0  0  0
102208  1  0  0  0  0
104209  1  0  0  0  0
108210  1  0  0  0  0
109211  1  0  0  0  0
112212  1  0  0  0  0
112213  1  0  0  0  0
113214  1  0  0  0  0
113215  1  0  0  0  0
113216  1  0  0  0  0
119217  1  0  0  0  0
120218  1  0  0  0  0
123219  1  0  0  0  0
123220  1  0  0  0  0
124221  1  0  0  0  0
124222  1  0  0  0  0
124223  1  0  0  0  0
128224  1  0  0  0  0
131225  1  0  0  0  0
137226  1  0  0  0  0
138227  1  0  0  0  0
139228  1  0  0  0  0
140229  1  0  0  0  0
M  END
