211

C         -3.21640       10.75600       -0.65380
C         -3.11240       11.35420       -1.86970
C         -3.64420       12.74140       -2.03730
O         -4.05690       13.45240       -1.15210
C         -3.57440       13.00470       -3.48490
C         -4.04610       14.09720       -4.21080
O         -4.66960       15.10440       -3.57970
C         -3.84430       14.09060       -5.59460
C         -3.20450       13.03560       -6.21750
C         -2.73000       11.94700       -5.49740
C         -2.91740       11.93980       -4.12720
C         -2.51810       10.95580       -3.12060
C         -1.53270       10.01870       -3.29070
C         -1.04080        9.18940       -2.26390
N         -0.57260        8.50610       -1.46860
C         -0.81450        9.84330       -4.49050
N         -0.16910        9.68390       -5.42730
C         -3.17790        9.38200       -0.29820
C         -3.84110        8.30460       -0.87680
N         -4.70450        8.37850       -1.97470
C         -6.05200        8.08480       -1.73040
C         -6.63180        8.47040       -0.52270
C         -7.95520        8.17990       -0.26060
C         -8.74290        7.51120       -1.18920
C        -10.17340        7.18210       -0.88860
C         -8.15970        7.13650       -2.39340
C         -6.83400        7.40940       -2.66470
C         -4.19370        8.33910       -3.28120
C         -3.10260        7.53290       -3.59230
C         -2.61090        7.50370       -4.88340
C         -3.19210        8.26540       -5.89130
C         -2.62050        8.23910       -7.27390
C         -4.28630        9.06050       -5.57060
C         -4.78340        9.10470       -4.28270
C         -3.70950        7.14720       -0.08070
S         -4.23360        5.51270       -0.27760
C         -3.39330        5.06070        1.19680
C         -2.70100        6.11550        1.77540
N         -1.84990        6.01940        2.85930
C         -1.07550        4.87080        3.07900
C         -0.51670        4.16280        2.01850
C          0.18880        2.99860        2.25500
C          0.36950        2.51520        3.54450
C          1.09030        1.22610        3.79780
C         -0.14740        3.25620        4.60080
C         -0.85500        4.41940        4.37810
C         -1.72550        7.11430        3.72930
C         -0.47820        7.48870        4.22220
C         -0.36840        8.56810        5.07460
C         -1.48590        9.30430        5.45300
C         -1.35050       10.49270        6.35490
C         -2.72500        8.92170        4.95680
C         -2.85000        7.83960        4.10840
C         -2.93010        7.31240        1.05360
S         -2.40940        8.94720        1.22240
C         -3.40900        3.71720        1.69560
C         -3.63030        3.34880        3.00700
C         -4.28400        4.22830        3.97470
C         -3.94300        4.20640        5.32370
C         -4.57730        5.05760        6.20890
C         -5.57450        5.91150        5.77180
C         -5.96450        5.91290        4.43790
C         -7.06810        6.81090        3.95110
C         -6.51490        8.10500        3.35240
C         -5.30590        5.07620        3.55090
C         -3.22270        2.01530        3.23280
S         -3.11130        1.02640        4.66660
C         -2.42520       -0.24800        3.71570
C         -1.84290       -1.51710        3.88930
C         -1.48140       -2.24040        5.04820
C         -0.65940       -3.41490        4.91510
N         -0.32210       -3.92960        6.08670
S         -0.98640       -3.02690        7.25630
N         -1.72520       -1.93730        6.31320
C         -0.35910       -3.89700        3.62240
C          0.33760       -5.03080        3.16090
S          1.30170       -6.32710        3.78600
C          1.53930       -6.91280        2.15580
C          2.25810       -8.00570        1.61830
C          2.95750       -8.99020        2.44790
C          2.82510      -10.35520        2.20060
C          3.47690      -11.26690        3.00770
C          4.25450      -10.83330        4.06910
C          4.38730       -9.47770        4.33700
C          5.17090       -8.99440        5.52290
C          4.23380       -8.74690        6.70680
C          3.73420       -8.56630        3.51980
C          2.15220       -8.04760        0.24520
S          1.13970       -6.76420       -0.39210
C          0.87950       -6.14510        1.19890
C          0.19650       -5.06430        1.77260
N         -0.54620       -3.99090        1.34800
C         -0.86060       -3.24150        2.46870
C         -1.46070       -1.96580        2.59680
N         -1.74810       -0.97330        1.67300
C         -2.32230        0.06510        2.35930
C         -2.76230        1.36740        2.08740
S         -2.82370        2.39480        0.70150
C         -1.15820       -0.73540        0.37060
C          0.35930       -0.88280        0.38750
C         -1.31000       -4.06390        0.12220
C         -2.21810       -5.29290        0.10190
C          2.82340       -8.92150       -0.69600
C          4.11490       -9.36670       -0.42800
C          4.73230      -10.18590       -1.35710
N          5.98670      -10.73630       -1.32910
C          6.93900      -10.59500       -0.25900
C          6.69100      -11.61350        0.85240
C          6.16770      -11.46530       -2.47840
C          4.99940      -11.37420       -3.28160
C          4.07860      -10.55660       -2.56180
C          2.79320      -10.09050       -2.82260
C          2.18220       -9.28020       -1.89550
C          4.94980      -12.03760       -4.50630
C          6.04870      -12.74960       -4.91600
C          7.23090      -12.81000       -4.13990
C          7.27050      -12.18950       -2.88860
C          8.33220      -13.54500       -4.69050
C          9.67360      -13.43050       -4.48400
C         10.41270      -12.33450       -3.79310
O          9.97800      -11.48880       -3.04420
C         11.81020      -12.46910       -4.24470
C         12.89830      -11.64160       -3.97170
O         12.74310      -10.56010       -3.19160
C         14.13010      -11.98510       -4.53750
C         14.25980      -13.10200       -5.34110
C         13.17870      -13.93090       -5.61210
C         11.95300      -13.60860       -5.05490
C         10.65610      -14.27060       -5.15050
C         10.43280      -15.50670       -5.69530
C          9.19870      -16.19290       -5.68060
N          8.24520      -16.83300       -5.69230
C         11.42730      -16.29530       -6.31140
N         12.18430      -16.98540       -6.82990
H         -3.43240       11.43670        0.16690
H         -4.92960       15.79340       -4.20460
H         -4.19690       14.92900       -6.18100
H         -3.06970       13.06060       -7.28830
H         -2.24220       11.13210       -6.00370
H         -6.04310        9.00930        0.20510
H         -8.38760        8.48680        0.68060
H        -10.23700        6.21700       -0.38420
H        -10.61460        7.93180       -0.23550
H        -10.75850        7.12210       -1.80320
H         -8.75010        6.61100       -3.13030
H         -6.39780        7.09130       -3.59960
H         -2.64910        6.92530       -2.82320
H         -1.76080        6.87860       -5.11450
H         -2.56280        7.21730       -7.64530
H         -3.22410        8.82860       -7.95950
H         -1.60750        8.64280       -7.25780
H         -4.75270        9.66260       -6.33730
H         -5.63140        9.72890       -4.04120
H         -0.63560        4.52850        1.00900
H          0.60800        2.45990        1.41660
H          1.58830        1.24610        4.76430
H          1.83280        1.03510        3.02550
H          0.38270        0.39510        3.80760
H         -0.00410        2.90820        5.61350
H         -1.25300        4.98510        5.20690
H          0.39930        6.93080        3.93070
H          0.60540        8.85040        5.44800
H         -1.13560       11.38440        5.76480
H         -0.53500       10.35360        7.06090
H         -2.27070       10.66840        6.90720
H         -3.60770        9.47440        5.24510
H         -3.81920        7.53380        3.74900
H         -3.17970        3.52880        5.67220
H         -4.29740        5.04840        7.25210
H         -6.06860        6.56750        6.47400
H         -7.65090        6.28940        3.18830
H         -7.73330        7.05570        4.78160
H         -5.87870        7.88570        2.49700
H         -7.32800        8.74590        3.01930
H         -5.93160        8.64910        4.09180
H         -5.61390        5.06130        2.51490
H          2.20890      -10.69370        1.38100
H          3.37250      -12.32480        2.81390
H          4.75870      -11.55450        4.69630
H          5.92080       -9.73710        5.80240
H          5.68560       -8.06420        5.27310
H          3.72490       -9.66740        6.98410
H          3.48150       -8.00640        6.44480
H          4.79350       -8.38640        7.56660
H          3.84080       -7.50870        3.71330
H         -1.41810        0.29160        0.10250
H         -1.59520       -1.38490       -0.39220
H          0.65550       -1.90210        0.61780
H          0.76000       -0.61590       -0.58670
H          0.78800       -0.22130        1.13590
H         -0.62010       -4.09510       -0.72760
H         -1.93620       -3.17840        0.05550
H         -2.87820       -5.28560        0.96700
H         -1.63640       -6.21000        0.11490
H         -2.82370       -5.28210       -0.80030
H          4.61540       -9.06340        0.47740
H          7.94140      -10.72030       -0.67480
H          6.86090       -9.58060        0.14270
H          5.70020      -11.47470        1.28050
H          6.76210      -12.62510        0.45930
H          7.42930      -11.49190        1.64030
H          2.28840      -10.36050       -3.73760
H          1.18340       -8.91030       -2.07680
H          4.06080      -11.99080       -5.11670
H          6.02960      -13.26320       -5.86600
H          8.13850      -12.28720       -2.26200
H          8.03270      -14.26140       -5.44850
H         13.57810      -10.08400       -3.09600
H         14.99130      -11.36020       -4.34060
H         15.22340      -13.33460       -5.76810
H         13.30500      -14.79150       -6.24660
