
  xtb     02142215343D
 energy: -284.397522700836 gnorm: 0.000795254133 xtb: 6.4.1 (unknown)
161178  0     0  0            999 V2000
    1.9597  -10.8300    2.0051 C   0  0  0  0  0  0  0  0  0  0  0  0
    2.2254  -12.1363    2.3131 C   0  0  0  0  0  0  0  0  0  0  0  0
    2.0050  -13.3414    1.4883 C   0  0  0  0  0  0  0  0  0  0  0  0
    1.4271  -13.4683    0.4155 O   0  0  0  0  0  0  0  0  0  0  0  0
    2.6515  -14.4356    2.2027 C   0  0  0  0  0  0  0  0  0  0  0  0
    2.7374  -15.7596    1.7828 C   0  0  0  0  0  0  0  0  0  0  0  0
    2.1986  -16.1669    0.6294 O   0  0  0  0  0  0  0  0  0  0  0  0
    3.4157  -16.6514    2.6241 C   0  0  0  0  0  0  0  0  0  0  0  0
    3.9643  -16.2054    3.8106 C   0  0  0  0  0  0  0  0  0  0  0  0
    3.8715  -14.8779    4.2287 C   0  0  0  0  0  0  0  0  0  0  0  0
    3.2037  -13.9840    3.4124 C   0  0  0  0  0  0  0  0  0  0  0  0
    2.9100  -12.5563    3.5298 C   0  0  0  0  0  0  0  0  0  0  0  0
    3.1923  -11.7903    4.6300 C   0  0  0  0  0  0  0  0  0  0  0  0
    2.8492  -10.4346    4.8184 C   0  0  0  0  0  0  0  0  0  0  0  0
    2.6000   -9.3415    5.0698 N   0  0  0  0  0  0  0  0  0  0  0  0
    3.8550  -12.2783    5.7770 C   0  0  0  0  0  0  0  0  0  0  0  0
    4.3943  -12.6015    6.7374 N   0  0  0  0  0  0  0  0  0  0  0  0
    1.3155  -10.2507    0.8947 C   0  0  0  0  0  0  0  0  0  0  0  0
    0.5864  -10.7621   -0.1610 C   0  0  0  0  0  0  0  0  0  0  0  0
    0.0810   -9.7893   -1.0265 C   0  0  0  0  0  0  0  0  0  0  0  0
   -0.9736  -10.2548   -2.3556 S   0  0  0  0  0  0  0  0  0  0  0  0
   -2.3241   -9.0143   -2.2233 C   0  0  0  0  0  0  0  0  0  0  0  0
   -3.6310   -9.6613   -2.6378 C   0  0  0  0  0  0  0  0  0  0  0  0
    0.4522   -8.4923   -0.6782 C   0  0  0  0  0  0  0  0  0  0  0  0
    1.3564   -8.4984    0.8036 S   0  0  0  0  0  0  0  0  0  0  0  0
    0.2097   -7.2472   -1.3273 C   0  0  0  0  0  0  0  0  0  0  0  0
    0.1904   -6.9459   -2.6796 C   0  0  0  0  0  0  0  0  0  0  0  0
    0.5330   -7.8754   -3.7553 C   0  0  0  0  0  0  0  0  0  0  0  0
    1.6231   -8.7338   -3.6340 C   0  0  0  0  0  0  0  0  0  0  0  0
    1.9281   -9.6064   -4.6592 C   0  0  0  0  0  0  0  0  0  0  0  0
    1.1519   -9.6368   -5.8051 C   0  0  0  0  0  0  0  0  0  0  0  0
    0.0736   -8.7744   -5.9514 C   0  0  0  0  0  0  0  0  0  0  0  0
   -0.8049   -8.8283   -7.1674 C   0  0  0  0  0  0  0  0  0  0  0  0
   -2.0590   -9.6548   -6.8759 C   0  0  0  0  0  0  0  0  0  0  0  0
   -0.2198   -7.8905   -4.9246 C   0  0  0  0  0  0  0  0  0  0  0  0
   -0.1085   -5.5851   -2.8913 C   0  0  0  0  0  0  0  0  0  0  0  0
   -0.2435   -4.6145   -4.3390 S   0  0  0  0  0  0  0  0  0  0  0  0
   -0.5092   -3.2177   -3.3520 C   0  0  0  0  0  0  0  0  0  0  0  0
   -0.7360   -1.8378   -3.4955 C   0  0  0  0  0  0  0  0  0  0  0  0
   -0.9456   -1.0257   -4.6314 C   0  0  0  0  0  0  0  0  0  0  0  0
   -1.2279    0.3705   -4.4433 C   0  0  0  0  0  0  0  0  0  0  0  0
   -1.4570    0.9962   -5.5868 N   0  0  0  0  0  0  0  0  0  0  0  0
   -1.3245   -0.0727   -6.7948 S   0  0  0  0  0  0  0  0  0  0  0  0
   -0.9694   -1.3797   -5.9065 N   0  0  0  0  0  0  0  0  0  0  0  0
   -1.1574    0.9170   -3.1421 C   0  0  0  0  0  0  0  0  0  0  0  0
   -1.1950    2.2441   -2.6877 C   0  0  0  0  0  0  0  0  0  0  0  0
   -1.4318    3.8411   -3.3154 S   0  0  0  0  0  0  0  0  0  0  0  0
   -1.0919    4.4808   -1.7217 C   0  0  0  0  0  0  0  0  0  0  0  0
   -1.0466    5.7824   -1.2176 C   0  0  0  0  0  0  0  0  0  0  0  0
   -1.4020    6.9618   -2.0133 C   0  0  0  0  0  0  0  0  0  0  0  0
   -2.4639    7.7687   -1.6119 C   0  0  0  0  0  0  0  0  0  0  0  0
   -2.8284    8.8555   -2.3817 C   0  0  0  0  0  0  0  0  0  0  0  0
   -2.1368    9.1475   -3.5440 C   0  0  0  0  0  0  0  0  0  0  0  0
   -1.0767    8.3512   -3.9585 C   0  0  0  0  0  0  0  0  0  0  0  0
   -0.2949    8.7090   -5.1880 C   0  0  0  0  0  0  0  0  0  0  0  0
    0.6477    9.8762   -4.8892 C   0  0  0  0  0  0  0  0  0  0  0  0
   -0.7244    7.2521   -3.1904 C   0  0  0  0  0  0  0  0  0  0  0  0
   -0.7240    5.7991    0.1405 C   0  0  0  0  0  0  0  0  0  0  0  0
   -0.5701    4.1780    0.8041 S   0  0  0  0  0  0  0  0  0  0  0  0
   -0.8175    3.4974   -0.7637 C   0  0  0  0  0  0  0  0  0  0  0  0
   -0.8887    2.2158   -1.3233 C   0  0  0  0  0  0  0  0  0  0  0  0
   -0.6935    0.9246   -0.9074 N   0  0  0  0  0  0  0  0  0  0  0  0
   -0.8728    0.1038   -2.0082 C   0  0  0  0  0  0  0  0  0  0  0  0
   -0.8087   -1.3010   -2.1813 C   0  0  0  0  0  0  0  0  0  0  0  0
   -0.6975   -2.3365   -1.2684 N   0  0  0  0  0  0  0  0  0  0  0  0
   -0.5000   -3.4917   -1.9818 C   0  0  0  0  0  0  0  0  0  0  0  0
   -0.2739   -4.8466   -1.7172 C   0  0  0  0  0  0  0  0  0  0  0  0
   -0.0846   -5.8354   -0.3152 S   0  0  0  0  0  0  0  0  0  0  0  0
   -1.2626   -2.4052    0.0610 C   0  0  0  0  0  0  0  0  0  0  0  0
   -2.6180   -3.1114    0.0529 C   0  0  0  0  0  0  0  0  0  0  0  0
    0.0248    0.6834    0.3285 C   0  0  0  0  0  0  0  0  0  0  0  0
    1.3625   -0.0089    0.0926 C   0  0  0  0  0  0  0  0  0  0  0  0
   -0.3728    6.9634    0.8693 C   0  0  0  0  0  0  0  0  0  0  0  0
    0.1520    8.3595   -0.0269 S   0  0  0  0  0  0  0  0  0  0  0  0
    0.4045    9.2759    1.4304 C   0  0  0  0  0  0  0  0  0  0  0  0
    0.1098    8.5070    2.5608 C   0  0  0  0  0  0  0  0  0  0  0  0
    0.2314    9.0018    3.9421 C   0  0  0  0  0  0  0  0  0  0  0  0
    0.8162   10.0301    4.2441 O   0  0  0  0  0  0  0  0  0  0  0  0
   -0.4134    8.1334    4.9239 C   0  0  0  0  0  0  0  0  0  0  0  0
   -0.6728    8.4798    6.2253 C   0  0  0  0  0  0  0  0  0  0  0  0
   -0.3666    9.7506    6.9287 C   0  0  0  0  0  0  0  0  0  0  0  0
    1.0511    9.7173    7.5077 C   0  0  0  0  0  0  0  0  0  0  0  0
   -1.4319    7.1724    7.0706 S   0  0  0  0  0  0  0  0  0  0  0  0
   -1.3850    6.1443    5.6790 C   0  0  0  0  0  0  0  0  0  0  0  0
   -1.8966    4.7507    5.7241 C   0  0  0  0  0  0  0  0  0  0  0  0
   -2.8031    4.4806    6.9167 C   0  0  0  0  0  0  0  0  0  0  0  0
   -0.8293    6.8017    4.6081 C   0  0  0  0  0  0  0  0  0  0  0  0
   -0.6714    6.2268    3.2782 C   0  0  0  0  0  0  0  0  0  0  0  0
   -0.8506    5.0330    3.0546 O   0  0  0  0  0  0  0  0  0  0  0  0
   -0.3063    7.1938    2.2504 C   0  0  0  0  0  0  0  0  0  0  0  0
    0.7544   10.6399    1.4714 C   0  0  0  0  0  0  0  0  0  0  0  0
    1.2296   11.4446    0.4767 C   0  0  0  0  0  0  0  0  0  0  0  0
    1.6868   11.0113   -0.8596 C   0  0  0  0  0  0  0  0  0  0  0  0
    1.4663    9.9455   -1.3999 O   0  0  0  0  0  0  0  0  0  0  0  0
    2.4745   12.1369   -1.3862 C   0  0  0  0  0  0  0  0  0  0  0  0
    3.2203   12.2166   -2.5607 C   0  0  0  0  0  0  0  0  0  0  0  0
    3.2933   11.1589   -3.3827 O   0  0  0  0  0  0  0  0  0  0  0  0
    3.8815   13.4202   -2.8269 C   0  0  0  0  0  0  0  0  0  0  0  0
    3.8043   14.4855   -1.9505 C   0  0  0  0  0  0  0  0  0  0  0  0
    3.0680   14.4076   -0.7743 C   0  0  0  0  0  0  0  0  0  0  0  0
    2.4024   13.2268   -0.4975 C   0  0  0  0  0  0  0  0  0  0  0  0
    1.5643   12.8455    0.6374 C   0  0  0  0  0  0  0  0  0  0  0  0
    1.1088   13.6800    1.6220 C   0  0  0  0  0  0  0  0  0  0  0  0
    0.1759   13.3190    2.6203 C   0  0  0  0  0  0  0  0  0  0  0  0
   -0.6165   13.1290    3.4288 N   0  0  0  0  0  0  0  0  0  0  0  0
    1.4569   15.0430    1.7279 C   0  0  0  0  0  0  0  0  0  0  0  0
    1.7102   16.1534    1.8709 N   0  0  0  0  0  0  0  0  0  0  0  0
    2.3204  -10.0922    2.7122 H   0  0  0  0  0  0  0  0  0  0  0  0
    1.7734  -15.3988    0.1960 H   0  0  0  0  0  0  0  0  0  0  0  0
    3.4992  -17.6842    2.3259 H   0  0  0  0  0  0  0  0  0  0  0  0
    4.4852  -16.9101    4.4411 H   0  0  0  0  0  0  0  0  0  0  0  0
    4.3179  -14.5779    5.1615 H   0  0  0  0  0  0  0  0  0  0  0  0
    0.4045  -11.8117   -0.2990 H   0  0  0  0  0  0  0  0  0  0  0  0
   -2.0813   -8.1730   -2.8713 H   0  0  0  0  0  0  0  0  0  0  0  0
   -2.3555   -8.6826   -1.1865 H   0  0  0  0  0  0  0  0  0  0  0  0
   -3.8669  -10.4969   -1.9834 H   0  0  0  0  0  0  0  0  0  0  0  0
   -3.5614  -10.0330   -3.6575 H   0  0  0  0  0  0  0  0  0  0  0  0
   -4.4381   -8.9333   -2.5841 H   0  0  0  0  0  0  0  0  0  0  0  0
    2.2327   -8.7051   -2.7430 H   0  0  0  0  0  0  0  0  0  0  0  0
    2.7730  -10.2716   -4.5620 H   0  0  0  0  0  0  0  0  0  0  0  0
    1.3889  -10.3334   -6.5960 H   0  0  0  0  0  0  0  0  0  0  0  0
   -1.0986   -7.8170   -7.4567 H   0  0  0  0  0  0  0  0  0  0  0  0
   -0.2604   -9.2784   -7.9991 H   0  0  0  0  0  0  0  0  0  0  0  0
   -2.6876   -9.7196   -7.7609 H   0  0  0  0  0  0  0  0  0  0  0  0
   -1.7845  -10.6613   -6.5678 H   0  0  0  0  0  0  0  0  0  0  0  0
   -2.6351   -9.1977   -6.0744 H   0  0  0  0  0  0  0  0  0  0  0  0
   -1.0590   -7.2168   -5.0282 H   0  0  0  0  0  0  0  0  0  0  0  0
   -2.9988    7.5346   -0.7025 H   0  0  0  0  0  0  0  0  0  0  0  0
   -3.6562    9.4778   -2.0741 H   0  0  0  0  0  0  0  0  0  0  0  0
   -2.4253   10.0022   -4.1389 H   0  0  0  0  0  0  0  0  0  0  0  0
    0.2874    7.8474   -5.5185 H   0  0  0  0  0  0  0  0  0  0  0  0
   -0.9772    8.9900   -5.9941 H   0  0  0  0  0  0  0  0  0  0  0  0
    1.2627   10.0984   -5.7588 H   0  0  0  0  0  0  0  0  0  0  0  0
    0.0786   10.7666   -4.6307 H   0  0  0  0  0  0  0  0  0  0  0  0
    1.2938    9.6347   -4.0492 H   0  0  0  0  0  0  0  0  0  0  0  0
    0.0980    6.6224   -3.4962 H   0  0  0  0  0  0  0  0  0  0  0  0
   -1.4046   -1.3966    0.4347 H   0  0  0  0  0  0  0  0  0  0  0  0
   -0.5651   -2.9429    0.7113 H   0  0  0  0  0  0  0  0  0  0  0  0
   -3.0366   -3.1057    1.0554 H   0  0  0  0  0  0  0  0  0  0  0  0
   -3.3049   -2.5983   -0.6167 H   0  0  0  0  0  0  0  0  0  0  0  0
   -2.5193   -4.1430   -0.2727 H   0  0  0  0  0  0  0  0  0  0  0  0
   -0.5822    0.1196    1.0420 H   0  0  0  0  0  0  0  0  0  0  0  0
    0.1995    1.6659    0.7738 H   0  0  0  0  0  0  0  0  0  0  0  0
    1.8955   -0.0970    1.0351 H   0  0  0  0  0  0  0  0  0  0  0  0
    1.9680    0.5762   -0.5958 H   0  0  0  0  0  0  0  0  0  0  0  0
    1.2288   -1.0025   -0.3252 H   0  0  0  0  0  0  0  0  0  0  0  0
   -1.0884    9.9086    7.7325 H   0  0  0  0  0  0  0  0  0  0  0  0
   -0.4322   10.5749    6.2157 H   0  0  0  0  0  0  0  0  0  0  0  0
    1.7739    9.6178    6.7024 H   0  0  0  0  0  0  0  0  0  0  0  0
    1.2522   10.6417    8.0415 H   0  0  0  0  0  0  0  0  0  0  0  0
    1.1660    8.8817    8.1953 H   0  0  0  0  0  0  0  0  0  0  0  0
   -2.4190    4.5456    4.7854 H   0  0  0  0  0  0  0  0  0  0  0  0
   -1.0386    4.0702    5.7464 H   0  0  0  0  0  0  0  0  0  0  0  0
   -3.1594    3.4542    6.8914 H   0  0  0  0  0  0  0  0  0  0  0  0
   -2.2660    4.6361    7.8501 H   0  0  0  0  0  0  0  0  0  0  0  0
   -3.6637    5.1462    6.9010 H   0  0  0  0  0  0  0  0  0  0  0  0
    0.6746   11.0743    2.4621 H   0  0  0  0  0  0  0  0  0  0  0  0
    3.8312   11.3614   -4.1588 H   0  0  0  0  0  0  0  0  0  0  0  0
    4.4645   13.5096   -3.7339 H   0  0  0  0  0  0  0  0  0  0  0  0
    4.3314   15.3981   -2.1832 H   0  0  0  0  0  0  0  0  0  0  0  0
    3.0328   15.2486   -0.1029 H   0  0  0  0  0  0  0  0  0  0  0  0
  1  2  2  0  0  0  0
  2  3  1  0  0  0  0
  3  4  2  0  0  0  0
  3  5  1  0  0  0  0
  5  6  2  0  0  0  0
  6  7  1  0  0  0  0
  6  8  1  0  0  0  0
  8  9  2  0  0  0  0
  9 10  1  0  0  0  0
 10 11  2  0  0  0  0
 11 12  1  0  0  0  0
 12 13  2  0  0  0  0
 13 14  1  0  0  0  0
 14 15  3  0  0  0  0
 13 16  1  0  0  0  0
 16 17  3  0  0  0  0
  1 18  1  0  0  0  0
 18 19  2  0  0  0  0
 19 20  1  0  0  0  0
 20 21  1  0  0  0  0
 21 22  1  0  0  0  0
 22 23  1  0  0  0  0
 20 24  2  0  0  0  0
 24 25  1  0  0  0  0
 24 26  1  0  0  0  0
 26 27  2  0  0  0  0
 27 28  1  0  0  0  0
 28 29  2  0  0  0  0
 29 30  1  0  0  0  0
 30 31  2  0  0  0  0
 31 32  1  0  0  0  0
 32 33  1  0  0  0  0
 33 34  1  0  0  0  0
 32 35  2  0  0  0  0
 27 36  1  0  0  0  0
 36 37  1  0  0  0  0
 37 38  1  0  0  0  0
 38 39  1  0  0  0  0
 39 40  1  0  0  0  0
 40 41  1  0  0  0  0
 41 42  2  0  0  0  0
 42 43  1  0  0  0  0
 43 44  1  0  0  0  0
 41 45  1  0  0  0  0
 45 46  1  0  0  0  0
 46 47  1  0  0  0  0
 47 48  1  0  0  0  0
 48 49  1  0  0  0  0
 49 50  1  0  0  0  0
 50 51  2  0  0  0  0
 51 52  1  0  0  0  0
 52 53  2  0  0  0  0
 53 54  1  0  0  0  0
 54 55  1  0  0  0  0
 55 56  1  0  0  0  0
 54 57  2  0  0  0  0
 49 58  2  0  0  0  0
 58 59  1  0  0  0  0
 59 60  1  0  0  0  0
 60 61  1  0  0  0  0
 61 62  1  0  0  0  0
 62 63  1  0  0  0  0
 63 64  1  0  0  0  0
 64 65  1  0  0  0  0
 65 66  1  0  0  0  0
 66 67  1  0  0  0  0
 67 68  1  0  0  0  0
 65 69  1  0  0  0  0
 69 70  1  0  0  0  0
 62 71  1  0  0  0  0
 71 72  1  0  0  0  0
 58 73  1  0  0  0  0
 73 74  1  0  0  0  0
 74 75  1  0  0  0  0
 75 76  2  0  0  0  0
 76 77  1  0  0  0  0
 77 78  2  0  0  0  0
 77 79  1  0  0  0  0
 79 80  2  0  0  0  0
 80 81  1  0  0  0  0
 81 82  1  0  0  0  0
 80 83  1  0  0  0  0
 83 84  1  0  0  0  0
 84 85  1  0  0  0  0
 85 86  1  0  0  0  0
 84 87  2  0  0  0  0
 87 88  1  0  0  0  0
 88 89  2  0  0  0  0
 88 90  1  0  0  0  0
 75 91  1  0  0  0  0
 91 92  2  0  0  0  0
 92 93  1  0  0  0  0
 93 94  2  0  0  0  0
 93 95  1  0  0  0  0
 95 96  2  0  0  0  0
 96 97  1  0  0  0  0
 96 98  1  0  0  0  0
 98 99  2  0  0  0  0
 99100  1  0  0  0  0
100101  2  0  0  0  0
101102  1  0  0  0  0
102103  2  0  0  0  0
103104  1  0  0  0  0
104105  3  0  0  0  0
103106  1  0  0  0  0
106107  3  0  0  0  0
 12  2  1  0  0  0  0
 25 18  1  0  0  0  0
 68 26  1  0  0  0  0
 90 73  2  0  0  0  0
102 92  1  0  0  0  0
 11  5  1  0  0  0  0
 35 28  1  0  0  0  0
 67 36  2  0  0  0  0
 90 76  1  0  0  0  0
101 95  1  0  0  0  0
 66 38  2  0  0  0  0
 87 79  1  0  0  0  0
 64 39  2  0  0  0  0
 44 40  2  0  0  0  0
 63 45  2  0  0  0  0
 61 46  2  0  0  0  0
 60 48  2  0  0  0  0
 57 50  1  0  0  0  0
  1108  1  0  0  0  0
  7109  1  0  0  0  0
  8110  1  0  0  0  0
  9111  1  0  0  0  0
 10112  1  0  0  0  0
 19113  1  0  0  0  0
 22114  1  0  0  0  0
 22115  1  0  0  0  0
 23116  1  0  0  0  0
 23117  1  0  0  0  0
 23118  1  0  0  0  0
 29119  1  0  0  0  0
 30120  1  0  0  0  0
 31121  1  0  0  0  0
 33122  1  0  0  0  0
 33123  1  0  0  0  0
 34124  1  0  0  0  0
 34125  1  0  0  0  0
 34126  1  0  0  0  0
 35127  1  0  0  0  0
 51128  1  0  0  0  0
 52129  1  0  0  0  0
 53130  1  0  0  0  0
 55131  1  0  0  0  0
 55132  1  0  0  0  0
 56133  1  0  0  0  0
 56134  1  0  0  0  0
 56135  1  0  0  0  0
 57136  1  0  0  0  0
 69137  1  0  0  0  0
 69138  1  0  0  0  0
 70139  1  0  0  0  0
 70140  1  0  0  0  0
 70141  1  0  0  0  0
 71142  1  0  0  0  0
 71143  1  0  0  0  0
 72144  1  0  0  0  0
 72145  1  0  0  0  0
 72146  1  0  0  0  0
 81147  1  0  0  0  0
 81148  1  0  0  0  0
 82149  1  0  0  0  0
 82150  1  0  0  0  0
 82151  1  0  0  0  0
 85152  1  0  0  0  0
 85153  1  0  0  0  0
 86154  1  0  0  0  0
 86155  1  0  0  0  0
 86156  1  0  0  0  0
 91157  1  0  0  0  0
 97158  1  0  0  0  0
 98159  1  0  0  0  0
 99160  1  0  0  0  0
100161  1  0  0  0  0
M  END
