
  xtb     02152201103D
 energy: -253.773247022418 gnorm: 0.000306492138 xtb: 6.4.1 (unknown)
146161  0     0  0            999 V2000
   -6.7356    6.4827   -5.8617 C   0  0  0  0  0  0  0  0  0  0  0  0
   -6.1205    7.4113   -6.6676 C   0  0  0  0  0  0  0  0  0  0  0  0
   -4.9038    8.1538   -6.3426 C   0  0  0  0  0  0  0  0  0  0  0  0
   -4.2086    8.1007   -5.3285 O   0  0  0  0  0  0  0  0  0  0  0  0
   -4.6391    9.0260   -7.4766 C   0  0  0  0  0  0  0  0  0  0  0  0
   -3.5808    9.9176   -7.6078 C   0  0  0  0  0  0  0  0  0  0  0  0
   -2.6672   10.0707   -6.6419 O   0  0  0  0  0  0  0  0  0  0  0  0
   -3.5146   10.6507   -8.8005 C   0  0  0  0  0  0  0  0  0  0  0  0
   -4.4738   10.4722   -9.7778 C   0  0  0  0  0  0  0  0  0  0  0  0
   -5.5361    9.5776   -9.6368 C   0  0  0  0  0  0  0  0  0  0  0  0
   -5.6181    8.8452   -8.4680 C   0  0  0  0  0  0  0  0  0  0  0  0
   -6.5649    7.8370   -7.9819 C   0  0  0  0  0  0  0  0  0  0  0  0
   -7.6560    7.3857   -8.6799 C   0  0  0  0  0  0  0  0  0  0  0  0
   -8.5729    6.4108   -8.2378 C   0  0  0  0  0  0  0  0  0  0  0  0
   -9.3619    5.6255   -7.9520 N   0  0  0  0  0  0  0  0  0  0  0  0
   -8.0107    7.8449   -9.9657 C   0  0  0  0  0  0  0  0  0  0  0  0
   -8.3569    8.1727  -11.0101 N   0  0  0  0  0  0  0  0  0  0  0  0
   -6.3288    5.9726   -4.6227 C   0  0  0  0  0  0  0  0  0  0  0  0
   -7.0594    5.0124   -3.9229 C   0  0  0  0  0  0  0  0  0  0  0  0
   -6.4588    4.5870   -2.7474 C   0  0  0  0  0  0  0  0  0  0  0  0
   -7.1217    3.4084   -1.6304 S   0  0  0  0  0  0  0  0  0  0  0  0
   -8.7649    3.0439   -2.3596 C   0  0  0  0  0  0  0  0  0  0  0  0
   -9.5032    2.0887   -1.4422 C   0  0  0  0  0  0  0  0  0  0  0  0
   -5.2292    5.2235   -2.5153 C   0  0  0  0  0  0  0  0  0  0  0  0
   -4.8650    6.3724   -3.7633 S   0  0  0  0  0  0  0  0  0  0  0  0
   -4.2772    4.9695   -1.5002 C   0  0  0  0  0  0  0  0  0  0  0  0
   -3.1174    5.6943   -1.2394 C   0  0  0  0  0  0  0  0  0  0  0  0
   -2.7657    6.9795   -1.8550 C   0  0  0  0  0  0  0  0  0  0  0  0
   -1.5948    7.0891   -2.5962 C   0  0  0  0  0  0  0  0  0  0  0  0
   -1.2798    8.2882   -3.2077 C   0  0  0  0  0  0  0  0  0  0  0  0
   -2.1187    9.3793   -3.0764 C   0  0  0  0  0  0  0  0  0  0  0  0
   -3.2795    9.2933   -2.3170 C   0  0  0  0  0  0  0  0  0  0  0  0
   -4.1644   10.4921   -2.1346 C   0  0  0  0  0  0  0  0  0  0  0  0
   -3.7208   11.3062   -0.9178 C   0  0  0  0  0  0  0  0  0  0  0  0
   -3.5889    8.0908   -1.7028 C   0  0  0  0  0  0  0  0  0  0  0  0
   -2.2894    5.0289   -0.3269 C   0  0  0  0  0  0  0  0  0  0  0  0
   -0.6985    5.3914    0.2991 S   0  0  0  0  0  0  0  0  0  0  0  0
   -0.7022    3.8645    1.1157 C   0  0  0  0  0  0  0  0  0  0  0  0
    0.1796    3.0556    1.8530 C   0  0  0  0  0  0  0  0  0  0  0  0
    1.4754    3.2696    2.3738 C   0  0  0  0  0  0  0  0  0  0  0  0
    2.1370    2.1936    3.0621 C   0  0  0  0  0  0  0  0  0  0  0  0
    3.3246    2.5473    3.5261 N   0  0  0  0  0  0  0  0  0  0  0  0
    3.5919    4.0947    3.1328 S   0  0  0  0  0  0  0  0  0  0  0  0
    2.2033    4.3744    2.3494 N   0  0  0  0  0  0  0  0  0  0  0  0
    1.5344    0.9145    3.0769 C   0  0  0  0  0  0  0  0  0  0  0  0
    2.0499   -0.3557    3.3814 C   0  0  0  0  0  0  0  0  0  0  0  0
    3.5249   -1.0660    3.9460 S   0  0  0  0  0  0  0  0  0  0  0  0
    2.8683   -2.6464    3.5891 C   0  0  0  0  0  0  0  0  0  0  0  0
    3.4165   -3.9365    3.6556 C   0  0  0  0  0  0  0  0  0  0  0  0
    4.7770   -4.2272    4.1173 C   0  0  0  0  0  0  0  0  0  0  0  0
    5.8646   -3.6052    3.5136 C   0  0  0  0  0  0  0  0  0  0  0  0
    7.1459   -3.8969    3.9442 C   0  0  0  0  0  0  0  0  0  0  0  0
    7.3486   -4.7949    4.9763 C   0  0  0  0  0  0  0  0  0  0  0  0
    6.2720   -5.4101    5.6041 C   0  0  0  0  0  0  0  0  0  0  0  0
    6.4858   -6.3430    6.7600 C   0  0  0  0  0  0  0  0  0  0  0  0
    6.4668   -5.5725    8.0816 C   0  0  0  0  0  0  0  0  0  0  0  0
    4.9886   -5.1141    5.1702 C   0  0  0  0  0  0  0  0  0  0  0  0
    2.5273   -4.8968    3.1964 C   0  0  0  0  0  0  0  0  0  0  0  0
    0.9771   -4.1873    2.7313 S   0  0  0  0  0  0  0  0  0  0  0  0
    1.5594   -2.6045    3.0975 C   0  0  0  0  0  0  0  0  0  0  0  0
    1.0907   -1.2923    2.9789 C   0  0  0  0  0  0  0  0  0  0  0  0
   -0.0188   -0.6546    2.4866 N   0  0  0  0  0  0  0  0  0  0  0  0
    0.2385    0.7063    2.5315 C   0  0  0  0  0  0  0  0  0  0  0  0
   -0.4918    1.8205    2.0574 C   0  0  0  0  0  0  0  0  0  0  0  0
   -1.7773    1.9125    1.5541 N   0  0  0  0  0  0  0  0  0  0  0  0
   -1.8890    3.1393    0.9479 C   0  0  0  0  0  0  0  0  0  0  0  0
   -2.8025    3.8089    0.1286 C   0  0  0  0  0  0  0  0  0  0  0  0
   -4.3545    3.4833   -0.5565 S   0  0  0  0  0  0  0  0  0  0  0  0
   -2.9384    1.2007    2.0441 C   0  0  0  0  0  0  0  0  0  0  0  0
   -3.8837    2.1239    2.8110 C   0  0  0  0  0  0  0  0  0  0  0  0
   -0.9325   -1.3761    1.6242 C   0  0  0  0  0  0  0  0  0  0  0  0
   -0.7097   -1.0371    0.1533 C   0  0  0  0  0  0  0  0  0  0  0  0
    2.7551   -6.2657    2.9198 C   0  0  0  0  0  0  0  0  0  0  0  0
    1.7702   -7.1347    2.4634 C   0  0  0  0  0  0  0  0  0  0  0  0
    2.1870   -8.4037    2.0974 C   0  0  0  0  0  0  0  0  0  0  0  0
    1.2142   -9.4010    1.5475 C   0  0  0  0  0  0  0  0  0  0  0  0
    1.1707   -9.3321    0.0181 C   0  0  0  0  0  0  0  0  0  0  0  0
    3.5757   -8.6264    2.2131 C   0  0  0  0  0  0  0  0  0  0  0  0
    4.4343   -7.0896    2.9323 Se  0  0  0  0  0  2  0  0  0  0  0  0
    4.1766   -9.8157    1.7978 C   0  0  0  0  0  0  0  0  0  0  0  0
    5.5040  -10.1876    1.7551 C   0  0  0  0  0  0  0  0  0  0  0  0
    6.6283   -9.3881    2.2051 C   0  0  0  0  0  0  0  0  0  0  0  0
    6.6167   -8.2813    2.7579 O   0  0  0  0  0  0  0  0  0  0  0  0
    7.8319  -10.1427    1.8914 C   0  0  0  0  0  0  0  0  0  0  0  0
    9.1468   -9.7575    2.1232 C   0  0  0  0  0  0  0  0  0  0  0  0
    9.4439   -8.5879    2.7026 O   0  0  0  0  0  0  0  0  0  0  0  0
   10.1503  -10.6492    1.7204 C   0  0  0  0  0  0  0  0  0  0  0  0
    9.8137  -11.8489    1.1257 C   0  0  0  0  0  0  0  0  0  0  0  0
    8.4901  -12.2320    0.9004 C   0  0  0  0  0  0  0  0  0  0  0  0
    7.4874  -11.3657    1.2899 C   0  0  0  0  0  0  0  0  0  0  0  0
    6.0241  -11.4269    1.2107 C   0  0  0  0  0  0  0  0  0  0  0  0
    5.3103  -12.4851    0.7077 C   0  0  0  0  0  0  0  0  0  0  0  0
    5.9012  -13.6580    0.1934 C   0  0  0  0  0  0  0  0  0  0  0  0
    6.3140  -14.6373   -0.2413 N   0  0  0  0  0  0  0  0  0  0  0  0
    3.9054  -12.5716    0.6325 C   0  0  0  0  0  0  0  0  0  0  0  0
    2.7697  -12.7210    0.5355 N   0  0  0  0  0  0  0  0  0  0  0  0
   -7.6616    6.0530   -6.2231 H   0  0  0  0  0  0  0  0  0  0  0  0
   -2.8841    9.4653   -5.9035 H   0  0  0  0  0  0  0  0  0  0  0  0
   -2.7047   11.3493   -8.9373 H   0  0  0  0  0  0  0  0  0  0  0  0
   -4.4014   11.0467  -10.6889 H   0  0  0  0  0  0  0  0  0  0  0  0
   -6.2590    9.4761  -10.4285 H   0  0  0  0  0  0  0  0  0  0  0  0
   -7.9971    4.6467   -4.2991 H   0  0  0  0  0  0  0  0  0  0  0  0
   -8.6041    2.5979   -3.3409 H   0  0  0  0  0  0  0  0  0  0  0  0
   -9.3014    3.9875   -2.4562 H   0  0  0  0  0  0  0  0  0  0  0  0
   -9.6360    2.5318   -0.4580 H   0  0  0  0  0  0  0  0  0  0  0  0
  -10.4819    1.8622   -1.8591 H   0  0  0  0  0  0  0  0  0  0  0  0
   -8.9471    1.1609   -1.3308 H   0  0  0  0  0  0  0  0  0  0  0  0
   -0.9512    6.2297   -2.7104 H   0  0  0  0  0  0  0  0  0  0  0  0
   -0.3783    8.3686   -3.7969 H   0  0  0  0  0  0  0  0  0  0  0  0
   -1.8729   10.3091   -3.5694 H   0  0  0  0  0  0  0  0  0  0  0  0
   -4.1188   11.1215   -3.0255 H   0  0  0  0  0  0  0  0  0  0  0  0
   -5.1986   10.1702   -1.9972 H   0  0  0  0  0  0  0  0  0  0  0  0
   -2.6954   11.6462   -1.0440 H   0  0  0  0  0  0  0  0  0  0  0  0
   -4.3616   12.1751   -0.7864 H   0  0  0  0  0  0  0  0  0  0  0  0
   -3.7703   10.6981   -0.0173 H   0  0  0  0  0  0  0  0  0  0  0  0
   -4.4894    8.0045   -1.1104 H   0  0  0  0  0  0  0  0  0  0  0  0
    5.7032   -2.9104    2.7029 H   0  0  0  0  0  0  0  0  0  0  0  0
    7.9911   -3.4231    3.4674 H   0  0  0  0  0  0  0  0  0  0  0  0
    8.3537   -5.0240    5.2995 H   0  0  0  0  0  0  0  0  0  0  0  0
    7.4464   -6.8493    6.6508 H   0  0  0  0  0  0  0  0  0  0  0  0
    5.7001   -7.1009    6.7693 H   0  0  0  0  0  0  0  0  0  0  0  0
    5.5118   -5.0687    8.2132 H   0  0  0  0  0  0  0  0  0  0  0  0
    7.2530   -4.8210    8.0926 H   0  0  0  0  0  0  0  0  0  0  0  0
    6.6210   -6.2491    8.9188 H   0  0  0  0  0  0  0  0  0  0  0  0
    4.1366   -5.5675    5.6610 H   0  0  0  0  0  0  0  0  0  0  0  0
   -2.5906    0.4296    2.7302 H   0  0  0  0  0  0  0  0  0  0  0  0
   -3.4701    0.7438    1.2026 H   0  0  0  0  0  0  0  0  0  0  0  0
   -3.3472    2.6342    3.6081 H   0  0  0  0  0  0  0  0  0  0  0  0
   -4.6837    1.5343    3.2505 H   0  0  0  0  0  0  0  0  0  0  0  0
   -4.3273    2.8658    2.1542 H   0  0  0  0  0  0  0  0  0  0  0  0
   -0.7357   -2.4383    1.7879 H   0  0  0  0  0  0  0  0  0  0  0  0
   -1.9704   -1.1908    1.9011 H   0  0  0  0  0  0  0  0  0  0  0  0
   -1.3687   -1.6405   -0.4645 H   0  0  0  0  0  0  0  0  0  0  0  0
    0.3198   -1.2464   -0.1281 H   0  0  0  0  0  0  0  0  0  0  0  0
   -0.9143    0.0126   -0.0398 H   0  0  0  0  0  0  0  0  0  0  0  0
    0.7374   -6.8283    2.3930 H   0  0  0  0  0  0  0  0  0  0  0  0
    1.4687  -10.4157    1.8563 H   0  0  0  0  0  0  0  0  0  0  0  0
    0.2215   -9.1720    1.9401 H   0  0  0  0  0  0  0  0  0  0  0  0
    0.4547  -10.0540   -0.3650 H   0  0  0  0  0  0  0  0  0  0  0  0
    0.8761   -8.3371   -0.3085 H   0  0  0  0  0  0  0  0  0  0  0  0
    2.1461   -9.5585   -0.4060 H   0  0  0  0  0  0  0  0  0  0  0  0
    3.4798  -10.5484    1.4131 H   0  0  0  0  0  0  0  0  0  0  0  0
    8.6103   -8.1168    2.9011 H   0  0  0  0  0  0  0  0  0  0  0  0
   11.1814  -10.3788    1.8829 H   0  0  0  0  0  0  0  0  0  0  0  0
   10.6034  -12.5192    0.8217 H   0  0  0  0  0  0  0  0  0  0  0  0
    8.2794  -13.1789    0.4326 H   0  0  0  0  0  0  0  0  0  0  0  0
  1  2  2  0  0  0  0
  2  3  1  0  0  0  0
  3  4  2  0  0  0  0
  3  5  1  0  0  0  0
  5  6  2  0  0  0  0
  6  7  1  0  0  0  0
  6  8  1  0  0  0  0
  8  9  2  0  0  0  0
  9 10  1  0  0  0  0
 10 11  2  0  0  0  0
 11 12  1  0  0  0  0
 12 13  2  0  0  0  0
 13 14  1  0  0  0  0
 14 15  3  0  0  0  0
 13 16  1  0  0  0  0
 16 17  3  0  0  0  0
  1 18  1  0  0  0  0
 18 19  2  0  0  0  0
 19 20  1  0  0  0  0
 20 21  1  0  0  0  0
 21 22  1  0  0  0  0
 22 23  1  0  0  0  0
 20 24  2  0  0  0  0
 24 25  1  0  0  0  0
 24 26  1  0  0  0  0
 26 27  2  0  0  0  0
 27 28  1  0  0  0  0
 28 29  2  0  0  0  0
 29 30  1  0  0  0  0
 30 31  2  0  0  0  0
 31 32  1  0  0  0  0
 32 33  1  0  0  0  0
 33 34  1  0  0  0  0
 32 35  2  0  0  0  0
 27 36  1  0  0  0  0
 36 37  1  0  0  0  0
 37 38  1  0  0  0  0
 38 39  1  0  0  0  0
 39 40  1  0  0  0  0
 40 41  1  0  0  0  0
 41 42  2  0  0  0  0
 42 43  1  0  0  0  0
 43 44  1  0  0  0  0
 41 45  1  0  0  0  0
 45 46  1  0  0  0  0
 46 47  1  0  0  0  0
 47 48  1  0  0  0  0
 48 49  1  0  0  0  0
 49 50  1  0  0  0  0
 50 51  2  0  0  0  0
 51 52  1  0  0  0  0
 52 53  2  0  0  0  0
 53 54  1  0  0  0  0
 54 55  1  0  0  0  0
 55 56  1  0  0  0  0
 54 57  2  0  0  0  0
 49 58  2  0  0  0  0
 58 59  1  0  0  0  0
 59 60  1  0  0  0  0
 60 61  1  0  0  0  0
 61 62  1  0  0  0  0
 62 63  1  0  0  0  0
 63 64  1  0  0  0  0
 64 65  1  0  0  0  0
 65 66  1  0  0  0  0
 66 67  1  0  0  0  0
 67 68  1  0  0  0  0
 65 69  1  0  0  0  0
 69 70  1  0  0  0  0
 62 71  1  0  0  0  0
 71 72  1  0  0  0  0
 58 73  1  0  0  0  0
 73 74  2  0  0  0  0
 74 75  1  0  0  0  0
 75 76  1  0  0  0  0
 76 77  1  0  0  0  0
 75 78  2  0  0  0  0
 78 79  1  0  0  0  0
 78 80  1  0  0  0  0
 80 81  2  0  0  0  0
 81 82  1  0  0  0  0
 82 83  2  0  0  0  0
 82 84  1  0  0  0  0
 84 85  2  0  0  0  0
 85 86  1  0  0  0  0
 85 87  1  0  0  0  0
 87 88  2  0  0  0  0
 88 89  1  0  0  0  0
 89 90  2  0  0  0  0
 90 91  1  0  0  0  0
 91 92  2  0  0  0  0
 92 93  1  0  0  0  0
 93 94  3  0  0  0  0
 92 95  1  0  0  0  0
 95 96  3  0  0  0  0
 12  2  1  0  0  0  0
 25 18  1  0  0  0  0
 68 26  1  0  0  0  0
 79 73  1  0  0  0  0
 91 81  1  0  0  0  0
 11  5  1  0  0  0  0
 35 28  1  0  0  0  0
 67 36  2  0  0  0  0
 90 84  1  0  0  0  0
 66 38  2  0  0  0  0
 64 39  2  0  0  0  0
 44 40  2  0  0  0  0
 63 45  2  0  0  0  0
 61 46  2  0  0  0  0
 60 48  2  0  0  0  0
 57 50  1  0  0  0  0
  1 97  1  0  0  0  0
  7 98  1  0  0  0  0
  8 99  1  0  0  0  0
  9100  1  0  0  0  0
 10101  1  0  0  0  0
 19102  1  0  0  0  0
 22103  1  0  0  0  0
 22104  1  0  0  0  0
 23105  1  0  0  0  0
 23106  1  0  0  0  0
 23107  1  0  0  0  0
 29108  1  0  0  0  0
 30109  1  0  0  0  0
 31110  1  0  0  0  0
 33111  1  0  0  0  0
 33112  1  0  0  0  0
 34113  1  0  0  0  0
 34114  1  0  0  0  0
 34115  1  0  0  0  0
 35116  1  0  0  0  0
 51117  1  0  0  0  0
 52118  1  0  0  0  0
 53119  1  0  0  0  0
 55120  1  0  0  0  0
 55121  1  0  0  0  0
 56122  1  0  0  0  0
 56123  1  0  0  0  0
 56124  1  0  0  0  0
 57125  1  0  0  0  0
 69126  1  0  0  0  0
 69127  1  0  0  0  0
 70128  1  0  0  0  0
 70129  1  0  0  0  0
 70130  1  0  0  0  0
 71131  1  0  0  0  0
 71132  1  0  0  0  0
 72133  1  0  0  0  0
 72134  1  0  0  0  0
 72135  1  0  0  0  0
 74136  1  0  0  0  0
 76137  1  0  0  0  0
 76138  1  0  0  0  0
 77139  1  0  0  0  0
 77140  1  0  0  0  0
 77141  1  0  0  0  0
 80142  1  0  0  0  0
 86143  1  0  0  0  0
 87144  1  0  0  0  0
 88145  1  0  0  0  0
 89146  1  0  0  0  0
M  END
