146

C         -6.73560        6.48270       -5.86170
C         -6.12050        7.41130       -6.66760
C         -4.90380        8.15380       -6.34260
O         -4.20860        8.10070       -5.32850
C         -4.63910        9.02600       -7.47660
C         -3.58080        9.91760       -7.60780
O         -2.66720       10.07070       -6.64190
C         -3.51460       10.65070       -8.80050
C         -4.47380       10.47220       -9.77780
C         -5.53610        9.57760       -9.63680
C         -5.61810        8.84520       -8.46800
C         -6.56490        7.83700       -7.98190
C         -7.65600        7.38570       -8.67990
C         -8.57290        6.41080       -8.23780
N         -9.36190        5.62550       -7.95200
C         -8.01070        7.84490       -9.96570
N         -8.35690        8.17270      -11.01010
C         -6.32880        5.97260       -4.62270
C         -7.05940        5.01240       -3.92290
C         -6.45880        4.58700       -2.74740
S         -7.12170        3.40840       -1.63040
C         -8.76490        3.04390       -2.35960
C         -9.50320        2.08870       -1.44220
C         -5.22920        5.22350       -2.51530
S         -4.86500        6.37240       -3.76330
C         -4.27720        4.96950       -1.50020
C         -3.11740        5.69430       -1.23940
C         -2.76570        6.97950       -1.85500
C         -1.59480        7.08910       -2.59620
C         -1.27980        8.28820       -3.20770
C         -2.11870        9.37930       -3.07640
C         -3.27950        9.29330       -2.31700
C         -4.16440       10.49210       -2.13460
C         -3.72080       11.30620       -0.91780
C         -3.58890        8.09080       -1.70280
C         -2.28940        5.02890       -0.32690
S         -0.69850        5.39140        0.29910
C         -0.70220        3.86450        1.11570
C          0.17960        3.05560        1.85300
C          1.47540        3.26960        2.37380
C          2.13700        2.19360        3.06210
N          3.32460        2.54730        3.52610
S          3.59190        4.09470        3.13280
N          2.20330        4.37440        2.34940
C          1.53440        0.91450        3.07690
C          2.04990       -0.35570        3.38140
S          3.52490       -1.06600        3.94600
C          2.86830       -2.64640        3.58910
C          3.41650       -3.93650        3.65560
C          4.77700       -4.22720        4.11730
C          5.86460       -3.60520        3.51360
C          7.14590       -3.89690        3.94420
C          7.34860       -4.79490        4.97630
C          6.27200       -5.41010        5.60410
C          6.48580       -6.34300        6.76000
C          6.46680       -5.57250        8.08160
C          4.98860       -5.11410        5.17020
C          2.52730       -4.89680        3.19640
S          0.97710       -4.18730        2.73130
C          1.55940       -2.60450        3.09750
C          1.09070       -1.29230        2.97890
N         -0.01880       -0.65460        2.48660
C          0.23850        0.70630        2.53150
C         -0.49180        1.82050        2.05740
N         -1.77730        1.91250        1.55410
C         -1.88900        3.13930        0.94790
C         -2.80250        3.80890        0.12860
S         -4.35450        3.48330       -0.55650
C         -2.93840        1.20070        2.04410
C         -3.88370        2.12390        2.81100
C         -0.93250       -1.37610        1.62420
C         -0.70970       -1.03710        0.15330
C          2.75510       -6.26570        2.91980
C          1.77020       -7.13470        2.46340
C          2.18700       -8.40370        2.09740
C          1.21420       -9.40100        1.54750
C          1.17070       -9.33210        0.01810
C          3.57570       -8.62640        2.21310
Se         4.43430       -7.08960        2.93230
C          4.17660       -9.81570        1.79780
C          5.50400      -10.18760        1.75510
C          6.62830       -9.38810        2.20510
O          6.61670       -8.28130        2.75790
C          7.83190      -10.14270        1.89140
C          9.14680       -9.75750        2.12320
O          9.44390       -8.58790        2.70260
C         10.15030      -10.64920        1.72040
C          9.81370      -11.84890        1.12570
C          8.49010      -12.23200        0.90040
C          7.48740      -11.36570        1.28990
C          6.02410      -11.42690        1.21070
C          5.31030      -12.48510        0.70770
C          5.90120      -13.65800        0.19340
N          6.31400      -14.63730       -0.24130
C          3.90540      -12.57160        0.63250
N          2.76970      -12.72100        0.53550
H         -7.66160        6.05300       -6.22310
H         -2.88410        9.46530       -5.90350
H         -2.70470       11.34930       -8.93730
H         -4.40140       11.04670      -10.68890
H         -6.25900        9.47610      -10.42850
H         -7.99710        4.64670       -4.29910
H         -8.60410        2.59790       -3.34090
H         -9.30140        3.98750       -2.45620
H         -9.63600        2.53180       -0.45800
H        -10.48190        1.86220       -1.85910
H         -8.94710        1.16090       -1.33080
H         -0.95120        6.22970       -2.71040
H         -0.37830        8.36860       -3.79690
H         -1.87290       10.30910       -3.56940
H         -4.11880       11.12150       -3.02550
H         -5.19860       10.17020       -1.99720
H         -2.69540       11.64620       -1.04400
H         -4.36160       12.17510       -0.78640
H         -3.77030       10.69810       -0.01730
H         -4.48940        8.00450       -1.11040
H          5.70320       -2.91040        2.70290
H          7.99110       -3.42310        3.46740
H          8.35370       -5.02400        5.29950
H          7.44640       -6.84930        6.65080
H          5.70010       -7.10090        6.76930
H          5.51180       -5.06870        8.21320
H          7.25300       -4.82100        8.09260
H          6.62100       -6.24910        8.91880
H          4.13660       -5.56750        5.66100
H         -2.59060        0.42960        2.73020
H         -3.47010        0.74380        1.20260
H         -3.34720        2.63420        3.60810
H         -4.68370        1.53430        3.25050
H         -4.32730        2.86580        2.15420
H         -0.73570       -2.43830        1.78790
H         -1.97040       -1.19080        1.90110
H         -1.36870       -1.64050       -0.46450
H          0.31980       -1.24640       -0.12810
H         -0.91430        0.01260       -0.03980
H          0.73740       -6.82830        2.39300
H          1.46870      -10.41570        1.85630
H          0.22150       -9.17200        1.94010
H          0.45470      -10.05400       -0.36500
H          0.87610       -8.33710       -0.30850
H          2.14610       -9.55850       -0.40600
H          3.47980      -10.54840        1.41310
H          8.61030       -8.11680        2.90110
H         11.18140      -10.37880        1.88290
H         10.60340      -12.51920        0.82170
H          8.27940      -13.17890        0.43260
