
  xtb     02202218063D
 energy: -407.156652948338 gnorm: 0.000546693717 xtb: 6.4.1 (unknown)
243267  0     0  0            999 V2000
    9.8251  -11.0660   -4.6949 C   0  0  0  0  0  0  0  0  0  0  0  0
    9.5151  -12.2666   -4.1199 C   0  0  0  0  0  0  0  0  0  0  0  0
    8.5141  -12.5634   -3.0650 C   0  0  0  0  0  0  0  0  0  0  0  0
    7.7800  -11.7981   -2.4686 O   0  0  0  0  0  0  0  0  0  0  0  0
    8.5955  -14.0111   -2.8400 C   0  0  0  0  0  0  0  0  0  0  0  0
    7.8522  -14.7798   -1.9661 C   0  0  0  0  0  0  0  0  0  0  0  0
    8.0699  -16.1514   -1.8936 C   0  0  0  0  0  0  0  0  0  0  0  0
    7.3673  -16.9680   -1.0570 O   0  0  0  0  0  0  0  0  0  0  0  0
    6.3717  -16.4037   -0.2356 C   0  0  0  0  0  0  0  0  0  0  0  0
    9.0623  -16.7362   -2.7217 C   0  0  0  0  0  0  0  0  0  0  0  0
    9.4052  -18.0407   -2.7797 O   0  0  0  0  0  0  0  0  0  0  0  0
    8.7860  -19.0321   -1.9884 C   0  0  0  0  0  0  0  0  0  0  0  0
    9.8042  -15.9365   -3.5967 C   0  0  0  0  0  0  0  0  0  0  0  0
    9.5782  -14.5750   -3.6646 C   0  0  0  0  0  0  0  0  0  0  0  0
   10.1810  -13.5173   -4.4658 C   0  0  0  0  0  0  0  0  0  0  0  0
   11.1883  -13.7059   -5.3763 C   0  0  0  0  0  0  0  0  0  0  0  0
   11.8091  -12.7229   -6.1761 C   0  0  0  0  0  0  0  0  0  0  0  0
   12.3844  -12.0105   -6.8707 N   0  0  0  0  0  0  0  0  0  0  0  0
   11.7727  -14.9610   -5.6530 C   0  0  0  0  0  0  0  0  0  0  0  0
   12.3003  -15.9416   -5.9324 N   0  0  0  0  0  0  0  0  0  0  0  0
    9.2731   -9.7767   -4.5324 C   0  0  0  0  0  0  0  0  0  0  0  0
    8.2018   -9.3037   -3.8151 C   0  0  0  0  0  0  0  0  0  0  0  0
    7.9878   -7.9202   -3.9491 C   0  0  0  0  0  0  0  0  0  0  0  0
    6.9823   -7.1361   -3.3296 C   0  0  0  0  0  0  0  0  0  0  0  0
    6.0733   -7.6944   -2.3606 C   0  0  0  0  0  0  0  0  0  0  0  0
    6.3202   -8.6646   -1.4252 C   0  0  0  0  0  0  0  0  0  0  0  0
    5.2251   -9.0606   -0.6379 C   0  0  0  0  0  0  0  0  0  0  0  0
    4.0449   -8.4326   -0.9262 C   0  0  0  0  0  0  0  0  0  0  0  0
    2.5341   -8.8158   -0.1343 S   0  0  0  0  0  0  0  0  0  0  0  0
    1.4042   -7.5606   -0.8309 C   0  0  0  0  0  0  0  0  0  0  0  0
    1.5907   -6.1963   -0.1978 C   0  0  0  0  0  0  0  0  0  0  0  0
    4.2632   -7.1623   -2.2987 Se  0  0  0  0  0  2  0  0  0  0  0  0
    6.9157   -5.8098   -3.7378 C   0  0  0  0  0  0  0  0  0  0  0  0
    7.7956   -5.2213   -4.6782 C   0  0  0  0  0  0  0  0  0  0  0  0
    8.8633   -5.9752   -5.2153 C   0  0  0  0  0  0  0  0  0  0  0  0
    9.8467   -5.3723   -6.0830 C   0  0  0  0  0  0  0  0  0  0  0  0
   10.3479   -4.0998   -6.0084 C   0  0  0  0  0  0  0  0  0  0  0  0
   11.2937   -3.7477   -6.9873 C   0  0  0  0  0  0  0  0  0  0  0  0
   11.5799   -4.7289   -7.8944 C   0  0  0  0  0  0  0  0  0  0  0  0
   12.6567   -4.5065   -9.2522 S   0  0  0  0  0  0  0  0  0  0  0  0
   13.0043   -6.2358   -9.7305 C   0  0  0  0  0  0  0  0  0  0  0  0
   13.9132   -6.9354   -8.7412 C   0  0  0  0  0  0  0  0  0  0  0  0
   10.5995   -6.2998   -7.5417 Se  0  0  0  0  0  2  0  0  0  0  0  0
    8.9050   -7.3180   -4.8507 C   0  0  0  0  0  0  0  0  0  0  0  0
   10.0593   -8.4766   -5.4326 S   0  0  0  0  0  0  0  0  0  0  0  0
    7.4352   -3.8872   -4.9807 C   0  0  0  0  0  0  0  0  0  0  0  0
    6.3707   -3.4262   -4.2587 C   0  0  0  0  0  0  0  0  0  0  0  0
    5.7451   -4.6527   -3.1701 S   0  0  0  0  0  0  0  0  0  0  0  0
    5.7254   -2.1588   -4.2951 C   0  0  0  0  0  0  0  0  0  0  0  0
    6.0490   -1.0177   -5.0071 C   0  0  0  0  0  0  0  0  0  0  0  0
    7.2619   -0.8064   -5.8067 C   0  0  0  0  0  0  0  0  0  0  0  0
    8.5176   -0.8785   -5.2106 C   0  0  0  0  0  0  0  0  0  0  0  0
    9.6503   -0.6334   -5.9634 C   0  0  0  0  0  0  0  0  0  0  0  0
    9.5406   -0.3243   -7.3081 C   0  0  0  0  0  0  0  0  0  0  0  0
    8.2943   -0.2388   -7.9147 C   0  0  0  0  0  0  0  0  0  0  0  0
    8.1665    0.1590   -9.3561 C   0  0  0  0  0  0  0  0  0  0  0  0
    8.0275    1.6783   -9.4727 C   0  0  0  0  0  0  0  0  0  0  0  0
    7.1597   -0.4711   -7.1502 C   0  0  0  0  0  0  0  0  0  0  0  0
    5.0846   -0.0096   -4.8196 C   0  0  0  0  0  0  0  0  0  0  0  0
    4.9547    1.6249   -5.4257 S   0  0  0  0  0  0  0  0  0  0  0  0
    3.5298    1.8433   -4.4637 C   0  0  0  0  0  0  0  0  0  0  0  0
    2.6443    2.8689   -4.0899 C   0  0  0  0  0  0  0  0  0  0  0  0
    2.6393    4.2544   -4.3661 C   0  0  0  0  0  0  0  0  0  0  0  0
    1.7653    5.1141   -3.6137 C   0  0  0  0  0  0  0  0  0  0  0  0
    1.9297    6.3915   -3.9192 N   0  0  0  0  0  0  0  0  0  0  0  0
    3.0749    6.5055   -5.0578 S   0  0  0  0  0  0  0  0  0  0  0  0
    3.4119    4.9284   -5.2030 N   0  0  0  0  0  0  0  0  0  0  0  0
    0.8534    4.5385   -2.7020 C   0  0  0  0  0  0  0  0  0  0  0  0
   -0.0959    5.0970   -1.8246 C   0  0  0  0  0  0  0  0  0  0  0  0
   -0.6199    6.6501   -1.2622 S   0  0  0  0  0  0  0  0  0  0  0  0
   -1.7306    5.8611   -0.1704 C   0  0  0  0  0  0  0  0  0  0  0  0
   -2.5902    6.3421    0.8406 C   0  0  0  0  0  0  0  0  0  0  0  0
   -2.6830    7.7395    1.2620 C   0  0  0  0  0  0  0  0  0  0  0  0
   -2.7069    8.0600    2.6168 C   0  0  0  0  0  0  0  0  0  0  0  0
   -2.7786    9.3818    3.0134 C   0  0  0  0  0  0  0  0  0  0  0  0
   -2.8550   10.3894    2.0692 C   0  0  0  0  0  0  0  0  0  0  0  0
   -2.8191   10.0891    0.7132 C   0  0  0  0  0  0  0  0  0  0  0  0
   -2.9581   11.1823   -0.3065 C   0  0  0  0  0  0  0  0  0  0  0  0
   -4.4298   11.5704   -0.4690 C   0  0  0  0  0  0  0  0  0  0  0  0
   -2.7067    8.7642    0.3218 C   0  0  0  0  0  0  0  0  0  0  0  0
   -3.2509    5.3047    1.4645 C   0  0  0  0  0  0  0  0  0  0  0  0
   -2.7777    3.7277    0.8556 S   0  0  0  0  0  0  0  0  0  0  0  0
   -1.7071    4.4714   -0.2755 C   0  0  0  0  0  0  0  0  0  0  0  0
   -0.7655    4.0349   -1.2161 C   0  0  0  0  0  0  0  0  0  0  0  0
   -0.2749    2.8380   -1.6749 N   0  0  0  0  0  0  0  0  0  0  0  0
    0.7546    3.1291   -2.5567 C   0  0  0  0  0  0  0  0  0  0  0  0
    1.7378    2.3025   -3.1523 C   0  0  0  0  0  0  0  0  0  0  0  0
    2.0811    0.9797   -2.9471 N   0  0  0  0  0  0  0  0  0  0  0  0
    3.1674    0.7064   -3.7357 C   0  0  0  0  0  0  0  0  0  0  0  0
    4.0556   -0.3554   -3.9407 C   0  0  0  0  0  0  0  0  0  0  0  0
    4.2459   -1.9715   -3.3659 S   0  0  0  0  0  0  0  0  0  0  0  0
    1.7327    0.0885   -1.8630 C   0  0  0  0  0  0  0  0  0  0  0  0
    0.9744   -1.1462   -2.3505 C   0  0  0  0  0  0  0  0  0  0  0  0
   -1.1378    1.6760   -1.6807 C   0  0  0  0  0  0  0  0  0  0  0  0
   -2.4321    1.9532   -2.4449 C   0  0  0  0  0  0  0  0  0  0  0  0
   -4.2934    5.4033    2.4428 C   0  0  0  0  0  0  0  0  0  0  0  0
   -5.4297    6.1938    2.3686 C   0  0  0  0  0  0  0  0  0  0  0  0
   -5.7945    6.9455    1.2643 N   0  0  0  0  0  0  0  0  0  0  0  0
   -5.5188    6.4546   -0.0203 C   0  0  0  0  0  0  0  0  0  0  0  0
   -5.6143    5.0924   -0.2939 C   0  0  0  0  0  0  0  0  0  0  0  0
   -5.2666    4.6031   -1.5380 C   0  0  0  0  0  0  0  0  0  0  0  0
   -4.8204    5.4491   -2.5441 C   0  0  0  0  0  0  0  0  0  0  0  0
   -4.3838    4.9195   -3.8759 C   0  0  0  0  0  0  0  0  0  0  0  0
   -4.7770    6.8136   -2.2802 C   0  0  0  0  0  0  0  0  0  0  0  0
   -5.1264    7.3141   -1.0435 C   0  0  0  0  0  0  0  0  0  0  0  0
   -6.3999    8.1969    1.4427 C   0  0  0  0  0  0  0  0  0  0  0  0
   -6.0676    8.9959    2.5327 C   0  0  0  0  0  0  0  0  0  0  0  0
   -6.6563   10.2340    2.6948 C   0  0  0  0  0  0  0  0  0  0  0  0
   -7.5843   10.7138    1.7806 C   0  0  0  0  0  0  0  0  0  0  0  0
   -8.2266   12.0547    1.9628 C   0  0  0  0  0  0  0  0  0  0  0  0
   -7.9212    9.9045    0.7014 C   0  0  0  0  0  0  0  0  0  0  0  0
   -7.3476    8.6610    0.5330 C   0  0  0  0  0  0  0  0  0  0  0  0
   -6.2080    6.0593    3.5441 C   0  0  0  0  0  0  0  0  0  0  0  0
   -7.6520    6.8081    4.1122 S   0  0  0  0  0  0  0  0  0  0  0  0
   -7.6123    5.8271    5.5869 C   0  0  0  0  0  0  0  0  0  0  0  0
   -6.4620    5.0162    5.6492 C   0  0  0  0  0  0  0  0  0  0  0  0
   -6.0236    4.2904    6.7213 N   0  0  0  0  0  0  0  0  0  0  0  0
   -6.3577    4.6065    8.0449 C   0  0  0  0  0  0  0  0  0  0  0  0
   -6.4220    5.9298    8.4796 C   0  0  0  0  0  0  0  0  0  0  0  0
   -6.7891    6.2167    9.7771 C   0  0  0  0  0  0  0  0  0  0  0  0
   -7.1033    5.2032   10.6799 C   0  0  0  0  0  0  0  0  0  0  0  0
   -7.5535    5.5375   12.0668 C   0  0  0  0  0  0  0  0  0  0  0  0
   -6.9951    3.8873   10.2517 C   0  0  0  0  0  0  0  0  0  0  0  0
   -6.6244    3.5857    8.9547 C   0  0  0  0  0  0  0  0  0  0  0  0
   -5.1824    3.1799    6.4976 C   0  0  0  0  0  0  0  0  0  0  0  0
   -4.0363    3.0094    7.2670 C   0  0  0  0  0  0  0  0  0  0  0  0
   -3.2091    1.9271    7.0396 C   0  0  0  0  0  0  0  0  0  0  0  0
   -3.5011    0.9974    6.0485 C   0  0  0  0  0  0  0  0  0  0  0  0
   -2.5804   -0.1535    5.7811 C   0  0  0  0  0  0  0  0  0  0  0  0
   -4.6582    1.1698    5.2976 C   0  0  0  0  0  0  0  0  0  0  0  0
   -5.4958    2.2453    5.5155 C   0  0  0  0  0  0  0  0  0  0  0  0
   -5.7042    5.1472    4.4613 C   0  0  0  0  0  0  0  0  0  0  0  0
   -4.2301    4.4325    3.9020 S   0  0  0  0  0  0  0  0  0  0  0  0
   -8.6602    6.0088    6.4960 C   0  0  0  0  0  0  0  0  0  0  0  0
   -9.0784    5.0921    7.4347 C   0  0  0  0  0  0  0  0  0  0  0  0
   -8.9091    3.6352    7.2906 C   0  0  0  0  0  0  0  0  0  0  0  0
   -8.3602    3.0381    6.3817 O   0  0  0  0  0  0  0  0  0  0  0  0
   -9.6620    3.0446    8.4107 C   0  0  0  0  0  0  0  0  0  0  0  0
   -9.8346    1.7143    8.7281 C   0  0  0  0  0  0  0  0  0  0  0  0
  -10.5760    1.3609    9.8529 C   0  0  0  0  0  0  0  0  0  0  0  0
  -10.7623    0.0606   10.2345 O   0  0  0  0  0  0  0  0  0  0  0  0
  -10.2354   -0.9641    9.4262 C   0  0  0  0  0  0  0  0  0  0  0  0
  -11.1545    2.3794   10.6466 C   0  0  0  0  0  0  0  0  0  0  0  0
  -11.9003    2.2153   11.7649 O   0  0  0  0  0  0  0  0  0  0  0  0
  -12.3297    0.9479   12.2118 C   0  0  0  0  0  0  0  0  0  0  0  0
  -10.9684    3.7230   10.3040 C   0  0  0  0  0  0  0  0  0  0  0  0
  -10.2257    4.0622    9.1922 C   0  0  0  0  0  0  0  0  0  0  0  0
   -9.8577    5.3500    8.6148 C   0  0  0  0  0  0  0  0  0  0  0  0
  -10.0681    6.5815    9.1856 C   0  0  0  0  0  0  0  0  0  0  0  0
   -9.5674    7.7886    8.6614 C   0  0  0  0  0  0  0  0  0  0  0  0
   -9.1623    8.8044    8.3083 N   0  0  0  0  0  0  0  0  0  0  0  0
  -10.7365    6.7774   10.4075 C   0  0  0  0  0  0  0  0  0  0  0  0
  -11.2549    7.0010   11.4084 N   0  0  0  0  0  0  0  0  0  0  0  0
   10.6378  -11.0795   -5.4113 H   0  0  0  0  0  0  0  0  0  0  0  0
    7.1100  -14.2914   -1.3560 H   0  0  0  0  0  0  0  0  0  0  0  0
    6.7916  -15.6718    0.4606 H   0  0  0  0  0  0  0  0  0  0  0  0
    5.5802  -15.9347   -0.8276 H   0  0  0  0  0  0  0  0  0  0  0  0
    5.9556  -17.2384    0.3262 H   0  0  0  0  0  0  0  0  0  0  0  0
    8.9324  -18.8491   -0.9225 H   0  0  0  0  0  0  0  0  0  0  0  0
    7.7184  -19.1110   -2.2009 H   0  0  0  0  0  0  0  0  0  0  0  0
    9.2819  -19.9610   -2.2691 H   0  0  0  0  0  0  0  0  0  0  0  0
   10.5433  -16.4363   -4.1997 H   0  0  0  0  0  0  0  0  0  0  0  0
    7.5745   -9.9530   -3.2351 H   0  0  0  0  0  0  0  0  0  0  0  0
    7.3028   -9.0723   -1.2631 H   0  0  0  0  0  0  0  0  0  0  0  0
    5.3043   -9.8078    0.1323 H   0  0  0  0  0  0  0  0  0  0  0  0
    0.4053   -7.9519   -0.6396 H   0  0  0  0  0  0  0  0  0  0  0  0
    1.5796   -7.5332   -1.9109 H   0  0  0  0  0  0  0  0  0  0  0  0
    0.8790   -5.4931   -0.6251 H   0  0  0  0  0  0  0  0  0  0  0  0
    1.4311   -6.2515    0.8764 H   0  0  0  0  0  0  0  0  0  0  0  0
    2.5976   -5.8207   -0.3822 H   0  0  0  0  0  0  0  0  0  0  0  0
   10.0850   -3.4268   -5.2105 H   0  0  0  0  0  0  0  0  0  0  0  0
   11.7684   -2.7827   -7.0188 H   0  0  0  0  0  0  0  0  0  0  0  0
   12.0388   -6.7432   -9.8239 H   0  0  0  0  0  0  0  0  0  0  0  0
   13.4671   -6.1627  -10.7140 H   0  0  0  0  0  0  0  0  0  0  0  0
   14.8613   -6.4092   -8.6571 H   0  0  0  0  0  0  0  0  0  0  0  0
   14.1024   -7.9540   -9.0724 H   0  0  0  0  0  0  0  0  0  0  0  0
   13.4495   -6.9780   -7.7554 H   0  0  0  0  0  0  0  0  0  0  0  0
    7.9165   -3.3041   -5.7422 H   0  0  0  0  0  0  0  0  0  0  0  0
    8.5954   -1.1185   -4.1598 H   0  0  0  0  0  0  0  0  0  0  0  0
   10.6240   -0.6799   -5.4978 H   0  0  0  0  0  0  0  0  0  0  0  0
   10.4307   -0.1432   -7.8931 H   0  0  0  0  0  0  0  0  0  0  0  0
    7.2879   -0.3175   -9.7955 H   0  0  0  0  0  0  0  0  0  0  0  0
    9.0478   -0.1686   -9.9110 H   0  0  0  0  0  0  0  0  0  0  0  0
    7.1544    2.0215   -8.9222 H   0  0  0  0  0  0  0  0  0  0  0  0
    7.9210    1.9713  -10.5145 H   0  0  0  0  0  0  0  0  0  0  0  0
    8.9056    2.1709   -9.0611 H   0  0  0  0  0  0  0  0  0  0  0  0
    6.1820   -0.4041   -7.6058 H   0  0  0  0  0  0  0  0  0  0  0  0
   -2.6472    7.2734    3.3549 H   0  0  0  0  0  0  0  0  0  0  0  0
   -2.7812    9.6270    4.0657 H   0  0  0  0  0  0  0  0  0  0  0  0
   -2.9313   11.4195    2.3853 H   0  0  0  0  0  0  0  0  0  0  0  0
   -2.3910   12.0595    0.0124 H   0  0  0  0  0  0  0  0  0  0  0  0
   -2.5605   10.8488   -1.2667 H   0  0  0  0  0  0  0  0  0  0  0  0
   -4.8478   11.8893    0.4831 H   0  0  0  0  0  0  0  0  0  0  0  0
   -4.5325   12.3816   -1.1859 H   0  0  0  0  0  0  0  0  0  0  0  0
   -5.0141   10.7230   -0.8210 H   0  0  0  0  0  0  0  0  0  0  0  0
   -2.6502    8.5181   -0.7281 H   0  0  0  0  0  0  0  0  0  0  0  0
    2.6656   -0.2444   -1.3935 H   0  0  0  0  0  0  0  0  0  0  0  0
    1.1663    0.6430   -1.1148 H   0  0  0  0  0  0  0  0  0  0  0  0
    0.1061   -0.8769   -2.9479 H   0  0  0  0  0  0  0  0  0  0  0  0
    1.6230   -1.7649   -2.9643 H   0  0  0  0  0  0  0  0  0  0  0  0
    0.6458   -1.7334   -1.4977 H   0  0  0  0  0  0  0  0  0  0  0  0
   -1.3703    1.4085   -0.6446 H   0  0  0  0  0  0  0  0  0  0  0  0
   -0.6232    0.8533   -2.1648 H   0  0  0  0  0  0  0  0  0  0  0  0
   -3.0444    1.0554   -2.4604 H   0  0  0  0  0  0  0  0  0  0  0  0
   -2.2077    2.2423   -3.4697 H   0  0  0  0  0  0  0  0  0  0  0  0
   -2.9965    2.7519   -1.9728 H   0  0  0  0  0  0  0  0  0  0  0  0
   -5.9575    4.4141    0.4738 H   0  0  0  0  0  0  0  0  0  0  0  0
   -5.3483    3.5417   -1.7263 H   0  0  0  0  0  0  0  0  0  0  0  0
   -4.6888    3.8837   -4.0037 H   0  0  0  0  0  0  0  0  0  0  0  0
   -4.8079    5.5131   -4.6835 H   0  0  0  0  0  0  0  0  0  0  0  0
   -3.2976    4.9731   -3.9606 H   0  0  0  0  0  0  0  0  0  0  0  0
   -4.4521    7.4932   -3.0549 H   0  0  0  0  0  0  0  0  0  0  0  0
   -5.0824    8.3745   -0.8514 H   0  0  0  0  0  0  0  0  0  0  0  0
   -5.3320    8.6520    3.2427 H   0  0  0  0  0  0  0  0  0  0  0  0
   -6.3813   10.8405    3.5453 H   0  0  0  0  0  0  0  0  0  0  0  0
   -7.5928   12.7120    2.5532 H   0  0  0  0  0  0  0  0  0  0  0  0
   -9.1769   11.9443    2.4862 H   0  0  0  0  0  0  0  0  0  0  0  0
   -8.4254   12.5234    1.0014 H   0  0  0  0  0  0  0  0  0  0  0  0
   -8.6505   10.2517   -0.0164 H   0  0  0  0  0  0  0  0  0  0  0  0
   -7.6312    8.0417   -0.3052 H   0  0  0  0  0  0  0  0  0  0  0  0
   -6.1888    6.7328    7.7964 H   0  0  0  0  0  0  0  0  0  0  0  0
   -6.8424    7.2476   10.0956 H   0  0  0  0  0  0  0  0  0  0  0  0
   -6.8706    6.2463   12.5318 H   0  0  0  0  0  0  0  0  0  0  0  0
   -7.6110    4.6447   12.6839 H   0  0  0  0  0  0  0  0  0  0  0  0
   -8.5408    5.9993   12.0413 H   0  0  0  0  0  0  0  0  0  0  0  0
   -7.2201    3.0830   10.9370 H   0  0  0  0  0  0  0  0  0  0  0  0
   -6.5527    2.5577    8.6326 H   0  0  0  0  0  0  0  0  0  0  0  0
   -3.7981    3.7291    8.0367 H   0  0  0  0  0  0  0  0  0  0  0  0
   -2.3177    1.8066    7.6381 H   0  0  0  0  0  0  0  0  0  0  0  0
   -3.1347   -1.0212    5.4307 H   0  0  0  0  0  0  0  0  0  0  0  0
   -2.0253   -0.4250    6.6758 H   0  0  0  0  0  0  0  0  0  0  0  0
   -1.8618    0.1210    5.0080 H   0  0  0  0  0  0  0  0  0  0  0  0
   -4.9100    0.4477    4.5344 H   0  0  0  0  0  0  0  0  0  0  0  0
   -6.4102    2.3609    4.9552 H   0  0  0  0  0  0  0  0  0  0  0  0
   -9.1955    6.9471    6.4126 H   0  0  0  0  0  0  0  0  0  0  0  0
   -9.3761    0.9691    8.0987 H   0  0  0  0  0  0  0  0  0  0  0  0
   -9.1428   -0.9199    9.3805 H   0  0  0  0  0  0  0  0  0  0  0  0
  -10.5379   -1.8936    9.9062 H   0  0  0  0  0  0  0  0  0  0  0  0
  -10.6457   -0.9293    8.4125 H   0  0  0  0  0  0  0  0  0  0  0  0
  -12.9097    0.4255   11.4485 H   0  0  0  0  0  0  0  0  0  0  0  0
  -11.4918    0.3212   12.5227 H   0  0  0  0  0  0  0  0  0  0  0  0
  -12.9664    1.1563   13.0713 H   0  0  0  0  0  0  0  0  0  0  0  0
  -11.4346    4.4587   10.9384 H   0  0  0  0  0  0  0  0  0  0  0  0
  1  2  2  0  0  0  0
  2  3  1  0  0  0  0
  3  4  2  0  0  0  0
  3  5  1  0  0  0  0
  5  6  2  0  0  0  0
  6  7  1  0  0  0  0
  7  8  1  0  0  0  0
  8  9  1  0  0  0  0
  7 10  2  0  0  0  0
 10 11  1  0  0  0  0
 11 12  1  0  0  0  0
 10 13  1  0  0  0  0
 13 14  2  0  0  0  0
 14 15  1  0  0  0  0
 15 16  2  0  0  0  0
 16 17  1  0  0  0  0
 17 18  3  0  0  0  0
 16 19  1  0  0  0  0
 19 20  3  0  0  0  0
  1 21  1  0  0  0  0
 21 22  2  0  0  0  0
 22 23  1  0  0  0  0
 23 24  2  0  0  0  0
 24 25  1  0  0  0  0
 25 26  2  0  0  0  0
 26 27  1  0  0  0  0
 27 28  2  0  0  0  0
 28 29  1  0  0  0  0
 29 30  1  0  0  0  0
 30 31  1  0  0  0  0
 28 32  1  0  0  0  0
 24 33  1  0  0  0  0
 33 34  2  0  0  0  0
 34 35  1  0  0  0  0
 35 36  1  0  0  0  0
 36 37  2  0  0  0  0
 37 38  1  0  0  0  0
 38 39  2  0  0  0  0
 39 40  1  0  0  0  0
 40 41  1  0  0  0  0
 41 42  1  0  0  0  0
 39 43  1  0  0  0  0
 35 44  2  0  0  0  0
 44 45  1  0  0  0  0
 34 46  1  0  0  0  0
 46 47  2  0  0  0  0
 47 48  1  0  0  0  0
 47 49  1  0  0  0  0
 49 50  2  0  0  0  0
 50 51  1  0  0  0  0
 51 52  2  0  0  0  0
 52 53  1  0  0  0  0
 53 54  2  0  0  0  0
 54 55  1  0  0  0  0
 55 56  1  0  0  0  0
 56 57  1  0  0  0  0
 55 58  2  0  0  0  0
 50 59  1  0  0  0  0
 59 60  1  0  0  0  0
 60 61  1  0  0  0  0
 61 62  1  0  0  0  0
 62 63  1  0  0  0  0
 63 64  1  0  0  0  0
 64 65  2  0  0  0  0
 65 66  1  0  0  0  0
 66 67  1  0  0  0  0
 64 68  1  0  0  0  0
 68 69  1  0  0  0  0
 69 70  1  0  0  0  0
 70 71  1  0  0  0  0
 71 72  1  0  0  0  0
 72 73  1  0  0  0  0
 73 74  2  0  0  0  0
 74 75  1  0  0  0  0
 75 76  2  0  0  0  0
 76 77  1  0  0  0  0
 77 78  1  0  0  0  0
 78 79  1  0  0  0  0
 77 80  2  0  0  0  0
 72 81  2  0  0  0  0
 81 82  1  0  0  0  0
 82 83  1  0  0  0  0
 83 84  1  0  0  0  0
 84 85  1  0  0  0  0
 85 86  1  0  0  0  0
 86 87  1  0  0  0  0
 87 88  1  0  0  0  0
 88 89  1  0  0  0  0
 89 90  1  0  0  0  0
 90 91  1  0  0  0  0
 88 92  1  0  0  0  0
 92 93  1  0  0  0  0
 85 94  1  0  0  0  0
 94 95  1  0  0  0  0
 81 96  1  0  0  0  0
 96 97  2  0  0  0  0
 97 98  1  0  0  0  0
 98 99  1  0  0  0  0
 99100  2  0  0  0  0
100101  1  0  0  0  0
101102  2  0  0  0  0
102103  1  0  0  0  0
102104  1  0  0  0  0
104105  2  0  0  0  0
 98106  1  0  0  0  0
106107  2  0  0  0  0
107108  1  0  0  0  0
108109  2  0  0  0  0
109110  1  0  0  0  0
109111  1  0  0  0  0
111112  2  0  0  0  0
 97113  1  0  0  0  0
113114  1  0  0  0  0
114115  1  0  0  0  0
115116  2  0  0  0  0
116117  1  0  0  0  0
117118  1  0  0  0  0
118119  2  0  0  0  0
119120  1  0  0  0  0
120121  2  0  0  0  0
121122  1  0  0  0  0
121123  1  0  0  0  0
123124  2  0  0  0  0
117125  1  0  0  0  0
125126  2  0  0  0  0
126127  1  0  0  0  0
127128  2  0  0  0  0
128129  1  0  0  0  0
128130  1  0  0  0  0
130131  2  0  0  0  0
116132  1  0  0  0  0
132133  1  0  0  0  0
115134  1  0  0  0  0
134135  2  0  0  0  0
135136  1  0  0  0  0
136137  2  0  0  0  0
136138  1  0  0  0  0
138139  2  0  0  0  0
139140  1  0  0  0  0
140141  1  0  0  0  0
141142  1  0  0  0  0
140143  2  0  0  0  0
143144  1  0  0  0  0
144145  1  0  0  0  0
143146  1  0  0  0  0
146147  2  0  0  0  0
147148  1  0  0  0  0
148149  2  0  0  0  0
149150  1  0  0  0  0
150151  3  0  0  0  0
149152  1  0  0  0  0
152153  3  0  0  0  0
 15  2  1  0  0  0  0
 45 21  1  0  0  0  0
 91 49  1  0  0  0  0
133 96  1  0  0  0  0
148135  1  0  0  0  0
 14  5  1  0  0  0  0
 44 23  1  0  0  0  0
 58 51  1  0  0  0  0
 90 59  2  0  0  0  0
105 99  1  0  0  0  0
112106  1  0  0  0  0
132113  2  0  0  0  0
147138  1  0  0  0  0
 32 25  1  0  0  0  0
 48 33  1  0  0  0  0
 89 61  2  0  0  0  0
124118  1  0  0  0  0
131125  1  0  0  0  0
 43 36  1  0  0  0  0
 87 62  2  0  0  0  0
 67 63  2  0  0  0  0
 86 68  2  0  0  0  0
 84 69  2  0  0  0  0
 83 71  2  0  0  0  0
 80 73  1  0  0  0  0
  1154  1  0  0  0  0
  6155  1  0  0  0  0
  9156  1  0  0  0  0
  9157  1  0  0  0  0
  9158  1  0  0  0  0
 12159  1  0  0  0  0
 12160  1  0  0  0  0
 12161  1  0  0  0  0
 13162  1  0  0  0  0
 22163  1  0  0  0  0
 26164  1  0  0  0  0
 27165  1  0  0  0  0
 30166  1  0  0  0  0
 30167  1  0  0  0  0
 31168  1  0  0  0  0
 31169  1  0  0  0  0
 31170  1  0  0  0  0
 37171  1  0  0  0  0
 38172  1  0  0  0  0
 41173  1  0  0  0  0
 41174  1  0  0  0  0
 42175  1  0  0  0  0
 42176  1  0  0  0  0
 42177  1  0  0  0  0
 46178  1  0  0  0  0
 52179  1  0  0  0  0
 53180  1  0  0  0  0
 54181  1  0  0  0  0
 56182  1  0  0  0  0
 56183  1  0  0  0  0
 57184  1  0  0  0  0
 57185  1  0  0  0  0
 57186  1  0  0  0  0
 58187  1  0  0  0  0
 74188  1  0  0  0  0
 75189  1  0  0  0  0
 76190  1  0  0  0  0
 78191  1  0  0  0  0
 78192  1  0  0  0  0
 79193  1  0  0  0  0
 79194  1  0  0  0  0
 79195  1  0  0  0  0
 80196  1  0  0  0  0
 92197  1  0  0  0  0
 92198  1  0  0  0  0
 93199  1  0  0  0  0
 93200  1  0  0  0  0
 93201  1  0  0  0  0
 94202  1  0  0  0  0
 94203  1  0  0  0  0
 95204  1  0  0  0  0
 95205  1  0  0  0  0
 95206  1  0  0  0  0
100207  1  0  0  0  0
101208  1  0  0  0  0
103209  1  0  0  0  0
103210  1  0  0  0  0
103211  1  0  0  0  0
104212  1  0  0  0  0
105213  1  0  0  0  0
107214  1  0  0  0  0
108215  1  0  0  0  0
110216  1  0  0  0  0
110217  1  0  0  0  0
110218  1  0  0  0  0
111219  1  0  0  0  0
112220  1  0  0  0  0
119221  1  0  0  0  0
120222  1  0  0  0  0
122223  1  0  0  0  0
122224  1  0  0  0  0
122225  1  0  0  0  0
123226  1  0  0  0  0
124227  1  0  0  0  0
126228  1  0  0  0  0
127229  1  0  0  0  0
129230  1  0  0  0  0
129231  1  0  0  0  0
129232  1  0  0  0  0
130233  1  0  0  0  0
131234  1  0  0  0  0
134235  1  0  0  0  0
139236  1  0  0  0  0
142237  1  0  0  0  0
142238  1  0  0  0  0
142239  1  0  0  0  0
145240  1  0  0  0  0
145241  1  0  0  0  0
145242  1  0  0  0  0
146243  1  0  0  0  0
M  END
