257

C          2.37690       10.79730       -5.05200
C          1.98080       10.50670       -6.33010
C          2.44380       11.33870       -7.46500
O          3.02400       12.40370       -7.40270
C          2.09230       10.56560       -8.66980
C          2.39760       10.82170       -9.99110
C          1.99560        9.93020      -10.98220
O          2.26870       10.12860      -12.30720
C          2.98360       11.28060      -12.68630
C          1.27780        8.76530      -10.61680
O          0.83680        7.78670      -11.44120
C          0.98470        7.84700      -12.84300
C          0.96410        8.53210       -9.27390
C          1.36350        9.42420       -8.30140
C          1.15810        9.44740       -6.85690
C          0.15120        8.78770       -6.19310
C         -0.19470        9.03270       -4.85130
N         -0.55140        9.24030       -3.77820
C         -0.73910        7.89950       -6.82020
N         -1.50430        7.17500       -7.27890
C          2.40890        9.91430       -3.96090
C          2.29580       10.20140       -2.59140
N          2.16740       11.43750       -2.02180
C          1.41570       11.55250       -0.83210
C          1.93160       12.23970        0.26010
C          1.19790       12.32630        1.42730
C         -0.05380       11.73440        1.53110
C         -0.85890       11.83500        2.78950
C         -0.56210       11.05700        0.42760
C          0.15630       10.96440       -0.74680
C          2.82440       12.57020       -2.52080
C          2.19810       13.81250       -2.48050
C          2.84510       14.92990       -2.97050
C          4.12260       14.84230       -3.51040
C          4.80990       16.04410       -4.07900
C          4.74710       13.59980       -3.53200
C          4.11430       12.47590       -3.04130
C          2.24340        9.00830       -1.83610
S          2.08900        8.67690       -0.14660
C          2.27020        6.95250       -0.44170
C          2.49030        6.67170       -1.78890
N          2.74480        5.42340       -2.33800
C          3.70260        4.56550       -1.79540
C          4.72860        5.04460       -0.98210
C          5.63680        4.17210       -0.41810
C          5.56590        2.80440       -0.65440
C          6.54180        1.86500       -0.01410
C          4.55230        2.33510       -1.48090
C          3.62840        3.19390       -2.03940
C          2.18080        5.16390       -3.60350
C          2.94940        4.65210       -4.64430
C          2.37570        4.42590       -5.87930
C          1.03310        4.70290       -6.11210
C          0.41490        4.43080       -7.44810
C          0.27540        5.21830       -5.06700
C          0.83740        5.45090       -3.82730
C          2.43510        7.84900       -2.56740
S          2.59410        8.17760       -4.25330
C          2.05870        6.03670        0.62480
C          1.94140        6.31520        1.97880
C          2.21200        7.60820        2.61370
C          1.25170        8.18500        3.43790
C          1.50340        9.40250        4.04070
C          2.70420       10.05270        3.82390
C          3.68140        9.48410        3.01650
C          5.00500       10.16650        2.82360
C          5.97760        9.77730        3.93850
C          3.43050        8.25460        2.42910
C          1.52930        5.18280        2.70340
S          1.21280        4.91280        4.40120
C          0.83900        3.25820        4.04700
C          0.43940        2.08480        4.71550
C          0.26290        1.75540        6.07840
C         -0.06130        0.39760        6.43990
N         -0.12610        0.22820        7.75100
S          0.18060        1.64630        8.47060
N          0.41290        2.53450        7.13760
C         -0.33380       -0.54200        5.42010
C         -0.83190       -1.85940        5.43010
S         -1.25760       -3.09750        6.56370
C         -1.73840       -4.12590        5.23610
C         -2.23110       -5.45030        5.18020
C         -2.51300       -6.23490        6.38190
C         -1.61130       -6.23270        7.44330
C         -1.89670       -6.94250        8.59300
C         -3.08640       -7.64090        8.70540
C         -4.00800       -7.63300        7.66660
C         -5.33620       -8.31560        7.81000
C         -6.37340       -7.34510        8.37760
C         -3.71050       -6.92840        6.51030
C         -2.38170       -5.86870        3.87620
S         -2.01370       -4.58840        2.71450
C         -1.57150       -3.52230        3.99270
C         -1.05930       -2.22430        4.10070
N         -0.70800       -1.19740        3.25970
C         -0.23990       -0.16770        4.05550
C          0.29570        1.09160        3.71380
N          0.66010        1.61440        2.48450
C          0.96830        2.93730        2.69220
C          1.35740        4.03890        1.92330
S          1.66440        4.35950        0.25660
C          1.29100        0.88250        1.40320
C          2.81320        1.01620        1.45490
C         -1.34270       -1.06660        1.96400
C         -2.86450       -1.00800        2.09470
C         -2.57320       -7.17060        3.29740
C         -1.68280       -7.72560        2.38660
N         -0.44260       -7.20230        2.07270
C          0.34260       -6.55790        3.03950
C          0.38540       -7.01820        4.35190
C          1.12480       -6.34040        5.30120
C          1.81750       -5.18000        4.98150
C          2.54460       -4.40250        6.03500
C          1.79290       -4.74310        3.66170
C          1.07780       -5.42390        2.69810
C          0.04400       -7.35860        0.76300
C          1.37230       -7.70460        0.54070
C          1.83110       -7.89160       -0.74830
C          0.98550       -7.74490       -1.84020
C          1.46820       -7.98630       -3.23680
C         -0.33580       -7.38130       -1.60870
C         -0.80520       -7.18310       -0.32660
C         -2.18910       -8.92280        1.82970
S         -1.61770       -9.97120        0.58650
C         -3.07380      -10.95760        0.74340
C         -3.99130      -10.40670        1.68470
N         -5.25700      -10.87550        1.90310
C         -5.82360      -10.80170        3.18840
C         -5.06730      -11.12780        4.30960
C         -5.65540      -11.14250        5.55970
C         -7.00050      -10.83550        5.72330
C         -7.66410      -10.91860        7.06280
C         -7.73760      -10.47380        4.59990
C         -7.16260      -10.45310        3.34680
C         -6.04980      -11.37670        0.85070
C         -6.91220      -12.44830        1.07000
C         -7.68330      -12.93440        0.03350
C         -7.61420      -12.37800       -1.23880
C         -8.44010      -12.93920       -2.35450
C         -6.76450      -11.29670       -1.44110
C         -5.99550      -10.79170       -0.41180
C         -3.44320       -9.27900        2.31450
S         -4.00520       -8.16230        3.52080
C         -3.26960      -12.18250        0.12100
C         -2.51450      -12.83470       -0.83750
C         -1.36450      -12.28170       -1.54620
O         -0.80650      -11.21510       -1.36220
C         -1.01120      -13.27930       -2.58290
C         -1.89270      -14.37140       -2.49400
C         -1.76140      -15.43740       -3.36810
C         -0.75270      -15.39610       -4.32100
C          0.11420      -14.31850       -4.40210
Br         1.46980      -14.32240       -5.72040
C         -0.00010      -13.23350       -3.52620
Cl         1.07470      -11.90440       -3.61300
C         -2.82380      -14.12620       -1.39070
C         -3.79010      -15.01090       -0.96890
C         -4.08130      -16.23000       -1.61050
N         -4.38260      -17.22770       -2.09450
C         -4.60570      -14.85090        0.16640
N         -5.28560      -14.81960        1.09360
H          2.76350       11.80020       -4.90470
H          2.94730       11.71740      -10.22940
H          3.98200       11.30060      -12.23900
H          2.44450       12.19480      -12.42030
H          3.07510       11.21850      -13.76970
H          2.03490        7.84960      -13.14050
H          0.50430        6.94130      -13.21290
H          0.48560        8.72110      -13.26510
H          0.41920        7.63140       -9.04410
H          2.90830       12.69590        0.19030
H          1.60970       12.85750        2.27290
H         -1.23120       10.85490        3.08100
H         -1.71970       12.48550        2.63370
H         -0.26280       12.24280        3.60160
H         -1.53820       10.59870        0.48910
H         -0.24720       10.44160       -1.60150
H          1.20130       13.89080       -2.07290
H          2.34270       15.88580       -2.94240
H          4.78100       16.00250       -5.16790
H          5.85430       16.07240       -3.77420
H          4.32260       16.96140       -3.75860
H          5.74340       13.51230       -3.93980
H          4.61340       11.51780       -3.05680
H          4.81270        6.10510       -0.79540
H          6.42220        4.56230        0.21350
H          6.59180        0.92570       -0.55940
H          7.53610        2.30520        0.02080
H          6.23590        1.64740        1.01010
H          4.47800        1.27640       -1.68500
H          2.83430        2.80890       -2.66090
H          3.99650        4.44250       -4.48130
H          2.98460        4.03440       -6.68160
H          1.13730        4.58260       -8.24740
H         -0.44250        5.07880       -7.61340
H          0.07210        3.39650       -7.49600
H         -0.76910        5.44050       -5.22670
H          0.23890        5.85770       -3.02490
H          0.30890        7.68220        3.59210
H          0.75790        9.84620        4.68330
H          2.89140       11.00930        4.29030
H          4.86390       11.24920        2.82940
H          5.42900        9.88350        1.85810
H          6.93540       10.27390        3.80070
H          6.13980        8.70180        3.93950
H          5.57470       10.06150        4.90790
H          4.18820        7.78800        1.81480
H         -0.68900       -5.68050        7.35890
H         -1.19080       -6.94500        9.41060
H         -3.30710       -8.18790        9.61090
H         -5.23970       -9.17040        8.48210
H         -5.67160       -8.67460        6.83550
H         -6.05590       -6.97610        9.35050
H         -7.33560       -7.83890        8.49110
H         -6.49600       -6.49330        7.71280
H         -4.43550       -6.89250        5.71010
H          0.92060        1.27160        0.44920
H          1.03590       -0.17220        1.49520
H          3.18370        0.70140        2.42840
H          3.12350        2.04150        1.27410
H          3.25800        0.38680        0.68950
H         -1.05570       -1.92470        1.34750
H         -1.00520       -0.14680        1.49120
H         -3.25680       -1.93070        2.51250
H         -3.15290       -0.18090        2.73980
H         -3.30690       -0.85760        1.11390
H         -0.16300       -7.90770        4.62640
H          1.16100       -6.72410        6.31020
H          3.42320       -3.91220        5.62160
H          2.85220       -5.04940        6.85320
H          1.89070       -3.63010        6.44340
H          2.33430       -3.84870        3.38750
H          1.06160       -5.07250        1.67670
H          2.03580       -7.83590        1.38310
H          2.86280       -8.17210       -0.90570
H          2.54980       -8.09260       -3.26550
H          1.17640       -7.16890       -3.89440
H          1.02200       -8.90050       -3.62690
H         -1.00600       -7.25290       -2.44640
H         -1.83210       -6.89040       -0.15890
H         -4.02790      -11.39760        4.19370
H         -5.06030      -11.41570        6.41860
H         -8.28930      -10.04530        7.23760
H         -6.93110      -10.99530        7.86070
H         -8.30610      -11.79890        7.10250
H         -8.77990      -10.21260        4.71020
H         -7.74780      -10.17840        2.48190
H         -6.96240      -12.90520        2.04540
H         -8.33790      -13.77390        0.21230
H         -9.49740      -12.91510       -2.09450
H         -8.16860      -13.97840       -2.53760
H         -8.29370      -12.37510       -3.27200
H         -6.70810      -10.83570       -2.41670
H         -5.34550       -9.94620       -0.58340
H         -4.16130      -12.70550        0.44140
H         -2.41780      -16.29030       -3.32860
H         -0.63550      -16.21590       -5.01290
