166

C         -0.68640       -7.74960       -5.25470
C         -0.96090       -6.60650       -5.95260
C         -1.01460       -5.24520       -5.39270
O         -0.91900       -4.92240       -4.22250
C         -1.20110       -4.34380       -6.53890
C         -1.26600       -2.96830       -6.57030
C         -1.44810       -2.30170       -7.78420
O         -1.46830       -0.95450       -7.67030
C         -1.70360       -0.09320       -8.76910
C         -1.57970       -3.06360       -8.97430
O         -1.77070       -2.39000      -10.14030
C         -1.93460       -3.11550      -11.33930
C         -1.50660       -4.45370       -8.92340
C         -1.31030       -5.10210       -7.71450
C         -1.17410       -6.51430       -7.38870
C         -1.24130       -7.54780       -8.28870
C         -1.46050       -7.36780       -9.67000
N         -1.63220       -7.27850      -10.80220
C         -1.10650       -8.91860       -7.98830
N         -1.00420      -10.05260       -7.83390
C         -0.44290       -7.93590       -3.87880
C         -0.05810       -9.15960       -3.34570
C          0.17710       -9.12950       -1.97020
S          0.79400      -10.47360       -1.00960
C          1.92050      -11.29240       -2.19470
C          3.04260      -10.37880       -2.64420
C         -0.08250       -7.88600       -1.42240
S         -0.55850       -6.73340       -2.62440
C          0.09520       -7.37930       -0.07930
C         -0.75260       -7.38590        1.00230
C         -2.00940       -8.13250        1.09140
C         -2.09200       -9.46700        0.70950
C         -3.29220      -10.14310        0.81880
C         -4.41510       -9.50140        1.31140
C         -4.35140       -8.16860        1.69650
C         -5.54380       -7.47310        2.28730
C         -5.47240       -7.51210        3.81520
C         -3.14550       -7.49490        1.58020
C         -0.31060       -6.48100        2.00160
S         -0.99370       -5.94940        3.52380
C          0.24080       -4.73620        3.64060
C          0.55660       -3.58960        4.39450
C         -0.01240       -3.03850        5.56410
C          0.44190       -1.75570        6.02820
N         -0.17260       -1.37290        7.13550
S         -1.23020       -2.52310        7.56140
N         -0.95080       -3.55230        6.34300
C          1.36500       -1.03190        5.23960
C          1.70740        0.33180        5.23270
S          1.29880        1.80500        6.05700
C          2.06960        2.72020        4.77480
C          2.03470        4.08320        4.42270
C          1.32260        5.09660        5.20090
C          0.41550        5.96050        4.59200
C         -0.23050        6.92110        5.34520
C          0.00930        7.01990        6.70490
C          0.88770        6.14680        7.33270
C          1.09990        6.19630        8.81780
C          0.19780        5.17440        9.51310
C          1.53450        5.18500        6.57150
C          2.62780        4.29360        3.18430
S          3.25700        2.81210        2.47460
C          2.66710        1.90060        3.81280
C          2.47040        0.54430        4.08110
N          2.66840       -0.63280        3.41640
C          1.96340       -1.61480        4.08490
C          1.63880       -2.94860        3.72950
N          2.03230       -3.74100        2.65990
C          1.15940       -4.79210        2.59320
C          0.85220       -5.79540        1.66570
S          1.45010       -6.27540        0.12140
C          3.32410       -3.85730        2.01440
C          4.46270       -3.83560        3.02960
C          3.22360       -0.61000        2.08380
C          2.13670       -0.70660        1.01630
C          2.61270        5.41440        2.31850
S          2.39480        5.07590        0.62630
C          2.21150        6.77160        0.21030
C          2.36770        7.53080        1.37400
S          2.29020        9.23340        1.66730
C          2.64640        8.97350        3.36000
C          2.67290       10.13500        4.25440
O          2.38370       11.25300        3.90550
O          3.04300        9.78570        5.48920
C          3.00590       10.79970        6.49140
C          1.63620       10.84880        7.15280
C          2.80200        7.64920        3.66590
C          2.61060        6.78990        2.55520
F          3.14960        7.20650        4.87250
C          1.90600        7.30390       -1.04700
C          1.62730        6.64210       -2.21980
C          1.58860        5.18660       -2.37550
O          1.92810        4.33800       -1.56280
C          1.05700        4.92830       -3.71490
C          0.76650        3.70820       -4.29970
C          0.23960        3.69130       -5.58200
O         -0.10660        2.57380       -6.26000
C          0.05700        1.32980       -5.61260
C          0.02770        4.92060       -6.26860
O         -0.47930        4.79280       -7.51450
C         -0.71270        5.95670       -8.27620
C          0.32850        6.13560       -5.66420
C          0.84270        6.14430       -4.37370
C          1.23000        7.23550       -3.48300
C          1.23580        8.56680       -3.81500
C          1.65430        9.61790       -2.97360
N          1.98600       10.52640       -2.35430
C          0.84260        9.05530       -5.07690
N          0.53000        9.50200       -6.08800
H         -0.61290       -8.66850       -5.82410
H         -1.17590       -2.38710       -5.66660
H         -0.92940       -0.19310       -9.53100
H         -1.67360        0.91300       -8.35060
H         -2.68150       -0.27450       -9.21710
H         -2.09260       -2.36160      -12.10870
H         -2.80420       -3.77690      -11.29500
H         -1.04320       -3.70030      -11.58250
H         -1.59830       -5.02110       -9.83220
H          0.05850      -10.03450       -3.96030
H          2.30680      -12.14190       -1.63190
H          1.33200      -11.66500       -3.03190
H          3.59580      -10.00780       -1.78410
H          3.72620      -10.92570       -3.29040
H          2.65180       -9.52630       -3.19710
H         -1.21070       -9.97680        0.35510
H         -3.34900      -11.18070        0.52440
H         -5.34840      -10.03910        1.39930
H         -6.46240       -7.95990        1.95400
H         -5.56720       -6.43300        1.95590
H         -6.33250       -7.00800        4.24980
H         -5.45880       -8.54170        4.16600
H         -4.56700       -7.02040        4.16380
H         -3.09400       -6.45350        1.86160
H          0.20780        5.86710        3.53590
H         -0.92680        7.59630        4.86910
H         -0.49790        7.77810        7.28470
H          0.87250        7.19540        9.19470
H          2.14310        5.97240        9.04860
H         -0.84810        5.39460        9.31060
H          0.41150        4.17190        9.14980
H          0.35570        5.19700       10.58880
H          2.23360        4.51000        7.04290
H          3.45250       -3.09060        1.24800
H          3.32220       -4.82080        1.49780
H          5.41600       -3.93550        2.51740
H          4.35490       -4.66340        3.72680
H          4.46680       -2.91120        3.60230
H          3.97060       -1.39440        1.97410
H          3.74300        0.34580        1.97870
H          1.55110       -1.61560        1.13030
H          1.46610        0.14560        1.09580
H          2.58710       -0.69740        0.02760
H          3.24770       11.76440        6.03320
H          3.77960       10.51970        7.20910
H          1.64770       11.56700        7.96760
H          1.38000        9.86600        7.54170
H          0.88350       11.14930        6.42770
H          1.84460        8.38610       -1.04760
H          0.95300        2.80600       -3.74080
H         -0.52880        1.28220       -4.68980
H         -0.30850        0.57720       -6.30810
H          1.10970        1.13550       -5.38540
H         -1.45310        6.60680       -7.80080
H          0.20970        6.52040       -8.44280
H         -1.09990        5.60570       -9.23100
H          0.15560        7.05730       -6.19130
