159

C          8.12330        3.84900        3.75420
C          8.29490        2.66580        4.42250
C          7.59650        1.40750        4.12830
O          6.74580        1.21310        3.27510
C          8.12700        0.41900        5.07460
C          7.79900       -0.92060        5.19840
C          8.43510       -1.67630        6.17190
O          8.21730       -2.98880        6.40460
C          7.27930       -3.66740        5.60230
C          9.40370       -1.06620        7.01940
O          9.95980       -1.89190        7.92970
C         10.93140       -1.37690        8.81280
C          9.71880        0.27880        6.88080
C          9.07790        1.02870        5.90280
C          9.20140        2.43280        5.53140
C         10.02350        3.34660        6.14340
C         10.87320        3.03640        7.22440
N         11.58610        2.84360        8.10460
C         10.14130        4.70940        5.80480
N         10.29480        5.82960        5.59800
C          7.27780        4.16380        2.67790
C          7.23140        5.43930        2.12180
C          6.32640        5.57920        1.07630
S          5.94880        7.08360        0.24990
C          6.37400        8.34250        1.51100
C          5.50180        8.25060        2.74710
C          5.67370        4.37830        0.79020
S          6.17000        3.09930        1.85450
C          4.66900        4.10640       -0.17890
C          4.49120        4.60580       -1.45810
C          5.45460        5.43230       -2.18130
C          6.81710        5.14800       -2.11720
C          7.71520        5.91840       -2.82930
C          7.26850        6.97510       -3.60290
C          5.91260        7.26620       -3.68630
C          5.42800        8.44680       -4.47660
C          5.40030        9.69370       -3.59030
C          5.01460        6.48360       -2.97870
C          3.31010        4.10080       -2.04040
S          2.56700        4.33850       -3.60510
C          1.32640        3.21400       -3.16300
C          0.15150        2.65640       -3.69130
C         -0.53100        2.91200       -4.90040
C         -1.78680        2.26210       -5.13850
N         -2.33940        2.63080       -6.28370
S         -1.35930        3.70060       -7.00330
N         -0.19420        3.73600       -5.88050
C         -2.25270        1.31430       -4.20160
C         -3.37050        0.46700       -4.23100
S         -4.74550        0.13710       -5.22950
C         -5.22380       -1.12180       -4.11260
C         -6.29700       -2.02960       -4.10910
C         -7.26400       -2.10310       -5.20610
C         -7.53950       -3.31570       -5.83410
C         -8.42070       -3.35370       -6.89730
C         -9.02760       -2.19200       -7.34390
C         -8.75630       -0.97320       -6.73540
C         -9.36090        0.30030       -7.25090
C         -8.40900        0.97000       -8.24420
C         -7.86780       -0.94020       -5.67060
C         -6.25620       -2.85120       -2.98940
S         -4.85920       -2.52380       -1.96980
C         -4.34730       -1.26280       -3.03160
C         -3.28860       -0.35120       -3.10110
N         -2.18090       -0.02850       -2.36410
C         -1.52540        1.00410       -3.01590
C         -0.36090        1.75800       -2.71110
N          0.47360        1.80450       -1.60470
C          1.48330        2.68550       -1.88020
C          2.61660        3.19610       -1.23440
S          3.41030        2.96760        0.28230
C          0.23460        1.41060       -0.23440
C         -1.01610        2.08000        0.33000
C         -1.70210       -0.95930       -1.36650
C         -0.43980       -1.68000       -1.83320
C         -7.18050       -3.82450       -2.53590
C         -8.48480       -4.04130       -2.95950
C         -9.11450       -5.04690       -2.24810
S        -10.78650       -5.51580       -2.57380
C        -11.60380       -4.89000       -1.05580
C        -11.62510       -3.37570       -1.02770
C         -8.30800       -5.65860       -1.27010
S         -6.74200       -4.88370       -1.22910
C         -8.72860       -6.75060       -0.50980
C         -8.07140       -7.45530        0.47290
C         -6.69020       -7.23070        0.90280
O         -5.93240       -6.34350        0.54500
C         -6.37800       -8.30630        1.85970
C         -5.21120       -8.55030        2.52290
C         -5.13670       -9.65630        3.39920
C         -3.95940       -9.95270        4.11510
C         -3.90040      -11.02520        4.96140
C         -5.03450      -11.83440        5.10890
F         -4.95770      -12.88520        5.94700
C         -6.20070      -11.59230        4.43760
C         -6.27960      -10.49090        3.56360
C         -7.47630      -10.21050        2.86190
C         -7.52740       -9.12950        2.02410
C         -8.60730       -8.58190        1.20450
C         -9.90530       -9.03020        1.21040
C        -10.35050      -10.14680        1.94630
N        -10.77700      -11.04980        2.51340
C        -10.98550       -8.41700        0.54480
N        -11.92380       -7.94640        0.07700
H          8.72200        4.69010        4.08190
H          7.05990       -1.34130        4.53630
H          7.56880       -3.65220        4.54700
H          7.27710       -4.69480        5.96170
H          6.27670       -3.24230        5.71090
H         10.52270       -0.57910        9.43990
H         11.22600       -2.21580        9.44050
H         11.80620       -1.00130        8.27370
H         10.45260        0.73010        7.52490
H          7.85350        6.23220        2.49670
H          6.20950        9.28360        0.98620
H          7.43390        8.25650        1.74490
H          5.76050        9.04830        3.44040
H          4.45320        8.34880        2.47630
H          5.64000        7.29640        3.25150
H          7.16370        4.31600       -1.52190
H          8.77070        5.69400       -2.77990
H          7.97810        7.57820       -4.15110
H          6.08880        8.62290       -5.32750
H          4.42360        8.25090       -4.85640
H          6.39830        9.91450       -3.21810
H          5.03920       10.55300       -4.15050
H          4.74650        9.53260       -2.73610
H          3.95910        6.70750       -3.02620
H         -7.05530       -4.21800       -5.49160
H         -8.63420       -4.29470       -7.38190
H         -9.71710       -2.23140       -8.17460
H        -10.31070        0.08790       -7.74550
H         -9.55180        0.98280       -6.42020
H         -7.45790        1.19260       -7.76570
H         -8.83840        1.89740       -8.61570
H         -8.22040        0.31130       -9.08900
H         -7.65300        0.00010       -5.18370
H          0.18590        0.32520       -0.14690
H          1.10620        1.73790        0.33770
H         -1.17740        1.75950        1.35580
H         -1.89610        1.83400       -0.25960
H         -0.89340        3.16050        0.32020
H         -1.55010       -0.45660       -0.41130
H         -2.49940       -1.69170       -1.21830
H          0.35600       -0.97510       -2.06210
H         -0.65230       -2.25420       -2.73200
H         -0.09580       -2.36220       -1.06060
H         -8.97300       -3.47540       -3.73090
H        -11.08970       -5.30300       -0.19010
H        -12.60760       -5.30790       -1.10360
H        -12.15970       -3.03180       -0.14450
H        -12.12370       -2.98540       -1.91200
H        -10.61210       -2.97670       -0.99760
H         -9.72060       -7.09790       -0.77710
H         -4.35560       -7.90670        2.38260
H         -3.09860       -9.31420        3.98430
H         -3.00790      -11.26510        5.51730
H         -7.05490      -12.23630        4.57670
H         -8.32170      -10.86340        3.00750
