171

C          1.65660       -1.05670      -11.81040
C          1.83250       -2.01770      -12.76020
C          1.38240       -1.70080      -14.15380
O          1.07560       -0.60510      -14.57090
C          1.35650       -2.98910      -14.85160
C          0.90440       -3.27910      -16.12960
C          0.94930       -4.59200      -16.57220
O          0.54640       -5.01700      -17.79040
C          0.02150       -4.07030      -18.69160
C          1.44830       -5.61340      -15.71280
O          1.43620       -6.85390      -16.24010
C          1.90580       -7.92930      -15.45730
C          1.90480       -5.30440      -14.43790
C          1.86490       -3.98660      -14.00770
C          2.29920       -3.38200      -12.75350
C          3.15420       -3.96900      -11.85540
C          3.75970       -3.30780      -10.77200
N          4.30580       -2.83070       -9.88090
C          3.62030       -5.29510      -11.96130
N          4.04210       -6.36260      -11.99120
C          1.64250       -1.14490      -10.40030
C          1.44060       -2.23390       -9.55470
C          1.50010       -1.77190       -8.21550
C          1.71010       -0.34270       -8.23190
O          1.81270        0.47710       -7.34190
N          1.76610       -0.02760       -9.59810
C          1.97260        1.33070      -10.03840
C          0.65390        2.03170      -10.35890
C          1.46930       -2.87070       -7.36930
N          1.28870       -3.99320       -8.14390
C          0.93560       -5.32190       -7.70210
C         -0.36320       -5.33210       -6.90220
C          1.23950       -3.66410       -9.50950
O          1.06390       -4.48840      -10.38760
C          1.63910       -2.83550       -5.95710
C          2.34010       -3.69310       -5.11920
C          3.23450       -4.75630       -5.56810
C          4.02690       -4.57980       -6.70430
C          4.89760       -5.57820       -7.09440
C          5.00130       -6.74580       -6.35650
C          4.23160       -6.93180       -5.21480
C          4.37690       -8.16430       -4.37010
C          5.28980       -7.88190       -3.17520
C          3.35220       -5.93110       -4.83010
C          2.21740       -3.28990       -3.77680
S          2.84210       -3.94250       -2.27940
C          2.10410       -2.63110       -1.42780
C          1.99660       -2.14080       -0.11730
C          2.58300       -2.58600        1.08690
C          2.38660       -1.81430        2.27960
N          3.03430       -2.31610        3.31950
S          3.81960       -3.64790        2.83980
N          3.36410       -3.63630        1.28610
C          1.51990       -0.70090        2.23390
C          1.03060        0.12450        3.25700
S          1.20440        0.33240        4.96680
C         -0.02590        1.57090        4.90980
C         -0.61370        2.36040        5.90960
C         -0.27820        2.24440        7.33490
C          0.99050        2.58380        7.78690
C          1.29080        2.46330        9.13080
C          0.34090        1.99310       10.01900
C         -0.92320        1.62540        9.57710
C         -1.96970        1.14370       10.53960
C         -2.87220        2.30560       10.95700
C         -1.22290        1.75760        8.23060
C         -1.55800        3.22620        5.38400
S         -1.74060        3.03190        3.64090
C         -0.52890        1.80130        3.62450
C          0.08130        0.97210        2.67700
N         -0.01990        0.71180        1.33700
C          0.86970       -0.30090        1.03050
C          1.20420       -0.95930       -0.18190
N          0.86830       -0.72630       -1.50890
C          1.41750       -1.73940       -2.25390
C          1.47980       -2.11330       -3.60200
S          0.91420       -1.48530       -5.10570
C          0.60440        0.52990       -2.18100
C          1.85260        1.40950       -2.20330
C         -1.13720        1.24320        0.59160
C         -0.89950        2.68790        0.15390
C         -2.28500        4.25150        6.03730
C         -3.20610        5.09790        5.43730
C         -3.72230        6.03760        6.31340
S         -4.92310        7.23600        5.81410
C         -6.40080        6.59370        6.68940
C         -6.88050        5.29240        6.08010
C         -3.18350        5.96370        7.60800
S         -2.05150        4.63430        7.71450
C         -3.50490        6.87300        8.62250
C         -3.04980        6.95780        9.91370
C         -2.01520        6.11140       10.52270
O         -1.46390        5.14060       10.03360
C         -1.76030        6.68310       11.85410
C         -0.87270        6.27980       12.82550
C         -0.78980        6.97780       14.03290
O          0.11860        6.46720       14.89380
C          0.33470        7.00340       16.18180
C         -1.62520        8.10590       14.23450
O         -1.51480        8.77620       15.41590
C         -2.33230        9.90180       15.64820
C         -2.52110        8.49630       13.24200
C         -2.59850        7.79030       12.05300
C         -3.44880        7.95890       10.88300
C         -4.48020        8.86010       10.77260
C         -5.40290        8.92550        9.71000
N         -6.22500        9.01190        8.91150
C         -4.79030        9.81530       11.76020
N         -5.08100       10.61790       12.52960
H          1.41350       -0.08340      -12.22630
H          0.53110       -2.47860      -16.74710
H          0.76100       -3.30430      -18.94470
H         -0.87700       -3.59060      -18.29120
H         -0.23740       -4.63210      -19.58720
H          1.80670       -8.81130      -16.08750
H          2.95510       -7.79620      -15.17830
H          1.30440       -8.05870      -14.55270
H          2.26710       -6.07820      -13.78430
H          2.64090        1.33620      -10.90310
H          2.46300        1.84710       -9.20800
H          0.12500        1.53040      -11.16640
H          0.84720        3.05890      -10.65510
H          0.01660        2.03680       -9.47800
H          1.74770       -5.75500       -7.11450
H          0.81850       -5.90730       -8.61880
H         -0.25230       -4.77580       -5.97440
H         -1.17000       -4.88860       -7.48160
H         -0.63070       -6.35680       -6.66020
H          3.97260       -3.66200       -7.27020
H          5.50190       -5.43870       -7.97790
H          5.68930       -7.51820       -6.66780
H          3.39710       -8.48020       -4.00530
H          4.79870       -8.97570       -4.96600
H          6.27690       -7.58010       -3.51790
H          4.87940       -7.08000       -2.56580
H          5.39300       -8.77100       -2.55760
H          2.73470       -6.07340       -3.95520
H          1.72730        2.95330        7.08910
H          2.27270        2.73880        9.48630
H          0.58320        1.90560       11.06820
H         -2.57560        0.36430       10.07160
H         -1.49260        0.72000       11.42540
H         -2.27650        3.10100       11.39720
H         -3.61400        1.97530       11.68110
H         -3.38510        2.71510       10.08980
H         -2.20170        1.47620        7.86700
H         -0.22040        1.06090       -1.71780
H          0.31310        0.28300       -3.20500
H          2.66300        0.90050       -2.71950
H          2.17860        1.63880       -1.19040
H          1.64100        2.33710       -2.72760
H         -2.01200        1.22030        1.25140
H         -1.34740        0.58210       -0.25000
H         -0.85270        3.33410        1.02640
H          0.03330        2.79050       -0.39370
H         -1.71910        3.02300       -0.47580
H         -3.49450        5.03130        4.40280
H         -6.15410        6.47990        7.74340
H         -7.13900        7.38630        6.58250
H         -7.78440        4.95960        6.58640
H         -6.12110        4.51840        6.18080
H         -7.10060        5.42560        5.02340
H         -4.19740        7.64280        8.29910
H         -0.23130        5.42630       12.67540
H          0.70080        8.03040       16.13640
H          1.09820        6.36440       16.62510
H         -0.56960        6.96680       16.79180
H         -3.39430        9.64190       15.62670
H         -2.13720       10.69820       14.92450
H         -2.06500       10.24700       16.64560
H         -3.15010        9.35370       13.40230
