165

C          1.23070      -10.91820        2.21690
C          0.77690      -10.76000        3.49230
C          0.40090       -9.45690        4.09580
O          0.37110       -8.36420        3.57580
C          0.17900       -9.74200        5.53140
C         -0.18040       -8.86210        6.53120
C         -0.32310       -9.35420        7.82240
Cl        -0.78050       -8.29310        9.09350
C         -0.09440      -10.70810        8.08890
Cl        -0.26450      -11.30210        9.69200
C          0.27330      -11.59030        7.07870
C          0.40860      -11.10380        5.78830
C          0.76820      -11.76550        4.53650
C          0.98470      -13.11000        4.38080
C          1.26740      -13.74910        3.15530
N          1.49200      -14.34660        2.20050
C          0.93700      -14.04630        5.43470
N          0.92040      -14.85490        6.24930
C          1.12260       -9.95310        1.16310
C          2.20880       -9.78610        0.29260
C          2.23840       -8.79140       -0.66340
O          3.29070       -8.50410       -1.46760
C          4.45400       -9.30700       -1.44160
C          5.40490       -8.92480       -0.31120
C          1.10290       -7.95570       -0.79970
C         -0.01080       -8.17810        0.00640
C         -0.03980       -9.16810        0.97490
O         -1.11700       -9.49970        1.71340
C         -2.31390       -8.75190        1.61160
C         -3.15940       -9.15970        0.40840
C          1.08990       -6.82600       -1.70260
C          1.60470       -6.66420       -2.97240
C          2.16130       -7.74080       -3.78900
C          3.27170       -7.50990       -4.59530
C          3.79920       -8.53790       -5.35360
C          3.22790       -9.79750       -5.31800
C          2.11160      -10.04340       -4.52720
C          1.46080      -11.39730       -4.52050
C          0.41100      -11.49140       -5.62930
C          1.58170       -9.00650       -3.77700
C          1.45550       -5.33040       -3.41960
S          1.89820       -4.50180       -4.89620
C          1.24420       -3.03210       -4.25170
C          1.07860       -1.67980       -4.60650
C          1.32110       -0.98090       -5.80970
C          0.95440        0.40660       -5.90050
N          1.18690        0.91200       -7.10160
S          1.81680       -0.25050       -8.03610
N          1.81770       -1.44650       -6.94500
C          0.48500        1.06880       -4.74460
C          0.24650        2.42800       -4.47240
S          0.26410        3.96310       -5.27770
C         -0.04890        4.75300       -3.74790
C         -0.14650        6.11020       -3.36390
C          0.05110        7.22660       -4.28660
C         -0.51060        7.19180       -5.55920
C         -0.32530        8.25420       -6.42360
C          0.42000        9.35220       -6.03210
C          0.99950        9.39780       -4.76950
C          1.84980       10.56550       -4.35750
C          3.30810       10.33080       -4.75600
C          0.81720        8.32610       -3.91080
C         -0.35160        6.23260       -2.00480
S         -0.39750        4.67770       -1.19030
C         -0.16330        3.85470       -2.68770
C         -0.00970        2.52700       -3.10320
N          0.02900        1.28810       -2.52520
C          0.31480        0.37060       -3.51640
C          0.48280       -1.03590       -3.48850
N          0.24070       -1.98180       -2.50120
C          0.70600       -3.18250       -2.97370
C          0.81520       -4.49620       -2.50440
S          0.37370       -5.35020       -1.07310
C         -0.82370       -2.00120       -1.51900
C         -2.19220       -1.95380       -2.19540
C          0.11400        1.16660       -1.08900
C         -1.25310        1.30300       -0.41950
C         -0.54090        7.39610       -1.16770
C          0.03300        7.39990        0.10210
C         -0.14260        8.44710        0.99090
O          0.48530        8.54750        2.17840
C          1.17880        7.42780        2.69870
C          1.59040        7.76770        4.12230
C         -0.95250        9.53760        0.59530
C         -1.47530        9.56080       -0.70530
C         -1.31810        8.50550       -1.58130
O         -1.87880        8.41410       -2.81150
C         -2.60120        9.50260       -3.35250
C         -4.05010        9.54060       -2.87580
C         -1.23310       10.63520        1.47310
C         -1.46520       10.54920        2.81340
C         -1.81680        9.29700        3.52920
O         -1.97950        8.18800        3.07240
C         -2.06400        9.70430        4.93060
C         -2.39730        8.90780        6.00660
C         -2.58670        9.51400        7.24200
Cl        -2.98810        8.55540        8.60990
C         -2.45180       10.90000        7.37340
Cl        -2.69640       11.63900        8.90490
C         -2.12390       11.69970        6.28390
C         -1.92540       11.09690        5.05200
C         -1.56610       11.65190        3.74870
C         -1.31080       12.97460        3.49360
C         -0.91890       13.50390        2.24630
N         -0.59230       14.01580        1.27130
C         -1.40400       13.99940        4.45850
N         -1.46650       14.87940        5.19320
H          1.78310      -11.81800        1.97380
H         -0.34840       -7.81950        6.31170
H          0.44740      -12.62510        7.32390
H          3.06600      -10.42110        0.45000
H          4.92950       -9.11590       -2.40810
H          4.18810      -10.36940       -1.39560
H          5.68260       -7.87820       -0.40540
H          6.30220       -9.53460       -0.36660
H          4.93910       -9.06820        0.66070
H         -0.86420       -7.53510       -0.14180
H         -2.09470       -7.67880        1.60090
H         -2.85330       -8.98200        2.53510
H         -3.37880      -10.22330        0.45730
H         -2.63900       -8.96010       -0.52480
H         -4.09430       -8.60650        0.41610
H          3.73370       -6.53470       -4.60800
H          4.66620       -8.35680       -5.97210
H          3.65070      -10.59870       -5.90730
H          2.21570      -12.17120       -4.67420
H          0.98250      -11.57340       -3.55450
H         -0.35690      -10.73400       -5.48780
H         -0.06110      -12.47100       -5.62480
H          0.87240      -11.33180       -6.60120
H          0.70610       -9.18310       -3.16790
H         -1.10880        6.34510       -5.85930
H         -0.76940        8.22780       -7.40800
H          0.55490       10.18250       -6.71060
H          1.78930       10.70440       -3.27590
H          1.48760       11.47570       -4.84000
H          3.92500       11.17510       -4.45760
H          3.38990       10.20330       -5.83310
H          3.69090        9.43290       -4.27610
H          1.27410        8.34440       -2.93100
H         -0.72730       -1.18420       -0.81010
H         -0.71750       -2.93670       -0.96410
H         -2.30280       -1.03630       -2.76990
H         -2.97890       -1.99930       -1.44700
H         -2.30700       -2.79710       -2.87270
H          0.60440        0.22380       -0.84420
H          0.75910        1.97550       -0.72690
H         -1.97530        0.61080       -0.84350
H         -1.63160        2.31230       -0.55630
H         -1.16310        1.11390        0.64670
H          0.64080        6.55280        0.37900
H          0.52070        6.55030        2.69290
H          2.06650        7.21660        2.08610
H          2.21200        8.65910        4.12790
H          0.70760        7.95610        4.72760
H          2.14790        6.94080        4.55260
H         -2.07230       10.41610       -0.97900
H         -2.56970        9.33190       -4.43270
H         -2.08810       10.44790       -3.14110
H         -4.10710        9.66990       -1.79790
H         -4.57160       10.36240       -3.35840
H         -4.54470        8.60800       -3.13440
H         -1.29910       11.60650        0.99820
H         -2.50420        7.84080        5.88940
H         -2.03490       12.76440        6.42370
