188

C         11.18300        7.59970        0.18040
C         12.09330        7.58280       -0.82990
C         12.01310        6.67810       -2.00980
O         11.20080        5.80890       -2.22570
C         13.05560        7.16300       -2.93950
C         13.38620        6.66950       -4.18500
C         14.40220        7.29750       -4.89440
Cl        14.85110        6.70810       -6.44280
C         15.05870        8.40830       -4.35160
Cl        16.30620        9.18070       -5.24330
C         14.71890        8.90530       -3.09850
C         13.71070        8.27650       -2.38520
C         13.14680        8.55210       -1.06750
C         13.58760        9.50370       -0.18760
C         13.08040        9.69410        1.11620
N         12.73740        9.89850        2.19240
C         14.63130       10.41280       -0.46300
N         15.46720       11.18100       -0.63040
C         10.24560        6.55620        0.46370
C         10.52250        5.19430        0.38000
F         11.77030        4.78820        0.12050
C          9.57970        4.19890        0.65220
F         10.00880        2.92790        0.55350
C          8.25830        4.46470        1.01710
C          7.96400        5.85070        1.16790
C          8.94010        6.87250        0.91820
N          8.44830        8.09170        1.11990
S          6.91690        7.96730        1.59150
N          6.79910        6.36290        1.54860
C          7.25180        3.48210        1.22820
C          7.34000        2.09810        1.10010
C          6.13170        1.47090        1.34100
C          5.60920        0.05270        1.30520
C          5.89700       -0.56630       -0.04940
C          4.95090       -0.57950       -1.06320
C          5.24690       -1.15100       -2.28730
C          6.49420       -1.70740       -2.53330
C          6.78910       -2.38100       -3.84210
C          6.37700       -3.85360       -3.78420
C          7.44500       -1.67070       -1.52100
C          7.15330       -1.10620       -0.29460
C          6.13760       -0.82950        2.42510
C          5.86110       -2.19100        2.39200
C          6.29470       -3.01760        3.40960
C          7.01130       -2.50840        4.48580
C          7.52920       -3.41730        5.56260
C          8.91330       -3.95140        5.18760
C          7.27830       -1.14690        4.51510
C          6.84240       -0.31240        3.50130
C          4.14500        0.30100        1.57310
C          3.89860        1.65330        1.80290
C          5.10460        2.37180        1.64930
S          5.63050        4.00040        1.66400
S          2.23970        2.01620        2.12310
C          1.84760        0.33610        1.92260
C          2.97160       -0.44400        1.63890
S          2.56710       -2.09950        1.31530
C          0.86090       -1.72430        1.47670
C         -0.16220       -2.63260        1.24130
C          0.10560       -4.01790        0.90040
C         -0.41870       -5.14000        1.47390
C          0.08420       -6.33320        0.91690
C          0.98080       -6.12690       -0.08520
C          1.73900       -7.13310       -0.87960
C          3.22520       -7.11780       -0.51600
S          1.23530       -4.43430       -0.35500
C         -1.47730       -2.14380        1.33660
C         -1.70980       -0.80640        1.74570
C         -0.68760        0.08380        2.04050
C         -0.97810        1.42530        2.51630
C         -1.80900        2.35950        1.97130
C         -1.87160        3.54930        2.72520
C         -1.11360        3.51650        3.85410
C         -0.88930        4.59180        4.85950
C          0.50610        5.20070        4.70360
S         -0.29200        1.99920        4.00850
C          0.62640       -0.37810        1.85660
S         -3.41280       -0.39070        1.80650
C         -3.82330       -1.96590        1.20610
C         -5.00650       -2.56700        0.78660
C         -4.77460       -3.85110        0.29480
S         -3.11170       -4.32680        0.34380
C         -2.70370       -2.78080        1.02420
C         -5.99720       -4.38400       -0.17980
S         -6.55490       -5.75400       -1.05420
C         -8.14160       -5.01630       -1.19940
C         -8.21030       -3.79580       -0.54720
C         -7.00940       -3.44890        0.04610
C         -6.47470       -2.22550        0.74790
C         -6.93410       -2.07680        2.18840
C         -6.67370       -0.88680        2.85600
C         -7.03830       -0.73500        4.17950
C         -7.66580       -1.76540        4.86910
C         -8.10550       -1.58270        6.29290
C         -9.53870       -1.04940        6.34430
C         -7.91960       -2.95230        4.19550
C         -7.55420       -3.11230        2.87100
C         -6.87760       -1.03190       -0.09500
C         -6.05630       -0.51640       -1.08410
C         -6.52160        0.48100       -1.92510
C         -7.81190        0.97620       -1.80330
C         -8.35360        2.00350       -2.75530
C         -9.38950        1.37980       -3.69340
C         -8.62390        0.46630       -0.79580
C         -8.16540       -0.52600        0.04550
C         -9.17510       -5.55490       -2.00300
C         -9.43960       -6.84450       -2.41680
C        -10.57770       -6.92710       -3.21900
Cl       -11.15390       -8.40380       -3.85470
C        -11.21210       -5.70630       -3.46560
S        -10.33460       -4.43820       -2.65250
C        -12.26650       -5.48080       -4.36760
C        -12.82160       -4.30030       -4.77550
C        -13.46840       -4.23280       -6.11130
O        -13.89240       -5.15230       -6.77010
C        -13.40080       -2.79950       -6.48820
C        -13.73480       -2.20080       -7.68530
C        -13.52630       -0.83270       -7.81980
Cl       -13.92660       -0.05320       -9.29710
C        -12.98770       -0.09170       -6.76260
Cl       -12.70880        1.59160       -6.95350
C        -12.66870       -0.69360       -5.55010
C        -12.87990       -2.05410       -5.41430
C        -12.69220       -2.95050       -4.27620
C        -12.66890       -2.56550       -2.96030
C        -12.48490       -1.23720       -2.53400
N        -12.27750       -0.17830       -2.14070
C        -12.90960       -3.46780       -1.90140
N        -13.17960       -4.15820       -1.02520
H         11.08500        8.47720        0.80650
H         12.87030        5.81400       -4.59160
H         15.24210        9.76590       -2.71500
H          8.24360        1.58390        0.83360
H          3.97500       -0.14610       -0.90200
H          4.49470       -1.16260       -3.06310
H          6.24130       -1.88560       -4.64620
H          7.85610       -2.31350       -4.06240
H          6.58780       -4.34570       -4.73080
H          5.31280       -3.94020       -3.57590
H          6.92240       -4.36770       -2.99580
H          8.42590       -2.08960       -1.69460
H          7.90150       -1.09380        0.48450
H          5.30830       -2.60370        1.56040
H          6.07140       -4.07400        3.36860
H          6.84460       -4.25670        5.69960
H          7.59730       -2.87320        6.50660
H          9.61330       -3.12910        5.05800
H          9.29110       -4.61000        5.96600
H          8.86360       -4.50800        4.25440
H          7.83260       -0.72960        5.34360
H          7.05900        0.74440        3.55070
H         -1.11270       -5.11090        2.29500
H         -0.21330       -7.31150        1.25000
H          1.62980       -6.91900       -1.94580
H          1.32000       -8.12240       -0.68480
H          3.35770       -7.33750        0.54100
H          3.65290       -6.13880       -0.72110
H          3.76360       -7.86240       -1.09670
H         -2.33190        2.21260        1.04320
H         -2.46250        4.40040        2.43690
H         -0.99130        4.18270        5.86760
H         -1.64780        5.36550        4.72440
H          0.65900        5.98690        5.43840
H          0.62500        5.62410        3.70890
H          1.26780        4.43720        4.84490
H         -9.10700       -3.20300       -0.52400
H         -6.18830       -0.07600        2.33210
H         -6.82940        0.19670        4.68510
H         -8.05840       -2.53750        6.82050
H         -7.44100       -0.87910        6.79810
H         -9.60420       -0.09150        5.83340
H         -9.85830       -0.91660        7.37520
H        -10.21880       -1.74390        5.85620
H         -8.40690       -3.76610        4.71340
H         -7.75850       -4.04660        2.36890
H         -5.05350       -0.89930       -1.20890
H         -5.87040        0.86900       -2.69570
H         -7.53910        2.43090       -3.34340
H         -8.82710        2.81050       -2.19150
H         -8.94280        0.56760       -4.26410
H        -10.22550        0.98060       -3.12340
H         -9.76700        2.12600       -4.38880
H         -9.63010        0.84080       -0.67950
H         -8.81090       -0.91730        0.81850
H         -8.84340       -7.69170       -2.13120
H        -12.58600       -6.35490       -4.92700
H        -14.14570       -2.78090       -8.49640
H        -12.25180       -0.09690       -4.75520
