249

C          4.41030      -10.95070        5.34140
C          5.23250      -10.80340        6.43700
C          5.06720      -11.70370        7.59560
O          4.37760      -12.69660        7.66910
C          5.87420      -11.08650        8.67680
C          5.97670      -11.45680       10.00010
C          6.78060      -10.69170       10.83700
Cl         6.90640      -11.10080       12.50320
C          7.47930       -9.59280       10.33260
Cl         8.46190       -8.64930       11.38260
C          7.38730       -9.23250        8.99240
C          6.56510       -9.97540        8.16550
C          6.24020       -9.83510        6.74660
C          6.93110       -9.06920        5.83170
C          7.86900       -8.08240        6.17850
N          8.60600       -7.22970        6.40290
C          6.80240       -9.24620        4.44530
N          6.75090       -9.37890        3.30430
C          4.00240      -10.02730        4.37770
C          4.00860       -8.61300        4.33140
N          4.31490       -7.75670        5.35780
C          4.60500       -6.40350        5.03690
C          5.63420       -6.08910        4.15500
C          5.90880       -4.76850        3.86150
C          5.17000       -3.73660        4.42930
C          5.48070       -2.31220        4.08990
C          4.14520       -4.06290        5.30800
C          3.86170       -5.37970        5.61320
C          4.07580       -8.04270        6.71200
C          4.84460       -7.40230        7.68520
C          4.64000       -7.66740        9.02310
C          3.68150       -8.58660        9.43500
C          3.48670       -8.89500       10.88560
C          2.89480       -9.19270        8.46280
C          3.07560       -8.92080        7.12100
C          3.55240       -8.16230        3.07470
S          3.29760       -6.60570        2.35790
C          2.64780       -7.33900        0.90020
C          2.62430       -8.72070        0.97510
N          2.06700       -9.59640        0.02190
C          0.70710       -9.91260        0.28430
C          0.33940      -11.18050        0.72800
C         -0.98360      -11.46880        0.99290
C         -1.97360      -10.50380        0.84150
C         -3.40860      -10.83780        1.11290
C         -1.59520       -9.23570        0.42370
C         -0.27290       -8.93770        0.14910
C          2.89610      -10.55410       -0.57040
C          4.27030      -10.57700       -0.34710
C          5.06860      -11.50900       -0.98190
C          4.53580      -12.43030       -1.87000
C          5.39900      -13.44900       -2.55160
C          3.16800      -12.38370       -2.11280
C          2.35870      -11.46440       -1.48060
C          3.14270       -9.16830        2.20870
S          3.29860      -10.72790        2.91280
C          2.13770       -6.46850       -0.10530
C          1.87210       -6.70370       -1.44150
C          2.36400       -7.81640       -2.25640
C          1.50580       -8.50560       -3.10590
C          2.01640       -9.45400       -3.97090
C          3.37760       -9.69670       -4.01750
C          4.24840       -9.01360       -3.17870
C          5.73080       -9.22300       -3.28220
C          6.32550       -8.29700       -4.34540
C          3.72820       -8.08400       -2.29210
C          1.17020       -5.62520       -2.01670
S          0.50810       -5.38320       -3.61410
C         -0.03870       -3.81840       -3.11740
C         -0.78580       -2.74520       -3.62560
C         -1.51070       -2.62210       -4.83050
C         -2.33220       -1.46350       -5.02590
N         -3.00660       -1.50660       -6.16410
S         -2.63540       -2.88650       -6.92660
N         -1.60060       -3.48260       -5.83210
C         -2.28030       -0.42540       -4.07090
C         -2.82780        0.86580       -4.09920
S         -3.86880        1.82900       -5.09200
C         -3.55190        3.19740       -4.05210
C         -4.00580        4.53020       -4.06680
C         -5.05480        5.01010       -4.96620
C         -5.03970        4.68410       -6.31870
C         -6.09090        5.06710       -7.12910
C         -7.16450        5.76400       -6.60290
C         -7.19320        6.10350       -5.25680
C         -8.37750        6.80600       -4.65590
C         -9.29960        5.80210       -3.96140
C         -6.13350        5.72210       -4.45040
C         -3.43210        5.27000       -3.04630
S         -2.36320        4.29910       -2.03760
C         -2.68820        2.90070       -2.99670
C         -2.30080        1.55440       -3.00530
N         -1.49370        0.72430       -2.27730
C         -1.47280       -0.51160       -2.89950
C         -0.82210       -1.74420       -2.61250
N         -0.16440       -2.23950       -1.49990
C          0.30260       -3.49020       -1.80340
C          0.96790       -4.54120       -1.15930
S          1.59830       -4.87280        0.41600
C         -0.10950       -1.77610       -0.13400
C          1.29550       -1.32270        0.26410
C         -0.72180        1.27190       -1.18810
C         -1.57840        1.50990        0.05610
C         -3.46010        6.68060       -2.86940
C         -3.18340        7.40410       -1.71420
N         -3.01770        6.86270       -0.45020
C         -2.09490        7.49430        0.40500
C         -2.42830        7.80340        1.71900
C         -1.52870        8.48150        2.51680
C         -0.28700        8.87050        2.03010
C          0.65590        9.66860        2.87550
C          0.04610        8.53560        0.72390
C         -0.84100        7.85180       -0.08200
C         -3.85410        5.85120        0.02650
C         -5.16130        5.71660       -0.43860
C         -5.95460        4.67810        0.00130
C         -5.48210        3.75310        0.92650
C         -6.35500        2.62360        1.38130
C         -4.18920        3.90940        1.40820
C         -3.37980        4.93730        0.96570
C         -3.10500        8.79080       -1.98150
S         -2.68650       10.15870       -1.01520
C         -2.89580       11.21840       -2.41360
C         -3.19560       10.48620       -3.59620
N         -3.28810       11.01340       -4.85360
C         -4.10520       10.37350       -5.80700
C         -3.63660       10.15400       -7.09910
C         -4.45230        9.55440       -8.03560
C         -5.74690        9.16030       -7.71430
C         -6.61590        8.51250       -8.74600
C         -6.20220        9.37760       -6.42090
C         -5.39640        9.97760       -5.47310
C         -2.49610       12.09560       -5.28670
C         -1.17330       12.22470       -4.87080
C         -0.41970       13.30180       -5.29230
C         -0.95070       14.25930       -6.14910
C         -0.14670       15.44480       -6.58480
C         -2.25940       14.09880       -6.58900
C         -3.03070       13.03580       -6.16380
C         -3.33930        9.11920       -3.31220
S         -3.69430        7.71740       -4.27390
C         -2.86690       12.60620       -2.36260
C         -2.49690       13.46130       -1.34300
C         -1.91880       13.07740       -0.05540
O         -1.78150       11.95690        0.40680
C         -1.49990       14.33750        0.59180
C         -0.88610       14.52700        1.81380
C         -0.58060       15.82040        2.20970
C         -0.89690       16.88730        1.37870
Cl        -0.50880       18.48860        1.88620
C         -1.52010       16.71030        0.14640
C         -1.82100       15.41840       -0.24670
C         -2.47670       14.89770       -1.44930
C         -2.98660       15.66960       -2.46660
C         -2.84310       17.06840       -2.54790
N         -2.74620       18.20390       -2.69350
C         -3.74300       15.19480       -3.55440
N         -4.39730       14.89940       -4.45300
H          3.96050      -11.93550        5.25140
H          5.44210      -12.31440       10.37660
H          7.93750       -8.37750        8.63420
H          6.21470       -6.87670        3.70080
H          6.71420       -4.53560        3.18130
H          6.51360       -2.07990        4.34480
H          4.82710       -1.63050        4.62770
H          5.35700       -2.14440        3.02090
H          3.55530       -3.27820        5.75880
H          3.05990       -5.62180        6.29540
H          5.61310       -6.70540        7.38400
H          5.24950       -7.16620        9.76000
H          3.11910       -9.90960       11.01770
H          2.75620       -8.21100       11.31940
H          4.41970       -8.78160       11.43230
H          2.12600       -9.89140        8.75740
H          2.43370       -9.38840        6.39020
H          1.09920      -11.93590        0.86600
H         -1.25290      -12.45800        1.33440
H         -4.00260       -9.93550        1.23580
H         -3.82310      -11.40810        0.28110
H         -3.49940      -11.44590        2.01070
H         -2.34490       -8.46620        0.30570
H         -0.00140       -7.94670       -0.17590
H          4.73080       -9.86480        0.32020
H          6.12960      -11.51300       -0.77750
H          6.45190      -13.19820       -2.44740
H          5.23880      -14.43450       -2.11320
H          5.15520      -13.51420       -3.61090
H          2.72800      -13.07850       -2.81410
H          1.30200      -11.43890       -1.69880
H          0.44530       -8.30570       -3.07680
H          1.34930       -9.99710       -4.62380
H          3.77110      -10.42500       -4.71140
H          6.20150       -9.01820       -2.31960
H          5.93650      -10.26050       -3.54960
H          7.39950       -8.44860       -4.42440
H          6.13940       -7.25650       -4.08840
H          5.87410       -8.49430       -5.31510
H          4.39170       -7.53550       -1.63800
H         -4.20520        4.13680       -6.72960
H         -6.07860        4.80600       -8.17740
H         -7.99270        6.03950       -7.23980
H         -8.93890        7.32510       -5.43540
H         -8.03710        7.54530       -3.92700
H         -8.76450        5.27830       -3.17270
H         -9.66050        5.06510       -4.67530
H        -10.15570        6.31020       -3.52310
H         -6.15460        5.95550       -3.39560
H         -0.84180       -0.98560        0.00570
H         -0.39600       -2.61530        0.51040
H          1.97120       -2.17310        0.28560
H          1.27100       -0.87900        1.25540
H          1.69550       -0.59470       -0.43840
H          0.12060        0.61860       -0.97910
H         -0.32300        2.23700       -1.52110
H         -0.94750        1.83480        0.87870
H         -2.11000        0.60850        0.35430
H         -2.31590        2.28450       -0.13690
H         -3.39940        7.52640        2.10230
H         -1.80560        8.73100        3.53090
H          1.69070        9.42060        2.64820
H          0.51060       10.72930        2.66900
H          0.47360        9.49970        3.93430
H          1.01110        8.82040        0.33020
H         -0.57450        7.59750       -1.09810
H         -5.55230        6.43860       -1.14040
H         -6.96410        4.58480       -0.37310
H         -6.59380        1.96850        0.54360
H         -7.29370        3.00390        1.78190
H         -5.86140        2.03560        2.15080
H         -3.80180        3.20870        2.13430
H         -2.36960        5.03440        1.33450
H         -2.63360       10.45690       -7.36040
H         -4.07910        9.38850       -9.03560
H         -6.51030        9.01190       -9.70690
H         -6.32170        7.47110       -8.87370
H         -7.66050        8.53970       -8.44740
H         -7.20570        9.08590       -6.15220
H         -5.76840       10.16060       -4.47570
H         -0.74420       11.48530       -4.21050
H          0.60240       13.39490       -4.95440
H          0.89160       15.34830       -6.27780
H         -0.18510       15.55730       -7.66690
H         -0.55440       16.35410       -6.14300
H         -2.68950       14.82880       -7.25770
H         -4.05230       12.93690       -6.49510
H         -3.16740       13.08720       -3.28420
H         -0.65520       13.68070        2.44200
H         -0.10020       16.00710        3.15710
H         -1.74970       17.56660       -0.46580
