
  xtb     02052204153D
 energy: -270.835635705793 gnorm: 0.000427618235 xtb: 6.4.1 (unknown)
151167  0     0  0            999 V2000
    0.2033    8.9774    4.1306 C   0  0  0  0  0  0  0  0  0  0  0  0
    0.5040   10.0647    4.9151 C   0  0  0  0  0  0  0  0  0  0  0  0
    0.0370   10.3759    6.2810 C   0  0  0  0  0  0  0  0  0  0  0  0
   -0.7490    9.7717    6.9842 O   0  0  0  0  0  0  0  0  0  0  0  0
    0.7312   11.6219    6.6671 C   0  0  0  0  0  0  0  0  0  0  0  0
    0.6446   12.3103    7.8596 C   0  0  0  0  0  0  0  0  0  0  0  0
    1.4003   13.4661    8.0078 C   0  0  0  0  0  0  0  0  0  0  0  0
    1.3232   14.3539    9.4759 Cl  0  0  0  0  0  0  0  0  0  0  0  0
    2.2230   13.9061    6.9656 C   0  0  0  0  0  0  0  0  0  0  0  0
    3.1564   15.3346    7.1612 Cl  0  0  0  0  0  0  0  0  0  0  0  0
    2.3040   13.2087    5.7650 C   0  0  0  0  0  0  0  0  0  0  0  0
    1.5502   12.0562    5.6133 C   0  0  0  0  0  0  0  0  0  0  0  0
    1.4134   11.1204    4.4983 C   0  0  0  0  0  0  0  0  0  0  0  0
    2.0366   11.2649    3.2852 C   0  0  0  0  0  0  0  0  0  0  0  0
    1.9140   10.4178    2.1629 C   0  0  0  0  0  0  0  0  0  0  0  0
    1.8783    9.8005    1.1944 N   0  0  0  0  0  0  0  0  0  0  0  0
    2.9099   12.3281    2.9685 C   0  0  0  0  0  0  0  0  0  0  0  0
    3.6295   13.1586    2.6369 N   0  0  0  0  0  0  0  0  0  0  0  0
   -0.6215    7.8627    4.3510 C   0  0  0  0  0  0  0  0  0  0  0  0
   -1.3871    7.4496    5.4281 C   0  0  0  0  0  0  0  0  0  0  0  0
   -2.0321    6.2320    5.2330 C   0  0  0  0  0  0  0  0  0  0  0  0
   -2.9195    5.3779    6.4858 S   0  0  0  0  0  0  0  0  0  0  0  0
   -3.7280    6.7521    7.3922 C   0  0  0  0  0  0  0  0  0  0  0  0
   -2.9751    7.1762    8.6380 C   0  0  0  0  0  0  0  0  0  0  0  0
   -1.7953    5.6803    3.9706 C   0  0  0  0  0  0  0  0  0  0  0  0
   -0.7144    6.6788    3.0570 S   0  0  0  0  0  0  0  0  0  0  0  0
   -2.2863    4.4693    3.4058 C   0  0  0  0  0  0  0  0  0  0  0  0
   -3.5334    3.8761    3.5271 C   0  0  0  0  0  0  0  0  0  0  0  0
   -4.6943    4.4973    4.1598 C   0  0  0  0  0  0  0  0  0  0  0  0
   -5.5668    3.7385    4.9342 C   0  0  0  0  0  0  0  0  0  0  0  0
   -6.6527    4.3429    5.5386 C   0  0  0  0  0  0  0  0  0  0  0  0
   -6.8807    5.6976    5.3744 C   0  0  0  0  0  0  0  0  0  0  0  0
   -6.0308    6.4671    4.5880 C   0  0  0  0  0  0  0  0  0  0  0  0
   -6.3030    7.9280    4.3691 C   0  0  0  0  0  0  0  0  0  0  0  0
   -7.2669    8.1232    3.1974 C   0  0  0  0  0  0  0  0  0  0  0  0
   -4.9490    5.8545    3.9778 C   0  0  0  0  0  0  0  0  0  0  0  0
   -3.5726    2.6379    2.8568 C   0  0  0  0  0  0  0  0  0  0  0  0
   -4.8303    1.4408    2.6564 S   0  0  0  0  0  0  0  0  0  0  0  0
   -3.7488    0.5006    1.6865 C   0  0  0  0  0  0  0  0  0  0  0  0
   -3.7381   -0.7017    0.9642 C   0  0  0  0  0  0  0  0  0  0  0  0
   -4.7675   -1.6357    0.7182 C   0  0  0  0  0  0  0  0  0  0  0  0
   -4.5033   -2.7423   -0.1530 C   0  0  0  0  0  0  0  0  0  0  0  0
   -5.5657   -3.5119   -0.3320 N   0  0  0  0  0  0  0  0  0  0  0  0
   -6.7926   -2.8971    0.5280 S   0  0  0  0  0  0  0  0  0  0  0  0
   -6.0156   -1.6255    1.1597 N   0  0  0  0  0  0  0  0  0  0  0  0
   -3.1980   -2.9097   -0.6636 C   0  0  0  0  0  0  0  0  0  0  0  0
   -2.6473   -3.9365   -1.4443 C   0  0  0  0  0  0  0  0  0  0  0  0
   -3.1413   -5.3937   -2.2370 S   0  0  0  0  0  0  0  0  0  0  0  0
   -1.4910   -5.6375   -2.7610 C   0  0  0  0  0  0  0  0  0  0  0  0
   -0.8734   -6.6554   -3.5107 C   0  0  0  0  0  0  0  0  0  0  0  0
   -1.5959   -7.8460   -3.9632 C   0  0  0  0  0  0  0  0  0  0  0  0
   -1.1096   -9.1216   -3.6853 C   0  0  0  0  0  0  0  0  0  0  0  0
   -1.8395  -10.2322   -4.0630 C   0  0  0  0  0  0  0  0  0  0  0  0
   -3.0505  -10.0833   -4.7181 C   0  0  0  0  0  0  0  0  0  0  0  0
   -3.5515   -8.8188   -4.9992 C   0  0  0  0  0  0  0  0  0  0  0  0
   -4.8936   -8.6425   -5.6470 C   0  0  0  0  0  0  0  0  0  0  0  0
   -5.9668   -8.4256   -4.5780 C   0  0  0  0  0  0  0  0  0  0  0  0
   -2.8170   -7.7072   -4.6123 C   0  0  0  0  0  0  0  0  0  0  0  0
    0.4789   -6.4010   -3.6783 C   0  0  0  0  0  0  0  0  0  0  0  0
    0.9926   -4.9267   -2.8702 S   0  0  0  0  0  0  0  0  0  0  0  0
   -0.6196   -4.6334   -2.3290 C   0  0  0  0  0  0  0  0  0  0  0  0
   -1.2846   -3.6589   -1.5756 C   0  0  0  0  0  0  0  0  0  0  0  0
   -0.9761   -2.4942   -0.9276 N   0  0  0  0  0  0  0  0  0  0  0  0
   -2.1409   -2.0031   -0.3594 C   0  0  0  0  0  0  0  0  0  0  0  0
   -2.4395   -0.8339    0.3919 C   0  0  0  0  0  0  0  0  0  0  0  0
   -1.6972    0.2824    0.7458 N   0  0  0  0  0  0  0  0  0  0  0  0
   -2.4900    1.0833    1.5221 C   0  0  0  0  0  0  0  0  0  0  0  0
   -2.3885    2.3089    2.1913 C   0  0  0  0  0  0  0  0  0  0  0  0
   -1.1882    3.5311    2.4020 S   0  0  0  0  0  0  0  0  0  0  0  0
   -0.4969    0.8362    0.1587 C   0  0  0  0  0  0  0  0  0  0  0  0
   -0.6779    1.1093   -1.3324 C   0  0  0  0  0  0  0  0  0  0  0  0
    0.4091   -2.1908   -0.6448 C   0  0  0  0  0  0  0  0  0  0  0  0
    0.7404   -2.4163    0.8284 C   0  0  0  0  0  0  0  0  0  0  0  0
    1.4372   -7.0800   -4.4768 C   0  0  0  0  0  0  0  0  0  0  0  0
    1.2298   -7.9764   -5.5032 C   0  0  0  0  0  0  0  0  0  0  0  0
    2.4138   -8.3823   -6.1276 C   0  0  0  0  0  0  0  0  0  0  0  0
    2.5586   -9.4472   -7.4986 S   0  0  0  0  0  0  0  0  0  0  0  0
    0.9294  -10.2743   -7.5641 C   0  0  0  0  0  0  0  0  0  0  0  0
    0.7279  -11.2374   -6.4111 C   0  0  0  0  0  0  0  0  0  0  0  0
    3.5573   -7.7675   -5.6076 C   0  0  0  0  0  0  0  0  0  0  0  0
    3.1247   -6.7200   -4.2784 S   0  0  0  0  0  0  0  0  0  0  0  0
    4.8818   -8.0060   -6.0023 C   0  0  0  0  0  0  0  0  0  0  0  0
    5.9988   -7.2668   -5.7224 C   0  0  0  0  0  0  0  0  0  0  0  0
    7.3391   -7.8990   -5.7493 C   0  0  0  0  0  0  0  0  0  0  0  0
    7.6289   -8.9816   -6.2089 O   0  0  0  0  0  0  0  0  0  0  0  0
    8.2253   -6.9528   -5.0370 C   0  0  0  0  0  0  0  0  0  0  0  0
    9.5361   -7.0976   -4.6878 C   0  0  0  0  0  0  0  0  0  0  0  0
   10.1788   -6.0605   -3.9735 C   0  0  0  0  0  0  0  0  0  0  0  0
   11.5316   -6.1594   -3.5898 C   0  0  0  0  0  0  0  0  0  0  0  0
   12.1427   -5.1538   -2.8934 C   0  0  0  0  0  0  0  0  0  0  0  0
   11.4014   -4.0121   -2.5622 C   0  0  0  0  0  0  0  0  0  0  0  0
   12.0189   -3.0324   -1.8741 F   0  0  0  0  0  0  0  0  0  0  0  0
   10.0879   -3.8643   -2.9104 C   0  0  0  0  0  0  0  0  0  0  0  0
    9.4435   -4.8893   -3.6298 C   0  0  0  0  0  0  0  0  0  0  0  0
    8.0879   -4.7617   -4.0140 C   0  0  0  0  0  0  0  0  0  0  0  0
    7.4913   -5.7760   -4.7110 C   0  0  0  0  0  0  0  0  0  0  0  0
    6.1476   -5.9062   -5.2682 C   0  0  0  0  0  0  0  0  0  0  0  0
    5.3057   -4.8589   -5.5535 C   0  0  0  0  0  0  0  0  0  0  0  0
    4.1792   -4.9816   -6.3916 C   0  0  0  0  0  0  0  0  0  0  0  0
    3.2876   -5.0319   -7.1139 N   0  0  0  0  0  0  0  0  0  0  0  0
    5.5143   -3.5384   -5.1159 C   0  0  0  0  0  0  0  0  0  0  0  0
    5.6154   -2.4520   -4.7563 N   0  0  0  0  0  0  0  0  0  0  0  0
    0.6892    8.9495    3.1630 H   0  0  0  0  0  0  0  0  0  0  0  0
    0.0064   11.9566    8.6538 H   0  0  0  0  0  0  0  0  0  0  0  0
    2.9504   13.5814    4.9881 H   0  0  0  0  0  0  0  0  0  0  0  0
   -1.4435    8.0236    6.3328 H   0  0  0  0  0  0  0  0  0  0  0  0
   -4.7103    6.3539    7.6484 H   0  0  0  0  0  0  0  0  0  0  0  0
   -3.8513    7.5710    6.6863 H   0  0  0  0  0  0  0  0  0  0  0  0
   -3.5603    7.9190    9.1767 H   0  0  0  0  0  0  0  0  0  0  0  0
   -2.8114    6.3216    9.2903 H   0  0  0  0  0  0  0  0  0  0  0  0
   -2.0116    7.6150    8.3931 H   0  0  0  0  0  0  0  0  0  0  0  0
   -5.3750    2.6877    5.0851 H   0  0  0  0  0  0  0  0  0  0  0  0
   -7.3215    3.7540    6.1486 H   0  0  0  0  0  0  0  0  0  0  0  0
   -7.7257    6.1656    5.8591 H   0  0  0  0  0  0  0  0  0  0  0  0
   -5.3685    8.4525    4.1568 H   0  0  0  0  0  0  0  0  0  0  0  0
   -6.7410    8.3612    5.2711 H   0  0  0  0  0  0  0  0  0  0  0  0
   -6.8429    7.7073    2.2862 H   0  0  0  0  0  0  0  0  0  0  0  0
   -8.2105    7.6202    3.3958 H   0  0  0  0  0  0  0  0  0  0  0  0
   -7.4630    9.1809    3.0385 H   0  0  0  0  0  0  0  0  0  0  0  0
   -4.2920    6.4386    3.3484 H   0  0  0  0  0  0  0  0  0  0  0  0
   -0.1723   -9.2325   -3.1596 H   0  0  0  0  0  0  0  0  0  0  0  0
   -1.4674  -11.2208   -3.8373 H   0  0  0  0  0  0  0  0  0  0  0  0
   -3.6155  -10.9577   -5.0073 H   0  0  0  0  0  0  0  0  0  0  0  0
   -4.8722   -7.7785   -6.3143 H   0  0  0  0  0  0  0  0  0  0  0  0
   -5.1426   -9.5263   -6.2374 H   0  0  0  0  0  0  0  0  0  0  0  0
   -5.7364   -7.5446   -3.9834 H   0  0  0  0  0  0  0  0  0  0  0  0
   -6.9411   -8.2894   -5.0407 H   0  0  0  0  0  0  0  0  0  0  0  0
   -6.0151   -9.2840   -3.9117 H   0  0  0  0  0  0  0  0  0  0  0  0
   -3.1932   -6.7177   -4.8270 H   0  0  0  0  0  0  0  0  0  0  0  0
   -0.3068    1.7803    0.6752 H   0  0  0  0  0  0  0  0  0  0  0  0
    0.3599    0.1909    0.3509 H   0  0  0  0  0  0  0  0  0  0  0  0
   -1.4684    1.8411   -1.4819 H   0  0  0  0  0  0  0  0  0  0  0  0
   -0.9493    0.2038   -1.8700 H   0  0  0  0  0  0  0  0  0  0  0  0
    0.2431    1.5055   -1.7511 H   0  0  0  0  0  0  0  0  0  0  0  0
    1.0070   -2.8720   -1.2553 H   0  0  0  0  0  0  0  0  0  0  0  0
    0.6561   -1.1792   -0.9653 H   0  0  0  0  0  0  0  0  0  0  0  0
    1.7809   -2.1662    1.0164 H   0  0  0  0  0  0  0  0  0  0  0  0
    0.5834   -3.4608    1.0880 H   0  0  0  0  0  0  0  0  0  0  0  0
    0.1084   -1.8093    1.4727 H   0  0  0  0  0  0  0  0  0  0  0  0
    0.2445   -8.2852   -5.7963 H   0  0  0  0  0  0  0  0  0  0  0  0
    0.9482  -10.8038   -8.5165 H   0  0  0  0  0  0  0  0  0  0  0  0
    0.1568   -9.5081   -7.6047 H   0  0  0  0  0  0  0  0  0  0  0  0
   -0.2431  -11.7195   -6.5021 H   0  0  0  0  0  0  0  0  0  0  0  0
    1.5012  -12.0020   -6.4187 H   0  0  0  0  0  0  0  0  0  0  0  0
    0.7651  -10.7150   -5.4580 H   0  0  0  0  0  0  0  0  0  0  0  0
    5.0511   -8.9404   -6.5309 H   0  0  0  0  0  0  0  0  0  0  0  0
   10.0793   -7.9924   -4.9529 H   0  0  0  0  0  0  0  0  0  0  0  0
   12.0822   -7.0492   -3.8563 H   0  0  0  0  0  0  0  0  0  0  0  0
   13.1767   -5.2145   -2.5927 H   0  0  0  0  0  0  0  0  0  0  0  0
    9.5488   -2.9692   -2.6422 H   0  0  0  0  0  0  0  0  0  0  0  0
    7.5510   -3.8674   -3.7390 H   0  0  0  0  0  0  0  0  0  0  0  0
  1  2  2  0  0  0  0
  2  3  1  0  0  0  0
  3  4  2  0  0  0  0
  3  5  1  0  0  0  0
  5  6  2  0  0  0  0
  6  7  1  0  0  0  0
  7  8  1  0  0  0  0
  7  9  2  0  0  0  0
  9 10  1  0  0  0  0
  9 11  1  0  0  0  0
 11 12  2  0  0  0  0
 12 13  1  0  0  0  0
 13 14  2  0  0  0  0
 14 15  1  0  0  0  0
 15 16  3  0  0  0  0
 14 17  1  0  0  0  0
 17 18  3  0  0  0  0
  1 19  1  0  0  0  0
 19 20  2  0  0  0  0
 20 21  1  0  0  0  0
 21 22  1  0  0  0  0
 22 23  1  0  0  0  0
 23 24  1  0  0  0  0
 21 25  2  0  0  0  0
 25 26  1  0  0  0  0
 25 27  1  0  0  0  0
 27 28  2  0  0  0  0
 28 29  1  0  0  0  0
 29 30  2  0  0  0  0
 30 31  1  0  0  0  0
 31 32  2  0  0  0  0
 32 33  1  0  0  0  0
 33 34  1  0  0  0  0
 34 35  1  0  0  0  0
 33 36  2  0  0  0  0
 28 37  1  0  0  0  0
 37 38  1  0  0  0  0
 38 39  1  0  0  0  0
 39 40  1  0  0  0  0
 40 41  1  0  0  0  0
 41 42  1  0  0  0  0
 42 43  2  0  0  0  0
 43 44  1  0  0  0  0
 44 45  1  0  0  0  0
 42 46  1  0  0  0  0
 46 47  1  0  0  0  0
 47 48  1  0  0  0  0
 48 49  1  0  0  0  0
 49 50  1  0  0  0  0
 50 51  1  0  0  0  0
 51 52  2  0  0  0  0
 52 53  1  0  0  0  0
 53 54  2  0  0  0  0
 54 55  1  0  0  0  0
 55 56  1  0  0  0  0
 56 57  1  0  0  0  0
 55 58  2  0  0  0  0
 50 59  2  0  0  0  0
 59 60  1  0  0  0  0
 60 61  1  0  0  0  0
 61 62  1  0  0  0  0
 62 63  1  0  0  0  0
 63 64  1  0  0  0  0
 64 65  1  0  0  0  0
 65 66  1  0  0  0  0
 66 67  1  0  0  0  0
 67 68  1  0  0  0  0
 68 69  1  0  0  0  0
 66 70  1  0  0  0  0
 70 71  1  0  0  0  0
 63 72  1  0  0  0  0
 72 73  1  0  0  0  0
 59 74  1  0  0  0  0
 74 75  2  0  0  0  0
 75 76  1  0  0  0  0
 76 77  1  0  0  0  0
 77 78  1  0  0  0  0
 78 79  1  0  0  0  0
 76 80  2  0  0  0  0
 80 81  1  0  0  0  0
 80 82  1  0  0  0  0
 82 83  2  0  0  0  0
 83 84  1  0  0  0  0
 84 85  2  0  0  0  0
 84 86  1  0  0  0  0
 86 87  2  0  0  0  0
 87 88  1  0  0  0  0
 88 89  2  0  0  0  0
 89 90  1  0  0  0  0
 90 91  2  0  0  0  0
 91 92  1  0  0  0  0
 91 93  1  0  0  0  0
 93 94  2  0  0  0  0
 94 95  1  0  0  0  0
 95 96  2  0  0  0  0
 96 97  1  0  0  0  0
 97 98  2  0  0  0  0
 98 99  1  0  0  0  0
 99100  3  0  0  0  0
 98101  1  0  0  0  0
101102  3  0  0  0  0
 13  2  1  0  0  0  0
 26 19  1  0  0  0  0
 69 27  1  0  0  0  0
 81 74  1  0  0  0  0
 97 83  1  0  0  0  0
 12  5  1  0  0  0  0
 36 29  1  0  0  0  0
 68 37  2  0  0  0  0
 96 86  1  0  0  0  0
 67 39  2  0  0  0  0
 94 88  1  0  0  0  0
 65 40  2  0  0  0  0
 45 41  2  0  0  0  0
 64 46  2  0  0  0  0
 62 47  2  0  0  0  0
 61 49  2  0  0  0  0
 58 51  1  0  0  0  0
  1103  1  0  0  0  0
  6104  1  0  0  0  0
 11105  1  0  0  0  0
 20106  1  0  0  0  0
 23107  1  0  0  0  0
 23108  1  0  0  0  0
 24109  1  0  0  0  0
 24110  1  0  0  0  0
 24111  1  0  0  0  0
 30112  1  0  0  0  0
 31113  1  0  0  0  0
 32114  1  0  0  0  0
 34115  1  0  0  0  0
 34116  1  0  0  0  0
 35117  1  0  0  0  0
 35118  1  0  0  0  0
 35119  1  0  0  0  0
 36120  1  0  0  0  0
 52121  1  0  0  0  0
 53122  1  0  0  0  0
 54123  1  0  0  0  0
 56124  1  0  0  0  0
 56125  1  0  0  0  0
 57126  1  0  0  0  0
 57127  1  0  0  0  0
 57128  1  0  0  0  0
 58129  1  0  0  0  0
 70130  1  0  0  0  0
 70131  1  0  0  0  0
 71132  1  0  0  0  0
 71133  1  0  0  0  0
 71134  1  0  0  0  0
 72135  1  0  0  0  0
 72136  1  0  0  0  0
 73137  1  0  0  0  0
 73138  1  0  0  0  0
 73139  1  0  0  0  0
 75140  1  0  0  0  0
 78141  1  0  0  0  0
 78142  1  0  0  0  0
 79143  1  0  0  0  0
 79144  1  0  0  0  0
 79145  1  0  0  0  0
 82146  1  0  0  0  0
 87147  1  0  0  0  0
 89148  1  0  0  0  0
 90149  1  0  0  0  0
 93150  1  0  0  0  0
 95151  1  0  0  0  0
M  END
