225

C          5.12340       -8.54040       -5.84020
C          4.85610       -9.64700       -5.05800
C          4.10520       -9.65380       -3.80250
O          3.50610       -8.72850       -3.28380
C          4.23950      -11.02100       -3.25770
C          3.72950      -11.56710       -2.09350
Cl         2.76810      -10.62900       -1.02530
C          4.00150      -12.90150       -1.79920
C          4.76970      -13.65730       -2.66570
C          5.28490      -13.12200       -3.84150
C          5.01760      -11.79700       -4.13660
C          5.38930      -10.96460       -5.28400
C          6.09210      -11.40640       -6.38070
C          6.33290      -10.66270       -7.55090
N          6.54530      -10.14250       -8.55450
C          6.65370      -12.69250       -6.49950
N          7.15620      -13.71360       -6.65800
C          4.65740       -7.23410       -5.74530
C          5.06990       -6.19370       -6.62440
N          6.12880       -6.27750       -7.48780
C          7.30510       -6.97080       -7.13740
C          8.00670       -7.69800       -8.09620
C          9.15430       -8.37770       -7.74110
C          9.62920       -8.35750       -6.43460
C         10.85940       -9.12740       -6.06560
C          8.93160       -7.61340       -5.49030
C          7.78790       -6.91990       -5.83220
C          6.07710       -5.63160       -8.73510
C          7.21400       -5.01710       -9.25550
C          7.18850       -4.47910      -10.52460
C          6.03660       -4.52890      -11.30400
C          6.05620       -4.00090      -12.70520
C          4.89410       -5.09780      -10.75640
C          4.90750       -5.64650       -9.48840
C          4.28190       -5.04570       -6.44440
S          4.24090       -3.46700       -7.16760
C          3.02260       -2.94920       -6.01230
C          2.62480       -3.97630       -5.16500
N          1.63930       -3.89600       -4.19730
C          1.81670       -4.64100       -3.01460
C          0.76430       -5.37530       -2.47960
C          0.95840       -6.12870       -1.33910
C          2.19610       -6.17340       -0.70960
C          2.41810       -7.02860        0.49850
C          3.23700       -5.42360       -1.24320
C          3.05440       -4.66030       -2.37840
C          0.49190       -3.10950       -4.35100
C         -0.11620       -2.94720       -5.59270
C         -1.21510       -2.11980       -5.72400
C         -1.72990       -1.42220       -4.63980
C         -2.87440       -0.47020       -4.80430
C         -1.13590       -1.61370       -3.39700
C         -0.04900       -2.44870       -3.24690
C          3.35240       -5.16360       -5.41750
S          3.39210       -6.70030       -4.63710
C          2.53790       -1.60310       -5.88960
C          1.83730       -0.80500       -6.76850
C          1.69870       -1.03370       -8.20670
C          0.44840       -0.95670       -8.81420
C          0.33260       -1.14120      -10.17800
C          1.45710       -1.38370      -10.94800
C          2.71400       -1.44170      -10.36110
C          3.94910       -1.62480      -11.19230
C          4.55860       -0.26740      -11.54660
C          2.82240       -1.26700       -8.98990
C          1.22160        0.27510       -6.09570
S          0.09640        1.50890       -6.61140
C         -0.02950        2.05660       -4.97170
C         -0.72340        3.01280       -4.20590
C         -1.58740        4.07110       -4.56360
C         -2.08190        4.94780       -3.53640
N         -2.83090        5.92390       -4.02370
S         -2.91490        5.75430       -5.63210
N         -1.99820        4.42690       -5.77060
C         -1.80490        4.64520       -2.18440
C         -2.30770        5.17530       -0.98430
S         -3.34230        6.45600       -0.44720
C         -3.17340        5.87310        1.19180
C         -3.72470        6.30030        2.41480
C         -4.64520        7.43310        2.53860
C         -4.30850        8.66890        1.99660
C         -5.17910        9.73430        2.12610
C         -6.38350        9.57620        2.78920
C         -6.74590        8.34240        3.31460
C         -8.03140        8.17120        4.07120
C         -7.78810        8.35050        5.57090
C         -5.87140        7.27570        3.17650
C         -3.30810        5.49700        3.46160
S         -2.25340        4.19360        2.92620
C         -2.35430        4.74560        1.29420
C         -1.84770        4.35410        0.04990
N         -1.05530        3.35890       -0.45920
C         -0.99870        3.52900       -1.82950
C         -0.34090        2.80260       -2.85270
N          0.60170        1.78940       -2.80680
C          0.77460        1.33610       -4.08770
C          1.49380        0.32420       -4.73140
S          2.55610       -0.94300       -4.25230
C          1.66630        1.58870       -1.84840
C          2.96110        2.25520       -2.31400
C         -0.74120        2.19450        0.33950
C          0.36190        2.46990        1.36200
C         -3.51370        5.61940        4.86330
C         -3.15830        4.68740        5.80030
C         -3.38670        5.09510        7.13090
C         -3.14490        4.36670        8.30870
C         -2.47130        3.08080        8.27200
S         -3.11690        1.68910        9.08860
C         -1.80140        0.68580        8.58510
C         -1.75570       -0.76030        8.93590
C         -2.56380       -1.59370        7.93830
C         -0.92370        1.39990        7.82470
Cl         0.50750        0.74240        7.14140
C         -1.29550        2.75840        7.65000
Cl        -0.30210        3.88120        6.81190
C         -3.56180        4.94070        9.50220
C         -4.18420        6.21780        9.56450
C         -4.40290        6.96950        8.38050
C         -5.05530        8.25930        8.37850
C         -4.78290        9.33960        7.58230
C         -5.65140       10.42500        7.79820
C         -6.60090       10.18290        8.74480
C         -7.70260       11.07240        9.20600
C         -9.05340       10.62200        8.64500
S         -6.42780        8.59140        9.40060
C         -3.97360        6.38520        7.19760
S         -4.16370        7.06860        5.60090
C         -4.45080        6.57910       10.89070
C         -4.07350        5.63090       11.82880
S         -3.34790        4.22760       11.07180
C         -4.27590        5.84030       13.20550
C         -3.98200        5.04700       14.28250
C         -3.34490        3.71980       14.23080
O         -2.98040        3.11130       13.24510
C         -3.23380        3.27070       15.63170
C         -2.70860        2.09530       16.14320
Cl        -2.05750        0.89370       15.10610
C         -2.71680        1.90210       17.52300
C         -3.24250        2.87340       18.35600
C         -3.77270        4.05690       17.85490
C         -3.76780        4.25520       16.48450
C         -4.24370        5.37450       15.66950
C         -4.82870        6.51260       16.16270
C         -5.29310        7.60520       15.40030
N         -5.70440        8.53580       14.86650
C         -5.05690        6.76100       17.53290
N         -5.26970        7.03680       18.62690
H          5.80360       -8.70850       -6.66520
H          3.60700      -13.33520       -0.89410
H          4.97290      -14.68970       -2.42520
H          5.87760      -13.73840       -4.49650
H          7.64100       -7.74170       -9.10960
H          9.68100       -8.94950       -8.49010
H         11.68300       -8.87300       -6.73060
H         11.15880       -8.91950       -5.04150
H         10.67510      -10.19720       -6.16210
H          9.29160       -7.56840       -4.47260
H          7.26040       -6.34100       -5.08810
H          8.11710       -4.97920       -8.66490
H          8.08030       -4.01880      -10.92450
H          6.37770       -2.96080      -12.72060
H          5.07380       -4.07230      -13.16370
H          6.76030       -4.57350      -13.30830
H          3.98330       -5.13380      -11.33560
H          4.02090       -6.11770       -9.09060
H         -0.19870       -5.35780       -2.96880
H          0.13640       -6.70510       -0.93970
H          2.89080       -7.96370        0.19880
H          3.07630       -6.53480        1.21080
H          1.47740       -7.26610        0.98960
H          4.20470       -5.43910       -0.76300
H          3.86870       -4.07520       -2.78220
H          0.27320       -3.47100       -6.45370
H         -1.68250       -2.01640       -6.69240
H         -3.46380       -0.71900       -5.68330
H         -3.52080       -0.48380       -3.92920
H         -2.49960        0.54730       -4.92740
H         -1.52720       -1.09100       -2.53530
H          0.40950       -2.58060       -2.27770
H         -0.42560       -0.75940       -8.21410
H         -0.63990       -1.08910      -10.64530
H          1.35950       -1.51960      -12.01570
H          4.67900       -2.21710      -10.63720
H          3.69890       -2.15650      -12.11150
H          4.82370        0.27590      -10.64260
H          5.45520       -0.39660      -12.14870
H          3.84680        0.33280      -12.10920
H          3.79910       -1.28250       -8.52790
H         -3.36310        8.79260        1.49010
H         -4.91500       10.69510        1.70960
H         -7.05460       10.41680        2.89260
H         -8.76350        8.90700        3.73290
H         -8.43880        7.17460        3.88970
H         -7.07290        7.61410        5.93030
H         -7.38080        9.33880        5.77260
H         -8.71620        8.23320        6.12570
H         -6.14880        6.30400        3.56070
H          1.38320        2.01740       -0.89500
H          1.82380        0.51130       -1.73430
H          2.80220        3.32120       -2.46420
H          3.73230        2.11830       -1.56090
H          3.30920        1.82050       -3.24680
H         -0.48100        1.37050       -0.32610
H         -1.65000        1.90780        0.88160
H          1.23670        2.92340        0.90110
H          0.00220        3.14950        2.12910
H          0.65830        1.54070        1.84020
H         -2.76340        3.72370        5.53380
H         -2.16150       -0.89990        9.93910
H         -0.71510       -1.09050        8.92950
H         -2.16180       -1.47490        6.93520
H         -2.52060       -2.64520        8.20870
H         -3.60340       -1.27510        7.93710
H         -3.96070        9.37210        6.89080
H         -5.57150       11.35880        7.27020
H         -7.74890       11.06340       10.29750
H         -7.49060       12.09280        8.87970
H         -9.84450       11.27780        8.99910
H         -9.27370        9.60610        8.96540
H         -9.03980       10.64720        7.55780
H         -4.89520        7.51320       11.18420
H         -4.74420        6.79400       13.41750
H         -2.31010        0.99080       17.93170
H         -3.24130        2.70920       19.42270
H         -4.17380        4.79230       18.53170
