
  xtb     02182223103D
 energy: -388.114278235301 gnorm: 0.000895672829 xtb: 6.4.1 (unknown)
225249  0     0  0            999 V2000
    5.1234   -8.5404   -5.8402 C   0  0  0  0  0  0  0  0  0  0  0  0
    4.8561   -9.6470   -5.0580 C   0  0  0  0  0  0  0  0  0  0  0  0
    4.1052   -9.6538   -3.8025 C   0  0  0  0  0  0  0  0  0  0  0  0
    3.5061   -8.7285   -3.2838 O   0  0  0  0  0  0  0  0  0  0  0  0
    4.2395  -11.0210   -3.2577 C   0  0  0  0  0  0  0  0  0  0  0  0
    3.7295  -11.5671   -2.0935 C   0  0  0  0  0  0  0  0  0  0  0  0
    2.7681  -10.6290   -1.0253 Cl  0  0  0  0  0  0  0  0  0  0  0  0
    4.0015  -12.9015   -1.7992 C   0  0  0  0  0  0  0  0  0  0  0  0
    4.7697  -13.6573   -2.6657 C   0  0  0  0  0  0  0  0  0  0  0  0
    5.2849  -13.1220   -3.8415 C   0  0  0  0  0  0  0  0  0  0  0  0
    5.0176  -11.7970   -4.1366 C   0  0  0  0  0  0  0  0  0  0  0  0
    5.3893  -10.9646   -5.2840 C   0  0  0  0  0  0  0  0  0  0  0  0
    6.0921  -11.4064   -6.3807 C   0  0  0  0  0  0  0  0  0  0  0  0
    6.3329  -10.6627   -7.5509 C   0  0  0  0  0  0  0  0  0  0  0  0
    6.5453  -10.1425   -8.5545 N   0  0  0  0  0  0  0  0  0  0  0  0
    6.6537  -12.6925   -6.4995 C   0  0  0  0  0  0  0  0  0  0  0  0
    7.1562  -13.7136   -6.6580 N   0  0  0  0  0  0  0  0  0  0  0  0
    4.6574   -7.2341   -5.7453 C   0  0  0  0  0  0  0  0  0  0  0  0
    5.0699   -6.1937   -6.6244 C   0  0  0  0  0  0  0  0  0  0  0  0
    6.1288   -6.2775   -7.4878 N   0  0  0  0  0  0  0  0  0  0  0  0
    7.3051   -6.9708   -7.1374 C   0  0  0  0  0  0  0  0  0  0  0  0
    8.0067   -7.6980   -8.0962 C   0  0  0  0  0  0  0  0  0  0  0  0
    9.1543   -8.3777   -7.7411 C   0  0  0  0  0  0  0  0  0  0  0  0
    9.6292   -8.3575   -6.4346 C   0  0  0  0  0  0  0  0  0  0  0  0
   10.8594   -9.1274   -6.0656 C   0  0  0  0  0  0  0  0  0  0  0  0
    8.9316   -7.6134   -5.4903 C   0  0  0  0  0  0  0  0  0  0  0  0
    7.7879   -6.9199   -5.8322 C   0  0  0  0  0  0  0  0  0  0  0  0
    6.0771   -5.6316   -8.7351 C   0  0  0  0  0  0  0  0  0  0  0  0
    7.2140   -5.0171   -9.2555 C   0  0  0  0  0  0  0  0  0  0  0  0
    7.1885   -4.4791  -10.5246 C   0  0  0  0  0  0  0  0  0  0  0  0
    6.0366   -4.5289  -11.3040 C   0  0  0  0  0  0  0  0  0  0  0  0
    6.0562   -4.0009  -12.7052 C   0  0  0  0  0  0  0  0  0  0  0  0
    4.8941   -5.0978  -10.7564 C   0  0  0  0  0  0  0  0  0  0  0  0
    4.9075   -5.6465   -9.4884 C   0  0  0  0  0  0  0  0  0  0  0  0
    4.2819   -5.0457   -6.4444 C   0  0  0  0  0  0  0  0  0  0  0  0
    4.2409   -3.4670   -7.1676 S   0  0  0  0  0  0  0  0  0  0  0  0
    3.0226   -2.9492   -6.0123 C   0  0  0  0  0  0  0  0  0  0  0  0
    2.6248   -3.9763   -5.1650 C   0  0  0  0  0  0  0  0  0  0  0  0
    1.6393   -3.8960   -4.1973 N   0  0  0  0  0  0  0  0  0  0  0  0
    1.8167   -4.6410   -3.0146 C   0  0  0  0  0  0  0  0  0  0  0  0
    0.7643   -5.3753   -2.4796 C   0  0  0  0  0  0  0  0  0  0  0  0
    0.9584   -6.1287   -1.3391 C   0  0  0  0  0  0  0  0  0  0  0  0
    2.1961   -6.1734   -0.7096 C   0  0  0  0  0  0  0  0  0  0  0  0
    2.4181   -7.0286    0.4985 C   0  0  0  0  0  0  0  0  0  0  0  0
    3.2370   -5.4236   -1.2432 C   0  0  0  0  0  0  0  0  0  0  0  0
    3.0544   -4.6603   -2.3784 C   0  0  0  0  0  0  0  0  0  0  0  0
    0.4919   -3.1095   -4.3510 C   0  0  0  0  0  0  0  0  0  0  0  0
   -0.1162   -2.9472   -5.5927 C   0  0  0  0  0  0  0  0  0  0  0  0
   -1.2151   -2.1198   -5.7240 C   0  0  0  0  0  0  0  0  0  0  0  0
   -1.7299   -1.4222   -4.6398 C   0  0  0  0  0  0  0  0  0  0  0  0
   -2.8744   -0.4702   -4.8043 C   0  0  0  0  0  0  0  0  0  0  0  0
   -1.1359   -1.6137   -3.3970 C   0  0  0  0  0  0  0  0  0  0  0  0
   -0.0490   -2.4487   -3.2469 C   0  0  0  0  0  0  0  0  0  0  0  0
    3.3524   -5.1636   -5.4175 C   0  0  0  0  0  0  0  0  0  0  0  0
    3.3921   -6.7003   -4.6371 S   0  0  0  0  0  0  0  0  0  0  0  0
    2.5379   -1.6031   -5.8896 C   0  0  0  0  0  0  0  0  0  0  0  0
    1.8373   -0.8050   -6.7685 C   0  0  0  0  0  0  0  0  0  0  0  0
    1.6987   -1.0337   -8.2067 C   0  0  0  0  0  0  0  0  0  0  0  0
    0.4484   -0.9567   -8.8142 C   0  0  0  0  0  0  0  0  0  0  0  0
    0.3326   -1.1412  -10.1780 C   0  0  0  0  0  0  0  0  0  0  0  0
    1.4571   -1.3837  -10.9480 C   0  0  0  0  0  0  0  0  0  0  0  0
    2.7140   -1.4417  -10.3611 C   0  0  0  0  0  0  0  0  0  0  0  0
    3.9491   -1.6248  -11.1923 C   0  0  0  0  0  0  0  0  0  0  0  0
    4.5586   -0.2674  -11.5466 C   0  0  0  0  0  0  0  0  0  0  0  0
    2.8224   -1.2670   -8.9899 C   0  0  0  0  0  0  0  0  0  0  0  0
    1.2216    0.2751   -6.0957 C   0  0  0  0  0  0  0  0  0  0  0  0
    0.0964    1.5089   -6.6114 S   0  0  0  0  0  0  0  0  0  0  0  0
   -0.0295    2.0566   -4.9717 C   0  0  0  0  0  0  0  0  0  0  0  0
   -0.7234    3.0128   -4.2059 C   0  0  0  0  0  0  0  0  0  0  0  0
   -1.5874    4.0711   -4.5636 C   0  0  0  0  0  0  0  0  0  0  0  0
   -2.0819    4.9478   -3.5364 C   0  0  0  0  0  0  0  0  0  0  0  0
   -2.8309    5.9239   -4.0237 N   0  0  0  0  0  0  0  0  0  0  0  0
   -2.9149    5.7543   -5.6321 S   0  0  0  0  0  0  0  0  0  0  0  0
   -1.9982    4.4269   -5.7706 N   0  0  0  0  0  0  0  0  0  0  0  0
   -1.8049    4.6452   -2.1844 C   0  0  0  0  0  0  0  0  0  0  0  0
   -2.3077    5.1753   -0.9843 C   0  0  0  0  0  0  0  0  0  0  0  0
   -3.3423    6.4560   -0.4472 S   0  0  0  0  0  0  0  0  0  0  0  0
   -3.1734    5.8731    1.1918 C   0  0  0  0  0  0  0  0  0  0  0  0
   -3.7247    6.3003    2.4148 C   0  0  0  0  0  0  0  0  0  0  0  0
   -4.6452    7.4331    2.5386 C   0  0  0  0  0  0  0  0  0  0  0  0
   -4.3085    8.6689    1.9966 C   0  0  0  0  0  0  0  0  0  0  0  0
   -5.1791    9.7343    2.1261 C   0  0  0  0  0  0  0  0  0  0  0  0
   -6.3835    9.5762    2.7892 C   0  0  0  0  0  0  0  0  0  0  0  0
   -6.7459    8.3424    3.3146 C   0  0  0  0  0  0  0  0  0  0  0  0
   -8.0314    8.1712    4.0712 C   0  0  0  0  0  0  0  0  0  0  0  0
   -7.7881    8.3505    5.5709 C   0  0  0  0  0  0  0  0  0  0  0  0
   -5.8714    7.2757    3.1765 C   0  0  0  0  0  0  0  0  0  0  0  0
   -3.3081    5.4970    3.4616 C   0  0  0  0  0  0  0  0  0  0  0  0
   -2.2534    4.1936    2.9262 S   0  0  0  0  0  0  0  0  0  0  0  0
   -2.3543    4.7456    1.2942 C   0  0  0  0  0  0  0  0  0  0  0  0
   -1.8477    4.3541    0.0499 C   0  0  0  0  0  0  0  0  0  0  0  0
   -1.0553    3.3589   -0.4592 N   0  0  0  0  0  0  0  0  0  0  0  0
   -0.9987    3.5290   -1.8295 C   0  0  0  0  0  0  0  0  0  0  0  0
   -0.3409    2.8026   -2.8527 C   0  0  0  0  0  0  0  0  0  0  0  0
    0.6017    1.7894   -2.8068 N   0  0  0  0  0  0  0  0  0  0  0  0
    0.7746    1.3361   -4.0877 C   0  0  0  0  0  0  0  0  0  0  0  0
    1.4938    0.3242   -4.7314 C   0  0  0  0  0  0  0  0  0  0  0  0
    2.5561   -0.9430   -4.2523 S   0  0  0  0  0  0  0  0  0  0  0  0
    1.6663    1.5887   -1.8484 C   0  0  0  0  0  0  0  0  0  0  0  0
    2.9611    2.2552   -2.3140 C   0  0  0  0  0  0  0  0  0  0  0  0
   -0.7412    2.1945    0.3395 C   0  0  0  0  0  0  0  0  0  0  0  0
    0.3619    2.4699    1.3620 C   0  0  0  0  0  0  0  0  0  0  0  0
   -3.5137    5.6194    4.8633 C   0  0  0  0  0  0  0  0  0  0  0  0
   -3.1583    4.6874    5.8003 C   0  0  0  0  0  0  0  0  0  0  0  0
   -3.3867    5.0951    7.1309 C   0  0  0  0  0  0  0  0  0  0  0  0
   -3.1449    4.3667    8.3087 C   0  0  0  0  0  0  0  0  0  0  0  0
   -2.4713    3.0808    8.2720 C   0  0  0  0  0  0  0  0  0  0  0  0
   -3.1169    1.6891    9.0886 S   0  0  0  0  0  0  0  0  0  0  0  0
   -1.8014    0.6858    8.5851 C   0  0  0  0  0  0  0  0  0  0  0  0
   -1.7557   -0.7603    8.9359 C   0  0  0  0  0  0  0  0  0  0  0  0
   -2.5638   -1.5937    7.9383 C   0  0  0  0  0  0  0  0  0  0  0  0
   -0.9237    1.3999    7.8247 C   0  0  0  0  0  0  0  0  0  0  0  0
    0.5075    0.7424    7.1414 Cl  0  0  0  0  0  0  0  0  0  0  0  0
   -1.2955    2.7584    7.6500 C   0  0  0  0  0  0  0  0  0  0  0  0
   -0.3021    3.8812    6.8119 Cl  0  0  0  0  0  0  0  0  0  0  0  0
   -3.5618    4.9407    9.5022 C   0  0  0  0  0  0  0  0  0  0  0  0
   -4.1842    6.2178    9.5645 C   0  0  0  0  0  0  0  0  0  0  0  0
   -4.4029    6.9695    8.3805 C   0  0  0  0  0  0  0  0  0  0  0  0
   -5.0553    8.2593    8.3785 C   0  0  0  0  0  0  0  0  0  0  0  0
   -4.7829    9.3396    7.5823 C   0  0  0  0  0  0  0  0  0  0  0  0
   -5.6514   10.4250    7.7982 C   0  0  0  0  0  0  0  0  0  0  0  0
   -6.6009   10.1829    8.7448 C   0  0  0  0  0  0  0  0  0  0  0  0
   -7.7026   11.0724    9.2060 C   0  0  0  0  0  0  0  0  0  0  0  0
   -9.0534   10.6220    8.6450 C   0  0  0  0  0  0  0  0  0  0  0  0
   -6.4278    8.5914    9.4006 S   0  0  0  0  0  0  0  0  0  0  0  0
   -3.9736    6.3852    7.1976 C   0  0  0  0  0  0  0  0  0  0  0  0
   -4.1637    7.0686    5.6009 S   0  0  0  0  0  0  0  0  0  0  0  0
   -4.4508    6.5791   10.8907 C   0  0  0  0  0  0  0  0  0  0  0  0
   -4.0735    5.6309   11.8288 C   0  0  0  0  0  0  0  0  0  0  0  0
   -3.3479    4.2276   11.0718 S   0  0  0  0  0  0  0  0  0  0  0  0
   -4.2759    5.8403   13.2055 C   0  0  0  0  0  0  0  0  0  0  0  0
   -3.9820    5.0470   14.2825 C   0  0  0  0  0  0  0  0  0  0  0  0
   -3.3449    3.7198   14.2308 C   0  0  0  0  0  0  0  0  0  0  0  0
   -2.9804    3.1113   13.2451 O   0  0  0  0  0  0  0  0  0  0  0  0
   -3.2338    3.2707   15.6317 C   0  0  0  0  0  0  0  0  0  0  0  0
   -2.7086    2.0953   16.1432 C   0  0  0  0  0  0  0  0  0  0  0  0
   -2.0575    0.8937   15.1061 Cl  0  0  0  0  0  0  0  0  0  0  0  0
   -2.7168    1.9021   17.5230 C   0  0  0  0  0  0  0  0  0  0  0  0
   -3.2425    2.8734   18.3560 C   0  0  0  0  0  0  0  0  0  0  0  0
   -3.7727    4.0569   17.8549 C   0  0  0  0  0  0  0  0  0  0  0  0
   -3.7678    4.2552   16.4845 C   0  0  0  0  0  0  0  0  0  0  0  0
   -4.2437    5.3745   15.6695 C   0  0  0  0  0  0  0  0  0  0  0  0
   -4.8287    6.5126   16.1627 C   0  0  0  0  0  0  0  0  0  0  0  0
   -5.2931    7.6052   15.4003 C   0  0  0  0  0  0  0  0  0  0  0  0
   -5.7044    8.5358   14.8665 N   0  0  0  0  0  0  0  0  0  0  0  0
   -5.0569    6.7610   17.5329 C   0  0  0  0  0  0  0  0  0  0  0  0
   -5.2697    7.0368   18.6269 N   0  0  0  0  0  0  0  0  0  0  0  0
    5.8036   -8.7085   -6.6652 H   0  0  0  0  0  0  0  0  0  0  0  0
    3.6070  -13.3352   -0.8941 H   0  0  0  0  0  0  0  0  0  0  0  0
    4.9729  -14.6897   -2.4252 H   0  0  0  0  0  0  0  0  0  0  0  0
    5.8776  -13.7384   -4.4965 H   0  0  0  0  0  0  0  0  0  0  0  0
    7.6410   -7.7417   -9.1096 H   0  0  0  0  0  0  0  0  0  0  0  0
    9.6810   -8.9495   -8.4901 H   0  0  0  0  0  0  0  0  0  0  0  0
   11.6830   -8.8730   -6.7306 H   0  0  0  0  0  0  0  0  0  0  0  0
   11.1588   -8.9195   -5.0415 H   0  0  0  0  0  0  0  0  0  0  0  0
   10.6751  -10.1972   -6.1621 H   0  0  0  0  0  0  0  0  0  0  0  0
    9.2916   -7.5684   -4.4726 H   0  0  0  0  0  0  0  0  0  0  0  0
    7.2604   -6.3410   -5.0881 H   0  0  0  0  0  0  0  0  0  0  0  0
    8.1171   -4.9792   -8.6649 H   0  0  0  0  0  0  0  0  0  0  0  0
    8.0803   -4.0188  -10.9245 H   0  0  0  0  0  0  0  0  0  0  0  0
    6.3777   -2.9608  -12.7206 H   0  0  0  0  0  0  0  0  0  0  0  0
    5.0738   -4.0723  -13.1637 H   0  0  0  0  0  0  0  0  0  0  0  0
    6.7603   -4.5735  -13.3083 H   0  0  0  0  0  0  0  0  0  0  0  0
    3.9833   -5.1338  -11.3356 H   0  0  0  0  0  0  0  0  0  0  0  0
    4.0209   -6.1177   -9.0906 H   0  0  0  0  0  0  0  0  0  0  0  0
   -0.1987   -5.3578   -2.9688 H   0  0  0  0  0  0  0  0  0  0  0  0
    0.1364   -6.7051   -0.9397 H   0  0  0  0  0  0  0  0  0  0  0  0
    2.8908   -7.9637    0.1988 H   0  0  0  0  0  0  0  0  0  0  0  0
    3.0763   -6.5348    1.2108 H   0  0  0  0  0  0  0  0  0  0  0  0
    1.4774   -7.2661    0.9896 H   0  0  0  0  0  0  0  0  0  0  0  0
    4.2047   -5.4391   -0.7630 H   0  0  0  0  0  0  0  0  0  0  0  0
    3.8687   -4.0752   -2.7822 H   0  0  0  0  0  0  0  0  0  0  0  0
    0.2732   -3.4710   -6.4537 H   0  0  0  0  0  0  0  0  0  0  0  0
   -1.6825   -2.0164   -6.6924 H   0  0  0  0  0  0  0  0  0  0  0  0
   -3.4638   -0.7190   -5.6833 H   0  0  0  0  0  0  0  0  0  0  0  0
   -3.5208   -0.4838   -3.9292 H   0  0  0  0  0  0  0  0  0  0  0  0
   -2.4996    0.5473   -4.9274 H   0  0  0  0  0  0  0  0  0  0  0  0
   -1.5272   -1.0910   -2.5353 H   0  0  0  0  0  0  0  0  0  0  0  0
    0.4095   -2.5806   -2.2777 H   0  0  0  0  0  0  0  0  0  0  0  0
   -0.4256   -0.7594   -8.2141 H   0  0  0  0  0  0  0  0  0  0  0  0
   -0.6399   -1.0891  -10.6453 H   0  0  0  0  0  0  0  0  0  0  0  0
    1.3595   -1.5196  -12.0157 H   0  0  0  0  0  0  0  0  0  0  0  0
    4.6790   -2.2171  -10.6372 H   0  0  0  0  0  0  0  0  0  0  0  0
    3.6989   -2.1565  -12.1115 H   0  0  0  0  0  0  0  0  0  0  0  0
    4.8237    0.2759  -10.6426 H   0  0  0  0  0  0  0  0  0  0  0  0
    5.4552   -0.3966  -12.1487 H   0  0  0  0  0  0  0  0  0  0  0  0
    3.8468    0.3328  -12.1092 H   0  0  0  0  0  0  0  0  0  0  0  0
    3.7991   -1.2825   -8.5279 H   0  0  0  0  0  0  0  0  0  0  0  0
   -3.3631    8.7926    1.4901 H   0  0  0  0  0  0  0  0  0  0  0  0
   -4.9150   10.6951    1.7096 H   0  0  0  0  0  0  0  0  0  0  0  0
   -7.0546   10.4168    2.8926 H   0  0  0  0  0  0  0  0  0  0  0  0
   -8.7635    8.9070    3.7329 H   0  0  0  0  0  0  0  0  0  0  0  0
   -8.4388    7.1746    3.8897 H   0  0  0  0  0  0  0  0  0  0  0  0
   -7.0729    7.6141    5.9303 H   0  0  0  0  0  0  0  0  0  0  0  0
   -7.3808    9.3388    5.7726 H   0  0  0  0  0  0  0  0  0  0  0  0
   -8.7162    8.2332    6.1257 H   0  0  0  0  0  0  0  0  0  0  0  0
   -6.1488    6.3040    3.5607 H   0  0  0  0  0  0  0  0  0  0  0  0
    1.3832    2.0174   -0.8950 H   0  0  0  0  0  0  0  0  0  0  0  0
    1.8238    0.5113   -1.7343 H   0  0  0  0  0  0  0  0  0  0  0  0
    2.8022    3.3212   -2.4642 H   0  0  0  0  0  0  0  0  0  0  0  0
    3.7323    2.1183   -1.5609 H   0  0  0  0  0  0  0  0  0  0  0  0
    3.3092    1.8205   -3.2468 H   0  0  0  0  0  0  0  0  0  0  0  0
   -0.4810    1.3705   -0.3261 H   0  0  0  0  0  0  0  0  0  0  0  0
   -1.6500    1.9078    0.8816 H   0  0  0  0  0  0  0  0  0  0  0  0
    1.2367    2.9234    0.9011 H   0  0  0  0  0  0  0  0  0  0  0  0
    0.0022    3.1495    2.1291 H   0  0  0  0  0  0  0  0  0  0  0  0
    0.6583    1.5407    1.8402 H   0  0  0  0  0  0  0  0  0  0  0  0
   -2.7634    3.7237    5.5338 H   0  0  0  0  0  0  0  0  0  0  0  0
   -2.1615   -0.8999    9.9391 H   0  0  0  0  0  0  0  0  0  0  0  0
   -0.7151   -1.0905    8.9295 H   0  0  0  0  0  0  0  0  0  0  0  0
   -2.1618   -1.4749    6.9352 H   0  0  0  0  0  0  0  0  0  0  0  0
   -2.5206   -2.6452    8.2087 H   0  0  0  0  0  0  0  0  0  0  0  0
   -3.6034   -1.2751    7.9371 H   0  0  0  0  0  0  0  0  0  0  0  0
   -3.9607    9.3721    6.8908 H   0  0  0  0  0  0  0  0  0  0  0  0
   -5.5715   11.3588    7.2702 H   0  0  0  0  0  0  0  0  0  0  0  0
   -7.7489   11.0634   10.2975 H   0  0  0  0  0  0  0  0  0  0  0  0
   -7.4906   12.0928    8.8797 H   0  0  0  0  0  0  0  0  0  0  0  0
   -9.8445   11.2778    8.9991 H   0  0  0  0  0  0  0  0  0  0  0  0
   -9.2737    9.6061    8.9654 H   0  0  0  0  0  0  0  0  0  0  0  0
   -9.0398   10.6472    7.5578 H   0  0  0  0  0  0  0  0  0  0  0  0
   -4.8952    7.5132   11.1842 H   0  0  0  0  0  0  0  0  0  0  0  0
   -4.7442    6.7940   13.4175 H   0  0  0  0  0  0  0  0  0  0  0  0
   -2.3101    0.9908   17.9317 H   0  0  0  0  0  0  0  0  0  0  0  0
   -3.2413    2.7092   19.4227 H   0  0  0  0  0  0  0  0  0  0  0  0
   -4.1738    4.7923   18.5317 H   0  0  0  0  0  0  0  0  0  0  0  0
  1  2  2  0  0  0  0
  2  3  1  0  0  0  0
  3  4  2  0  0  0  0
  3  5  1  0  0  0  0
  5  6  2  0  0  0  0
  6  7  1  0  0  0  0
  6  8  1  0  0  0  0
  8  9  2  0  0  0  0
  9 10  1  0  0  0  0
 10 11  2  0  0  0  0
 11 12  1  0  0  0  0
 12 13  2  0  0  0  0
 13 14  1  0  0  0  0
 14 15  3  0  0  0  0
 13 16  1  0  0  0  0
 16 17  3  0  0  0  0
  1 18  1  0  0  0  0
 18 19  2  0  0  0  0
 19 20  1  0  0  0  0
 20 21  1  0  0  0  0
 21 22  2  0  0  0  0
 22 23  1  0  0  0  0
 23 24  2  0  0  0  0
 24 25  1  0  0  0  0
 24 26  1  0  0  0  0
 26 27  2  0  0  0  0
 20 28  1  0  0  0  0
 28 29  2  0  0  0  0
 29 30  1  0  0  0  0
 30 31  2  0  0  0  0
 31 32  1  0  0  0  0
 31 33  1  0  0  0  0
 33 34  2  0  0  0  0
 19 35  1  0  0  0  0
 35 36  1  0  0  0  0
 36 37  1  0  0  0  0
 37 38  2  0  0  0  0
 38 39  1  0  0  0  0
 39 40  1  0  0  0  0
 40 41  2  0  0  0  0
 41 42  1  0  0  0  0
 42 43  2  0  0  0  0
 43 44  1  0  0  0  0
 43 45  1  0  0  0  0
 45 46  2  0  0  0  0
 39 47  1  0  0  0  0
 47 48  2  0  0  0  0
 48 49  1  0  0  0  0
 49 50  2  0  0  0  0
 50 51  1  0  0  0  0
 50 52  1  0  0  0  0
 52 53  2  0  0  0  0
 38 54  1  0  0  0  0
 54 55  1  0  0  0  0
 37 56  1  0  0  0  0
 56 57  2  0  0  0  0
 57 58  1  0  0  0  0
 58 59  2  0  0  0  0
 59 60  1  0  0  0  0
 60 61  2  0  0  0  0
 61 62  1  0  0  0  0
 62 63  1  0  0  0  0
 63 64  1  0  0  0  0
 62 65  2  0  0  0  0
 57 66  1  0  0  0  0
 66 67  1  0  0  0  0
 67 68  1  0  0  0  0
 68 69  1  0  0  0  0
 69 70  1  0  0  0  0
 70 71  1  0  0  0  0
 71 72  2  0  0  0  0
 72 73  1  0  0  0  0
 73 74  1  0  0  0  0
 71 75  1  0  0  0  0
 75 76  1  0  0  0  0
 76 77  1  0  0  0  0
 77 78  1  0  0  0  0
 78 79  1  0  0  0  0
 79 80  1  0  0  0  0
 80 81  2  0  0  0  0
 81 82  1  0  0  0  0
 82 83  2  0  0  0  0
 83 84  1  0  0  0  0
 84 85  1  0  0  0  0
 85 86  1  0  0  0  0
 84 87  2  0  0  0  0
 79 88  2  0  0  0  0
 88 89  1  0  0  0  0
 89 90  1  0  0  0  0
 90 91  1  0  0  0  0
 91 92  1  0  0  0  0
 92 93  1  0  0  0  0
 93 94  1  0  0  0  0
 94 95  1  0  0  0  0
 95 96  1  0  0  0  0
 96 97  1  0  0  0  0
 97 98  1  0  0  0  0
 95 99  1  0  0  0  0
 99100  1  0  0  0  0
 92101  1  0  0  0  0
101102  1  0  0  0  0
 88103  1  0  0  0  0
103104  2  0  0  0  0
104105  1  0  0  0  0
105106  2  0  0  0  0
106107  1  0  0  0  0
107108  1  0  0  0  0
108109  1  0  0  0  0
109110  1  0  0  0  0
110111  1  0  0  0  0
109112  2  0  0  0  0
112113  1  0  0  0  0
112114  1  0  0  0  0
114115  1  0  0  0  0
106116  1  0  0  0  0
116117  2  0  0  0  0
117118  1  0  0  0  0
118119  1  0  0  0  0
119120  2  0  0  0  0
120121  1  0  0  0  0
121122  2  0  0  0  0
122123  1  0  0  0  0
123124  1  0  0  0  0
122125  1  0  0  0  0
118126  2  0  0  0  0
126127  1  0  0  0  0
117128  1  0  0  0  0
128129  2  0  0  0  0
129130  1  0  0  0  0
129131  1  0  0  0  0
131132  2  0  0  0  0
132133  1  0  0  0  0
133134  2  0  0  0  0
133135  1  0  0  0  0
135136  2  0  0  0  0
136137  1  0  0  0  0
136138  1  0  0  0  0
138139  2  0  0  0  0
139140  1  0  0  0  0
140141  2  0  0  0  0
141142  1  0  0  0  0
142143  2  0  0  0  0
143144  1  0  0  0  0
144145  3  0  0  0  0
143146  1  0  0  0  0
146147  3  0  0  0  0
 12  2  1  0  0  0  0
 55 18  1  0  0  0  0
 98 56  1  0  0  0  0
127103  1  0  0  0  0
142132  1  0  0  0  0
 11  5  1  0  0  0  0
 27 21  1  0  0  0  0
 34 28  1  0  0  0  0
 54 35  2  0  0  0  0
 65 58  1  0  0  0  0
 97 66  2  0  0  0  0
126105  1  0  0  0  0
141135  1  0  0  0  0
 46 40  1  0  0  0  0
 53 47  1  0  0  0  0
 96 68  2  0  0  0  0
114107  2  0  0  0  0
130116  1  0  0  0  0
 94 69  2  0  0  0  0
125119  1  0  0  0  0
 74 70  2  0  0  0  0
 93 75  2  0  0  0  0
 91 76  2  0  0  0  0
 90 78  2  0  0  0  0
 87 80  1  0  0  0  0
  1148  1  0  0  0  0
  8149  1  0  0  0  0
  9150  1  0  0  0  0
 10151  1  0  0  0  0
 22152  1  0  0  0  0
 23153  1  0  0  0  0
 25154  1  0  0  0  0
 25155  1  0  0  0  0
 25156  1  0  0  0  0
 26157  1  0  0  0  0
 27158  1  0  0  0  0
 29159  1  0  0  0  0
 30160  1  0  0  0  0
 32161  1  0  0  0  0
 32162  1  0  0  0  0
 32163  1  0  0  0  0
 33164  1  0  0  0  0
 34165  1  0  0  0  0
 41166  1  0  0  0  0
 42167  1  0  0  0  0
 44168  1  0  0  0  0
 44169  1  0  0  0  0
 44170  1  0  0  0  0
 45171  1  0  0  0  0
 46172  1  0  0  0  0
 48173  1  0  0  0  0
 49174  1  0  0  0  0
 51175  1  0  0  0  0
 51176  1  0  0  0  0
 51177  1  0  0  0  0
 52178  1  0  0  0  0
 53179  1  0  0  0  0
 59180  1  0  0  0  0
 60181  1  0  0  0  0
 61182  1  0  0  0  0
 63183  1  0  0  0  0
 63184  1  0  0  0  0
 64185  1  0  0  0  0
 64186  1  0  0  0  0
 64187  1  0  0  0  0
 65188  1  0  0  0  0
 81189  1  0  0  0  0
 82190  1  0  0  0  0
 83191  1  0  0  0  0
 85192  1  0  0  0  0
 85193  1  0  0  0  0
 86194  1  0  0  0  0
 86195  1  0  0  0  0
 86196  1  0  0  0  0
 87197  1  0  0  0  0
 99198  1  0  0  0  0
 99199  1  0  0  0  0
100200  1  0  0  0  0
100201  1  0  0  0  0
100202  1  0  0  0  0
101203  1  0  0  0  0
101204  1  0  0  0  0
102205  1  0  0  0  0
102206  1  0  0  0  0
102207  1  0  0  0  0
104208  1  0  0  0  0
110209  1  0  0  0  0
110210  1  0  0  0  0
111211  1  0  0  0  0
111212  1  0  0  0  0
111213  1  0  0  0  0
120214  1  0  0  0  0
121215  1  0  0  0  0
123216  1  0  0  0  0
123217  1  0  0  0  0
124218  1  0  0  0  0
124219  1  0  0  0  0
124220  1  0  0  0  0
128221  1  0  0  0  0
131222  1  0  0  0  0
138223  1  0  0  0  0
139224  1  0  0  0  0
140225  1  0  0  0  0
M  END
