
  xtb     02072213003D
 energy: -411.201196965717 gnorm: 0.000420390586 xtb: 6.4.1 (unknown)
249274  0     0  0            999 V2000
   -6.4250   10.3343   -0.6222 C   0  0  0  0  0  0  0  0  0  0  0  0
   -6.5029   11.4913   -1.3705 C   0  0  0  0  0  0  0  0  0  0  0  0
   -5.3820   12.1742   -2.0169 C   0  0  0  0  0  0  0  0  0  0  0  0
   -4.1946   11.9275   -1.9033 O   0  0  0  0  0  0  0  0  0  0  0  0
   -5.9832   13.2242   -2.8651 C   0  0  0  0  0  0  0  0  0  0  0  0
   -5.3782   14.1442   -3.7032 C   0  0  0  0  0  0  0  0  0  0  0  0
   -3.6708   14.1921   -3.8794 Cl  0  0  0  0  0  0  0  0  0  0  0  0
   -6.1800   15.0405   -4.4077 C   0  0  0  0  0  0  0  0  0  0  0  0
   -7.5546   15.0022   -4.2627 C   0  0  0  0  0  0  0  0  0  0  0  0
   -8.1747   14.0839   -3.4219 C   0  0  0  0  0  0  0  0  0  0  0  0
   -7.3832   13.1908   -2.7222 C   0  0  0  0  0  0  0  0  0  0  0  0
   -7.7278   12.1341   -1.7675 C   0  0  0  0  0  0  0  0  0  0  0  0
   -9.0014   11.8460   -1.3354 C   0  0  0  0  0  0  0  0  0  0  0  0
   -9.3317   10.9306   -0.3186 C   0  0  0  0  0  0  0  0  0  0  0  0
   -9.6879   10.2321    0.5229 N   0  0  0  0  0  0  0  0  0  0  0  0
  -10.1682   12.4542   -1.8374 C   0  0  0  0  0  0  0  0  0  0  0  0
  -11.1644   12.8863   -2.2130 N   0  0  0  0  0  0  0  0  0  0  0  0
   -5.3227    9.5957   -0.2078 C   0  0  0  0  0  0  0  0  0  0  0  0
   -5.4344    8.3494    0.4679 C   0  0  0  0  0  0  0  0  0  0  0  0
   -6.5888    7.6356    0.6429 N   0  0  0  0  0  0  0  0  0  0  0  0
   -7.6053    7.5822   -0.3299 C   0  0  0  0  0  0  0  0  0  0  0  0
   -8.9385    7.5012    0.0634 C   0  0  0  0  0  0  0  0  0  0  0  0
   -9.9361    7.4495   -0.8895 C   0  0  0  0  0  0  0  0  0  0  0  0
   -9.6376    7.4873   -2.2464 C   0  0  0  0  0  0  0  0  0  0  0  0
  -10.7361    7.4761   -3.2639 C   0  0  0  0  0  0  0  0  0  0  0  0
   -8.3020    7.5476   -2.6277 C   0  0  0  0  0  0  0  0  0  0  0  0
   -7.2924    7.5842   -1.6871 C   0  0  0  0  0  0  0  0  0  0  0  0
   -6.7014    6.8103    1.7793 C   0  0  0  0  0  0  0  0  0  0  0  0
   -6.3315    7.2970    3.0309 C   0  0  0  0  0  0  0  0  0  0  0  0
   -6.4367    6.4900    4.1444 C   0  0  0  0  0  0  0  0  0  0  0  0
   -6.9156    5.1878    4.0444 C   0  0  0  0  0  0  0  0  0  0  0  0
   -7.0151    4.3256    5.2644 C   0  0  0  0  0  0  0  0  0  0  0  0
   -7.2909    4.7160    2.7932 C   0  0  0  0  0  0  0  0  0  0  0  0
   -7.1865    5.5119    1.6690 C   0  0  0  0  0  0  0  0  0  0  0  0
   -4.1806    7.9152    0.9216 C   0  0  0  0  0  0  0  0  0  0  0  0
   -3.6075    6.4821    1.7150 S   0  0  0  0  0  0  0  0  0  0  0  0
   -1.9486    7.0353    1.5584 C   0  0  0  0  0  0  0  0  0  0  0  0
   -1.8556    8.2642    0.9327 C   0  0  0  0  0  0  0  0  0  0  0  0
   -0.6475    8.8967    0.5758 N   0  0  0  0  0  0  0  0  0  0  0  0
   -0.3894   10.1830    1.0514 C   0  0  0  0  0  0  0  0  0  0  0  0
   -1.2007   10.7975    2.0021 C   0  0  0  0  0  0  0  0  0  0  0  0
   -0.8784   12.0457    2.4962 C   0  0  0  0  0  0  0  0  0  0  0  0
    0.2614   12.7167    2.0769 C   0  0  0  0  0  0  0  0  0  0  0  0
    0.5915   14.0794    2.6078 C   0  0  0  0  0  0  0  0  0  0  0  0
    1.0778   12.0913    1.1437 C   0  0  0  0  0  0  0  0  0  0  0  0
    0.7660   10.8462    0.6398 C   0  0  0  0  0  0  0  0  0  0  0  0
   -0.2247    8.5618   -0.7444 C   0  0  0  0  0  0  0  0  0  0  0  0
   -0.4583    9.4346   -1.8038 C   0  0  0  0  0  0  0  0  0  0  0  0
   -0.0690    9.0914   -3.0824 C   0  0  0  0  0  0  0  0  0  0  0  0
    0.5498    7.8727   -3.3416 C   0  0  0  0  0  0  0  0  0  0  0  0
    0.9795    7.5214   -4.7336 C   0  0  0  0  0  0  0  0  0  0  0  0
    0.7676    7.0054   -2.2807 C   0  0  0  0  0  0  0  0  0  0  0  0
    0.3862    7.3413   -0.9937 C   0  0  0  0  0  0  0  0  0  0  0  0
   -3.1301    8.7574    0.5747 C   0  0  0  0  0  0  0  0  0  0  0  0
   -3.6418   10.1244   -0.3442 S   0  0  0  0  0  0  0  0  0  0  0  0
   -0.8964    6.1514    1.9456 C   0  0  0  0  0  0  0  0  0  0  0  0
    0.3789    6.4453    2.3865 C   0  0  0  0  0  0  0  0  0  0  0  0
    0.8385    7.7549    2.8467 C   0  0  0  0  0  0  0  0  0  0  0  0
    0.0793    8.4765    3.7624 C   0  0  0  0  0  0  0  0  0  0  0  0
    0.5645    9.6659    4.2698 C   0  0  0  0  0  0  0  0  0  0  0  0
    1.7947   10.1484    3.8615 C   0  0  0  0  0  0  0  0  0  0  0  0
    2.5561    9.4481    2.9352 C   0  0  0  0  0  0  0  0  0  0  0  0
    3.9090    9.9449    2.5166 C   0  0  0  0  0  0  0  0  0  0  0  0
    4.9983    9.3118    3.3847 C   0  0  0  0  0  0  0  0  0  0  0  0
    2.0748    8.2449    2.4444 C   0  0  0  0  0  0  0  0  0  0  0  0
    1.1776    5.2835    2.4388 C   0  0  0  0  0  0  0  0  0  0  0  0
    2.8538    5.0151    2.8526 S   0  0  0  0  0  0  0  0  0  0  0  0
    2.6458    3.3282    2.5171 C   0  0  0  0  0  0  0  0  0  0  0  0
    3.4040    2.1423    2.4856 C   0  0  0  0  0  0  0  0  0  0  0  0
    4.7304    1.8374    2.8637 C   0  0  0  0  0  0  0  0  0  0  0  0
    5.1902    0.4770    2.7638 C   0  0  0  0  0  0  0  0  0  0  0  0
    6.4294    0.3314    3.2049 N   0  0  0  0  0  0  0  0  0  0  0  0
    6.9754    1.7741    3.6961 S   0  0  0  0  0  0  0  0  0  0  0  0
    5.6508    2.6450    3.3657 N   0  0  0  0  0  0  0  0  0  0  0  0
    4.3560   -0.4917    2.1606 C   0  0  0  0  0  0  0  0  0  0  0  0
    4.5945   -1.8112    1.7387 C   0  0  0  0  0  0  0  0  0  0  0  0
    5.8411   -3.0139    1.8038 S   0  0  0  0  0  0  0  0  0  0  0  0
    4.8356   -4.0721    0.8396 C   0  0  0  0  0  0  0  0  0  0  0  0
    5.0337   -5.3688    0.3327 C   0  0  0  0  0  0  0  0  0  0  0  0
    6.2695   -6.1190    0.5850 C   0  0  0  0  0  0  0  0  0  0  0  0
    7.0896   -6.5416   -0.4563 C   0  0  0  0  0  0  0  0  0  0  0  0
    8.2701   -7.2010   -0.1728 C   0  0  0  0  0  0  0  0  0  0  0  0
    8.6433   -7.4332    1.1395 C   0  0  0  0  0  0  0  0  0  0  0  0
    7.8433   -7.0055    2.1909 C   0  0  0  0  0  0  0  0  0  0  0  0
    8.2288   -7.2481    3.6230 C   0  0  0  0  0  0  0  0  0  0  0  0
    7.2745   -8.2321    4.3016 C   0  0  0  0  0  0  0  0  0  0  0  0
    6.6597   -6.3438    1.8985 C   0  0  0  0  0  0  0  0  0  0  0  0
    3.9311   -5.8015   -0.3848 C   0  0  0  0  0  0  0  0  0  0  0  0
    2.6525   -4.5913   -0.4498 S   0  0  0  0  0  0  0  0  0  0  0  0
    3.6071   -3.5068    0.4949 C   0  0  0  0  0  0  0  0  0  0  0  0
    3.4684   -2.2161    1.0160 C   0  0  0  0  0  0  0  0  0  0  0  0
    2.5265   -1.2211    1.0007 N   0  0  0  0  0  0  0  0  0  0  0  0
    3.0483   -0.1557    1.7157 C   0  0  0  0  0  0  0  0  0  0  0  0
    2.5301    1.1234    2.0246 C   0  0  0  0  0  0  0  0  0  0  0  0
    1.2630    1.6528    1.8543 N   0  0  0  0  0  0  0  0  0  0  0  0
    1.3446    2.9946    2.1301 C   0  0  0  0  0  0  0  0  0  0  0  0
    0.5053    4.1133    2.0828 C   0  0  0  0  0  0  0  0  0  0  0  0
   -1.1382    4.4313    1.6581 S   0  0  0  0  0  0  0  0  0  0  0  0
    0.0113    0.9424    2.0016 C   0  0  0  0  0  0  0  0  0  0  0  0
   -0.6302    1.2102    3.3626 C   0  0  0  0  0  0  0  0  0  0  0  0
    1.5050   -1.2233   -0.0284 C   0  0  0  0  0  0  0  0  0  0  0  0
    1.7028   -0.0931   -1.0330 C   0  0  0  0  0  0  0  0  0  0  0  0
    3.6714   -7.0499   -1.0063 C   0  0  0  0  0  0  0  0  0  0  0  0
    2.4671   -7.3989   -1.6019 C   0  0  0  0  0  0  0  0  0  0  0  0
    1.3366   -6.5622   -1.6523 N   0  0  0  0  0  0  0  0  0  0  0  0
    0.4021   -6.6589   -0.6042 C   0  0  0  0  0  0  0  0  0  0  0  0
    0.3947   -7.7403    0.2719 C   0  0  0  0  0  0  0  0  0  0  0  0
   -0.5323   -7.8006    1.2932 C   0  0  0  0  0  0  0  0  0  0  0  0
   -1.4679   -6.7903    1.4783 C   0  0  0  0  0  0  0  0  0  0  0  0
   -2.4834   -6.8951    2.5741 C   0  0  0  0  0  0  0  0  0  0  0  0
   -1.4315   -5.6980    0.6210 C   0  0  0  0  0  0  0  0  0  0  0  0
   -0.5078   -5.6239   -0.4029 C   0  0  0  0  0  0  0  0  0  0  0  0
    0.9378   -6.1861   -2.9478 C   0  0  0  0  0  0  0  0  0  0  0  0
   -0.3843   -6.2693   -3.3760 C   0  0  0  0  0  0  0  0  0  0  0  0
   -0.7213   -5.8888   -4.6590 C   0  0  0  0  0  0  0  0  0  0  0  0
    0.2391   -5.4296   -5.5540 C   0  0  0  0  0  0  0  0  0  0  0  0
   -0.1522   -5.0221   -6.9420 C   0  0  0  0  0  0  0  0  0  0  0  0
    1.5577   -5.3670   -5.1250 C   0  0  0  0  0  0  0  0  0  0  0  0
    1.9073   -5.7385   -3.8415 C   0  0  0  0  0  0  0  0  0  0  0  0
    2.5021   -8.7022   -2.1175 C   0  0  0  0  0  0  0  0  0  0  0  0
    1.3239   -9.6926   -2.8877 S   0  0  0  0  0  0  0  0  0  0  0  0
    2.4490  -11.0576   -2.8902 C   0  0  0  0  0  0  0  0  0  0  0  0
    3.7249  -10.6873   -2.4145 C   0  0  0  0  0  0  0  0  0  0  0  0
    4.8181  -11.4986   -2.3622 N   0  0  0  0  0  0  0  0  0  0  0  0
    5.7559  -11.3559   -1.3192 C   0  0  0  0  0  0  0  0  0  0  0  0
    5.3297  -11.1825   -0.0054 C   0  0  0  0  0  0  0  0  0  0  0  0
    6.2623  -11.0848    1.0081 C   0  0  0  0  0  0  0  0  0  0  0  0
    7.6249  -11.1686    0.7440 C   0  0  0  0  0  0  0  0  0  0  0  0
    8.6253  -11.0896    1.8549 C   0  0  0  0  0  0  0  0  0  0  0  0
    8.0356  -11.3298   -0.5733 C   0  0  0  0  0  0  0  0  0  0  0  0
    7.1165  -11.4208   -1.5993 C   0  0  0  0  0  0  0  0  0  0  0  0
    5.0476  -12.4813   -3.3410 C   0  0  0  0  0  0  0  0  0  0  0  0
    5.5206  -13.7377   -2.9748 C   0  0  0  0  0  0  0  0  0  0  0  0
    5.7375  -14.7014   -3.9399 C   0  0  0  0  0  0  0  0  0  0  0  0
    5.4907  -14.4422   -5.2831 C   0  0  0  0  0  0  0  0  0  0  0  0
    5.6786  -15.5039   -6.3201 C   0  0  0  0  0  0  0  0  0  0  0  0
    5.0349  -13.1777   -5.6402 C   0  0  0  0  0  0  0  0  0  0  0  0
    4.8185  -12.2034   -4.6870 C   0  0  0  0  0  0  0  0  0  0  0  0
    3.7046   -9.3647   -1.9181 C   0  0  0  0  0  0  0  0  0  0  0  0
    4.8410   -8.3520   -1.0839 S   0  0  0  0  0  0  0  0  0  0  0  0
    1.9877  -12.3277   -3.2560 C   0  0  0  0  0  0  0  0  0  0  0  0
    0.6916  -12.7810   -3.1793 C   0  0  0  0  0  0  0  0  0  0  0  0
    0.2457  -13.9088   -4.0227 C   0  0  0  0  0  0  0  0  0  0  0  0
    0.9398  -14.6420   -4.6957 O   0  0  0  0  0  0  0  0  0  0  0  0
   -1.2311  -13.9154   -3.9071 C   0  0  0  0  0  0  0  0  0  0  0  0
   -2.1590  -14.6975   -4.5658 C   0  0  0  0  0  0  0  0  0  0  0  0
   -3.5060  -14.4953   -4.3030 C   0  0  0  0  0  0  0  0  0  0  0  0
   -3.8944  -13.5210   -3.3924 C   0  0  0  0  0  0  0  0  0  0  0  0
   -5.5747  -13.2771   -3.0918 Cl  0  0  0  0  0  0  0  0  0  0  0  0
   -2.9715  -12.7324   -2.7118 C   0  0  0  0  0  0  0  0  0  0  0  0
   -1.6304  -12.9380   -2.9774 C   0  0  0  0  0  0  0  0  0  0  0  0
   -0.4323  -12.3153   -2.4127 C   0  0  0  0  0  0  0  0  0  0  0  0
   -0.3801  -11.6496   -1.2092 C   0  0  0  0  0  0  0  0  0  0  0  0
   -1.5049  -11.2377   -0.4725 C   0  0  0  0  0  0  0  0  0  0  0  0
   -2.3806  -10.8526    0.1639 N   0  0  0  0  0  0  0  0  0  0  0  0
    0.8267  -11.3832   -0.5363 C   0  0  0  0  0  0  0  0  0  0  0  0
    1.7878  -11.2072    0.0702 N   0  0  0  0  0  0  0  0  0  0  0  0
   -7.3746    9.9126   -0.3189 H   0  0  0  0  0  0  0  0  0  0  0  0
   -5.7172   15.7608   -5.0634 H   0  0  0  0  0  0  0  0  0  0  0  0
   -8.1624   15.7025   -4.8151 H   0  0  0  0  0  0  0  0  0  0  0  0
   -9.2479   14.0799   -3.3299 H   0  0  0  0  0  0  0  0  0  0  0  0
   -9.1867    7.4940    1.1130 H   0  0  0  0  0  0  0  0  0  0  0  0
  -10.9667    7.4003   -0.5723 H   0  0  0  0  0  0  0  0  0  0  0  0
  -11.4527    6.6863   -3.0464 H   0  0  0  0  0  0  0  0  0  0  0  0
  -10.3406    7.3269   -4.2654 H   0  0  0  0  0  0  0  0  0  0  0  0
  -11.2726    8.4249   -3.2431 H   0  0  0  0  0  0  0  0  0  0  0  0
   -8.0454    7.5582   -3.6773 H   0  0  0  0  0  0  0  0  0  0  0  0
   -6.2590    7.6225   -1.9995 H   0  0  0  0  0  0  0  0  0  0  0  0
   -5.9724    8.3117    3.1227 H   0  0  0  0  0  0  0  0  0  0  0  0
   -6.1498    6.8778    5.1110 H   0  0  0  0  0  0  0  0  0  0  0  0
   -7.4965    3.3786    5.0353 H   0  0  0  0  0  0  0  0  0  0  0  0
   -7.5868    4.8298    6.0420 H   0  0  0  0  0  0  0  0  0  0  0  0
   -6.0215    4.1217    5.6627 H   0  0  0  0  0  0  0  0  0  0  0  0
   -7.6656    3.7078    2.6927 H   0  0  0  0  0  0  0  0  0  0  0  0
   -7.4748    5.1307    0.7006 H   0  0  0  0  0  0  0  0  0  0  0  0
   -2.0849   10.2974    2.3673 H   0  0  0  0  0  0  0  0  0  0  0  0
   -1.5285   12.5061    3.2270 H   0  0  0  0  0  0  0  0  0  0  0  0
    0.0449   14.8424    2.0521 H   0  0  0  0  0  0  0  0  0  0  0  0
    0.3114   14.1651    3.6558 H   0  0  0  0  0  0  0  0  0  0  0  0
    1.6545   14.2874    2.5086 H   0  0  0  0  0  0  0  0  0  0  0  0
    1.9788   12.5845    0.8070 H   0  0  0  0  0  0  0  0  0  0  0  0
    1.4229   10.3746   -0.0755 H   0  0  0  0  0  0  0  0  0  0  0  0
   -0.9493   10.3786   -1.6174 H   0  0  0  0  0  0  0  0  0  0  0  0
   -0.2581    9.7764   -3.8963 H   0  0  0  0  0  0  0  0  0  0  0  0
    1.8741    8.0840   -5.0020 H   0  0  0  0  0  0  0  0  0  0  0  0
    0.2012    7.7738   -5.4511 H   0  0  0  0  0  0  0  0  0  0  0  0
    1.2057    6.4613   -4.8165 H   0  0  0  0  0  0  0  0  0  0  0  0
    1.2460    6.0524   -2.4583 H   0  0  0  0  0  0  0  0  0  0  0  0
    0.5693    6.6578   -0.1808 H   0  0  0  0  0  0  0  0  0  0  0  0
   -0.8764    8.0904    4.0860 H   0  0  0  0  0  0  0  0  0  0  0  0
   -0.0188   10.2196    4.9904 H   0  0  0  0  0  0  0  0  0  0  0  0
    2.1649   11.0815    4.2601 H   0  0  0  0  0  0  0  0  0  0  0  0
    4.0880    9.6893    1.4705 H   0  0  0  0  0  0  0  0  0  0  0  0
    3.9493   11.0310    2.6157 H   0  0  0  0  0  0  0  0  0  0  0  0
    5.9811    9.6673    3.0839 H   0  0  0  0  0  0  0  0  0  0  0  0
    4.8419    9.5658    4.4307 H   0  0  0  0  0  0  0  0  0  0  0  0
    4.9752    8.2285    3.2897 H   0  0  0  0  0  0  0  0  0  0  0  0
    2.6586    7.6892    1.7248 H   0  0  0  0  0  0  0  0  0  0  0  0
    6.8137   -6.3303   -1.4787 H   0  0  0  0  0  0  0  0  0  0  0  0
    8.9088   -7.5278   -0.9797 H   0  0  0  0  0  0  0  0  0  0  0  0
    9.5794   -7.9327    1.3460 H   0  0  0  0  0  0  0  0  0  0  0  0
    8.2066   -6.3000    4.1660 H   0  0  0  0  0  0  0  0  0  0  0  0
    9.2478   -7.6380    3.6698 H   0  0  0  0  0  0  0  0  0  0  0  0
    7.5858   -8.4129    5.3279 H   0  0  0  0  0  0  0  0  0  0  0  0
    7.2629   -9.1804    3.7701 H   0  0  0  0  0  0  0  0  0  0  0  0
    6.2616   -7.8379    4.3128 H   0  0  0  0  0  0  0  0  0  0  0  0
    6.0288   -5.9928    2.7022 H   0  0  0  0  0  0  0  0  0  0  0  0
    0.2156   -0.1226    1.9299 H   0  0  0  0  0  0  0  0  0  0  0  0
   -0.6713    1.2459    1.2010 H   0  0  0  0  0  0  0  0  0  0  0  0
    0.0651    0.9581    4.1607 H   0  0  0  0  0  0  0  0  0  0  0  0
   -0.9171    2.2524    3.4649 H   0  0  0  0  0  0  0  0  0  0  0  0
   -1.5210    0.5971    3.4687 H   0  0  0  0  0  0  0  0  0  0  0  0
    0.5014   -1.1794    0.4003 H   0  0  0  0  0  0  0  0  0  0  0  0
    1.5916   -2.1849   -0.5405 H   0  0  0  0  0  0  0  0  0  0  0  0
    1.5883    0.8782   -0.5599 H   0  0  0  0  0  0  0  0  0  0  0  0
    2.6975   -0.1503   -1.4689 H   0  0  0  0  0  0  0  0  0  0  0  0
    0.9685   -0.1820   -1.8288 H   0  0  0  0  0  0  0  0  0  0  0  0
    1.1044   -8.5455    0.1543 H   0  0  0  0  0  0  0  0  0  0  0  0
   -0.5374   -8.6587    1.9489 H   0  0  0  0  0  0  0  0  0  0  0  0
   -3.1410   -6.0294    2.5826 H   0  0  0  0  0  0  0  0  0  0  0  0
   -1.9923   -6.9706    3.5436 H   0  0  0  0  0  0  0  0  0  0  0  0
   -3.0865   -7.7916    2.4375 H   0  0  0  0  0  0  0  0  0  0  0  0
   -2.1372   -4.8899    0.7542 H   0  0  0  0  0  0  0  0  0  0  0  0
   -0.4866   -4.7668   -1.0598 H   0  0  0  0  0  0  0  0  0  0  0  0
   -1.1430   -6.6446   -2.7060 H   0  0  0  0  0  0  0  0  0  0  0  0
   -1.7512   -5.9614   -4.9780 H   0  0  0  0  0  0  0  0  0  0  0  0
    0.7188   -4.7264   -7.5213 H   0  0  0  0  0  0  0  0  0  0  0  0
   -0.6483   -5.8454   -7.4545 H   0  0  0  0  0  0  0  0  0  0  0  0
   -0.8481   -4.1842   -6.9100 H   0  0  0  0  0  0  0  0  0  0  0  0
    2.3252   -5.0201   -5.8023 H   0  0  0  0  0  0  0  0  0  0  0  0
    2.9378   -5.6802   -3.5223 H   0  0  0  0  0  0  0  0  0  0  0  0
    4.2732  -11.1513    0.2156 H   0  0  0  0  0  0  0  0  0  0  0  0
    5.9228  -10.9612    2.0260 H   0  0  0  0  0  0  0  0  0  0  0  0
    9.5837  -11.4988    1.5448 H   0  0  0  0  0  0  0  0  0  0  0  0
    8.2753  -11.6361    2.7285 H   0  0  0  0  0  0  0  0  0  0  0  0
    8.7749  -10.0504    2.1445 H   0  0  0  0  0  0  0  0  0  0  0  0
    9.0901  -11.3897   -0.8006 H   0  0  0  0  0  0  0  0  0  0  0  0
    7.4457  -11.5512   -2.6198 H   0  0  0  0  0  0  0  0  0  0  0  0
    5.7032  -13.9535   -1.9328 H   0  0  0  0  0  0  0  0  0  0  0  0
    6.0935  -15.6766   -3.6422 H   0  0  0  0  0  0  0  0  0  0  0  0
    4.7228  -15.9886   -6.5214 H   0  0  0  0  0  0  0  0  0  0  0  0
    6.3788  -16.2629   -5.9804 H   0  0  0  0  0  0  0  0  0  0  0  0
    6.0404  -15.0771   -7.2529 H   0  0  0  0  0  0  0  0  0  0  0  0
    4.8463  -12.9537   -6.6798 H   0  0  0  0  0  0  0  0  0  0  0  0
    4.4655  -11.2243   -4.9765 H   0  0  0  0  0  0  0  0  0  0  0  0
    2.6937  -13.0262   -3.6907 H   0  0  0  0  0  0  0  0  0  0  0  0
   -1.8346  -15.4494   -5.2683 H   0  0  0  0  0  0  0  0  0  0  0  0
   -4.2571  -15.0880   -4.8008 H   0  0  0  0  0  0  0  0  0  0  0  0
   -3.3083  -11.9839   -2.0129 H   0  0  0  0  0  0  0  0  0  0  0  0
  1  2  2  0  0  0  0
  2  3  1  0  0  0  0
  3  4  2  0  0  0  0
  3  5  1  0  0  0  0
  5  6  2  0  0  0  0
  6  7  1  0  0  0  0
  6  8  1  0  0  0  0
  8  9  2  0  0  0  0
  9 10  1  0  0  0  0
 10 11  2  0  0  0  0
 11 12  1  0  0  0  0
 12 13  2  0  0  0  0
 13 14  1  0  0  0  0
 14 15  3  0  0  0  0
 13 16  1  0  0  0  0
 16 17  3  0  0  0  0
  1 18  1  0  0  0  0
 18 19  2  0  0  0  0
 19 20  1  0  0  0  0
 20 21  1  0  0  0  0
 21 22  2  0  0  0  0
 22 23  1  0  0  0  0
 23 24  2  0  0  0  0
 24 25  1  0  0  0  0
 24 26  1  0  0  0  0
 26 27  2  0  0  0  0
 20 28  1  0  0  0  0
 28 29  2  0  0  0  0
 29 30  1  0  0  0  0
 30 31  2  0  0  0  0
 31 32  1  0  0  0  0
 31 33  1  0  0  0  0
 33 34  2  0  0  0  0
 19 35  1  0  0  0  0
 35 36  1  0  0  0  0
 36 37  1  0  0  0  0
 37 38  2  0  0  0  0
 38 39  1  0  0  0  0
 39 40  1  0  0  0  0
 40 41  2  0  0  0  0
 41 42  1  0  0  0  0
 42 43  2  0  0  0  0
 43 44  1  0  0  0  0
 43 45  1  0  0  0  0
 45 46  2  0  0  0  0
 39 47  1  0  0  0  0
 47 48  2  0  0  0  0
 48 49  1  0  0  0  0
 49 50  2  0  0  0  0
 50 51  1  0  0  0  0
 50 52  1  0  0  0  0
 52 53  2  0  0  0  0
 38 54  1  0  0  0  0
 54 55  1  0  0  0  0
 37 56  1  0  0  0  0
 56 57  2  0  0  0  0
 57 58  1  0  0  0  0
 58 59  2  0  0  0  0
 59 60  1  0  0  0  0
 60 61  2  0  0  0  0
 61 62  1  0  0  0  0
 62 63  1  0  0  0  0
 63 64  1  0  0  0  0
 62 65  2  0  0  0  0
 57 66  1  0  0  0  0
 66 67  1  0  0  0  0
 67 68  1  0  0  0  0
 68 69  1  0  0  0  0
 69 70  1  0  0  0  0
 70 71  1  0  0  0  0
 71 72  2  0  0  0  0
 72 73  1  0  0  0  0
 73 74  1  0  0  0  0
 71 75  1  0  0  0  0
 75 76  1  0  0  0  0
 76 77  1  0  0  0  0
 77 78  1  0  0  0  0
 78 79  1  0  0  0  0
 79 80  1  0  0  0  0
 80 81  2  0  0  0  0
 81 82  1  0  0  0  0
 82 83  2  0  0  0  0
 83 84  1  0  0  0  0
 84 85  1  0  0  0  0
 85 86  1  0  0  0  0
 84 87  2  0  0  0  0
 79 88  2  0  0  0  0
 88 89  1  0  0  0  0
 89 90  1  0  0  0  0
 90 91  1  0  0  0  0
 91 92  1  0  0  0  0
 92 93  1  0  0  0  0
 93 94  1  0  0  0  0
 94 95  1  0  0  0  0
 95 96  1  0  0  0  0
 96 97  1  0  0  0  0
 97 98  1  0  0  0  0
 95 99  1  0  0  0  0
 99100  1  0  0  0  0
 92101  1  0  0  0  0
101102  1  0  0  0  0
 88103  1  0  0  0  0
103104  2  0  0  0  0
104105  1  0  0  0  0
105106  1  0  0  0  0
106107  2  0  0  0  0
107108  1  0  0  0  0
108109  2  0  0  0  0
109110  1  0  0  0  0
109111  1  0  0  0  0
111112  2  0  0  0  0
105113  1  0  0  0  0
113114  2  0  0  0  0
114115  1  0  0  0  0
115116  2  0  0  0  0
116117  1  0  0  0  0
116118  1  0  0  0  0
118119  2  0  0  0  0
104120  1  0  0  0  0
120121  1  0  0  0  0
121122  1  0  0  0  0
122123  2  0  0  0  0
123124  1  0  0  0  0
124125  1  0  0  0  0
125126  2  0  0  0  0
126127  1  0  0  0  0
127128  2  0  0  0  0
128129  1  0  0  0  0
128130  1  0  0  0  0
130131  2  0  0  0  0
124132  1  0  0  0  0
132133  2  0  0  0  0
133134  1  0  0  0  0
134135  2  0  0  0  0
135136  1  0  0  0  0
135137  1  0  0  0  0
137138  2  0  0  0  0
123139  1  0  0  0  0
139140  1  0  0  0  0
122141  1  0  0  0  0
141142  2  0  0  0  0
142143  1  0  0  0  0
143144  2  0  0  0  0
143145  1  0  0  0  0
145146  2  0  0  0  0
146147  1  0  0  0  0
147148  2  0  0  0  0
148149  1  0  0  0  0
148150  1  0  0  0  0
150151  2  0  0  0  0
151152  1  0  0  0  0
152153  2  0  0  0  0
153154  1  0  0  0  0
154155  3  0  0  0  0
153156  1  0  0  0  0
156157  3  0  0  0  0
 12  2  1  0  0  0  0
 55 18  1  0  0  0  0
 98 56  1  0  0  0  0
140103  1  0  0  0  0
152142  1  0  0  0  0
 11  5  1  0  0  0  0
 27 21  1  0  0  0  0
 34 28  1  0  0  0  0
 54 35  2  0  0  0  0
 65 58  1  0  0  0  0
 97 66  2  0  0  0  0
112106  1  0  0  0  0
119113  1  0  0  0  0
139120  2  0  0  0  0
151145  1  0  0  0  0
 46 40  1  0  0  0  0
 53 47  1  0  0  0  0
 96 68  2  0  0  0  0
131125  1  0  0  0  0
138132  1  0  0  0  0
 94 69  2  0  0  0  0
 74 70  2  0  0  0  0
 93 75  2  0  0  0  0
 91 76  2  0  0  0  0
 90 78  2  0  0  0  0
 87 80  1  0  0  0  0
  1158  1  0  0  0  0
  8159  1  0  0  0  0
  9160  1  0  0  0  0
 10161  1  0  0  0  0
 22162  1  0  0  0  0
 23163  1  0  0  0  0
 25164  1  0  0  0  0
 25165  1  0  0  0  0
 25166  1  0  0  0  0
 26167  1  0  0  0  0
 27168  1  0  0  0  0
 29169  1  0  0  0  0
 30170  1  0  0  0  0
 32171  1  0  0  0  0
 32172  1  0  0  0  0
 32173  1  0  0  0  0
 33174  1  0  0  0  0
 34175  1  0  0  0  0
 41176  1  0  0  0  0
 42177  1  0  0  0  0
 44178  1  0  0  0  0
 44179  1  0  0  0  0
 44180  1  0  0  0  0
 45181  1  0  0  0  0
 46182  1  0  0  0  0
 48183  1  0  0  0  0
 49184  1  0  0  0  0
 51185  1  0  0  0  0
 51186  1  0  0  0  0
 51187  1  0  0  0  0
 52188  1  0  0  0  0
 53189  1  0  0  0  0
 59190  1  0  0  0  0
 60191  1  0  0  0  0
 61192  1  0  0  0  0
 63193  1  0  0  0  0
 63194  1  0  0  0  0
 64195  1  0  0  0  0
 64196  1  0  0  0  0
 64197  1  0  0  0  0
 65198  1  0  0  0  0
 81199  1  0  0  0  0
 82200  1  0  0  0  0
 83201  1  0  0  0  0
 85202  1  0  0  0  0
 85203  1  0  0  0  0
 86204  1  0  0  0  0
 86205  1  0  0  0  0
 86206  1  0  0  0  0
 87207  1  0  0  0  0
 99208  1  0  0  0  0
 99209  1  0  0  0  0
100210  1  0  0  0  0
100211  1  0  0  0  0
100212  1  0  0  0  0
101213  1  0  0  0  0
101214  1  0  0  0  0
102215  1  0  0  0  0
102216  1  0  0  0  0
102217  1  0  0  0  0
107218  1  0  0  0  0
108219  1  0  0  0  0
110220  1  0  0  0  0
110221  1  0  0  0  0
110222  1  0  0  0  0
111223  1  0  0  0  0
112224  1  0  0  0  0
114225  1  0  0  0  0
115226  1  0  0  0  0
117227  1  0  0  0  0
117228  1  0  0  0  0
117229  1  0  0  0  0
118230  1  0  0  0  0
119231  1  0  0  0  0
126232  1  0  0  0  0
127233  1  0  0  0  0
129234  1  0  0  0  0
129235  1  0  0  0  0
129236  1  0  0  0  0
130237  1  0  0  0  0
131238  1  0  0  0  0
133239  1  0  0  0  0
134240  1  0  0  0  0
136241  1  0  0  0  0
136242  1  0  0  0  0
136243  1  0  0  0  0
137244  1  0  0  0  0
138245  1  0  0  0  0
141246  1  0  0  0  0
146247  1  0  0  0  0
147248  1  0  0  0  0
150249  1  0  0  0  0
M  END
