
  xtb     02032213283D
 energy: -286.718611954242 gnorm: 0.000809664950 xtb: 6.4.1 (unknown)
160176  0     0  0            999 V2000
    2.2931   -4.9823   10.6396 C   0  0  0  0  0  0  0  0  0  0  0  0
    3.0065   -5.9351   11.3160 C   0  0  0  0  0  0  0  0  0  0  0  0
    3.6652   -7.1377   10.7516 C   0  0  0  0  0  0  0  0  0  0  0  0
    3.5418   -7.6104    9.6395 O   0  0  0  0  0  0  0  0  0  0  0  0
    4.5620   -7.6313   11.8130 C   0  0  0  0  0  0  0  0  0  0  0  0
    5.4532   -8.6932   11.7889 C   0  0  0  0  0  0  0  0  0  0  0  0
    5.6393   -9.6652   10.3879 Cl  0  0  0  0  0  0  0  0  0  0  0  0
    6.2040   -8.9639   12.9310 C   0  0  0  0  0  0  0  0  0  0  0  0
    6.0586   -8.1795   14.0614 C   0  0  0  0  0  0  0  0  0  0  0  0
    5.1683   -7.1123   14.0992 C   0  0  0  0  0  0  0  0  0  0  0  0
    4.4168   -6.8407   12.9689 C   0  0  0  0  0  0  0  0  0  0  0  0
    3.4143   -5.8112   12.7039 C   0  0  0  0  0  0  0  0  0  0  0  0
    2.8997   -4.9475   13.6336 C   0  0  0  0  0  0  0  0  0  0  0  0
    1.8543   -4.0265   13.4026 C   0  0  0  0  0  0  0  0  0  0  0  0
    0.9969   -3.2694   13.3047 N   0  0  0  0  0  0  0  0  0  0  0  0
    3.3192   -4.8877   14.9801 C   0  0  0  0  0  0  0  0  0  0  0  0
    3.6150   -4.7820   16.0838 N   0  0  0  0  0  0  0  0  0  0  0  0
    1.7850   -5.0093    9.3250 C   0  0  0  0  0  0  0  0  0  0  0  0
    1.5730   -6.0526    8.4486 C   0  0  0  0  0  0  0  0  0  0  0  0
    1.0513   -5.6724    7.2059 C   0  0  0  0  0  0  0  0  0  0  0  0
    0.8562   -6.6476    6.1181 C   0  0  0  0  0  0  0  0  0  0  0  0
    0.0912   -6.5028    5.1948 O   0  0  0  0  0  0  0  0  0  0  0  0
    1.6036   -7.7567    6.1859 O   0  0  0  0  0  0  0  0  0  0  0  0
    0.8219   -4.2906    7.1117 C   0  0  0  0  0  0  0  0  0  0  0  0
    1.2789   -3.5010    8.5891 S   0  0  0  0  0  0  0  0  0  0  0  0
    0.3715   -3.4895    6.0360 C   0  0  0  0  0  0  0  0  0  0  0  0
    0.5732   -2.1171    5.9432 C   0  0  0  0  0  0  0  0  0  0  0  0
    0.0776   -1.5981    4.7571 C   0  0  0  0  0  0  0  0  0  0  0  0
    0.1677   -0.0365    3.9861 S   0  0  0  0  0  0  0  0  0  0  0  0
   -0.6054   -0.7066    2.5861 C   0  0  0  0  0  0  0  0  0  0  0  0
   -0.8522   -0.2672    1.2471 C   0  0  0  0  0  0  0  0  0  0  0  0
   -0.6171    0.9584    0.6301 C   0  0  0  0  0  0  0  0  0  0  0  0
   -0.8868    1.0466   -0.7156 C   0  0  0  0  0  0  0  0  0  0  0  0
   -0.6811    2.2384   -1.6358 C   0  0  0  0  0  0  0  0  0  0  0  0
    0.7582    2.6998   -1.5350 C   0  0  0  0  0  0  0  0  0  0  0  0
    1.7399    2.1692   -2.3585 C   0  0  0  0  0  0  0  0  0  0  0  0
    3.0606    2.5618   -2.2380 C   0  0  0  0  0  0  0  0  0  0  0  0
    3.4241    3.4832   -1.2665 C   0  0  0  0  0  0  0  0  0  0  0  0
    5.0679    4.0837   -1.0266 S   0  0  0  0  0  0  0  0  0  0  0  0
    6.1370    2.8319   -1.8189 C   0  0  0  0  0  0  0  0  0  0  0  0
    6.1041    1.5039   -1.0874 C   0  0  0  0  0  0  0  0  0  0  0  0
    2.4436    4.0136   -0.4312 C   0  0  0  0  0  0  0  0  0  0  0  0
    1.1277    3.6272   -0.5659 C   0  0  0  0  0  0  0  0  0  0  0  0
   -1.6589    3.3752   -1.3944 C   0  0  0  0  0  0  0  0  0  0  0  0
   -1.4512    4.5924   -2.0375 C   0  0  0  0  0  0  0  0  0  0  0  0
   -2.3541    5.6229   -1.8965 C   0  0  0  0  0  0  0  0  0  0  0  0
   -3.4895    5.4614   -1.1047 C   0  0  0  0  0  0  0  0  0  0  0  0
   -4.5532    6.8645   -0.9676 S   0  0  0  0  0  0  0  0  0  0  0  0
   -6.1391    6.1904   -0.3608 C   0  0  0  0  0  0  0  0  0  0  0  0
   -6.8229    5.3136   -1.3922 C   0  0  0  0  0  0  0  0  0  0  0  0
   -3.6986    4.2516   -0.4587 C   0  0  0  0  0  0  0  0  0  0  0  0
   -2.7938    3.2159   -0.6145 C   0  0  0  0  0  0  0  0  0  0  0  0
   -1.0393    1.6307   -2.9655 C   0  0  0  0  0  0  0  0  0  0  0  0
   -1.4699    0.3242   -2.8059 C   0  0  0  0  0  0  0  0  0  0  0  0
   -1.3736   -0.0705   -1.4349 C   0  0  0  0  0  0  0  0  0  0  0  0
   -1.6340   -1.2890   -0.8133 C   0  0  0  0  0  0  0  0  0  0  0  0
   -1.3616   -1.3792    0.5311 C   0  0  0  0  0  0  0  0  0  0  0  0
   -1.5638   -2.5677    1.4547 C   0  0  0  0  0  0  0  0  0  0  0  0
   -0.7898   -3.8302    1.1436 C   0  0  0  0  0  0  0  0  0  0  0  0
   -1.1471   -4.9982    1.8066 C   0  0  0  0  0  0  0  0  0  0  0  0
   -0.3553   -6.1268    1.7414 C   0  0  0  0  0  0  0  0  0  0  0  0
    0.8269   -6.0955    1.0151 C   0  0  0  0  0  0  0  0  0  0  0  0
    1.9666   -7.4423    0.9560 S   0  0  0  0  0  0  0  0  0  0  0  0
    1.5725   -8.4229    2.4507 C   0  0  0  0  0  0  0  0  0  0  0  0
    0.6143   -9.5645    2.1664 C   0  0  0  0  0  0  0  0  0  0  0  0
    1.1614   -4.9470    0.3018 C   0  0  0  0  0  0  0  0  0  0  0  0
    0.3650   -3.8213    0.3724 C   0  0  0  0  0  0  0  0  0  0  0  0
   -3.0604   -2.8090    1.5340 C   0  0  0  0  0  0  0  0  0  0  0  0
   -3.6804   -3.6049    0.5800 C   0  0  0  0  0  0  0  0  0  0  0  0
   -5.0486   -3.7987    0.5940 C   0  0  0  0  0  0  0  0  0  0  0  0
   -5.8235   -3.1987    1.5775 C   0  0  0  0  0  0  0  0  0  0  0  0
   -7.5810   -3.3455    1.6881 S   0  0  0  0  0  0  0  0  0  0  0  0
   -7.9783   -4.8579    0.7433 C   0  0  0  0  0  0  0  0  0  0  0  0
   -7.4343   -6.1086    1.4062 C   0  0  0  0  0  0  0  0  0  0  0  0
   -5.2080   -2.3923    2.5305 C   0  0  0  0  0  0  0  0  0  0  0  0
   -3.8431   -2.1945    2.5034 C   0  0  0  0  0  0  0  0  0  0  0  0
   -0.9702   -2.0331    2.7299 C   0  0  0  0  0  0  0  0  0  0  0  0
   -0.5612   -2.5613    3.9526 C   0  0  0  0  0  0  0  0  0  0  0  0
   -0.4965   -4.1310    4.6514 S   0  0  0  0  0  0  0  0  0  0  0  0
   -1.9411   -0.4511   -4.2802 S   0  0  0  0  0  0  0  0  0  0  0  0
   -1.5434    1.0028   -5.1487 C   0  0  0  0  0  0  0  0  0  0  0  0
   -1.5595    1.3460   -6.4972 C   0  0  0  0  0  0  0  0  0  0  0  0
   -1.1055    2.6363   -6.7027 C   0  0  0  0  0  0  0  0  0  0  0  0
   -0.6674    3.4362   -5.1945 S   0  0  0  0  0  0  0  0  0  0  0  0
   -1.0828    2.0262   -4.2996 C   0  0  0  0  0  0  0  0  0  0  0  0
   -0.9411    3.3293   -7.9258 C   0  0  0  0  0  0  0  0  0  0  0  0
   -1.2188    2.8866   -9.2284 C   0  0  0  0  0  0  0  0  0  0  0  0
   -1.7630    1.6310   -9.5479 C   0  0  0  0  0  0  0  0  0  0  0  0
   -2.2088    0.6144   -9.8379 N   0  0  0  0  0  0  0  0  0  0  0  0
   -0.9030    3.8261  -10.2163 C   0  0  0  0  0  0  0  0  0  0  0  0
   -0.3801    5.0019   -9.7138 C   0  0  0  0  0  0  0  0  0  0  0  0
   -0.2976    4.9304   -7.9582 S   0  0  0  0  0  0  0  0  0  0  0  0
    0.0666    6.2003  -10.3088 C   0  0  0  0  0  0  0  0  0  0  0  0
    0.2314    6.5631  -11.6170 C   0  0  0  0  0  0  0  0  0  0  0  0
    0.0740    5.7265  -12.8323 C   0  0  0  0  0  0  0  0  0  0  0  0
   -0.3703    4.6025  -12.9179 O   0  0  0  0  0  0  0  0  0  0  0  0
    0.5861    6.5470  -13.9475 C   0  0  0  0  0  0  0  0  0  0  0  0
    0.7193    6.2222  -15.2887 C   0  0  0  0  0  0  0  0  0  0  0  0
    0.2486    4.6825  -15.8802 Cl  0  0  0  0  0  0  0  0  0  0  0  0
    1.2488    7.1735  -16.1584 C   0  0  0  0  0  0  0  0  0  0  0  0
    1.6332    8.4141  -15.6815 C   0  0  0  0  0  0  0  0  0  0  0  0
    1.5014    8.7529  -14.3399 C   0  0  0  0  0  0  0  0  0  0  0  0
    0.9717    7.8137  -13.4711 C   0  0  0  0  0  0  0  0  0  0  0  0
    0.7087    7.8718  -12.0341 C   0  0  0  0  0  0  0  0  0  0  0  0
    0.8412    8.9939  -11.2597 C   0  0  0  0  0  0  0  0  0  0  0  0
    1.2935   10.2427  -11.7394 C   0  0  0  0  0  0  0  0  0  0  0  0
    1.6567   11.2860  -12.0511 N   0  0  0  0  0  0  0  0  0  0  0  0
    0.5233    9.1049   -9.8881 C   0  0  0  0  0  0  0  0  0  0  0  0
    0.2773    9.2957   -8.7825 N   0  0  0  0  0  0  0  0  0  0  0  0
    2.1169   -4.0461   11.1558 H   0  0  0  0  0  0  0  0  0  0  0  0
    6.8986   -9.7888   12.9228 H   0  0  0  0  0  0  0  0  0  0  0  0
    6.6512   -8.4008   14.9358 H   0  0  0  0  0  0  0  0  0  0  0  0
    5.0812   -6.5166   14.9924 H   0  0  0  0  0  0  0  0  0  0  0  0
    1.7569   -7.0706    8.7398 H   0  0  0  0  0  0  0  0  0  0  0  0
    2.2130   -7.7703    6.9394 H   0  0  0  0  0  0  0  0  0  0  0  0
    1.0963   -1.5488    6.6912 H   0  0  0  0  0  0  0  0  0  0  0  0
   -0.2276    1.7946    1.1898 H   0  0  0  0  0  0  0  0  0  0  0  0
    1.4782    1.4410   -3.1128 H   0  0  0  0  0  0  0  0  0  0  0  0
    3.7905    2.1441   -2.9132 H   0  0  0  0  0  0  0  0  0  0  0  0
    5.8475    2.7380   -2.8650 H   0  0  0  0  0  0  0  0  0  0  0  0
    7.1307    3.2773   -1.7736 H   0  0  0  0  0  0  0  0  0  0  0  0
    6.7704    0.7952   -1.5756 H   0  0  0  0  0  0  0  0  0  0  0  0
    5.0985    1.0879   -1.0797 H   0  0  0  0  0  0  0  0  0  0  0  0
    6.4282    1.6349   -0.0576 H   0  0  0  0  0  0  0  0  0  0  0  0
    2.7287    4.7333    0.3207 H   0  0  0  0  0  0  0  0  0  0  0  0
    0.3774    4.0549    0.0827 H   0  0  0  0  0  0  0  0  0  0  0  0
   -0.5731    4.7318   -2.6511 H   0  0  0  0  0  0  0  0  0  0  0  0
   -2.1919    6.5649   -2.3971 H   0  0  0  0  0  0  0  0  0  0  0  0
   -6.7324    7.0806   -0.1520 H   0  0  0  0  0  0  0  0  0  0  0  0
   -5.9592    5.6663    0.5772 H   0  0  0  0  0  0  0  0  0  0  0  0
   -6.2067    4.4520   -1.6416 H   0  0  0  0  0  0  0  0  0  0  0  0
   -7.7757    4.9591   -1.0037 H   0  0  0  0  0  0  0  0  0  0  0  0
   -7.0062    5.8792   -2.3027 H   0  0  0  0  0  0  0  0  0  0  0  0
   -4.5580    4.0969    0.1742 H   0  0  0  0  0  0  0  0  0  0  0  0
   -2.9802    2.2777   -0.1125 H   0  0  0  0  0  0  0  0  0  0  0  0
   -2.0111   -2.1272   -1.3782 H   0  0  0  0  0  0  0  0  0  0  0  0
   -2.0519   -5.0254    2.3958 H   0  0  0  0  0  0  0  0  0  0  0  0
   -0.6578   -7.0028    2.2892 H   0  0  0  0  0  0  0  0  0  0  0  0
    2.5367   -8.8088    2.7823 H   0  0  0  0  0  0  0  0  0  0  0  0
    1.1870   -7.7390    3.2051 H   0  0  0  0  0  0  0  0  0  0  0  0
    1.0439  -10.2469    1.4361 H   0  0  0  0  0  0  0  0  0  0  0  0
    0.4193  -10.1124    3.0862 H   0  0  0  0  0  0  0  0  0  0  0  0
   -0.3314   -9.1976    1.7739 H   0  0  0  0  0  0  0  0  0  0  0  0
    2.0693   -4.9376   -0.2819 H   0  0  0  0  0  0  0  0  0  0  0  0
    0.6562   -2.9239   -0.1543 H   0  0  0  0  0  0  0  0  0  0  0  0
   -3.0864   -4.0898   -0.1810 H   0  0  0  0  0  0  0  0  0  0  0  0
   -5.4958   -4.4129   -0.1715 H   0  0  0  0  0  0  0  0  0  0  0  0
   -9.0681   -4.8688    0.7250 H   0  0  0  0  0  0  0  0  0  0  0  0
   -7.6162   -4.7366   -0.2771 H   0  0  0  0  0  0  0  0  0  0  0  0
   -7.8359   -6.2050    2.4122 H   0  0  0  0  0  0  0  0  0  0  0  0
   -6.3486   -6.0740    1.4720 H   0  0  0  0  0  0  0  0  0  0  0  0
   -7.7204   -6.9867    0.8303 H   0  0  0  0  0  0  0  0  0  0  0  0
   -5.8138   -1.9225    3.2902 H   0  0  0  0  0  0  0  0  0  0  0  0
   -3.3843   -1.5633    3.2499 H   0  0  0  0  0  0  0  0  0  0  0  0
   -1.8757    0.6908   -7.2868 H   0  0  0  0  0  0  0  0  0  0  0  0
   -1.0475    3.6494  -11.2670 H   0  0  0  0  0  0  0  0  0  0  0  0
    0.3456    6.9468   -9.5742 H   0  0  0  0  0  0  0  0  0  0  0  0
    1.3567    6.9310  -17.2035 H   0  0  0  0  0  0  0  0  0  0  0  0
    2.0459    9.1377  -16.3676 H   0  0  0  0  0  0  0  0  0  0  0  0
    1.8140    9.7257  -14.0000 H   0  0  0  0  0  0  0  0  0  0  0  0
  1  2  2  0  0  0  0
  2  3  1  0  0  0  0
  3  4  2  0  0  0  0
  3  5  1  0  0  0  0
  5  6  2  0  0  0  0
  6  7  1  0  0  0  0
  6  8  1  0  0  0  0
  8  9  2  0  0  0  0
  9 10  1  0  0  0  0
 10 11  2  0  0  0  0
 11 12  1  0  0  0  0
 12 13  2  0  0  0  0
 13 14  1  0  0  0  0
 14 15  3  0  0  0  0
 13 16  1  0  0  0  0
 16 17  3  0  0  0  0
  1 18  1  0  0  0  0
 18 19  2  0  0  0  0
 19 20  1  0  0  0  0
 20 21  1  0  0  0  0
 21 22  2  0  0  0  0
 21 23  1  0  0  0  0
 20 24  2  0  0  0  0
 24 25  1  0  0  0  0
 24 26  1  0  0  0  0
 26 27  2  0  0  0  0
 27 28  1  0  0  0  0
 28 29  1  0  0  0  0
 29 30  1  0  0  0  0
 30 31  1  0  0  0  0
 31 32  2  0  0  0  0
 32 33  1  0  0  0  0
 33 34  1  0  0  0  0
 34 35  1  0  0  0  0
 35 36  2  0  0  0  0
 36 37  1  0  0  0  0
 37 38  2  0  0  0  0
 38 39  1  0  0  0  0
 39 40  1  0  0  0  0
 40 41  1  0  0  0  0
 38 42  1  0  0  0  0
 42 43  2  0  0  0  0
 34 44  1  0  0  0  0
 44 45  2  0  0  0  0
 45 46  1  0  0  0  0
 46 47  2  0  0  0  0
 47 48  1  0  0  0  0
 48 49  1  0  0  0  0
 49 50  1  0  0  0  0
 47 51  1  0  0  0  0
 51 52  2  0  0  0  0
 34 53  1  0  0  0  0
 53 54  2  0  0  0  0
 54 55  1  0  0  0  0
 55 56  1  0  0  0  0
 56 57  2  0  0  0  0
 57 58  1  0  0  0  0
 58 59  1  0  0  0  0
 59 60  2  0  0  0  0
 60 61  1  0  0  0  0
 61 62  2  0  0  0  0
 62 63  1  0  0  0  0
 63 64  1  0  0  0  0
 64 65  1  0  0  0  0
 62 66  1  0  0  0  0
 66 67  2  0  0  0  0
 58 68  1  0  0  0  0
 68 69  2  0  0  0  0
 69 70  1  0  0  0  0
 70 71  2  0  0  0  0
 71 72  1  0  0  0  0
 72 73  1  0  0  0  0
 73 74  1  0  0  0  0
 71 75  1  0  0  0  0
 75 76  2  0  0  0  0
 58 77  1  0  0  0  0
 77 78  1  0  0  0  0
 78 79  1  0  0  0  0
 54 80  1  0  0  0  0
 80 81  1  0  0  0  0
 81 82  1  0  0  0  0
 82 83  2  0  0  0  0
 83 84  1  0  0  0  0
 84 85  1  0  0  0  0
 83 86  1  0  0  0  0
 86 87  2  0  0  0  0
 87 88  1  0  0  0  0
 88 89  3  0  0  0  0
 87 90  1  0  0  0  0
 90 91  2  0  0  0  0
 91 92  1  0  0  0  0
 91 93  1  0  0  0  0
 93 94  2  0  0  0  0
 94 95  1  0  0  0  0
 95 96  2  0  0  0  0
 95 97  1  0  0  0  0
 97 98  2  0  0  0  0
 98 99  1  0  0  0  0
 98100  1  0  0  0  0
100101  2  0  0  0  0
101102  1  0  0  0  0
102103  2  0  0  0  0
103104  1  0  0  0  0
104105  2  0  0  0  0
105106  1  0  0  0  0
106107  3  0  0  0  0
105108  1  0  0  0  0
108109  3  0  0  0  0
 12  2  1  0  0  0  0
 25 18  1  0  0  0  0
 79 26  1  0  0  0  0
 85 81  2  0  0  0  0
 92 86  1  0  0  0  0
104 94  1  0  0  0  0
 11  5  1  0  0  0  0
 78 28  2  0  0  0  0
103 97  1  0  0  0  0
 77 30  2  0  0  0  0
 57 31  1  0  0  0  0
 67 59  1  0  0  0  0
 76 68  1  0  0  0  0
 55 33  2  0  0  0  0
 43 35  1  0  0  0  0
 52 44  1  0  0  0  0
 85 53  1  0  0  0  0
  1110  1  0  0  0  0
  8111  1  0  0  0  0
  9112  1  0  0  0  0
 10113  1  0  0  0  0
 19114  1  0  0  0  0
 23115  1  0  0  0  0
 27116  1  0  0  0  0
 32117  1  0  0  0  0
 36118  1  0  0  0  0
 37119  1  0  0  0  0
 40120  1  0  0  0  0
 40121  1  0  0  0  0
 41122  1  0  0  0  0
 41123  1  0  0  0  0
 41124  1  0  0  0  0
 42125  1  0  0  0  0
 43126  1  0  0  0  0
 45127  1  0  0  0  0
 46128  1  0  0  0  0
 49129  1  0  0  0  0
 49130  1  0  0  0  0
 50131  1  0  0  0  0
 50132  1  0  0  0  0
 50133  1  0  0  0  0
 51134  1  0  0  0  0
 52135  1  0  0  0  0
 56136  1  0  0  0  0
 60137  1  0  0  0  0
 61138  1  0  0  0  0
 64139  1  0  0  0  0
 64140  1  0  0  0  0
 65141  1  0  0  0  0
 65142  1  0  0  0  0
 65143  1  0  0  0  0
 66144  1  0  0  0  0
 67145  1  0  0  0  0
 69146  1  0  0  0  0
 70147  1  0  0  0  0
 73148  1  0  0  0  0
 73149  1  0  0  0  0
 74150  1  0  0  0  0
 74151  1  0  0  0  0
 74152  1  0  0  0  0
 75153  1  0  0  0  0
 76154  1  0  0  0  0
 82155  1  0  0  0  0
 90156  1  0  0  0  0
 93157  1  0  0  0  0
100158  1  0  0  0  0
101159  1  0  0  0  0
102160  1  0  0  0  0
M  END
