173

C         -6.08440        0.02820       -6.59370
C         -5.13020        0.71150       -7.27340
C         -5.45680        1.28580       -8.61580
O         -6.39850        0.99570       -9.31500
C         -4.42230        2.30540       -8.85250
C         -4.31540        3.23510       -9.87450
C         -3.25610        4.11840       -9.85760
C         -2.30430        4.08760       -8.82700
O         -1.32070        5.00710       -8.91620
C         -0.31400        5.03460       -7.92850
C         -2.40910        3.14900       -7.79800
C         -3.46780        2.25800       -7.82210
C         -3.80410        1.16450       -6.91350
C         -2.92030        0.55310       -6.05930
C         -3.20140       -0.63380       -5.35540
N         -3.36080       -1.60800       -4.76870
C         -1.63300        1.04030       -5.77330
N         -0.58830        1.41510       -5.47070
C         -6.12900       -0.27760       -5.19700
C         -6.86750       -1.35950       -4.72560
F         -7.58280       -2.09270       -5.59090
C         -6.84280       -1.75200       -3.39220
F         -7.60590       -2.79730       -3.03400
C         -6.06500       -1.09460       -2.43960
C         -5.45920        0.12840       -2.85390
N         -4.80570        0.88280       -1.94780
C         -4.22220        1.98450       -2.34640
O         -3.54130        2.75280       -1.50440
C         -3.48910        2.34930       -0.13900
C         -2.64410        3.36780        0.60530
C         -4.31750        2.43130       -3.70420
N         -4.94120        1.70170       -4.58130
C         -5.49350        0.52810       -4.21010
C         -3.70520        3.72020       -4.12790
C         -5.81740       -1.62950       -1.13530
C         -5.70450       -2.96290       -0.76260
C         -5.70610       -4.12400       -1.65240
C         -4.98100       -4.11350       -2.84240
C         -4.95370       -5.24490       -3.63380
C         -5.63020       -6.38930       -3.24690
C         -6.34480       -6.41910       -2.05670
C         -7.02660       -7.67290       -1.59110
C         -6.11960       -8.43720       -0.62420
C         -6.37300       -5.28080       -1.26580
C         -5.38230       -3.08160        0.59990
S         -4.89600       -4.46340        1.55300
C         -4.39690       -3.38570        2.80900
C         -3.61110       -3.43470        3.97870
C         -3.00180       -4.48980        4.69410
C         -2.02780       -4.17840        5.71030
N         -1.53990       -5.26460        6.28630
S         -2.23990       -6.56330        5.62080
N         -3.18750       -5.79260        4.55880
C         -1.62500       -2.83380        5.88490
C         -0.45270       -2.26780        6.42040
S          1.06710       -2.77930        7.08600
C          1.75540       -1.20620        6.72210
C          3.07930       -0.70670        6.65090
C          4.29070       -1.38420        7.09630
C          4.37140       -2.77400        7.14680
C          5.55180       -3.38580        7.52240
C          6.66660       -2.62860        7.83760
C          6.60090       -1.24130        7.81180
C          7.81390       -0.39780        8.08040
C          8.45300        0.02550        6.75570
C          5.40640       -0.63440        7.46270
C          3.09740        0.55090        6.07370
S          1.49460        1.17650        5.73730
C          0.79980       -0.32000        6.22380
C         -0.45200       -0.92090        6.04900
N         -1.60080       -0.60900        5.37670
C         -2.31260       -1.78210        5.21640
C         -3.38640       -2.08800        4.35250
N         -4.11880       -1.23810        3.52510
C         -4.66920       -2.03880        2.53930
C         -5.22900       -1.86140        1.26830
S         -5.49550       -0.53310        0.19040
C         -4.85790       -0.10030        4.05030
C         -4.86160        1.10330        3.11640
C         -1.66630        0.61390        4.61030
C         -1.16060        0.40580        3.18440
C          4.15740        1.24590        5.37550
C          4.21200        2.63030        5.32260
F          3.48160        3.35840        6.19100
C          4.93480        3.31090        4.33910
F          4.85160        4.65160        4.29110
C          5.60210        2.63170        3.33870
C          5.69850        1.22030        3.46220
N          6.46760        0.54780        2.58460
C          6.50510       -0.75570        2.66140
O          7.25690       -1.46230        1.82120
C          7.99410       -0.73500        0.84100
C          9.21650       -0.04180        1.42520
C          5.73290       -1.47220        3.63780
N          5.01200       -0.81960        4.49880
C          4.98960        0.52840        4.46920
C          5.75850       -2.95840        3.68450
C          6.07720        3.27820        2.13190
C          5.65380        2.85680        0.91870
C          4.46220        1.97130        0.72120
O          3.84460        1.35140        1.56120
C          4.12150        2.09840       -0.69850
C          3.04860        1.55500       -1.38050
C          2.88860        1.83940       -2.72520
C          3.79700        2.67490       -3.38390
O          3.70650        3.01910       -4.68130
C          2.65990        2.48750       -5.46850
C          4.89010        3.22450       -2.69220
C          5.04990        2.93270       -1.35400
C          6.06480        3.34510       -0.38860
C          7.24530        3.97360       -0.66590
C          8.24630        4.21940        0.29970
N          9.10790        4.42080        1.03020
C          7.63130        4.40000       -1.95470
N          7.99520        4.77040       -2.97790
H         -6.94490       -0.28000       -7.17940
H         -5.05040        3.25840      -10.66380
H         -3.13150        4.85690      -10.63340
H          0.22610        4.08440       -7.87920
H          0.37020        5.82510       -8.23120
H         -0.72710        5.27090       -6.94320
H         -1.69080        3.12300       -6.99680
H         -3.06200        1.34240       -0.07600
H         -4.50920        2.30950        0.25750
H         -2.62480        3.13270        1.66500
H         -3.06270        4.36200        0.47530
H         -1.62740        3.36790        0.22150
H         -3.96950        3.93000       -5.16050
H         -2.62180        3.65690       -4.02880
H         -4.04750        4.52630       -3.48220
H         -4.43120       -3.23280       -3.13900
H         -4.39450       -5.23230       -4.55760
H         -5.60190       -7.26880       -3.87430
H         -7.26270       -8.30840       -2.44660
H         -7.96010       -7.41980       -1.08460
H         -5.18980       -8.71270       -1.11720
H         -6.61040       -9.34340       -0.27680
H         -5.87790       -7.81890        0.23740
H         -6.93880       -5.28460       -0.34530
H          3.51940       -3.37560        6.87170
H          5.60740       -4.46420        7.55670
H          7.59140       -3.11590        8.11140
H          7.53030        0.49400        8.64310
H          8.54060       -0.95890        8.67060
H          7.74220        0.59070        6.15520
H          9.32870        0.64540        6.93290
H          8.75600       -0.85080        6.18610
H          5.34260        0.44410        7.47260
H         -4.42910        0.15180        5.02210
H         -5.89520       -0.41230        4.23010
H         -5.49230        0.91020        2.25460
H         -3.86120        1.32580        2.75910
H         -5.25330        1.96990        3.64280
H         -2.67920        1.00740        4.60670
H         -1.02860        1.33950        5.12150
H         -1.15410        1.35270        2.65170
H         -0.14490        0.01800        3.20160
H         -1.79380       -0.29880        2.65030
H          7.33130        0.00070        0.37290
H          8.28740       -1.48960        0.10750
H          9.84760       -0.76310        1.93870
H          8.90990        0.72820        2.12780
H          9.78710        0.42150        0.62560
H          6.77560       -3.30280        3.86320
H          5.10750       -3.30680        4.48000
H          5.43670       -3.36470        2.72720
H          6.73080        4.13470        2.23410
H          2.34980        0.91650       -0.86200
H          2.05250        1.41510       -3.25750
H          2.80490        2.90790       -6.46190
H          2.71680        1.39730       -5.52600
H          1.67690        2.77650       -5.08900
H          5.56370        3.86750       -3.23420
