157

C         -1.60250        6.73280       -6.58760
C         -0.71190        7.73520       -6.76190
C         -1.22380        9.10920       -7.07690
O         -2.34330        9.39080       -7.43630
C         -0.09650       10.00760       -6.80070
C         -0.05600       11.38850       -6.78490
C          1.12880       12.02490       -6.45360
C          2.26850       11.28180       -6.13310
O          3.45640       11.81440       -5.78310
C          3.59850       13.21550       -5.72760
C          2.23170        9.87880       -6.15890
C          1.05350        9.25010       -6.49520
C          0.72860        7.83120       -6.62120
C          1.63660        6.82550       -6.80540
C          1.28630        5.49910       -7.12220
N          1.05190        4.40970       -7.39880
C          3.03590        7.00870       -6.77380
N          4.18000        7.09290       -6.76370
C         -1.44380        5.44100       -5.97950
C         -0.56210        5.16020       -4.94590
F          0.20390        6.13600       -4.42310
C         -0.43060        3.88100       -4.40690
F          0.50120        3.70200       -3.45260
C         -1.18060        2.80530       -4.85730
C         -2.19750        3.09420       -5.81170
N         -3.10370        2.14340       -6.11880
C         -3.98850        2.40660       -7.04420
O         -4.94410        1.53750       -7.34760
C         -5.01570        0.34100       -6.57170
C         -5.78630       -0.69650       -7.36720
C         -3.98080        3.65400       -7.76000
N         -3.17140        4.60280       -7.39630
C         -2.29200        4.37660       -6.39480
C         -4.91550        3.88050       -8.89360
C         -0.95520        1.46050       -4.38880
C         -0.97860        0.28700       -5.12380
C         -1.13180        0.20960       -6.57560
C         -1.84330       -0.84590       -7.14320
C         -2.03720       -0.89490       -8.51100
C         -1.52600        0.09990       -9.32450
C         -0.78100        1.14020       -8.78110
C         -0.16610        2.18730       -9.66290
C          1.21570        1.73610      -10.13990
C         -0.57560        1.17540       -7.41110
C         -0.76200       -0.83160       -4.29100
S         -0.65480       -2.54970       -4.60650
C         -0.33470       -2.81900       -2.92710
C         -0.03580       -3.87480       -2.05430
C          0.16600       -5.24730       -2.31420
C          0.57700       -6.10040       -1.23930
N          0.77130       -7.35060       -1.62870
S          0.45880       -7.44520       -3.21580
N          0.06460       -5.89430       -3.46460
C          0.68400       -5.55650        0.05880
C          0.96090       -6.17950        1.28300
S          1.33160       -7.75040        1.91360
C          1.31130       -7.08300        3.53520
C          1.46900       -7.64620        4.81070
C          1.68620       -9.07310        5.03470
C          0.97770       -9.76360        6.01690
C          1.18070      -11.11990        6.18810
C          2.08170      -11.79910        5.38710
C          2.78590      -11.13070        4.39240
C          3.78810      -11.85580        3.54180
C          5.17070      -11.81670        4.19600
C          2.58020       -9.77050        4.22610
C          1.34860       -6.68530        5.82250
S          1.00450       -5.09240        5.15450
C          1.04150       -5.70960        3.55050
C          0.84120       -5.19600        2.26820
N          0.50600       -3.99650        1.70340
C          0.41780       -4.17990        0.33590
C          0.13160       -3.31070       -0.75420
N         -0.03040       -1.94140       -0.86390
C         -0.31860       -1.64850       -2.16690
C         -0.55630       -0.50930       -2.94800
S         -0.62790        1.19340       -2.69060
C          0.20890       -0.85760        0.06010
C         -1.09420       -0.23590        0.56310
C          0.10210       -2.91890        2.58260
C          1.28980       -2.20560        3.22390
C          1.60050       -6.89790        7.19580
C          1.46700       -6.03080        8.24700
C          0.92290       -4.73520        8.18790
C          0.96380       -3.80140        9.18640
C          0.46840       -2.50950        8.94420
C          0.48470       -1.45260        9.81740
C          0.90540       -1.51910       11.23800
O          1.38140       -2.46760       11.82840
C          0.60860       -0.18750       11.79420
C          0.77450        0.28160       13.08630
C          0.40740        1.58070       13.37170
C         -0.12710        2.41350       12.37840
O         -0.45270        3.66150       12.77930
C         -0.99440        4.56530       11.84060
C         -0.29360        1.94130       11.07410
C          0.08060        0.63960       10.78950
C          0.04100       -0.11030        9.53380
C         -0.29390        0.41060        8.30540
C         -0.72020        1.73790        8.10150
N         -1.08070        2.80390        7.86760
C         -0.22490       -0.26610        7.07250
N         -0.17820       -0.71820        6.01550
H         -2.61120        6.94200       -6.92940
H         -0.94040       11.95780       -7.02660
H          1.15810       13.10270       -6.44190
H          3.42550       13.67520       -6.70530
H          2.92330       13.65800       -4.98910
H          4.62900       13.39200       -5.42460
H          3.12760        9.34020       -5.89800
H         -4.00030        0.00280       -6.35110
H         -5.52180        0.57160       -5.62660
H         -5.87650       -1.60890       -6.78530
H         -5.26240       -0.91600       -8.29340
H         -6.77980       -0.32750       -7.60720
H         -4.72440        3.14770       -9.67580
H         -5.94270        3.74340       -8.56030
H         -4.78040        4.88410       -9.28480
H         -2.25680       -1.61950       -6.51340
H         -2.59630       -1.71270       -8.94250
H         -1.69620        0.06610      -10.39140
H         -0.80800        2.36580      -10.52870
H         -0.06200        3.12080       -9.10820
H          1.87280        1.58510       -9.28720
H          1.65740        2.49010      -10.78690
H          1.14370        0.80040      -10.69100
H          0.02680        1.96900       -6.99460
H          0.24630       -9.24380        6.61800
H          0.62620      -11.65210        6.94700
H          2.23230      -12.85990        5.52620
H          3.84150      -11.38910        2.55660
H          3.48010      -12.89510        3.41270
H          5.50210      -10.78800        4.31950
H          5.89670      -12.34400        3.58190
H          5.13940      -12.28590        5.17700
H          3.13100       -9.23870        3.46410
H          0.77490       -0.08920       -0.47790
H          0.82990       -1.21190        0.87730
H         -1.59550        0.28870       -0.24570
H         -1.77670       -0.99230        0.94520
H         -0.87960        0.47600        1.35490
H         -0.53960       -2.22830        2.04510
H         -0.49600       -3.36600        3.38410
H          1.89190       -2.91240        3.78820
H          1.93400       -1.73400        2.48490
H          0.92130       -1.45000        3.91180
H          2.00000       -7.88070        7.41590
H          1.82250       -6.36590        9.21250
H          0.43470       -4.43180        7.27240
H          1.41520       -4.02110       10.14200
H          0.04950       -2.34130        7.95890
H          1.18480       -0.36420       13.84700
H          0.52020        1.98950       14.36320
H         -1.16310        5.48950       12.39010
H         -1.94510        4.20380       11.43800
H         -0.29990        4.75400       11.01690
H         -0.70710        2.57490       10.30900
