
  xtb     02102222393D
 energy: -319.597269460933 gnorm: 0.000422100056 xtb: 6.4.1 (unknown)
210226  0     0  0            999 V2000
    2.2213   -7.6934    1.5487 C   0  0  0  0  0  0  0  0  0  0  0  0
    1.9794   -7.8313    2.8927 C   0  0  0  0  0  0  0  0  0  0  0  0
    1.4299   -6.7971    3.7786 C   0  0  0  0  0  0  0  0  0  0  0  0
    1.0706   -5.6723    3.4720 O   0  0  0  0  0  0  0  0  0  0  0  0
    1.4098   -7.3877    5.1234 C   0  0  0  0  0  0  0  0  0  0  0  0
    0.9963   -6.8326    6.3168 C   0  0  0  0  0  0  0  0  0  0  0  0
    1.0734   -7.5901    7.4752 C   0  0  0  0  0  0  0  0  0  0  0  0
    1.5642   -8.8956    7.4316 C   0  0  0  0  0  0  0  0  0  0  0  0
    1.6782   -9.7090    8.5045 O   0  0  0  0  0  0  0  0  0  0  0  0
    1.2768   -9.2403    9.7706 C   0  0  0  0  0  0  0  0  0  0  0  0
    1.9845   -9.4596    6.2163 C   0  0  0  0  0  0  0  0  0  0  0  0
    1.9053   -8.7052    5.0664 C   0  0  0  0  0  0  0  0  0  0  0  0
    2.2502   -9.0154    3.6769 C   0  0  0  0  0  0  0  0  0  0  0  0
    2.7059  -10.2284    3.2261 C   0  0  0  0  0  0  0  0  0  0  0  0
    2.9848  -10.5667    1.8852 C   0  0  0  0  0  0  0  0  0  0  0  0
    3.2250  -10.9447    0.8265 N   0  0  0  0  0  0  0  0  0  0  0  0
    2.9433  -11.3422    4.0581 C   0  0  0  0  0  0  0  0  0  0  0  0
    3.1639  -12.2893    4.6691 N   0  0  0  0  0  0  0  0  0  0  0  0
    1.9517   -6.6301    0.6801 C   0  0  0  0  0  0  0  0  0  0  0  0
    2.2404   -6.7158   -0.6950 C   0  0  0  0  0  0  0  0  0  0  0  0
    2.9060   -7.8910   -1.2875 C   0  0  0  0  0  0  0  0  0  0  0  0
    2.1494   -8.8712   -1.9317 C   0  0  0  0  0  0  0  0  0  0  0  0
    2.7910   -9.9839   -2.4529 C   0  0  0  0  0  0  0  0  0  0  0  0
    4.1630  -10.1457   -2.3484 C   0  0  0  0  0  0  0  0  0  0  0  0
    4.8428  -11.3427   -2.9463 C   0  0  0  0  0  0  0  0  0  0  0  0
    5.2414  -11.0644   -4.3970 C   0  0  0  0  0  0  0  0  0  0  0  0
    4.8989   -9.1561   -1.7151 C   0  0  0  0  0  0  0  0  0  0  0  0
    4.2918   -8.0336   -1.1759 C   0  0  0  0  0  0  0  0  0  0  0  0
    5.1366   -6.9707   -0.5277 C   0  0  0  0  0  0  0  0  0  0  0  0
    5.4874   -5.8705   -1.5311 C   0  0  0  0  0  0  0  0  0  0  0  0
    0.6503   -8.7783   -2.0110 C   0  0  0  0  0  0  0  0  0  0  0  0
    0.0030   -9.4442   -0.7949 C   0  0  0  0  0  0  0  0  0  0  0  0
    1.8348   -5.5956   -1.4025 C   0  0  0  0  0  0  0  0  0  0  0  0
    1.2509   -4.6303   -0.5928 C   0  0  0  0  0  0  0  0  0  0  0  0
    1.1913   -5.1058    1.0699 S   0  0  0  0  0  0  0  0  0  0  0  0
    0.7354   -3.3764   -1.0076 C   0  0  0  0  0  0  0  0  0  0  0  0
    0.2772   -2.5078   -0.0602 O   0  0  0  0  0  0  0  0  0  0  0  0
   -0.1538   -1.4322   -0.7231 C   0  0  0  0  0  0  0  0  0  0  0  0
   -0.7517   -0.1738   -0.4043 C   0  0  0  0  0  0  0  0  0  0  0  0
   -1.0005    0.4632   -1.6458 C   0  0  0  0  0  0  0  0  0  0  0  0
   -0.4895   -0.3658   -2.8194 C   0  0  0  0  0  0  0  0  0  0  0  0
   -1.5566   -0.7594   -3.8211 C   0  0  0  0  0  0  0  0  0  0  0  0
   -1.1672   -1.3313   -5.0269 C   0  0  0  0  0  0  0  0  0  0  0  0
   -2.1087   -1.6994   -5.9680 C   0  0  0  0  0  0  0  0  0  0  0  0
   -3.4646   -1.5146   -5.7287 C   0  0  0  0  0  0  0  0  0  0  0  0
   -4.4871   -1.8507   -6.7758 C   0  0  0  0  0  0  0  0  0  0  0  0
   -4.7830   -0.6253   -7.6432 C   0  0  0  0  0  0  0  0  0  0  0  0
   -3.8492   -0.9658   -4.5135 C   0  0  0  0  0  0  0  0  0  0  0  0
   -2.9104   -0.5978   -3.5662 C   0  0  0  0  0  0  0  0  0  0  0  0
    0.6213    0.4303   -3.4863 C   0  0  0  0  0  0  0  0  0  0  0  0
    0.3139    1.3515   -4.4795 C   0  0  0  0  0  0  0  0  0  0  0  0
    1.3091    2.1064   -5.0702 C   0  0  0  0  0  0  0  0  0  0  0  0
    2.6363    1.9648   -4.6864 C   0  0  0  0  0  0  0  0  0  0  0  0
    3.7123    2.8107   -5.3038 C   0  0  0  0  0  0  0  0  0  0  0  0
    3.9035    4.1011   -4.5042 C   0  0  0  0  0  0  0  0  0  0  0  0
    2.9366    1.0526   -3.6841 C   0  0  0  0  0  0  0  0  0  0  0  0
    1.9439    0.2970   -3.0877 C   0  0  0  0  0  0  0  0  0  0  0  0
    0.0111   -1.5815   -2.0929 C   0  0  0  0  0  0  0  0  0  0  0  0
    0.5884   -2.8365   -2.2838 C   0  0  0  0  0  0  0  0  0  0  0  0
   -1.6315    1.6840   -1.6955 C   0  0  0  0  0  0  0  0  0  0  0  0
   -1.9992    2.2576   -0.4825 C   0  0  0  0  0  0  0  0  0  0  0  0
   -2.7325    3.4427   -0.1781 C   0  0  0  0  0  0  0  0  0  0  0  0
   -2.8851    3.6118    1.1874 C   0  0  0  0  0  0  0  0  0  0  0  0
   -2.1452    2.5315    1.9293 C   0  0  0  0  0  0  0  0  0  0  0  0
   -1.6878    1.6577    0.7632 C   0  0  0  0  0  0  0  0  0  0  0  0
   -1.0765    0.4261    0.8114 C   0  0  0  0  0  0  0  0  0  0  0  0
   -0.9932    3.2197    2.6445 C   0  0  0  0  0  0  0  0  0  0  0  0
   -1.2798    4.0187    3.7450 C   0  0  0  0  0  0  0  0  0  0  0  0
   -0.2769    4.7217    4.3838 C   0  0  0  0  0  0  0  0  0  0  0  0
    1.0376    4.6462    3.9428 C   0  0  0  0  0  0  0  0  0  0  0  0
    2.1275    5.4486    4.5940 C   0  0  0  0  0  0  0  0  0  0  0  0
    2.4977    6.6524    3.7252 C   0  0  0  0  0  0  0  0  0  0  0  0
    1.3190    3.8400    2.8482 C   0  0  0  0  0  0  0  0  0  0  0  0
    0.3183    3.1386    2.2006 C   0  0  0  0  0  0  0  0  0  0  0  0
   -2.9911    1.7167    2.8826 C   0  0  0  0  0  0  0  0  0  0  0  0
   -4.3627    1.6065    2.7020 C   0  0  0  0  0  0  0  0  0  0  0  0
   -5.1222    0.8286    3.5560 C   0  0  0  0  0  0  0  0  0  0  0  0
   -4.5326    0.1370    4.6054 C   0  0  0  0  0  0  0  0  0  0  0  0
   -5.3528   -0.7436    5.5035 C   0  0  0  0  0  0  0  0  0  0  0  0
   -5.4220   -2.1639    4.9387 C   0  0  0  0  0  0  0  0  0  0  0  0
   -3.1579    0.2402    4.7741 C   0  0  0  0  0  0  0  0  0  0  0  0
   -2.3948    1.0193    3.9254 C   0  0  0  0  0  0  0  0  0  0  0  0
   -3.6455    4.7739    1.3574 C   0  0  0  0  0  0  0  0  0  0  0  0
   -3.9125    5.2244    0.0724 C   0  0  0  0  0  0  0  0  0  0  0  0
   -3.3500    4.4058   -0.8692 O   0  0  0  0  0  0  0  0  0  0  0  0
   -4.6385    6.3399   -0.3982 C   0  0  0  0  0  0  0  0  0  0  0  0
   -4.9865    6.7848   -1.6276 C   0  0  0  0  0  0  0  0  0  0  0  0
   -4.8122    6.1022   -2.9091 C   0  0  0  0  0  0  0  0  0  0  0  0
   -3.8225    6.5140   -3.8063 C   0  0  0  0  0  0  0  0  0  0  0  0
   -3.6211    5.7861   -4.9694 C   0  0  0  0  0  0  0  0  0  0  0  0
   -4.3704    4.6570   -5.2597 C   0  0  0  0  0  0  0  0  0  0  0  0
   -4.0731    3.8238   -6.4731 C   0  0  0  0  0  0  0  0  0  0  0  0
   -3.0340    2.7536   -6.1297 C   0  0  0  0  0  0  0  0  0  0  0  0
   -5.3542    4.2691   -4.3619 C   0  0  0  0  0  0  0  0  0  0  0  0
   -5.5858    4.9675   -3.1890 C   0  0  0  0  0  0  0  0  0  0  0  0
   -6.6878    4.5182   -2.2686 C   0  0  0  0  0  0  0  0  0  0  0  0
   -7.9364    5.3835   -2.4446 C   0  0  0  0  0  0  0  0  0  0  0  0
   -2.9655    7.7162   -3.5247 C   0  0  0  0  0  0  0  0  0  0  0  0
   -3.6030    8.9967   -4.0664 C   0  0  0  0  0  0  0  0  0  0  0  0
   -5.5315    8.1408   -1.2692 C   0  0  0  0  0  0  0  0  0  0  0  0
   -4.5060    8.8751   -0.5056 C   0  0  0  0  0  0  0  0  0  0  0  0
   -5.3231    7.7542    0.5482 S   0  0  0  0  0  0  0  0  0  0  0  0
   -3.3384    9.5055   -0.3833 C   0  0  0  0  0  0  0  0  0  0  0  0
   -2.5873    9.4541    0.8268 C   0  0  0  0  0  0  0  0  0  0  0  0
   -2.8523    8.5738    1.9223 C   0  0  0  0  0  0  0  0  0  0  0  0
   -3.7756    7.7407    2.1031 O   0  0  0  0  0  0  0  0  0  0  0  0
   -1.7805    8.7842    2.9032 C   0  0  0  0  0  0  0  0  0  0  0  0
   -1.5756    8.1876    4.1270 C   0  0  0  0  0  0  0  0  0  0  0  0
   -0.4922    8.5902    4.8976 C   0  0  0  0  0  0  0  0  0  0  0  0
    0.3719    9.5778    4.4334 C   0  0  0  0  0  0  0  0  0  0  0  0
    1.4507   10.0381    5.1103 O   0  0  0  0  0  0  0  0  0  0  0  0
    1.7476    9.4963    6.3747 C   0  0  0  0  0  0  0  0  0  0  0  0
    0.1650   10.1778    3.1774 C   0  0  0  0  0  0  0  0  0  0  0  0
   -0.9089    9.7782    2.4196 C   0  0  0  0  0  0  0  0  0  0  0  0
   -1.3950   10.1966    1.0962 C   0  0  0  0  0  0  0  0  0  0  0  0
   -0.7749   11.1274    0.2918 C   0  0  0  0  0  0  0  0  0  0  0  0
    0.4000   11.8177    0.6431 C   0  0  0  0  0  0  0  0  0  0  0  0
    1.3546   12.4203    0.8590 N   0  0  0  0  0  0  0  0  0  0  0  0
   -1.2080   11.5065   -0.9911 C   0  0  0  0  0  0  0  0  0  0  0  0
   -1.5021   11.8518   -2.0487 N   0  0  0  0  0  0  0  0  0  0  0  0
    2.6869   -8.5350    1.0479 H   0  0  0  0  0  0  0  0  0  0  0  0
    0.6184   -5.8220    6.3403 H   0  0  0  0  0  0  0  0  0  0  0  0
    0.7496   -7.1562    8.4078 H   0  0  0  0  0  0  0  0  0  0  0  0
    1.8660   -8.3725   10.0829 H   0  0  0  0  0  0  0  0  0  0  0  0
    0.2127   -8.9850    9.7850 H   0  0  0  0  0  0  0  0  0  0  0  0
    1.4583  -10.0645   10.4581 H   0  0  0  0  0  0  0  0  0  0  0  0
    2.3569  -10.4700    6.2319 H   0  0  0  0  0  0  0  0  0  0  0  0
    2.2014  -10.7480   -2.9394 H   0  0  0  0  0  0  0  0  0  0  0  0
    5.7347  -11.5869   -2.3668 H   0  0  0  0  0  0  0  0  0  0  0  0
    4.1702  -12.2013   -2.9143 H   0  0  0  0  0  0  0  0  0  0  0  0
    5.9248  -10.2194   -4.4467 H   0  0  0  0  0  0  0  0  0  0  0  0
    5.7312  -11.9329   -4.8317 H   0  0  0  0  0  0  0  0  0  0  0  0
    4.3623  -10.8271   -4.9923 H   0  0  0  0  0  0  0  0  0  0  0  0
    5.9705   -9.2671   -1.6249 H   0  0  0  0  0  0  0  0  0  0  0  0
    6.0582   -7.4222   -0.1552 H   0  0  0  0  0  0  0  0  0  0  0  0
    4.6119   -6.5272    0.3206 H   0  0  0  0  0  0  0  0  0  0  0  0
    4.5852   -5.3733   -1.8797 H   0  0  0  0  0  0  0  0  0  0  0  0
    6.0015   -6.2942   -2.3910 H   0  0  0  0  0  0  0  0  0  0  0  0
    6.1349   -5.1283   -1.0696 H   0  0  0  0  0  0  0  0  0  0  0  0
    0.3073   -9.2841   -2.9161 H   0  0  0  0  0  0  0  0  0  0  0  0
    0.3326   -7.7351   -2.0627 H   0  0  0  0  0  0  0  0  0  0  0  0
   -1.0792   -9.4632   -0.9038 H   0  0  0  0  0  0  0  0  0  0  0  0
    0.3639  -10.4645   -0.6884 H   0  0  0  0  0  0  0  0  0  0  0  0
    0.2482   -8.9009    0.1150 H   0  0  0  0  0  0  0  0  0  0  0  0
    1.9618   -5.4825   -2.4646 H   0  0  0  0  0  0  0  0  0  0  0  0
   -0.1161   -1.4752   -5.2314 H   0  0  0  0  0  0  0  0  0  0  0  0
   -1.7869   -2.1360   -6.9028 H   0  0  0  0  0  0  0  0  0  0  0  0
   -5.4106   -2.1845   -6.2980 H   0  0  0  0  0  0  0  0  0  0  0  0
   -4.1183   -2.6598   -7.4092 H   0  0  0  0  0  0  0  0  0  0  0  0
   -5.1527    0.1923   -7.0285 H   0  0  0  0  0  0  0  0  0  0  0  0
   -3.8782   -0.2922   -8.1469 H   0  0  0  0  0  0  0  0  0  0  0  0
   -5.5319   -0.8621   -8.3954 H   0  0  0  0  0  0  0  0  0  0  0  0
   -4.9000   -0.8250   -4.3016 H   0  0  0  0  0  0  0  0  0  0  0  0
   -3.2381   -0.1789   -2.6264 H   0  0  0  0  0  0  0  0  0  0  0  0
   -0.7095    1.4665   -4.8038 H   0  0  0  0  0  0  0  0  0  0  0  0
    1.0517    2.8133   -5.8464 H   0  0  0  0  0  0  0  0  0  0  0  0
    3.4427    3.0610   -6.3318 H   0  0  0  0  0  0  0  0  0  0  0  0
    4.6532    2.2570   -5.3224 H   0  0  0  0  0  0  0  0  0  0  0  0
    2.9788    4.6734   -4.4821 H   0  0  0  0  0  0  0  0  0  0  0  0
    4.6817    4.7147   -4.9520 H   0  0  0  0  0  0  0  0  0  0  0  0
    4.1873    3.8726   -3.4794 H   0  0  0  0  0  0  0  0  0  0  0  0
    3.9623    0.9275   -3.3672 H   0  0  0  0  0  0  0  0  0  0  0  0
    2.2058   -0.4058   -2.3104 H   0  0  0  0  0  0  0  0  0  0  0  0
    0.8643   -3.3107   -3.2028 H   0  0  0  0  0  0  0  0  0  0  0  0
   -1.8526    2.1801   -2.6276 H   0  0  0  0  0  0  0  0  0  0  0  0
   -0.8587   -0.0674    1.7457 H   0  0  0  0  0  0  0  0  0  0  0  0
   -2.2973    4.0852    4.1016 H   0  0  0  0  0  0  0  0  0  0  0  0
   -0.5188    5.3380    5.2376 H   0  0  0  0  0  0  0  0  0  0  0  0
    3.0124    4.8235    4.7364 H   0  0  0  0  0  0  0  0  0  0  0  0
    1.7952    5.7927    5.5760 H   0  0  0  0  0  0  0  0  0  0  0  0
    3.2699    7.2508    4.2038 H   0  0  0  0  0  0  0  0  0  0  0  0
    2.8694    6.3216    2.7585 H   0  0  0  0  0  0  0  0  0  0  0  0
    1.6249    7.2793    3.5540 H   0  0  0  0  0  0  0  0  0  0  0  0
    2.3367    3.7602    2.4931 H   0  0  0  0  0  0  0  0  0  0  0  0
    0.5647    2.5277    1.3450 H   0  0  0  0  0  0  0  0  0  0  0  0
   -4.8405    2.1355    1.8900 H   0  0  0  0  0  0  0  0  0  0  0  0
   -6.1904    0.7593    3.4057 H   0  0  0  0  0  0  0  0  0  0  0  0
   -6.3644   -0.3422    5.5934 H   0  0  0  0  0  0  0  0  0  0  0  0
   -4.9075   -0.7741    6.5000 H   0  0  0  0  0  0  0  0  0  0  0  0
   -4.4230   -2.5849    4.8505 H   0  0  0  0  0  0  0  0  0  0  0  0
   -6.0138   -2.8043    5.5886 H   0  0  0  0  0  0  0  0  0  0  0  0
   -5.8765   -2.1558    3.9505 H   0  0  0  0  0  0  0  0  0  0  0  0
   -2.6787   -0.2938    5.5823 H   0  0  0  0  0  0  0  0  0  0  0  0
   -1.3280    1.0959    4.0793 H   0  0  0  0  0  0  0  0  0  0  0  0
   -3.9680    5.2544    2.2576 H   0  0  0  0  0  0  0  0  0  0  0  0
   -2.8467    6.1010   -5.6550 H   0  0  0  0  0  0  0  0  0  0  0  0
   -3.6868    4.4565   -7.2745 H   0  0  0  0  0  0  0  0  0  0  0  0
   -4.9856    3.3409   -6.8283 H   0  0  0  0  0  0  0  0  0  0  0  0
   -2.1198    3.2250   -5.7751 H   0  0  0  0  0  0  0  0  0  0  0  0
   -3.4078    2.0944   -5.3481 H   0  0  0  0  0  0  0  0  0  0  0  0
   -2.7991    2.1508   -7.0040 H   0  0  0  0  0  0  0  0  0  0  0  0
   -5.9476    3.3909   -4.5759 H   0  0  0  0  0  0  0  0  0  0  0  0
   -6.9396    3.4803   -2.4941 H   0  0  0  0  0  0  0  0  0  0  0  0
   -6.3604    4.5640   -1.2289 H   0  0  0  0  0  0  0  0  0  0  0  0
   -8.7359    5.0323   -1.7964 H   0  0  0  0  0  0  0  0  0  0  0  0
   -7.7219    6.4201   -2.1969 H   0  0  0  0  0  0  0  0  0  0  0  0
   -8.2814    5.3420   -3.4754 H   0  0  0  0  0  0  0  0  0  0  0  0
   -2.8024    7.8143   -2.4498 H   0  0  0  0  0  0  0  0  0  0  0  0
   -1.9916    7.5809   -3.9994 H   0  0  0  0  0  0  0  0  0  0  0  0
   -2.9634    9.8522   -3.8631 H   0  0  0  0  0  0  0  0  0  0  0  0
   -4.5712    9.1701   -3.6030 H   0  0  0  0  0  0  0  0  0  0  0  0
   -3.7468    8.9192   -5.1418 H   0  0  0  0  0  0  0  0  0  0  0  0
   -6.3613    8.6239   -1.7597 H   0  0  0  0  0  0  0  0  0  0  0  0
   -2.9587   10.0842   -1.2132 H   0  0  0  0  0  0  0  0  0  0  0  0
   -2.2506    7.4231    4.4795 H   0  0  0  0  0  0  0  0  0  0  0  0
   -0.3338    8.1297    5.8596 H   0  0  0  0  0  0  0  0  0  0  0  0
    0.9387    9.6771    7.0898 H   0  0  0  0  0  0  0  0  0  0  0  0
    1.9484    8.4222    6.3134 H   0  0  0  0  0  0  0  0  0  0  0  0
    2.6457   10.0116    6.7109 H   0  0  0  0  0  0  0  0  0  0  0  0
    0.8617   10.9351    2.8596 H   0  0  0  0  0  0  0  0  0  0  0  0
  1  2  2  0  0  0  0
  2  3  1  0  0  0  0
  3  4  2  0  0  0  0
  3  5  1  0  0  0  0
  5  6  2  0  0  0  0
  6  7  1  0  0  0  0
  7  8  2  0  0  0  0
  8  9  1  0  0  0  0
  9 10  1  0  0  0  0
  8 11  1  0  0  0  0
 11 12  2  0  0  0  0
 12 13  1  0  0  0  0
 13 14  2  0  0  0  0
 14 15  1  0  0  0  0
 15 16  3  0  0  0  0
 14 17  1  0  0  0  0
 17 18  3  0  0  0  0
  1 19  1  0  0  0  0
 19 20  2  0  0  0  0
 20 21  1  0  0  0  0
 21 22  2  0  0  0  0
 22 23  1  0  0  0  0
 23 24  2  0  0  0  0
 24 25  1  0  0  0  0
 25 26  1  0  0  0  0
 24 27  1  0  0  0  0
 27 28  2  0  0  0  0
 28 29  1  0  0  0  0
 29 30  1  0  0  0  0
 22 31  1  0  0  0  0
 31 32  1  0  0  0  0
 20 33  1  0  0  0  0
 33 34  2  0  0  0  0
 34 35  1  0  0  0  0
 34 36  1  0  0  0  0
 36 37  1  0  0  0  0
 37 38  1  0  0  0  0
 38 39  1  0  0  0  0
 39 40  2  0  0  0  0
 40 41  1  0  0  0  0
 41 42  1  0  0  0  0
 42 43  2  0  0  0  0
 43 44  1  0  0  0  0
 44 45  2  0  0  0  0
 45 46  1  0  0  0  0
 46 47  1  0  0  0  0
 45 48  1  0  0  0  0
 48 49  2  0  0  0  0
 41 50  1  0  0  0  0
 50 51  2  0  0  0  0
 51 52  1  0  0  0  0
 52 53  2  0  0  0  0
 53 54  1  0  0  0  0
 54 55  1  0  0  0  0
 53 56  1  0  0  0  0
 56 57  2  0  0  0  0
 41 58  1  0  0  0  0
 58 59  1  0  0  0  0
 40 60  1  0  0  0  0
 60 61  2  0  0  0  0
 61 62  1  0  0  0  0
 62 63  2  0  0  0  0
 63 64  1  0  0  0  0
 64 65  1  0  0  0  0
 65 66  2  0  0  0  0
 64 67  1  0  0  0  0
 67 68  2  0  0  0  0
 68 69  1  0  0  0  0
 69 70  2  0  0  0  0
 70 71  1  0  0  0  0
 71 72  1  0  0  0  0
 70 73  1  0  0  0  0
 73 74  2  0  0  0  0
 64 75  1  0  0  0  0
 75 76  2  0  0  0  0
 76 77  1  0  0  0  0
 77 78  2  0  0  0  0
 78 79  1  0  0  0  0
 79 80  1  0  0  0  0
 78 81  1  0  0  0  0
 81 82  2  0  0  0  0
 63 83  1  0  0  0  0
 83 84  2  0  0  0  0
 84 85  1  0  0  0  0
 84 86  1  0  0  0  0
 86 87  2  0  0  0  0
 87 88  1  0  0  0  0
 88 89  2  0  0  0  0
 89 90  1  0  0  0  0
 90 91  2  0  0  0  0
 91 92  1  0  0  0  0
 92 93  1  0  0  0  0
 91 94  1  0  0  0  0
 94 95  2  0  0  0  0
 95 96  1  0  0  0  0
 96 97  1  0  0  0  0
 89 98  1  0  0  0  0
 98 99  1  0  0  0  0
 87100  1  0  0  0  0
100101  2  0  0  0  0
101102  1  0  0  0  0
101103  1  0  0  0  0
103104  2  0  0  0  0
104105  1  0  0  0  0
105106  2  0  0  0  0
105107  1  0  0  0  0
107108  2  0  0  0  0
108109  1  0  0  0  0
109110  2  0  0  0  0
110111  1  0  0  0  0
111112  1  0  0  0  0
110113  1  0  0  0  0
113114  2  0  0  0  0
114115  1  0  0  0  0
115116  2  0  0  0  0
116117  1  0  0  0  0
117118  3  0  0  0  0
116119  1  0  0  0  0
119120  3  0  0  0  0
 13  2  1  0  0  0  0
 35 19  1  0  0  0  0
 59 36  2  0  0  0  0
 65 61  1  0  0  0  0
 74 67  1  0  0  0  0
 82 75  1  0  0  0  0
102 86  1  0  0  0  0
115104  1  0  0  0  0
 12  5  1  0  0  0  0
 28 21  1  0  0  0  0
 58 38  2  0  0  0  0
 85 62  1  0  0  0  0
 95 88  1  0  0  0  0
114107  1  0  0  0  0
 66 39  1  0  0  0  0
 49 42  1  0  0  0  0
 57 50  1  0  0  0  0
  1121  1  0  0  0  0
  6122  1  0  0  0  0
  7123  1  0  0  0  0
 10124  1  0  0  0  0
 10125  1  0  0  0  0
 10126  1  0  0  0  0
 11127  1  0  0  0  0
 23128  1  0  0  0  0
 25129  1  0  0  0  0
 25130  1  0  0  0  0
 26131  1  0  0  0  0
 26132  1  0  0  0  0
 26133  1  0  0  0  0
 27134  1  0  0  0  0
 29135  1  0  0  0  0
 29136  1  0  0  0  0
 30137  1  0  0  0  0
 30138  1  0  0  0  0
 30139  1  0  0  0  0
 31140  1  0  0  0  0
 31141  1  0  0  0  0
 32142  1  0  0  0  0
 32143  1  0  0  0  0
 32144  1  0  0  0  0
 33145  1  0  0  0  0
 43146  1  0  0  0  0
 44147  1  0  0  0  0
 46148  1  0  0  0  0
 46149  1  0  0  0  0
 47150  1  0  0  0  0
 47151  1  0  0  0  0
 47152  1  0  0  0  0
 48153  1  0  0  0  0
 49154  1  0  0  0  0
 51155  1  0  0  0  0
 52156  1  0  0  0  0
 54157  1  0  0  0  0
 54158  1  0  0  0  0
 55159  1  0  0  0  0
 55160  1  0  0  0  0
 55161  1  0  0  0  0
 56162  1  0  0  0  0
 57163  1  0  0  0  0
 59164  1  0  0  0  0
 60165  1  0  0  0  0
 66166  1  0  0  0  0
 68167  1  0  0  0  0
 69168  1  0  0  0  0
 71169  1  0  0  0  0
 71170  1  0  0  0  0
 72171  1  0  0  0  0
 72172  1  0  0  0  0
 72173  1  0  0  0  0
 73174  1  0  0  0  0
 74175  1  0  0  0  0
 76176  1  0  0  0  0
 77177  1  0  0  0  0
 79178  1  0  0  0  0
 79179  1  0  0  0  0
 80180  1  0  0  0  0
 80181  1  0  0  0  0
 80182  1  0  0  0  0
 81183  1  0  0  0  0
 82184  1  0  0  0  0
 83185  1  0  0  0  0
 90186  1  0  0  0  0
 92187  1  0  0  0  0
 92188  1  0  0  0  0
 93189  1  0  0  0  0
 93190  1  0  0  0  0
 93191  1  0  0  0  0
 94192  1  0  0  0  0
 96193  1  0  0  0  0
 96194  1  0  0  0  0
 97195  1  0  0  0  0
 97196  1  0  0  0  0
 97197  1  0  0  0  0
 98198  1  0  0  0  0
 98199  1  0  0  0  0
 99200  1  0  0  0  0
 99201  1  0  0  0  0
 99202  1  0  0  0  0
100203  1  0  0  0  0
103204  1  0  0  0  0
108205  1  0  0  0  0
109206  1  0  0  0  0
112207  1  0  0  0  0
112208  1  0  0  0  0
112209  1  0  0  0  0
113210  1  0  0  0  0
M  END
