145

C         -0.62850        0.96870       10.92450
C         -1.47260        1.90990       11.42630
C         -1.00530        2.80210       12.52790
O         -0.03280        2.63260       13.22820
C         -1.94150        3.93610       12.51890
C         -1.89640        5.12200       13.22480
C         -2.87970        6.07410       13.00720
C         -3.89980        5.84280       12.08130
O         -4.88240        6.71980       11.78770
C         -4.92140        7.96220       12.45200
C         -3.95440        4.63170       11.37320
C         -2.98120        3.68530       11.60000
C         -2.79370        2.34770       11.03870
C         -3.79460        1.56880       10.52000
C         -3.64870        0.20110       10.21350
N         -3.58830       -0.92460        9.99320
C         -5.12060        2.01750       10.36720
N         -6.22080        2.32200       10.24540
C         -0.65340        0.32610        9.66740
C          0.07610       -0.78800        9.30350
C         -0.10280       -1.16070        7.97280
S          0.62550       -2.61230        7.27750
C         -0.89530       -3.61710        7.06710
C         -1.61000       -3.86310        8.37980
C         -0.94380       -0.31190        7.26580
S         -1.55230        0.94120        8.29780
C         -1.26880       -0.33810        5.88490
C         -2.37000        0.22240        5.26430
C         -3.52460        0.82320        5.95510
C         -3.55130        2.17330        6.27920
C         -4.67770        2.70730        6.87950
C         -5.77670        1.90950        7.14050
C         -5.76350        0.55720        6.81970
C         -6.94650       -0.31570        7.12190
C         -6.92840       -0.77350        8.58140
C         -4.62640        0.02390        6.23210
C         -2.30610        0.07190        3.87130
S         -3.36720        0.59130        2.58450
C         -2.24010       -0.05510        1.44020
C         -2.05090       -0.10640        0.05020
C         -2.78490        0.47930       -1.00430
C         -2.24700        0.42970       -2.33310
N         -2.99980        1.07760       -3.20840
S         -4.27900        1.69130       -2.42830
N         -3.92010        1.15750       -0.94320
C         -1.06830       -0.31250       -2.56290
C         -0.38770       -0.61980       -3.75030
S         -0.47320       -0.24230       -5.43630
C          0.87650       -1.31500       -5.71050
C          1.58780       -1.64320       -6.87500
C          1.26880       -1.05270       -8.18120
C          2.17440       -0.21500       -8.82380
C          1.83540        0.35920      -10.03330
C          0.59860        0.11010      -10.60050
C         -0.32210       -0.71040       -9.96270
C         -1.69240       -0.92750      -10.53610
C         -2.67120        0.10040       -9.96420
C          0.02210       -1.28280       -8.74730
C          2.59710       -2.55390       -6.61250
S          2.67710       -2.97900       -4.90190
C          1.34910       -1.93220       -4.54710
C          0.63170       -1.51880       -3.41840
N          0.62030       -1.75730       -2.06850
C         -0.39820       -1.00280       -1.51340
C         -0.82260       -0.78950       -0.17590
N         -0.27120       -1.12170        1.05350
C         -1.12340       -0.65980        2.02390
C         -1.15540       -0.58350        3.42080
S         -0.15270       -1.07760        4.73840
C          1.11800       -1.32380        1.40590
C          1.92980       -0.05100        1.17540
C          1.31240       -2.90980       -1.53660
C          2.80980       -2.66180       -1.36500
C          3.48350       -3.19400       -7.51390
C          4.44600       -4.13400       -7.17260
C          5.16300       -4.59160       -8.26600
S          6.47540       -5.76500       -8.11610
C          7.90700       -4.68710       -8.51550
C          8.10880       -3.62060       -7.45840
C          4.75480       -4.03240       -9.48500
S          3.47560       -2.86890       -9.21780
C          5.27420       -4.38420      -10.73560
C          5.00800       -3.86080      -11.97260
C          5.68900       -4.36020      -13.17910
O          6.51110       -5.24710      -13.24550
C          5.17160       -3.52900      -14.30150
C          5.48060       -3.57120      -15.64570
C          4.85210       -2.66380      -16.49360
Cl         5.21350       -2.68880      -18.17370
C          3.93360       -1.73510      -15.99440
Cl         3.17450       -0.62390      -17.06430
C          3.62500       -1.69710      -14.63860
C          4.25130       -2.59980      -13.80340
C          4.10850       -2.77200      -12.33340
O          3.38030       -2.12000      -11.60730
H          0.24070        0.75200       11.53870
H         -1.10230        5.30030       13.93320
H         -2.84250        6.99920       13.55990
H         -5.03900        7.83590       13.53230
H         -4.02450        8.55470       12.24710
H         -5.79290        8.47870       12.05340
H         -4.75260        4.48940       10.66350
H          0.69470       -1.33930        9.98810
H         -0.53530       -4.54670        6.62770
H         -1.53700       -3.10570        6.34940
H         -1.99530       -2.93520        8.79850
H         -2.44840       -4.53730        8.21650
H         -0.93440       -4.31710        9.10130
H         -2.69860        2.79730        6.05470
H         -4.70100        3.75660        7.13530
H         -6.65480        2.33750        7.60000
H         -6.93360       -1.19020        6.46820
H         -7.86750        0.23970        6.93340
H         -7.01260        0.08220        9.24680
H         -5.99870       -1.29180        8.80720
H         -7.75950       -1.44730        8.77580
H         -4.59630       -1.02600        5.97560
H          3.13380       -0.01340       -8.37060
H          2.54010        1.00450      -10.53530
H          0.34180        0.55960      -11.54890
H         -1.66030       -0.83190      -11.62300
H         -2.04210       -1.93240      -10.29130
H         -2.34960        1.10860      -10.21540
H         -2.71640        0.01780       -8.88060
H         -3.66870       -0.05730      -10.36790
H         -0.68100       -1.92690       -8.23800
H          1.54820       -2.15470        0.85440
H          1.13720       -1.58480        2.46710
H          1.52660        0.76410        1.77210
H          2.96460       -0.21230        1.46520
H          1.89460        0.24220        0.12800
H          0.83310       -3.20500       -0.60230
H          1.17740       -3.73340       -2.24740
H          3.27300       -3.52640       -0.89750
H          3.00350       -1.78380       -0.75600
H          3.27330       -2.50970       -2.33580
H          4.62340       -4.46840       -6.16540
H          7.74780       -4.25230       -9.50100
H          8.75260       -5.37220       -8.55470
H          7.25400       -2.94710       -7.42430
H          8.99960       -3.03860       -7.68620
H          8.23020       -4.07570       -6.47800
H          5.99300       -5.20030      -10.72780
H          6.18920       -4.28690      -16.03150
H          2.91680       -0.98170      -14.25120
