
  xtb     02112210083D
 energy: -256.122513332794 gnorm: 0.000353340764 xtb: 6.4.1 (unknown)
145160  0     0  0            999 V2000
   -0.6285    0.9687   10.9245 C   0  0  0  0  0  0  0  0  0  0  0  0
   -1.4726    1.9099   11.4263 C   0  0  0  0  0  0  0  0  0  0  0  0
   -1.0053    2.8021   12.5279 C   0  0  0  0  0  0  0  0  0  0  0  0
   -0.0328    2.6326   13.2282 O   0  0  0  0  0  0  0  0  0  0  0  0
   -1.9415    3.9361   12.5189 C   0  0  0  0  0  0  0  0  0  0  0  0
   -1.8964    5.1220   13.2248 C   0  0  0  0  0  0  0  0  0  0  0  0
   -2.8797    6.0741   13.0072 C   0  0  0  0  0  0  0  0  0  0  0  0
   -3.8998    5.8428   12.0813 C   0  0  0  0  0  0  0  0  0  0  0  0
   -4.8824    6.7198   11.7877 O   0  0  0  0  0  0  0  0  0  0  0  0
   -4.9214    7.9622   12.4520 C   0  0  0  0  0  0  0  0  0  0  0  0
   -3.9544    4.6317   11.3732 C   0  0  0  0  0  0  0  0  0  0  0  0
   -2.9812    3.6853   11.6000 C   0  0  0  0  0  0  0  0  0  0  0  0
   -2.7937    2.3477   11.0387 C   0  0  0  0  0  0  0  0  0  0  0  0
   -3.7946    1.5688   10.5200 C   0  0  0  0  0  0  0  0  0  0  0  0
   -3.6487    0.2011   10.2135 C   0  0  0  0  0  0  0  0  0  0  0  0
   -3.5883   -0.9246    9.9932 N   0  0  0  0  0  0  0  0  0  0  0  0
   -5.1206    2.0175   10.3672 C   0  0  0  0  0  0  0  0  0  0  0  0
   -6.2208    2.3220   10.2454 N   0  0  0  0  0  0  0  0  0  0  0  0
   -0.6534    0.3261    9.6674 C   0  0  0  0  0  0  0  0  0  0  0  0
    0.0761   -0.7880    9.3035 C   0  0  0  0  0  0  0  0  0  0  0  0
   -0.1028   -1.1607    7.9728 C   0  0  0  0  0  0  0  0  0  0  0  0
    0.6255   -2.6123    7.2775 S   0  0  0  0  0  0  0  0  0  0  0  0
   -0.8953   -3.6171    7.0671 C   0  0  0  0  0  0  0  0  0  0  0  0
   -1.6100   -3.8631    8.3798 C   0  0  0  0  0  0  0  0  0  0  0  0
   -0.9438   -0.3119    7.2658 C   0  0  0  0  0  0  0  0  0  0  0  0
   -1.5523    0.9412    8.2978 S   0  0  0  0  0  0  0  0  0  0  0  0
   -1.2688   -0.3381    5.8849 C   0  0  0  0  0  0  0  0  0  0  0  0
   -2.3700    0.2224    5.2643 C   0  0  0  0  0  0  0  0  0  0  0  0
   -3.5246    0.8232    5.9551 C   0  0  0  0  0  0  0  0  0  0  0  0
   -3.5513    2.1733    6.2792 C   0  0  0  0  0  0  0  0  0  0  0  0
   -4.6777    2.7073    6.8795 C   0  0  0  0  0  0  0  0  0  0  0  0
   -5.7767    1.9095    7.1405 C   0  0  0  0  0  0  0  0  0  0  0  0
   -5.7635    0.5572    6.8197 C   0  0  0  0  0  0  0  0  0  0  0  0
   -6.9465   -0.3157    7.1219 C   0  0  0  0  0  0  0  0  0  0  0  0
   -6.9284   -0.7735    8.5814 C   0  0  0  0  0  0  0  0  0  0  0  0
   -4.6264    0.0239    6.2321 C   0  0  0  0  0  0  0  0  0  0  0  0
   -2.3061    0.0719    3.8713 C   0  0  0  0  0  0  0  0  0  0  0  0
   -3.3672    0.5913    2.5845 S   0  0  0  0  0  0  0  0  0  0  0  0
   -2.2401   -0.0551    1.4402 C   0  0  0  0  0  0  0  0  0  0  0  0
   -2.0509   -0.1064    0.0502 C   0  0  0  0  0  0  0  0  0  0  0  0
   -2.7849    0.4793   -1.0043 C   0  0  0  0  0  0  0  0  0  0  0  0
   -2.2470    0.4297   -2.3331 C   0  0  0  0  0  0  0  0  0  0  0  0
   -2.9998    1.0776   -3.2084 N   0  0  0  0  0  0  0  0  0  0  0  0
   -4.2790    1.6913   -2.4283 S   0  0  0  0  0  0  0  0  0  0  0  0
   -3.9201    1.1575   -0.9432 N   0  0  0  0  0  0  0  0  0  0  0  0
   -1.0683   -0.3125   -2.5629 C   0  0  0  0  0  0  0  0  0  0  0  0
   -0.3877   -0.6198   -3.7503 C   0  0  0  0  0  0  0  0  0  0  0  0
   -0.4732   -0.2423   -5.4363 S   0  0  0  0  0  0  0  0  0  0  0  0
    0.8765   -1.3150   -5.7105 C   0  0  0  0  0  0  0  0  0  0  0  0
    1.5878   -1.6432   -6.8750 C   0  0  0  0  0  0  0  0  0  0  0  0
    1.2688   -1.0527   -8.1812 C   0  0  0  0  0  0  0  0  0  0  0  0
    2.1744   -0.2150   -8.8238 C   0  0  0  0  0  0  0  0  0  0  0  0
    1.8354    0.3592  -10.0333 C   0  0  0  0  0  0  0  0  0  0  0  0
    0.5986    0.1101  -10.6005 C   0  0  0  0  0  0  0  0  0  0  0  0
   -0.3221   -0.7104   -9.9627 C   0  0  0  0  0  0  0  0  0  0  0  0
   -1.6924   -0.9275  -10.5361 C   0  0  0  0  0  0  0  0  0  0  0  0
   -2.6712    0.1004   -9.9642 C   0  0  0  0  0  0  0  0  0  0  0  0
    0.0221   -1.2828   -8.7473 C   0  0  0  0  0  0  0  0  0  0  0  0
    2.5971   -2.5539   -6.6125 C   0  0  0  0  0  0  0  0  0  0  0  0
    2.6771   -2.9790   -4.9019 S   0  0  0  0  0  0  0  0  0  0  0  0
    1.3491   -1.9322   -4.5471 C   0  0  0  0  0  0  0  0  0  0  0  0
    0.6317   -1.5188   -3.4184 C   0  0  0  0  0  0  0  0  0  0  0  0
    0.6203   -1.7573   -2.0685 N   0  0  0  0  0  0  0  0  0  0  0  0
   -0.3982   -1.0028   -1.5134 C   0  0  0  0  0  0  0  0  0  0  0  0
   -0.8226   -0.7895   -0.1759 C   0  0  0  0  0  0  0  0  0  0  0  0
   -0.2712   -1.1217    1.0535 N   0  0  0  0  0  0  0  0  0  0  0  0
   -1.1234   -0.6598    2.0239 C   0  0  0  0  0  0  0  0  0  0  0  0
   -1.1554   -0.5835    3.4208 C   0  0  0  0  0  0  0  0  0  0  0  0
   -0.1527   -1.0776    4.7384 S   0  0  0  0  0  0  0  0  0  0  0  0
    1.1180   -1.3238    1.4059 C   0  0  0  0  0  0  0  0  0  0  0  0
    1.9298   -0.0510    1.1754 C   0  0  0  0  0  0  0  0  0  0  0  0
    1.3124   -2.9098   -1.5366 C   0  0  0  0  0  0  0  0  0  0  0  0
    2.8098   -2.6618   -1.3650 C   0  0  0  0  0  0  0  0  0  0  0  0
    3.4835   -3.1940   -7.5139 C   0  0  0  0  0  0  0  0  0  0  0  0
    4.4460   -4.1340   -7.1726 C   0  0  0  0  0  0  0  0  0  0  0  0
    5.1630   -4.5916   -8.2660 C   0  0  0  0  0  0  0  0  0  0  0  0
    6.4754   -5.7650   -8.1161 S   0  0  0  0  0  0  0  0  0  0  0  0
    7.9070   -4.6871   -8.5155 C   0  0  0  0  0  0  0  0  0  0  0  0
    8.1088   -3.6206   -7.4584 C   0  0  0  0  0  0  0  0  0  0  0  0
    4.7548   -4.0324   -9.4850 C   0  0  0  0  0  0  0  0  0  0  0  0
    3.4756   -2.8689   -9.2178 S   0  0  0  0  0  0  0  0  0  0  0  0
    5.2742   -4.3842  -10.7356 C   0  0  0  0  0  0  0  0  0  0  0  0
    5.0080   -3.8608  -11.9726 C   0  0  0  0  0  0  0  0  0  0  0  0
    5.6890   -4.3602  -13.1791 C   0  0  0  0  0  0  0  0  0  0  0  0
    6.5111   -5.2471  -13.2455 O   0  0  0  0  0  0  0  0  0  0  0  0
    5.1716   -3.5290  -14.3015 C   0  0  0  0  0  0  0  0  0  0  0  0
    5.4806   -3.5712  -15.6457 C   0  0  0  0  0  0  0  0  0  0  0  0
    4.8521   -2.6638  -16.4936 C   0  0  0  0  0  0  0  0  0  0  0  0
    5.2135   -2.6888  -18.1737 Cl  0  0  0  0  0  0  0  0  0  0  0  0
    3.9336   -1.7351  -15.9944 C   0  0  0  0  0  0  0  0  0  0  0  0
    3.1745   -0.6239  -17.0643 Cl  0  0  0  0  0  0  0  0  0  0  0  0
    3.6250   -1.6971  -14.6386 C   0  0  0  0  0  0  0  0  0  0  0  0
    4.2513   -2.5998  -13.8034 C   0  0  0  0  0  0  0  0  0  0  0  0
    4.1085   -2.7720  -12.3334 C   0  0  0  0  0  0  0  0  0  0  0  0
    3.3803   -2.1200  -11.6073 O   0  0  0  0  0  0  0  0  0  0  0  0
    0.2407    0.7520   11.5387 H   0  0  0  0  0  0  0  0  0  0  0  0
   -1.1023    5.3003   13.9332 H   0  0  0  0  0  0  0  0  0  0  0  0
   -2.8425    6.9992   13.5599 H   0  0  0  0  0  0  0  0  0  0  0  0
   -5.0390    7.8359   13.5323 H   0  0  0  0  0  0  0  0  0  0  0  0
   -4.0245    8.5547   12.2471 H   0  0  0  0  0  0  0  0  0  0  0  0
   -5.7929    8.4787   12.0534 H   0  0  0  0  0  0  0  0  0  0  0  0
   -4.7526    4.4894   10.6635 H   0  0  0  0  0  0  0  0  0  0  0  0
    0.6947   -1.3393    9.9881 H   0  0  0  0  0  0  0  0  0  0  0  0
   -0.5353   -4.5467    6.6277 H   0  0  0  0  0  0  0  0  0  0  0  0
   -1.5370   -3.1057    6.3494 H   0  0  0  0  0  0  0  0  0  0  0  0
   -1.9953   -2.9352    8.7985 H   0  0  0  0  0  0  0  0  0  0  0  0
   -2.4484   -4.5373    8.2165 H   0  0  0  0  0  0  0  0  0  0  0  0
   -0.9344   -4.3171    9.1013 H   0  0  0  0  0  0  0  0  0  0  0  0
   -2.6986    2.7973    6.0547 H   0  0  0  0  0  0  0  0  0  0  0  0
   -4.7010    3.7566    7.1353 H   0  0  0  0  0  0  0  0  0  0  0  0
   -6.6548    2.3375    7.6000 H   0  0  0  0  0  0  0  0  0  0  0  0
   -6.9336   -1.1902    6.4682 H   0  0  0  0  0  0  0  0  0  0  0  0
   -7.8675    0.2397    6.9334 H   0  0  0  0  0  0  0  0  0  0  0  0
   -7.0126    0.0822    9.2468 H   0  0  0  0  0  0  0  0  0  0  0  0
   -5.9987   -1.2918    8.8072 H   0  0  0  0  0  0  0  0  0  0  0  0
   -7.7595   -1.4473    8.7758 H   0  0  0  0  0  0  0  0  0  0  0  0
   -4.5963   -1.0260    5.9756 H   0  0  0  0  0  0  0  0  0  0  0  0
    3.1338   -0.0134   -8.3706 H   0  0  0  0  0  0  0  0  0  0  0  0
    2.5401    1.0045  -10.5353 H   0  0  0  0  0  0  0  0  0  0  0  0
    0.3418    0.5596  -11.5489 H   0  0  0  0  0  0  0  0  0  0  0  0
   -1.6603   -0.8319  -11.6230 H   0  0  0  0  0  0  0  0  0  0  0  0
   -2.0421   -1.9324  -10.2913 H   0  0  0  0  0  0  0  0  0  0  0  0
   -2.3496    1.1086  -10.2154 H   0  0  0  0  0  0  0  0  0  0  0  0
   -2.7164    0.0178   -8.8806 H   0  0  0  0  0  0  0  0  0  0  0  0
   -3.6687   -0.0573  -10.3679 H   0  0  0  0  0  0  0  0  0  0  0  0
   -0.6810   -1.9269   -8.2380 H   0  0  0  0  0  0  0  0  0  0  0  0
    1.5482   -2.1547    0.8544 H   0  0  0  0  0  0  0  0  0  0  0  0
    1.1372   -1.5848    2.4671 H   0  0  0  0  0  0  0  0  0  0  0  0
    1.5266    0.7641    1.7721 H   0  0  0  0  0  0  0  0  0  0  0  0
    2.9646   -0.2123    1.4652 H   0  0  0  0  0  0  0  0  0  0  0  0
    1.8946    0.2422    0.1280 H   0  0  0  0  0  0  0  0  0  0  0  0
    0.8331   -3.2050   -0.6023 H   0  0  0  0  0  0  0  0  0  0  0  0
    1.1774   -3.7334   -2.2474 H   0  0  0  0  0  0  0  0  0  0  0  0
    3.2730   -3.5264   -0.8975 H   0  0  0  0  0  0  0  0  0  0  0  0
    3.0035   -1.7838   -0.7560 H   0  0  0  0  0  0  0  0  0  0  0  0
    3.2733   -2.5097   -2.3358 H   0  0  0  0  0  0  0  0  0  0  0  0
    4.6234   -4.4684   -6.1654 H   0  0  0  0  0  0  0  0  0  0  0  0
    7.7478   -4.2523   -9.5010 H   0  0  0  0  0  0  0  0  0  0  0  0
    8.7526   -5.3722   -8.5547 H   0  0  0  0  0  0  0  0  0  0  0  0
    7.2540   -2.9471   -7.4243 H   0  0  0  0  0  0  0  0  0  0  0  0
    8.9996   -3.0386   -7.6862 H   0  0  0  0  0  0  0  0  0  0  0  0
    8.2302   -4.0757   -6.4780 H   0  0  0  0  0  0  0  0  0  0  0  0
    5.9930   -5.2003  -10.7278 H   0  0  0  0  0  0  0  0  0  0  0  0
    6.1892   -4.2869  -16.0315 H   0  0  0  0  0  0  0  0  0  0  0  0
    2.9168   -0.9817  -14.2512 H   0  0  0  0  0  0  0  0  0  0  0  0
  1  2  2  0  0  0  0
  2  3  1  0  0  0  0
  3  4  2  0  0  0  0
  3  5  1  0  0  0  0
  5  6  2  0  0  0  0
  6  7  1  0  0  0  0
  7  8  2  0  0  0  0
  8  9  1  0  0  0  0
  9 10  1  0  0  0  0
  8 11  1  0  0  0  0
 11 12  2  0  0  0  0
 12 13  1  0  0  0  0
 13 14  2  0  0  0  0
 14 15  1  0  0  0  0
 15 16  3  0  0  0  0
 14 17  1  0  0  0  0
 17 18  3  0  0  0  0
  1 19  1  0  0  0  0
 19 20  2  0  0  0  0
 20 21  1  0  0  0  0
 21 22  1  0  0  0  0
 22 23  1  0  0  0  0
 23 24  1  0  0  0  0
 21 25  2  0  0  0  0
 25 26  1  0  0  0  0
 25 27  1  0  0  0  0
 27 28  2  0  0  0  0
 28 29  1  0  0  0  0
 29 30  2  0  0  0  0
 30 31  1  0  0  0  0
 31 32  2  0  0  0  0
 32 33  1  0  0  0  0
 33 34  1  0  0  0  0
 34 35  1  0  0  0  0
 33 36  2  0  0  0  0
 28 37  1  0  0  0  0
 37 38  1  0  0  0  0
 38 39  1  0  0  0  0
 39 40  1  0  0  0  0
 40 41  1  0  0  0  0
 41 42  1  0  0  0  0
 42 43  2  0  0  0  0
 43 44  1  0  0  0  0
 44 45  1  0  0  0  0
 42 46  1  0  0  0  0
 46 47  1  0  0  0  0
 47 48  1  0  0  0  0
 48 49  1  0  0  0  0
 49 50  1  0  0  0  0
 50 51  1  0  0  0  0
 51 52  2  0  0  0  0
 52 53  1  0  0  0  0
 53 54  2  0  0  0  0
 54 55  1  0  0  0  0
 55 56  1  0  0  0  0
 56 57  1  0  0  0  0
 55 58  2  0  0  0  0
 50 59  2  0  0  0  0
 59 60  1  0  0  0  0
 60 61  1  0  0  0  0
 61 62  1  0  0  0  0
 62 63  1  0  0  0  0
 63 64  1  0  0  0  0
 64 65  1  0  0  0  0
 65 66  1  0  0  0  0
 66 67  1  0  0  0  0
 67 68  1  0  0  0  0
 68 69  1  0  0  0  0
 66 70  1  0  0  0  0
 70 71  1  0  0  0  0
 63 72  1  0  0  0  0
 72 73  1  0  0  0  0
 59 74  1  0  0  0  0
 74 75  2  0  0  0  0
 75 76  1  0  0  0  0
 76 77  1  0  0  0  0
 77 78  1  0  0  0  0
 78 79  1  0  0  0  0
 76 80  2  0  0  0  0
 80 81  1  0  0  0  0
 80 82  1  0  0  0  0
 82 83  2  0  0  0  0
 83 84  1  0  0  0  0
 84 85  2  0  0  0  0
 84 86  1  0  0  0  0
 86 87  2  0  0  0  0
 87 88  1  0  0  0  0
 88 89  1  0  0  0  0
 88 90  2  0  0  0  0
 90 91  1  0  0  0  0
 90 92  1  0  0  0  0
 92 93  2  0  0  0  0
 93 94  1  0  0  0  0
 94 95  2  0  0  0  0
 13  2  1  0  0  0  0
 26 19  1  0  0  0  0
 69 27  1  0  0  0  0
 81 74  1  0  0  0  0
 94 83  1  0  0  0  0
 12  5  1  0  0  0  0
 36 29  1  0  0  0  0
 68 37  2  0  0  0  0
 93 86  1  0  0  0  0
 67 39  2  0  0  0  0
 65 40  2  0  0  0  0
 45 41  2  0  0  0  0
 64 46  2  0  0  0  0
 62 47  2  0  0  0  0
 61 49  2  0  0  0  0
 58 51  1  0  0  0  0
  1 96  1  0  0  0  0
  6 97  1  0  0  0  0
  7 98  1  0  0  0  0
 10 99  1  0  0  0  0
 10100  1  0  0  0  0
 10101  1  0  0  0  0
 11102  1  0  0  0  0
 20103  1  0  0  0  0
 23104  1  0  0  0  0
 23105  1  0  0  0  0
 24106  1  0  0  0  0
 24107  1  0  0  0  0
 24108  1  0  0  0  0
 30109  1  0  0  0  0
 31110  1  0  0  0  0
 32111  1  0  0  0  0
 34112  1  0  0  0  0
 34113  1  0  0  0  0
 35114  1  0  0  0  0
 35115  1  0  0  0  0
 35116  1  0  0  0  0
 36117  1  0  0  0  0
 52118  1  0  0  0  0
 53119  1  0  0  0  0
 54120  1  0  0  0  0
 56121  1  0  0  0  0
 56122  1  0  0  0  0
 57123  1  0  0  0  0
 57124  1  0  0  0  0
 57125  1  0  0  0  0
 58126  1  0  0  0  0
 70127  1  0  0  0  0
 70128  1  0  0  0  0
 71129  1  0  0  0  0
 71130  1  0  0  0  0
 71131  1  0  0  0  0
 72132  1  0  0  0  0
 72133  1  0  0  0  0
 73134  1  0  0  0  0
 73135  1  0  0  0  0
 73136  1  0  0  0  0
 75137  1  0  0  0  0
 78138  1  0  0  0  0
 78139  1  0  0  0  0
 79140  1  0  0  0  0
 79141  1  0  0  0  0
 79142  1  0  0  0  0
 82143  1  0  0  0  0
 87144  1  0  0  0  0
 92145  1  0  0  0  0
M  END
