127

C         -3.09670        8.81570        1.10270
C         -3.90730        8.12880        1.96900
C         -3.78620        6.70170        2.29850
O         -2.92610        5.92530        1.91460
C         -4.90910        6.39190        3.18800
C         -5.26440        5.18770        3.76130
C         -6.38600        5.13350        4.57300
C         -7.14400        6.28270        4.80590
O         -8.25000        6.32790        5.57710
C         -8.70260        5.15120        6.20680
C         -6.77970        7.50810        4.22320
C         -5.66420        7.55930        3.41680
C         -5.04700        8.66710        2.68400
C         -5.48060        9.96720        2.70590
C         -6.60280       10.41780        3.43300
N         -7.50050       10.86020        3.99550
C         -4.87760       11.04690        2.02810
N         -4.44350       11.97910        1.51530
C         -1.99870        8.36820        0.35060
C         -1.30340        9.20510       -0.51830
C         -0.25170        8.59050       -1.18960
S          0.88300        9.41040       -2.25620
C          0.81850       11.13910       -1.66290
C          1.32060       11.28090       -0.24020
C         -0.13670        7.24240       -0.85720
S         -1.31980        6.76370        0.32130
C          0.75900        6.22960       -1.31710
C          1.13240        5.85300       -2.59160
C          0.67750        6.47840       -3.87000
C         -0.79900        6.17380       -4.12720
C          1.87560        4.65880       -2.56440
S          2.51120        3.64230       -3.83890
C          3.00710        2.48980       -2.64550
C          3.56150        1.19900       -2.57150
C          4.05920        0.31690       -3.55600
C          4.50800       -0.99000       -3.15990
N          4.96960       -1.69620       -4.17940
S          4.85000       -0.79930       -5.52230
N          4.20030        0.52440       -4.85560
C          4.33310       -1.39650       -1.81790
C          4.40180       -2.66090       -1.21190
S          4.72300       -4.30060       -1.64960
C          4.16990       -4.82440       -0.06330
C          3.94920       -6.08380        0.53810
O          4.18230       -7.30580        0.02980
C          4.96780       -7.45500       -1.14380
C          6.45080       -7.23820       -0.87560
C          3.42210       -5.96090        1.82560
S          3.25730       -4.27260        2.29670
C          3.80520       -3.74730        0.75120
C          3.92670       -2.51800        0.09430
N          3.59010       -1.21110        0.32820
C          3.82970       -0.50210       -0.83320
C          3.56220        0.84020       -1.19590
N          3.09910        1.91180       -0.45010
C          2.72890        2.89130       -1.33640
C          2.07820        4.12860       -1.28920
S          1.33660        5.11090       -0.08290
C          3.47270        2.27200        0.90170
C          4.52790        3.37800        0.91160
C          2.79100       -0.86640        1.48280
C          3.62890       -0.78830        2.75830
C          3.00550       -6.90630        2.80230
C          2.44460       -8.13840        2.65310
C          2.05450       -8.74180        1.43950
C          1.26530       -9.85320        1.36440
C          0.85200      -10.35190        0.11560
C         -0.05130      -11.36130       -0.08930
C         -0.82290      -12.04220        0.97470
O         -0.70130      -11.93130        2.17790
C         -1.80810      -12.88630        0.26510
C         -2.80380      -13.67710        0.79630
C         -3.64610      -14.37650       -0.06750
C         -4.75160      -15.22050        0.48300
C         -3.45380      -14.25650       -1.44080
C         -2.45080      -13.46520       -1.98260
C         -1.61580      -12.76930       -1.12310
C         -0.49740      -11.86380       -1.37080
C          0.04390      -11.58280       -2.60120
C         -0.44020      -12.11000       -3.81540
N         -0.78650      -12.49920       -4.83910
C          1.16550      -10.76130       -2.83270
N          2.07940      -10.11970       -3.10580
H         -3.32670        9.86140        0.93780
H         -4.67270        4.30480        3.57400
H         -6.66470        4.19270        5.02000
H         -9.59310        5.44130        6.76140
H         -7.95610        4.75590        6.90240
H         -8.96660        4.38120        5.47550
H         -7.39590        8.36650        4.43100
H         -1.58130       10.23700       -0.63870
H         -0.19820       11.50990       -1.78360
H          1.46730       11.66740       -2.36150
H          0.69360       10.72300        0.45270
H          1.30790       12.32930        0.05070
H          2.33940       10.90820       -0.16050
H          1.28040        6.06940       -4.68280
H          0.82450        7.55760       -3.84060
H         -1.10990        6.61010       -5.07260
H         -0.96330        5.09940       -4.16940
H         -1.41730        6.58740       -3.33370
H          4.78230       -8.48700       -1.45220
H          4.61280       -6.78580       -1.93420
H          6.64330       -6.21410       -0.56460
H          7.01360       -7.43720       -1.78240
H          6.78930       -7.91180       -0.09180
H          3.89060        1.39910        1.39290
H          2.58040        2.60970        1.43940
H          4.83760        3.57280        1.93480
H          4.13450        4.29860        0.49060
H          5.39810        3.07330        0.33400
H          2.26310        0.06610        1.28590
H          2.03930       -1.65340        1.61190
H          4.47190       -0.11000        2.64660
H          4.01980       -1.77100        3.00770
H          3.01000       -0.44500        3.58210
H          3.07300       -6.52420        3.81560
H          2.18880       -8.67250        3.55950
H          2.35220       -8.26570        0.51810
H          0.91580      -10.34340        2.26090
H          1.27100       -9.85840       -0.75260
H         -2.92340      -13.74530        1.86740
H         -4.41140      -15.78030        1.35170
H         -5.57840      -14.58450        0.80110
H         -5.12470      -15.91570       -0.26460
H         -4.10810      -14.79630       -2.11010
H         -2.34120      -13.39980       -3.05290
