146

C         -5.39840       -0.77240        8.24980
C         -5.80080       -1.96240        8.78180
C         -6.57090       -1.97320       10.05920
O         -6.71130       -1.04430       10.82260
C         -7.14560       -3.32480       10.14920
C         -8.03350       -3.85020       11.07370
C         -8.44150       -5.16010       10.92940
C         -7.97640       -5.95130        9.86830
O         -8.44970       -7.21400        9.83300
C         -8.01100       -8.08420        8.81190
C         -7.08120       -5.42310        8.93440
C         -6.66800       -4.11220        9.08740
C         -5.71520       -3.32160        8.30890
C         -4.75210       -3.84380        7.48050
C         -4.68780       -5.19750        7.10010
N         -4.60830       -6.28210        6.72900
C         -3.66850       -3.10430        6.97080
N         -2.73790       -2.57110        6.55970
C         -5.02140       -0.48520        6.92170
C         -5.32100       -1.15870        5.75310
C         -4.81000       -0.54880        4.61080
S         -5.09860       -1.16340        2.98390
C         -4.41910       -2.85820        3.12630
C         -2.91130       -2.85590        3.26320
C         -4.10700        0.62620        4.87090
S         -4.12780        0.97630        6.57140
C         -3.34160        1.40360        3.96750
C         -2.74420        2.63720        4.19680
C         -3.03840        3.53320        5.31630
C         -4.35550        3.86910        5.62280
C         -4.61580        4.76300        6.64250
C         -3.57410        5.33150        7.35580
C         -2.25550        5.01520        7.05590
C         -1.11820        5.67790        7.77700
C         -0.64600        6.90700        6.99720
C         -1.99940        4.11690        6.03070
C         -1.85450        2.97610        3.16560
S         -0.81270        4.35770        2.91010
C         -0.28040        3.64670        1.42410
C          0.57610        3.93560        0.35200
C          1.33570        5.08960        0.06200
C          2.03870        5.15840       -1.18580
N          2.66200        6.31430       -1.35280
S          2.39250        7.23450       -0.04780
N          1.46740        6.19400        0.77960
C          2.04080        4.02730       -2.03070
C          2.74680        3.77330       -3.21580
S          3.85230        4.56880       -4.28610
C          3.99060        3.08320       -5.20360
C          4.78050        2.70960       -6.29800
C          5.73900        3.62760       -6.91680
C          7.07460        3.27250       -7.09150
C          7.96150        4.17980       -7.64040
C          7.53140        5.44080       -8.01420
C          6.20700        5.81830       -7.83010
C          5.72550        7.17480       -8.25710
C          5.18880        7.12550       -9.68900
C          5.32170        4.90430       -7.28000
C          4.57080        1.37380       -6.65670
S          3.38570        0.60410       -5.61440
C          3.19760        2.04590       -4.69860
C          2.48700        2.44550       -3.56250
N          1.62780        1.87590       -2.66040
C          1.33530        2.83240       -1.70040
C          0.50230        2.83280       -0.54960
N         -0.42000        1.93180       -0.05050
C         -0.88030        2.41560        1.14420
C         -1.78740        2.03170        2.13700
S         -2.85310        0.70440        2.42790
C         -1.12100        0.83660       -0.68030
C         -0.69210       -0.51750       -0.11640
C          1.59610        0.43000       -2.59910
C          2.77250       -0.11420       -1.79140
C          5.26260        0.72410       -7.70570
C          5.40940       -0.59140       -8.03040
C          4.76580       -1.76080       -7.54550
C          3.45840       -1.89530       -7.19120
C          2.83480       -3.10630       -6.81530
C          3.36800       -4.28110       -6.36340
C          2.55760       -5.52140       -6.49180
O          1.36960       -5.59190       -6.71800
C          3.51920       -6.63160       -6.33280
C          3.31710       -7.98560       -6.49360
C          4.39320       -8.85530       -6.32010
C          4.19800      -10.33090       -6.46680
C          5.64080       -8.33070       -5.99290
C          5.85050       -6.96980       -5.82050
C          4.77920       -6.10850       -5.98820
C          4.66480       -4.65780       -5.85090
C          5.52820       -3.86960       -5.13100
C          6.74100       -4.33120       -4.58350
N          7.74930       -4.64980       -4.13540
C          5.25490       -2.54010       -4.76210
N          5.06460       -1.47880       -4.36630
H         -5.44010        0.07330        8.92880
H         -8.38910       -3.24020       11.88930
H         -9.12770       -5.61170       11.62800
H         -8.49920       -9.03640        9.01100
H         -6.92590       -8.21920        8.83770
H         -8.30960       -7.72420        7.82300
H         -6.72690       -6.01790        8.10990
H         -5.93720       -2.03980        5.72150
H         -4.89930       -3.34660        3.97290
H         -4.73640       -3.34570        2.20490
H         -2.45600       -2.32460        2.43080
H         -2.61080       -2.37990        4.19480
H         -2.54460       -3.88040        3.27020
H         -5.16500        3.43930        5.05080
H         -5.63680        5.02430        6.87850
H         -3.78690        6.03140        8.15090
H         -1.43720        5.98230        8.77560
H         -0.28750        4.97720        7.88090
H         -1.45640        7.62580        6.89840
H         -0.32070        6.62030        5.99970
H          0.18380        7.38720        7.51030
H         -0.97870        3.85690        5.79020
H          7.42020        2.30260       -6.76520
H          8.99780        3.90360       -7.76940
H          8.23240        6.14390       -8.44040
H          4.93300        7.51160       -7.58620
H          6.54660        7.89210       -8.20470
H          5.96930        6.80440      -10.37540
H          4.36150        6.42270       -9.75930
H          4.83760        8.10730       -9.99750
H          4.28780        5.18330       -7.13600
H         -2.18920        0.97230       -0.47590
H         -0.98780        0.90150       -1.76110
H          0.38410       -0.65530       -0.17660
H         -1.18400       -1.31760       -0.66290
H         -0.98200       -0.58620        0.92860
H          1.66560        0.06850       -3.62880
H          0.66110        0.07680       -2.18170
H          2.76670        0.29590       -0.78310
H          3.71400        0.14380       -2.26880
H          2.70860       -1.19740       -1.73450
H          5.87470        1.41370       -8.27640
H          6.19350       -0.79580       -8.75160
H          5.36700       -2.66240       -7.60190
H          2.79470       -1.05660       -7.34530
H          1.76310       -3.15500       -6.98710
H          2.33660       -8.35770       -6.75080
H          3.79060      -10.74220       -5.54260
H          3.49370      -10.54920       -7.26640
H          5.13980      -10.83250       -6.67390
H          6.47550       -9.00530       -5.86880
H          6.83460       -6.60440       -5.57460
