155

C          9.41750        4.58520       -4.93540
C          9.40830        5.28990       -3.77290
C         10.65300        5.96210       -3.29740
O         11.64650        6.18400       -3.95200
C         10.41870        6.22520       -1.86910
C         11.28300        6.72560       -0.90810
C         10.82520        6.86500        0.38530
C          9.51440        6.50440        0.73420
O          9.18820        6.68360        2.03030
C          7.88130        6.36750        2.46000
C          8.64080        6.00040       -0.23260
C          9.10060        5.87140       -1.53030
C          8.40550        5.44380       -2.74190
C          7.04790        5.47420       -2.92870
C          6.44290        5.38780       -4.20070
N          5.92640        5.38910       -5.22570
C          6.11670        5.67800       -1.89330
N          5.31920        5.80930       -1.07700
C          8.52730        3.56990       -5.36110
C          8.35130        3.11550       -6.65120
C          7.40560        2.08950       -6.77210
S          6.81380        1.45610       -8.29760
C          8.32100        1.57350       -9.34100
C          8.17040        0.64710      -10.53110
C          6.87540        1.70060       -5.54900
S          7.53700        2.65480       -4.25620
C          5.87360        0.74010       -5.23000
C          5.60670       -0.50160       -5.77880
C          6.44590       -1.19140       -6.75570
C          7.83410       -1.17710       -6.63580
C          8.61090       -1.85450       -7.55440
C          8.01670       -2.55130       -8.59390
C          6.63410       -2.58130       -8.72440
C          5.97270       -3.36710       -9.81910
C          5.47600       -4.71110       -9.28300
C          5.85950       -1.90240       -7.79600
C          4.46220       -1.07760       -5.19030
S          3.64320       -2.60140       -5.44050
C          2.52790       -2.18540       -4.18340
C          1.36780       -2.69140       -3.57610
C          0.58410       -3.82790       -3.87090
C         -0.65750       -4.01240       -3.17560
N         -1.31860       -5.08000       -3.59500
S         -0.45140       -5.79440       -4.76060
N          0.80090       -4.76860       -4.77700
C         -0.99640       -3.12050       -2.13480
C         -2.06360       -3.13010       -1.22210
S         -3.50030       -4.03760       -0.89250
C         -3.78650       -3.02500        0.50290
C         -4.81700       -2.99570        1.45900
C         -5.98940       -3.87460        1.39820
C         -5.82900       -5.25370        1.32530
C         -6.94240       -6.07220        1.26400
C         -8.21220       -5.52440        1.25900
C         -8.38970       -4.14570        1.30670
C         -9.76640       -3.54980        1.23150
C        -10.20220       -3.40470       -0.22780
C         -7.27080       -3.33100        1.37550
C         -4.60490       -1.99550        2.39420
S         -3.15000       -1.06690        2.06890
C         -2.81090       -2.03980        0.68340
C         -1.82890       -2.09690       -0.31240
N         -0.68180       -1.42230       -0.64380
C         -0.15370       -2.03210       -1.77320
C          0.97400       -1.74520       -2.58640
N          1.84700       -0.67480       -2.63760
C          2.78570       -0.94450       -3.59610
C          3.88840       -0.30630       -4.17710
S          4.74720        1.17310       -3.95100
C          1.71410        0.67210       -2.13020
C          2.73320        0.98000       -1.03430
C         -0.00600       -0.68240        0.40070
C          0.95890       -1.58270        1.16960
C         -5.36420       -1.69990        3.56040
C         -6.25920       -2.52140        4.20860
C         -6.82950       -1.95460        5.35520
S         -8.11160       -2.69580        6.25780
C         -8.86130       -3.82460        5.01330
C         -8.32200       -5.23950        5.10660
C         -6.34730       -0.66380        5.62380
S         -5.20940       -0.17850        4.37770
C         -6.68280        0.29730        6.58260
C         -7.20640        0.09750        7.83970
C         -7.10520       -1.15410        8.59740
O         -6.63230       -2.21160        8.21290
C         -7.58870       -0.84670        9.95590
C         -7.69030       -1.67160       11.03700
C         -8.17230       -1.15010       12.25940
C         -8.30290       -1.95820       13.40650
C         -8.76610       -1.44110       14.58480
C         -9.11350       -0.08510       14.63900
F         -9.56800        0.40650       15.80810
C         -9.00670        0.74270       13.55640
C         -8.53200        0.22630       12.33520
C         -8.41280        1.05840       11.19680
C         -7.95070        0.52850       10.02270
C         -7.73520        1.12550        8.70690
C         -8.05950        2.41030        8.34990
C         -7.94450        2.93880        7.04800
N         -7.90320        3.43220        6.01130
C         -8.58360        3.36900        9.23990
N         -9.00350        4.19680        9.91640
H         10.26380        4.77340       -5.58880
H         12.29020        7.00220       -1.17770
H         11.46130        7.25520        1.16380
H          7.12940        6.95320        1.92360
H          7.85280        6.62280        3.51760
H          7.66720        5.30160        2.33840
H          7.63610        5.70940        0.02280
H          8.85350        3.56730       -7.48700
H          8.43480        2.60860       -9.66280
H          9.16330        1.27800       -8.71680
H          8.03500       -0.37840      -10.19460
H          9.06000        0.70090      -11.15510
H          7.30720        0.93240      -11.12760
H          8.29640       -0.64470       -5.81720
H          9.68740       -1.84270       -7.46050
H          8.63310       -3.07800       -9.30900
H          6.67890       -3.53960      -10.63380
H          5.12530       -2.80320      -10.21440
H          4.76440       -4.55740       -8.47520
H          6.30890       -5.29550       -8.89810
H          4.98950       -5.27840      -10.07280
H          4.78460       -1.90360       -7.89750
H         -4.83670       -5.67840        1.33240
H         -6.81700       -7.14370        1.21910
H         -9.07760       -6.16980        1.21120
H         -9.77550       -2.56640        1.70670
H        -10.47720       -4.19120        1.75730
H        -10.21400       -4.37520       -0.71840
H        -11.19860       -2.97320       -0.28500
H         -9.51180       -2.75850       -0.76520
H         -7.38890       -2.25680        1.40990
H          0.68640        0.82440       -1.79810
H          1.89050        1.35730       -2.96710
H          3.73780        0.95780       -1.44800
H          2.68470        0.25580       -0.22580
H          2.55360        1.97390       -0.63390
H         -0.78240       -0.31300        1.07560
H          0.52080        0.17700       -0.00050
H          0.42200       -2.41630        1.61660
H          1.44240       -1.01740        1.96170
H          1.72070       -1.98310        0.50350
H         -6.45820       -3.51940        3.87020
H         -9.92400       -3.80720        5.25370
H         -8.71370       -3.39400        4.02550
H         -8.52390       -5.65480        6.09070
H         -8.79940       -5.86560        4.35520
H         -7.24770       -5.26710        4.94190
H         -6.46060        1.31710        6.29110
H         -7.40940       -2.71140       10.96130
H         -8.02830       -3.00040       13.34050
H         -8.87100       -2.04610       15.47140
H         -9.28410        1.78240       13.63370
H         -8.68810        2.09690       11.28750
