
  xtb     02042214023D
 energy: -221.758602098968 gnorm: 0.000221550435 xtb: 6.4.1 (unknown)
127139  0     0  0            999 V2000
   -3.0967    8.8157    1.1027 C   0  0  0  0  0  0  0  0  0  0  0  0
   -3.9073    8.1288    1.9690 C   0  0  0  0  0  0  0  0  0  0  0  0
   -3.7862    6.7017    2.2985 C   0  0  0  0  0  0  0  0  0  0  0  0
   -2.9261    5.9253    1.9146 O   0  0  0  0  0  0  0  0  0  0  0  0
   -4.9091    6.3919    3.1880 C   0  0  0  0  0  0  0  0  0  0  0  0
   -5.2644    5.1877    3.7613 C   0  0  0  0  0  0  0  0  0  0  0  0
   -6.3860    5.1335    4.5730 C   0  0  0  0  0  0  0  0  0  0  0  0
   -7.1440    6.2827    4.8059 C   0  0  0  0  0  0  0  0  0  0  0  0
   -8.2500    6.3279    5.5771 O   0  0  0  0  0  0  0  0  0  0  0  0
   -8.7026    5.1512    6.2068 C   0  0  0  0  0  0  0  0  0  0  0  0
   -6.7797    7.5081    4.2232 C   0  0  0  0  0  0  0  0  0  0  0  0
   -5.6642    7.5593    3.4168 C   0  0  0  0  0  0  0  0  0  0  0  0
   -5.0470    8.6671    2.6840 C   0  0  0  0  0  0  0  0  0  0  0  0
   -5.4806    9.9672    2.7059 C   0  0  0  0  0  0  0  0  0  0  0  0
   -6.6028   10.4178    3.4330 C   0  0  0  0  0  0  0  0  0  0  0  0
   -7.5005   10.8602    3.9955 N   0  0  0  0  0  0  0  0  0  0  0  0
   -4.8776   11.0469    2.0281 C   0  0  0  0  0  0  0  0  0  0  0  0
   -4.4435   11.9791    1.5153 N   0  0  0  0  0  0  0  0  0  0  0  0
   -1.9987    8.3682    0.3506 C   0  0  0  0  0  0  0  0  0  0  0  0
   -1.3034    9.2051   -0.5183 C   0  0  0  0  0  0  0  0  0  0  0  0
   -0.2517    8.5905   -1.1896 C   0  0  0  0  0  0  0  0  0  0  0  0
    0.8830    9.4104   -2.2562 S   0  0  0  0  0  0  0  0  0  0  0  0
    0.8185   11.1391   -1.6629 C   0  0  0  0  0  0  0  0  0  0  0  0
    1.3206   11.2809   -0.2402 C   0  0  0  0  0  0  0  0  0  0  0  0
   -0.1367    7.2424   -0.8572 C   0  0  0  0  0  0  0  0  0  0  0  0
   -1.3198    6.7637    0.3213 S   0  0  0  0  0  0  0  0  0  0  0  0
    0.7590    6.2296   -1.3171 C   0  0  0  0  0  0  0  0  0  0  0  0
    1.1324    5.8530   -2.5916 C   0  0  0  0  0  0  0  0  0  0  0  0
    0.6775    6.4784   -3.8700 C   0  0  0  0  0  0  0  0  0  0  0  0
   -0.7990    6.1738   -4.1272 C   0  0  0  0  0  0  0  0  0  0  0  0
    1.8756    4.6588   -2.5644 C   0  0  0  0  0  0  0  0  0  0  0  0
    2.5112    3.6423   -3.8389 S   0  0  0  0  0  0  0  0  0  0  0  0
    3.0071    2.4898   -2.6455 C   0  0  0  0  0  0  0  0  0  0  0  0
    3.5615    1.1990   -2.5715 C   0  0  0  0  0  0  0  0  0  0  0  0
    4.0592    0.3169   -3.5560 C   0  0  0  0  0  0  0  0  0  0  0  0
    4.5080   -0.9900   -3.1599 C   0  0  0  0  0  0  0  0  0  0  0  0
    4.9696   -1.6962   -4.1794 N   0  0  0  0  0  0  0  0  0  0  0  0
    4.8500   -0.7993   -5.5223 S   0  0  0  0  0  0  0  0  0  0  0  0
    4.2003    0.5244   -4.8556 N   0  0  0  0  0  0  0  0  0  0  0  0
    4.3331   -1.3965   -1.8179 C   0  0  0  0  0  0  0  0  0  0  0  0
    4.4018   -2.6609   -1.2119 C   0  0  0  0  0  0  0  0  0  0  0  0
    4.7230   -4.3006   -1.6496 S   0  0  0  0  0  0  0  0  0  0  0  0
    4.1699   -4.8244   -0.0633 C   0  0  0  0  0  0  0  0  0  0  0  0
    3.9492   -6.0838    0.5381 C   0  0  0  0  0  0  0  0  0  0  0  0
    4.1823   -7.3058    0.0298 O   0  0  0  0  0  0  0  0  0  0  0  0
    4.9678   -7.4550   -1.1438 C   0  0  0  0  0  0  0  0  0  0  0  0
    6.4508   -7.2382   -0.8756 C   0  0  0  0  0  0  0  0  0  0  0  0
    3.4221   -5.9609    1.8256 C   0  0  0  0  0  0  0  0  0  0  0  0
    3.2573   -4.2726    2.2967 S   0  0  0  0  0  0  0  0  0  0  0  0
    3.8052   -3.7473    0.7512 C   0  0  0  0  0  0  0  0  0  0  0  0
    3.9267   -2.5180    0.0943 C   0  0  0  0  0  0  0  0  0  0  0  0
    3.5901   -1.2111    0.3282 N   0  0  0  0  0  0  0  0  0  0  0  0
    3.8297   -0.5021   -0.8332 C   0  0  0  0  0  0  0  0  0  0  0  0
    3.5622    0.8402   -1.1959 C   0  0  0  0  0  0  0  0  0  0  0  0
    3.0991    1.9118   -0.4501 N   0  0  0  0  0  0  0  0  0  0  0  0
    2.7289    2.8913   -1.3364 C   0  0  0  0  0  0  0  0  0  0  0  0
    2.0782    4.1286   -1.2892 C   0  0  0  0  0  0  0  0  0  0  0  0
    1.3366    5.1109   -0.0829 S   0  0  0  0  0  0  0  0  0  0  0  0
    3.4727    2.2720    0.9017 C   0  0  0  0  0  0  0  0  0  0  0  0
    4.5279    3.3780    0.9116 C   0  0  0  0  0  0  0  0  0  0  0  0
    2.7910   -0.8664    1.4828 C   0  0  0  0  0  0  0  0  0  0  0  0
    3.6289   -0.7883    2.7583 C   0  0  0  0  0  0  0  0  0  0  0  0
    3.0055   -6.9063    2.8023 C   0  0  0  0  0  0  0  0  0  0  0  0
    2.4446   -8.1384    2.6531 C   0  0  0  0  0  0  0  0  0  0  0  0
    2.0545   -8.7418    1.4395 C   0  0  0  0  0  0  0  0  0  0  0  0
    1.2653   -9.8532    1.3644 C   0  0  0  0  0  0  0  0  0  0  0  0
    0.8520  -10.3519    0.1156 C   0  0  0  0  0  0  0  0  0  0  0  0
   -0.0513  -11.3613   -0.0893 C   0  0  0  0  0  0  0  0  0  0  0  0
   -0.8229  -12.0422    0.9747 C   0  0  0  0  0  0  0  0  0  0  0  0
   -0.7013  -11.9313    2.1779 O   0  0  0  0  0  0  0  0  0  0  0  0
   -1.8081  -12.8863    0.2651 C   0  0  0  0  0  0  0  0  0  0  0  0
   -2.8038  -13.6771    0.7963 C   0  0  0  0  0  0  0  0  0  0  0  0
   -3.6461  -14.3765   -0.0675 C   0  0  0  0  0  0  0  0  0  0  0  0
   -4.7516  -15.2205    0.4830 C   0  0  0  0  0  0  0  0  0  0  0  0
   -3.4538  -14.2565   -1.4408 C   0  0  0  0  0  0  0  0  0  0  0  0
   -2.4508  -13.4652   -1.9826 C   0  0  0  0  0  0  0  0  0  0  0  0
   -1.6158  -12.7693   -1.1231 C   0  0  0  0  0  0  0  0  0  0  0  0
   -0.4974  -11.8638   -1.3708 C   0  0  0  0  0  0  0  0  0  0  0  0
    0.0439  -11.5828   -2.6012 C   0  0  0  0  0  0  0  0  0  0  0  0
   -0.4402  -12.1100   -3.8154 C   0  0  0  0  0  0  0  0  0  0  0  0
   -0.7865  -12.4992   -4.8391 N   0  0  0  0  0  0  0  0  0  0  0  0
    1.1655  -10.7613   -2.8327 C   0  0  0  0  0  0  0  0  0  0  0  0
    2.0794  -10.1197   -3.1058 N   0  0  0  0  0  0  0  0  0  0  0  0
   -3.3267    9.8614    0.9378 H   0  0  0  0  0  0  0  0  0  0  0  0
   -4.6727    4.3048    3.5740 H   0  0  0  0  0  0  0  0  0  0  0  0
   -6.6647    4.1927    5.0200 H   0  0  0  0  0  0  0  0  0  0  0  0
   -9.5931    5.4413    6.7614 H   0  0  0  0  0  0  0  0  0  0  0  0
   -7.9561    4.7559    6.9024 H   0  0  0  0  0  0  0  0  0  0  0  0
   -8.9666    4.3812    5.4755 H   0  0  0  0  0  0  0  0  0  0  0  0
   -7.3959    8.3665    4.4310 H   0  0  0  0  0  0  0  0  0  0  0  0
   -1.5813   10.2370   -0.6387 H   0  0  0  0  0  0  0  0  0  0  0  0
   -0.1982   11.5099   -1.7836 H   0  0  0  0  0  0  0  0  0  0  0  0
    1.4673   11.6674   -2.3615 H   0  0  0  0  0  0  0  0  0  0  0  0
    0.6936   10.7230    0.4527 H   0  0  0  0  0  0  0  0  0  0  0  0
    1.3079   12.3293    0.0507 H   0  0  0  0  0  0  0  0  0  0  0  0
    2.3394   10.9082   -0.1605 H   0  0  0  0  0  0  0  0  0  0  0  0
    1.2804    6.0694   -4.6828 H   0  0  0  0  0  0  0  0  0  0  0  0
    0.8245    7.5576   -3.8406 H   0  0  0  0  0  0  0  0  0  0  0  0
   -1.1099    6.6101   -5.0726 H   0  0  0  0  0  0  0  0  0  0  0  0
   -0.9633    5.0994   -4.1694 H   0  0  0  0  0  0  0  0  0  0  0  0
   -1.4173    6.5874   -3.3337 H   0  0  0  0  0  0  0  0  0  0  0  0
    4.7823   -8.4870   -1.4522 H   0  0  0  0  0  0  0  0  0  0  0  0
    4.6128   -6.7858   -1.9342 H   0  0  0  0  0  0  0  0  0  0  0  0
    6.6433   -6.2141   -0.5646 H   0  0  0  0  0  0  0  0  0  0  0  0
    7.0136   -7.4372   -1.7824 H   0  0  0  0  0  0  0  0  0  0  0  0
    6.7893   -7.9118   -0.0918 H   0  0  0  0  0  0  0  0  0  0  0  0
    3.8906    1.3991    1.3929 H   0  0  0  0  0  0  0  0  0  0  0  0
    2.5804    2.6097    1.4394 H   0  0  0  0  0  0  0  0  0  0  0  0
    4.8376    3.5728    1.9348 H   0  0  0  0  0  0  0  0  0  0  0  0
    4.1345    4.2986    0.4906 H   0  0  0  0  0  0  0  0  0  0  0  0
    5.3981    3.0733    0.3340 H   0  0  0  0  0  0  0  0  0  0  0  0
    2.2631    0.0661    1.2859 H   0  0  0  0  0  0  0  0  0  0  0  0
    2.0393   -1.6534    1.6119 H   0  0  0  0  0  0  0  0  0  0  0  0
    4.4719   -0.1100    2.6466 H   0  0  0  0  0  0  0  0  0  0  0  0
    4.0198   -1.7710    3.0077 H   0  0  0  0  0  0  0  0  0  0  0  0
    3.0100   -0.4450    3.5821 H   0  0  0  0  0  0  0  0  0  0  0  0
    3.0730   -6.5242    3.8156 H   0  0  0  0  0  0  0  0  0  0  0  0
    2.1888   -8.6725    3.5595 H   0  0  0  0  0  0  0  0  0  0  0  0
    2.3522   -8.2657    0.5181 H   0  0  0  0  0  0  0  0  0  0  0  0
    0.9158  -10.3434    2.2609 H   0  0  0  0  0  0  0  0  0  0  0  0
    1.2710   -9.8584   -0.7526 H   0  0  0  0  0  0  0  0  0  0  0  0
   -2.9234  -13.7453    1.8674 H   0  0  0  0  0  0  0  0  0  0  0  0
   -4.4114  -15.7803    1.3517 H   0  0  0  0  0  0  0  0  0  0  0  0
   -5.5784  -14.5845    0.8011 H   0  0  0  0  0  0  0  0  0  0  0  0
   -5.1247  -15.9157   -0.2646 H   0  0  0  0  0  0  0  0  0  0  0  0
   -4.1081  -14.7963   -2.1101 H   0  0  0  0  0  0  0  0  0  0  0  0
   -2.3412  -13.3998   -3.0529 H   0  0  0  0  0  0  0  0  0  0  0  0
  1  2  2  0  0  0  0
  2  3  1  0  0  0  0
  3  4  2  0  0  0  0
  3  5  1  0  0  0  0
  5  6  2  0  0  0  0
  6  7  1  0  0  0  0
  7  8  2  0  0  0  0
  8  9  1  0  0  0  0
  9 10  1  0  0  0  0
  8 11  1  0  0  0  0
 11 12  2  0  0  0  0
 12 13  1  0  0  0  0
 13 14  2  0  0  0  0
 14 15  1  0  0  0  0
 15 16  3  0  0  0  0
 14 17  1  0  0  0  0
 17 18  3  0  0  0  0
  1 19  1  0  0  0  0
 19 20  2  0  0  0  0
 20 21  1  0  0  0  0
 21 22  1  0  0  0  0
 22 23  1  0  0  0  0
 23 24  1  0  0  0  0
 21 25  2  0  0  0  0
 25 26  1  0  0  0  0
 25 27  1  0  0  0  0
 27 28  2  0  0  0  0
 28 29  1  0  0  0  0
 29 30  1  0  0  0  0
 28 31  1  0  0  0  0
 31 32  1  0  0  0  0
 32 33  1  0  0  0  0
 33 34  1  0  0  0  0
 34 35  1  0  0  0  0
 35 36  1  0  0  0  0
 36 37  2  0  0  0  0
 37 38  1  0  0  0  0
 38 39  1  0  0  0  0
 36 40  1  0  0  0  0
 40 41  1  0  0  0  0
 41 42  1  0  0  0  0
 42 43  1  0  0  0  0
 43 44  1  0  0  0  0
 44 45  1  0  0  0  0
 45 46  1  0  0  0  0
 46 47  1  0  0  0  0
 44 48  2  0  0  0  0
 48 49  1  0  0  0  0
 49 50  1  0  0  0  0
 50 51  1  0  0  0  0
 51 52  1  0  0  0  0
 52 53  1  0  0  0  0
 53 54  1  0  0  0  0
 54 55  1  0  0  0  0
 55 56  1  0  0  0  0
 56 57  1  0  0  0  0
 57 58  1  0  0  0  0
 55 59  1  0  0  0  0
 59 60  1  0  0  0  0
 52 61  1  0  0  0  0
 61 62  1  0  0  0  0
 48 63  1  0  0  0  0
 63 64  2  0  0  0  0
 64 65  1  0  0  0  0
 65 66  2  0  0  0  0
 66 67  1  0  0  0  0
 67 68  2  0  0  0  0
 68 69  1  0  0  0  0
 69 70  2  0  0  0  0
 69 71  1  0  0  0  0
 71 72  2  0  0  0  0
 72 73  1  0  0  0  0
 73 74  1  0  0  0  0
 73 75  2  0  0  0  0
 75 76  1  0  0  0  0
 76 77  2  0  0  0  0
 77 78  1  0  0  0  0
 78 79  2  0  0  0  0
 79 80  1  0  0  0  0
 80 81  3  0  0  0  0
 79 82  1  0  0  0  0
 82 83  3  0  0  0  0
 13  2  1  0  0  0  0
 26 19  1  0  0  0  0
 58 27  1  0  0  0  0
 78 68  1  0  0  0  0
 12  5  1  0  0  0  0
 57 31  2  0  0  0  0
 77 71  1  0  0  0  0
 56 33  2  0  0  0  0
 54 34  2  0  0  0  0
 39 35  2  0  0  0  0
 53 40  2  0  0  0  0
 51 41  2  0  0  0  0
 50 43  2  0  0  0  0
  1 84  1  0  0  0  0
  6 85  1  0  0  0  0
  7 86  1  0  0  0  0
 10 87  1  0  0  0  0
 10 88  1  0  0  0  0
 10 89  1  0  0  0  0
 11 90  1  0  0  0  0
 20 91  1  0  0  0  0
 23 92  1  0  0  0  0
 23 93  1  0  0  0  0
 24 94  1  0  0  0  0
 24 95  1  0  0  0  0
 24 96  1  0  0  0  0
 29 97  1  0  0  0  0
 29 98  1  0  0  0  0
 30 99  1  0  0  0  0
 30100  1  0  0  0  0
 30101  1  0  0  0  0
 46102  1  0  0  0  0
 46103  1  0  0  0  0
 47104  1  0  0  0  0
 47105  1  0  0  0  0
 47106  1  0  0  0  0
 59107  1  0  0  0  0
 59108  1  0  0  0  0
 60109  1  0  0  0  0
 60110  1  0  0  0  0
 60111  1  0  0  0  0
 61112  1  0  0  0  0
 61113  1  0  0  0  0
 62114  1  0  0  0  0
 62115  1  0  0  0  0
 62116  1  0  0  0  0
 63117  1  0  0  0  0
 64118  1  0  0  0  0
 65119  1  0  0  0  0
 66120  1  0  0  0  0
 67121  1  0  0  0  0
 72122  1  0  0  0  0
 74123  1  0  0  0  0
 74124  1  0  0  0  0
 74125  1  0  0  0  0
 75126  1  0  0  0  0
 76127  1  0  0  0  0
M  END
