
  xtb     02112201133D
 energy: -307.805427051201 gnorm: 0.000223944219 xtb: 6.4.1 (unknown)
179199  0     0  0            999 V2000
   11.8830   -0.2536    3.1050 C   0  0  0  0  0  0  0  0  0  0  0  0
   12.5620   -1.0944    3.9421 C   0  0  0  0  0  0  0  0  0  0  0  0
   13.8756   -1.6348    3.4935 C   0  0  0  0  0  0  0  0  0  0  0  0
   14.3487   -1.5465    2.3813 O   0  0  0  0  0  0  0  0  0  0  0  0
   14.4733   -2.2468    4.6896 C   0  0  0  0  0  0  0  0  0  0  0  0
   15.7165   -2.8227    4.8556 C   0  0  0  0  0  0  0  0  0  0  0  0
   16.0655   -3.3295    6.0978 C   0  0  0  0  0  0  0  0  0  0  0  0
   15.1738   -3.2513    7.1689 C   0  0  0  0  0  0  0  0  0  0  0  0
   15.4277   -3.7066    8.4150 O   0  0  0  0  0  0  0  0  0  0  0  0
   16.6570   -4.3415    8.6803 C   0  0  0  0  0  0  0  0  0  0  0  0
   13.9075   -2.6697    6.9992 C   0  0  0  0  0  0  0  0  0  0  0  0
   13.5605   -2.1774    5.7610 C   0  0  0  0  0  0  0  0  0  0  0  0
   12.3114   -1.5862    5.2734 C   0  0  0  0  0  0  0  0  0  0  0  0
   11.0937   -1.7351    5.8904 C   0  0  0  0  0  0  0  0  0  0  0  0
    9.8521   -1.4462    5.2929 C   0  0  0  0  0  0  0  0  0  0  0  0
    8.8019   -1.2720    4.8613 N   0  0  0  0  0  0  0  0  0  0  0  0
   10.9178   -2.2765    7.1794 C   0  0  0  0  0  0  0  0  0  0  0  0
   10.6974   -2.6702    8.2356 N   0  0  0  0  0  0  0  0  0  0  0  0
   10.8302    0.6382    3.3755 C   0  0  0  0  0  0  0  0  0  0  0  0
    9.8479    1.1851    2.0127 S   0  0  0  0  0  0  0  0  0  0  0  0
    8.8489    2.0841    3.0778 C   0  0  0  0  0  0  0  0  0  0  0  0
    7.6752    2.8289    3.1033 C   0  0  0  0  0  0  0  0  0  0  0  0
    7.4566    3.2100    4.4472 C   0  0  0  0  0  0  0  0  0  0  0  0
    8.4652    2.7231    5.2339 N   0  0  0  0  0  0  0  0  0  0  0  0
    8.5958    2.8492    6.6630 C   0  0  0  0  0  0  0  0  0  0  0  0
    9.7322    3.7957    7.0426 C   0  0  0  0  0  0  0  0  0  0  0  0
    9.3119    2.0176    4.4177 C   0  0  0  0  0  0  0  0  0  0  0  0
   10.4209    1.1979    4.5786 C   0  0  0  0  0  0  0  0  0  0  0  0
    6.2506    3.8914    4.6443 C   0  0  0  0  0  0  0  0  0  0  0  0
    5.5410    4.0149    3.4682 C   0  0  0  0  0  0  0  0  0  0  0  0
    6.3823    3.3313    2.0817 S   0  0  0  0  0  0  0  0  0  0  0  0
    4.2019    4.4715    3.2860 C   0  0  0  0  0  0  0  0  0  0  0  0
    3.4216    5.2961    4.0803 C   0  0  0  0  0  0  0  0  0  0  0  0
    3.9261    6.1168    5.1806 C   0  0  0  0  0  0  0  0  0  0  0  0
    3.2063    6.2351    6.3664 C   0  0  0  0  0  0  0  0  0  0  0  0
    3.6944    7.0219    7.3927 C   0  0  0  0  0  0  0  0  0  0  0  0
    4.8959    7.6941    7.2496 C   0  0  0  0  0  0  0  0  0  0  0  0
    5.6194    7.5997    6.0672 C   0  0  0  0  0  0  0  0  0  0  0  0
    6.9472    8.2837    5.9090 C   0  0  0  0  0  0  0  0  0  0  0  0
    8.0830    7.2836    6.1334 C   0  0  0  0  0  0  0  0  0  0  0  0
    5.1228    6.8133    5.0398 C   0  0  0  0  0  0  0  0  0  0  0  0
    2.0746    5.2797    3.6587 C   0  0  0  0  0  0  0  0  0  0  0  0
    0.6139    6.0272    4.2694 S   0  0  0  0  0  0  0  0  0  0  0  0
   -0.3038    5.2059    3.0487 C   0  0  0  0  0  0  0  0  0  0  0  0
   -1.6457    4.9698    2.6890 C   0  0  0  0  0  0  0  0  0  0  0  0
   -2.8836    5.2902    3.2943 C   0  0  0  0  0  0  0  0  0  0  0  0
   -4.0864    4.6397    2.8318 C   0  0  0  0  0  0  0  0  0  0  0  0
   -5.1419    4.9632    3.5606 N   0  0  0  0  0  0  0  0  0  0  0  0
   -4.6787    5.9991    4.7150 S   0  0  0  0  0  0  0  0  0  0  0  0
   -3.1058    6.0723    4.3379 N   0  0  0  0  0  0  0  0  0  0  0  0
   -4.0324    3.8106    1.6873 C   0  0  0  0  0  0  0  0  0  0  0  0
   -4.9853    3.0584    0.9738 C   0  0  0  0  0  0  0  0  0  0  0  0
   -6.6313    2.5296    1.1134 S   0  0  0  0  0  0  0  0  0  0  0  0
   -6.4224    1.5685   -0.3400 C   0  0  0  0  0  0  0  0  0  0  0  0
   -7.2335    0.6171   -0.9774 C   0  0  0  0  0  0  0  0  0  0  0  0
   -8.5392    0.2546   -0.4161 C   0  0  0  0  0  0  0  0  0  0  0  0
   -9.4816    1.2444   -0.1572 C   0  0  0  0  0  0  0  0  0  0  0  0
  -10.6889    0.9086    0.4273 C   0  0  0  0  0  0  0  0  0  0  0  0
  -10.9578   -0.4046    0.7686 C   0  0  0  0  0  0  0  0  0  0  0  0
  -10.0201   -1.4036    0.5328 C   0  0  0  0  0  0  0  0  0  0  0  0
  -10.2853   -2.8213    0.9503 C   0  0  0  0  0  0  0  0  0  0  0  0
   -9.7904   -3.0579    2.3784 C   0  0  0  0  0  0  0  0  0  0  0  0
   -8.8123   -1.0614   -0.0537 C   0  0  0  0  0  0  0  0  0  0  0  0
   -6.5849    0.0412   -2.0688 C   0  0  0  0  0  0  0  0  0  0  0  0
   -4.9502    0.6588   -2.2775 S   0  0  0  0  0  0  0  0  0  0  0  0
   -5.1558    1.6999   -0.9108 C   0  0  0  0  0  0  0  0  0  0  0  0
   -4.3366    2.5381   -0.1540 C   0  0  0  0  0  0  0  0  0  0  0  0
   -3.0199    2.9226   -0.1652 N   0  0  0  0  0  0  0  0  0  0  0  0
   -2.8075    3.6536    0.9855 C   0  0  0  0  0  0  0  0  0  0  0  0
   -1.6058    4.0871    1.5799 C   0  0  0  0  0  0  0  0  0  0  0  0
   -0.2929    3.7589    1.2907 N   0  0  0  0  0  0  0  0  0  0  0  0
    0.4888    4.4335    2.1946 C   0  0  0  0  0  0  0  0  0  0  0  0
    1.8418    4.4745    2.5430 C   0  0  0  0  0  0  0  0  0  0  0  0
    3.2904    3.7291    1.9802 S   0  0  0  0  0  0  0  0  0  0  0  0
    0.1843    2.5023    0.7483 C   0  0  0  0  0  0  0  0  0  0  0  0
    0.3430    1.4528    1.8481 C   0  0  0  0  0  0  0  0  0  0  0  0
   -2.2833    3.0354   -1.4078 C   0  0  0  0  0  0  0  0  0  0  0  0
   -3.0523    3.8612   -2.4378 C   0  0  0  0  0  0  0  0  0  0  0  0
   -7.0524   -0.9352   -2.9976 C   0  0  0  0  0  0  0  0  0  0  0  0
   -8.3725   -1.3722   -3.1098 C   0  0  0  0  0  0  0  0  0  0  0  0
   -8.7444   -2.3965   -3.9640 C   0  0  0  0  0  0  0  0  0  0  0  0
   -7.8341   -3.0498   -4.7965 C   0  0  0  0  0  0  0  0  0  0  0  0
   -6.4907   -2.5509   -4.7938 C   0  0  0  0  0  0  0  0  0  0  0  0
   -5.5705   -3.0888   -5.6054 N   0  0  0  0  0  0  0  0  0  0  0  0
   -4.3397   -2.6313   -5.6049 C   0  0  0  0  0  0  0  0  0  0  0  0
   -3.3774   -3.3426   -6.4503 C   0  0  0  0  0  0  0  0  0  0  0  0
   -3.7860   -3.8175   -7.6943 C   0  0  0  0  0  0  0  0  0  0  0  0
   -2.9027   -4.5096   -8.4993 C   0  0  0  0  0  0  0  0  0  0  0  0
   -1.6087   -4.7466   -8.0663 C   0  0  0  0  0  0  0  0  0  0  0  0
   -1.2027   -4.2958   -6.8206 C   0  0  0  0  0  0  0  0  0  0  0  0
   -2.0790   -3.5966   -6.0134 C   0  0  0  0  0  0  0  0  0  0  0  0
   -3.9887   -1.5105   -4.7911 C   0  0  0  0  0  0  0  0  0  0  0  0
   -4.8756   -1.0173   -3.9587 N   0  0  0  0  0  0  0  0  0  0  0  0
   -6.1170   -1.5100   -3.9120 C   0  0  0  0  0  0  0  0  0  0  0  0
   -2.6891   -0.8329   -4.8616 C   0  0  0  0  0  0  0  0  0  0  0  0
   -2.1160   -0.5217   -6.0925 C   0  0  0  0  0  0  0  0  0  0  0  0
   -0.9048    0.1414   -6.1450 C   0  0  0  0  0  0  0  0  0  0  0  0
   -0.2500    0.4932   -4.9759 C   0  0  0  0  0  0  0  0  0  0  0  0
   -0.8180    0.1901   -3.7495 C   0  0  0  0  0  0  0  0  0  0  0  0
   -2.0353   -0.4617   -3.6897 C   0  0  0  0  0  0  0  0  0  0  0  0
   -8.0637   -4.1919   -5.6136 C   0  0  0  0  0  0  0  0  0  0  0  0
   -9.1492   -4.9801   -5.8739 C   0  0  0  0  0  0  0  0  0  0  0  0
  -10.5748   -4.8117   -5.4899 C   0  0  0  0  0  0  0  0  0  0  0  0
  -11.0808   -3.9605   -4.7850 O   0  0  0  0  0  0  0  0  0  0  0  0
  -11.3000   -5.9001   -6.1605 C   0  0  0  0  0  0  0  0  0  0  0  0
  -12.6572   -6.1791   -6.1429 C   0  0  0  0  0  0  0  0  0  0  0  0
  -13.1175   -7.2668   -6.8542 C   0  0  0  0  0  0  0  0  0  0  0  0
  -12.2336   -8.0752   -7.5845 C   0  0  0  0  0  0  0  0  0  0  0  0
  -12.7997   -9.1115   -8.2387 O   0  0  0  0  0  0  0  0  0  0  0  0
  -11.9789   -9.9846   -8.9845 C   0  0  0  0  0  0  0  0  0  0  0  0
  -10.8664   -7.7911   -7.6040 C   0  0  0  0  0  0  0  0  0  0  0  0
  -10.4057   -6.7008   -6.8852 C   0  0  0  0  0  0  0  0  0  0  0  0
   -9.0540   -6.1787   -6.6961 C   0  0  0  0  0  0  0  0  0  0  0  0
   -7.9152   -6.7784   -7.1699 C   0  0  0  0  0  0  0  0  0  0  0  0
   -7.9133   -7.9417   -7.9684 C   0  0  0  0  0  0  0  0  0  0  0  0
   -7.8360   -8.8800   -8.6270 N   0  0  0  0  0  0  0  0  0  0  0  0
   -6.5757   -6.3953   -6.9339 C   0  0  0  0  0  0  0  0  0  0  0  0
   -5.4473   -6.2208   -6.8030 N   0  0  0  0  0  0  0  0  0  0  0  0
   12.2498   -0.2526    2.0823 H   0  0  0  0  0  0  0  0  0  0  0  0
   16.4012   -2.8788    4.0235 H   0  0  0  0  0  0  0  0  0  0  0  0
   17.0350   -3.7842    6.2240 H   0  0  0  0  0  0  0  0  0  0  0  0
   16.7869   -5.2363    8.0640 H   0  0  0  0  0  0  0  0  0  0  0  0
   16.6158   -4.6300    9.7291 H   0  0  0  0  0  0  0  0  0  0  0  0
   17.5015   -3.6631    8.5244 H   0  0  0  0  0  0  0  0  0  0  0  0
   13.2512   -2.6278    7.8526 H   0  0  0  0  0  0  0  0  0  0  0  0
    8.7788    1.8554    7.0855 H   0  0  0  0  0  0  0  0  0  0  0  0
    7.6476    3.2227    7.0547 H   0  0  0  0  0  0  0  0  0  0  0  0
    9.8058    3.8694    8.1240 H   0  0  0  0  0  0  0  0  0  0  0  0
   10.6788    3.4289    6.6535 H   0  0  0  0  0  0  0  0  0  0  0  0
    9.5528    4.7874    6.6351 H   0  0  0  0  0  0  0  0  0  0  0  0
   10.9356    1.0259    5.5068 H   0  0  0  0  0  0  0  0  0  0  0  0
    5.8759    4.2404    5.5886 H   0  0  0  0  0  0  0  0  0  0  0  0
    2.2761    5.7013    6.4861 H   0  0  0  0  0  0  0  0  0  0  0  0
    3.1349    7.1089    8.3123 H   0  0  0  0  0  0  0  0  0  0  0  0
    5.2724    8.3031    8.0589 H   0  0  0  0  0  0  0  0  0  0  0  0
    7.0352    9.1004    6.6274 H   0  0  0  0  0  0  0  0  0  0  0  0
    7.0305    8.7012    4.9034 H   0  0  0  0  0  0  0  0  0  0  0  0
    8.0204    6.8647    7.1360 H   0  0  0  0  0  0  0  0  0  0  0  0
    9.0491    7.7702    6.0193 H   0  0  0  0  0  0  0  0  0  0  0  0
    8.0141    6.4705    5.4128 H   0  0  0  0  0  0  0  0  0  0  0  0
    5.6674    6.7446    4.1089 H   0  0  0  0  0  0  0  0  0  0  0  0
   -9.2708    2.2681   -0.4279 H   0  0  0  0  0  0  0  0  0  0  0  0
  -11.4229    1.6772    0.6189 H   0  0  0  0  0  0  0  0  0  0  0  0
  -11.9037   -0.6599    1.2239 H   0  0  0  0  0  0  0  0  0  0  0  0
  -11.3563   -3.0265    0.9009 H   0  0  0  0  0  0  0  0  0  0  0  0
   -9.7744   -3.5077    0.2719 H   0  0  0  0  0  0  0  0  0  0  0  0
   -8.7214   -2.8678    2.4447 H   0  0  0  0  0  0  0  0  0  0  0  0
   -9.9805   -4.0847    2.6820 H   0  0  0  0  0  0  0  0  0  0  0  0
  -10.2989   -2.3905    3.0707 H   0  0  0  0  0  0  0  0  0  0  0  0
   -8.0685   -1.8249   -0.2355 H   0  0  0  0  0  0  0  0  0  0  0  0
   -0.5189    2.1265    0.0106 H   0  0  0  0  0  0  0  0  0  0  0  0
    1.1492    2.6896    0.2678 H   0  0  0  0  0  0  0  0  0  0  0  0
    1.0685    1.7738    2.5905 H   0  0  0  0  0  0  0  0  0  0  0  0
    0.6845    0.5173    1.4142 H   0  0  0  0  0  0  0  0  0  0  0  0
   -0.6109    1.2828    2.3432 H   0  0  0  0  0  0  0  0  0  0  0  0
   -2.1054    2.0339   -1.8135 H   0  0  0  0  0  0  0  0  0  0  0  0
   -1.3345    3.5333   -1.2064 H   0  0  0  0  0  0  0  0  0  0  0  0
   -3.2887    4.8438   -2.0350 H   0  0  0  0  0  0  0  0  0  0  0  0
   -3.9756    3.3641   -2.7199 H   0  0  0  0  0  0  0  0  0  0  0  0
   -2.4425    3.9835   -3.3287 H   0  0  0  0  0  0  0  0  0  0  0  0
   -9.1350   -0.9079   -2.5061 H   0  0  0  0  0  0  0  0  0  0  0  0
   -9.7766   -2.7072   -3.9755 H   0  0  0  0  0  0  0  0  0  0  0  0
   -4.7978   -3.6294   -8.0181 H   0  0  0  0  0  0  0  0  0  0  0  0
   -3.2259   -4.8726   -9.4635 H   0  0  0  0  0  0  0  0  0  0  0  0
   -0.9187   -5.2907   -8.6942 H   0  0  0  0  0  0  0  0  0  0  0  0
   -0.1995   -4.4952   -6.4735 H   0  0  0  0  0  0  0  0  0  0  0  0
   -1.7647   -3.2693   -5.0331 H   0  0  0  0  0  0  0  0  0  0  0  0
   -2.6279   -0.7878   -7.0056 H   0  0  0  0  0  0  0  0  0  0  0  0
   -0.4687    0.3836   -7.1026 H   0  0  0  0  0  0  0  0  0  0  0  0
    0.7008    1.0032   -5.0207 H   0  0  0  0  0  0  0  0  0  0  0  0
   -0.3036    0.4589   -2.8376 H   0  0  0  0  0  0  0  0  0  0  0  0
   -2.4861   -0.7043   -2.7395 H   0  0  0  0  0  0  0  0  0  0  0  0
   -7.1442   -4.4957   -6.1034 H   0  0  0  0  0  0  0  0  0  0  0  0
  -13.3292   -5.5522   -5.5778 H   0  0  0  0  0  0  0  0  0  0  0  0
  -14.1642   -7.5257   -6.8680 H   0  0  0  0  0  0  0  0  0  0  0  0
  -12.6517  -10.7325   -9.4003 H   0  0  0  0  0  0  0  0  0  0  0  0
  -11.2357  -10.4767   -8.3506 H   0  0  0  0  0  0  0  0  0  0  0  0
  -11.4709   -9.4606   -9.7991 H   0  0  0  0  0  0  0  0  0  0  0  0
  -10.1885   -8.4069   -8.1677 H   0  0  0  0  0  0  0  0  0  0  0  0
  1  2  2  0  0  0  0
  2  3  1  0  0  0  0
  3  4  2  0  0  0  0
  3  5  1  0  0  0  0
  5  6  2  0  0  0  0
  6  7  1  0  0  0  0
  7  8  2  0  0  0  0
  8  9  1  0  0  0  0
  9 10  1  0  0  0  0
  8 11  1  0  0  0  0
 11 12  2  0  0  0  0
 12 13  1  0  0  0  0
 13 14  2  0  0  0  0
 14 15  1  0  0  0  0
 15 16  3  0  0  0  0
 14 17  1  0  0  0  0
 17 18  3  0  0  0  0
  1 19  1  0  0  0  0
 19 20  1  0  0  0  0
 20 21  1  0  0  0  0
 21 22  1  0  0  0  0
 22 23  2  0  0  0  0
 23 24  1  0  0  0  0
 24 25  1  0  0  0  0
 25 26  1  0  0  0  0
 24 27  1  0  0  0  0
 27 28  1  0  0  0  0
 23 29  1  0  0  0  0
 29 30  2  0  0  0  0
 30 31  1  0  0  0  0
 30 32  1  0  0  0  0
 32 33  2  0  0  0  0
 33 34  1  0  0  0  0
 34 35  2  0  0  0  0
 35 36  1  0  0  0  0
 36 37  2  0  0  0  0
 37 38  1  0  0  0  0
 38 39  1  0  0  0  0
 39 40  1  0  0  0  0
 38 41  2  0  0  0  0
 33 42  1  0  0  0  0
 42 43  1  0  0  0  0
 43 44  1  0  0  0  0
 44 45  1  0  0  0  0
 45 46  1  0  0  0  0
 46 47  1  0  0  0  0
 47 48  2  0  0  0  0
 48 49  1  0  0  0  0
 49 50  1  0  0  0  0
 47 51  1  0  0  0  0
 51 52  1  0  0  0  0
 52 53  1  0  0  0  0
 53 54  1  0  0  0  0
 54 55  1  0  0  0  0
 55 56  1  0  0  0  0
 56 57  2  0  0  0  0
 57 58  1  0  0  0  0
 58 59  2  0  0  0  0
 59 60  1  0  0  0  0
 60 61  1  0  0  0  0
 61 62  1  0  0  0  0
 60 63  2  0  0  0  0
 55 64  2  0  0  0  0
 64 65  1  0  0  0  0
 65 66  1  0  0  0  0
 66 67  1  0  0  0  0
 67 68  1  0  0  0  0
 68 69  1  0  0  0  0
 69 70  1  0  0  0  0
 70 71  1  0  0  0  0
 71 72  1  0  0  0  0
 72 73  1  0  0  0  0
 73 74  1  0  0  0  0
 71 75  1  0  0  0  0
 75 76  1  0  0  0  0
 68 77  1  0  0  0  0
 77 78  1  0  0  0  0
 64 79  1  0  0  0  0
 79 80  2  0  0  0  0
 80 81  1  0  0  0  0
 81 82  2  0  0  0  0
 82 83  1  0  0  0  0
 83 84  2  0  0  0  0
 84 85  1  0  0  0  0
 85 86  1  0  0  0  0
 86 87  2  0  0  0  0
 87 88  1  0  0  0  0
 88 89  2  0  0  0  0
 89 90  1  0  0  0  0
 90 91  2  0  0  0  0
 85 92  2  0  0  0  0
 92 93  1  0  0  0  0
 93 94  2  0  0  0  0
 92 95  1  0  0  0  0
 95 96  2  0  0  0  0
 96 97  1  0  0  0  0
 97 98  2  0  0  0  0
 98 99  1  0  0  0  0
 99100  2  0  0  0  0
 82101  1  0  0  0  0
101102  2  0  0  0  0
102103  1  0  0  0  0
103104  2  0  0  0  0
103105  1  0  0  0  0
105106  2  0  0  0  0
106107  1  0  0  0  0
107108  2  0  0  0  0
108109  1  0  0  0  0
109110  1  0  0  0  0
108111  1  0  0  0  0
111112  2  0  0  0  0
112113  1  0  0  0  0
113114  2  0  0  0  0
114115  1  0  0  0  0
115116  3  0  0  0  0
114117  1  0  0  0  0
117118  3  0  0  0  0
 13  2  1  0  0  0  0
 28 19  2  0  0  0  0
 74 32  1  0  0  0  0
 94 79  1  0  0  0  0
100 95  1  0  0  0  0
113102  1  0  0  0  0
 12  5  1  0  0  0  0
 27 21  2  0  0  0  0
 41 34  1  0  0  0  0
 73 42  2  0  0  0  0
 94 83  1  0  0  0  0
112105  1  0  0  0  0
 31 22  1  0  0  0  0
 72 44  2  0  0  0  0
 91 86  1  0  0  0  0
 70 45  2  0  0  0  0
 50 46  2  0  0  0  0
 69 51  2  0  0  0  0
 67 52  2  0  0  0  0
 66 54  2  0  0  0  0
 63 56  1  0  0  0  0
  1119  1  0  0  0  0
  6120  1  0  0  0  0
  7121  1  0  0  0  0
 10122  1  0  0  0  0
 10123  1  0  0  0  0
 10124  1  0  0  0  0
 11125  1  0  0  0  0
 25126  1  0  0  0  0
 25127  1  0  0  0  0
 26128  1  0  0  0  0
 26129  1  0  0  0  0
 26130  1  0  0  0  0
 28131  1  0  0  0  0
 29132  1  0  0  0  0
 35133  1  0  0  0  0
 36134  1  0  0  0  0
 37135  1  0  0  0  0
 39136  1  0  0  0  0
 39137  1  0  0  0  0
 40138  1  0  0  0  0
 40139  1  0  0  0  0
 40140  1  0  0  0  0
 41141  1  0  0  0  0
 57142  1  0  0  0  0
 58143  1  0  0  0  0
 59144  1  0  0  0  0
 61145  1  0  0  0  0
 61146  1  0  0  0  0
 62147  1  0  0  0  0
 62148  1  0  0  0  0
 62149  1  0  0  0  0
 63150  1  0  0  0  0
 75151  1  0  0  0  0
 75152  1  0  0  0  0
 76153  1  0  0  0  0
 76154  1  0  0  0  0
 76155  1  0  0  0  0
 77156  1  0  0  0  0
 77157  1  0  0  0  0
 78158  1  0  0  0  0
 78159  1  0  0  0  0
 78160  1  0  0  0  0
 80161  1  0  0  0  0
 81162  1  0  0  0  0
 87163  1  0  0  0  0
 88164  1  0  0  0  0
 89165  1  0  0  0  0
 90166  1  0  0  0  0
 91167  1  0  0  0  0
 96168  1  0  0  0  0
 97169  1  0  0  0  0
 98170  1  0  0  0  0
 99171  1  0  0  0  0
100172  1  0  0  0  0
101173  1  0  0  0  0
106174  1  0  0  0  0
107175  1  0  0  0  0
110176  1  0  0  0  0
110177  1  0  0  0  0
110178  1  0  0  0  0
111179  1  0  0  0  0
M  END
