167

C         -3.02950       -7.26120       -3.51590
C         -3.18380       -6.72820       -4.76990
C         -3.58520       -5.34530       -5.07670
O         -4.04780       -4.52110       -4.30720
C         -3.30620       -5.15390       -6.50490
C         -3.40530       -4.01040       -7.27210
C         -3.04620       -4.06160       -8.60950
C         -2.59640       -5.25740       -9.17400
O         -2.22050       -5.40300      -10.45990
C         -2.27070       -4.28960      -11.32560
C         -2.50350       -6.42260       -8.39430
C         -2.85420       -6.36590       -7.06350
C         -2.82870       -7.38330       -6.01160
C         -2.54990       -8.71250       -6.20010
C         -2.56270       -9.70080       -5.19470
N         -2.55470      -10.56520       -4.43730
C         -2.23420       -9.28820       -7.44850
N         -1.97060       -9.83030       -8.42570
C         -3.24330       -6.69350       -2.25110
S         -4.00870       -5.13750       -1.92650
C         -3.71800       -5.34800       -0.24470
C         -3.81590       -4.66450        0.96660
C         -3.17520       -5.45410        1.94520
N         -2.71050       -6.61000        1.37720
C         -2.08430       -7.71070        2.06140
C         -3.11530       -8.72210        2.55880
C         -3.03360       -6.55990        0.04260
C         -2.79980       -7.32550       -1.08430
C         -3.08450       -4.82590        3.19370
C         -3.67790       -3.58510        3.18040
S         -4.38170       -3.17000        1.61850
C         -3.57610       -2.55880        4.17190
C         -4.44390       -1.51460        4.42530
C         -5.82410       -1.48040        3.94530
C         -6.38650       -0.29490        3.48150
C         -7.68880       -0.28540        3.01930
C         -8.43930       -1.44710        3.01740
C         -7.89700       -2.63910        3.48330
C         -8.72620       -3.89030        3.52840
C         -9.52920       -3.95210        4.82910
C         -6.59270       -2.64210        3.94880
C         -3.81700       -0.50190        5.18550
S         -4.31090        1.10290        5.67550
C         -2.68640        1.43260        6.18030
C         -1.88250        2.54500        6.50100
C         -2.17040        3.90950        6.72820
C         -1.08380        4.85220        6.80260
N         -1.50370        6.08800        7.01590
S         -3.12010        6.07410        7.11850
N         -3.34940        4.48850        6.88360
C          0.22860        4.40550        6.52350
C          1.37130        5.09800        6.08220
S          1.81160        6.70960        5.61630
C          3.17830        6.06990        4.72580
C          4.05520        6.62060        3.75910
C          4.11270        8.01960        3.34550
C          5.32110        8.57770        2.92880
C          5.37520        9.90120        2.53940
C          4.23380       10.68380        2.56420
C          3.02230       10.14880        2.98320
C          1.77100       10.97850        2.97420
C          1.05580       10.84800        1.62800
C          2.97310        8.81790        3.36740
C          4.87160        5.64760        3.21830
S          4.62960        4.06640        3.95550
C          3.32700        4.69450        4.89940
C          2.29110        4.13580        5.65900
N          1.78500        2.88000        5.86090
C          0.50810        3.02090        6.36600
C         -0.54220        2.07990        6.49180
N         -0.53670        0.70670        6.29710
C         -1.83610        0.33200        6.05390
C         -2.48730       -0.77820        5.50430
S         -2.00440       -2.33700        4.93710
C          0.41540       -0.24300        6.83400
C         -0.15180       -0.96190        8.05760
C          2.42310        1.73960        5.24690
C          3.62060        1.25500        6.06160
C          5.55260        5.62940        1.95460
S          4.62460        6.14340        0.54440
C          5.76180        5.35520       -0.48720
C          5.90930        4.94070       -1.80980
C          7.11760        4.19020       -1.85440
N          7.70400        4.17520       -0.61060
C          8.84730        3.38850       -0.22510
C          8.44740        1.96820        0.17050
C          6.84860        4.82470        0.23960
C          6.71040        4.96670        1.62730
C          7.33370        3.59050       -3.07900
C          6.26540        3.79750       -3.96200
S          5.01930        4.84500       -3.27560
C          6.18970        3.11820       -5.18390
C          5.11420        2.90760       -6.01420
C          3.74790        3.38900       -5.78190
O          3.38790        4.27210       -5.02490
C          2.87880        2.57100       -6.64920
C          1.51660        2.51600       -6.68800
C          0.89060        1.57340       -7.53550
C         -0.51170        1.43820       -7.57730
C         -1.10560        0.49380       -8.36840
C         -0.29480       -0.33750       -9.15040
F         -0.89940       -1.27230       -9.91660
C          1.06820       -0.23990       -9.16000
C          1.69700        0.72110       -8.34380
C          3.10830        0.82350       -8.30330
C          3.69210        1.72950       -7.45940
C          5.09360        1.99900       -7.14090
C          6.17300        1.48640       -7.81520
C          7.52160        1.77250       -7.52210
N          8.64090        1.95960       -7.34200
C          6.06760        0.62120       -8.92290
N          6.04460       -0.08600       -9.82740
H         -2.61270       -8.26050       -3.46450
H         -3.75250       -3.09080       -6.82620
H         -3.10960       -3.16700       -9.20740
H         -3.29480       -3.92300      -11.44340
H         -1.90560       -4.65130      -12.28510
H         -1.62930       -3.47730      -10.97490
H         -2.14760       -7.32110       -8.87000
H         -1.38990       -8.19320        1.36840
H         -1.51320       -7.30980        2.90320
H         -3.80540       -8.24700        3.25210
H         -3.68420       -9.12100        1.72260
H         -2.61790       -9.54340        3.06710
H         -2.31230       -8.28380       -1.10500
H         -2.60470       -5.23110        4.06670
H         -5.79850        0.60950        3.46330
H         -8.11900        0.63510        2.65340
H         -9.45510       -1.43260        2.64930
H         -8.07830       -4.76660        3.46120
H         -9.41310       -3.90800        2.67990
H         -8.86040       -3.94580        5.68700
H        -10.19070       -3.09220        4.90640
H        -10.13070       -4.85760        4.86330
H         -6.16280       -3.55950        4.32730
H          6.21800        7.97550        2.92900
H          6.31480       10.32790        2.22010
H          4.28450       11.72000        2.26200
H          2.02050       12.02670        3.15000
H          1.10280       10.64640        3.77100
H          1.70300       11.18390        0.82090
H          0.78830        9.81050        1.44140
H          0.14900       11.44810        1.61970
H          2.02960        8.39400        3.67620
H          1.31260        0.29590        7.13140
H          0.66390       -0.98030        6.06220
H          0.60510       -1.61910        8.47720
H         -1.01740       -1.56030        7.78720
H         -0.44890       -0.24010        8.81540
H          1.68800        0.95110        5.09940
H          2.77850        2.05090        4.25800
H          4.05000        0.37220        5.59690
H          3.33570        1.01080        7.08250
H          4.38110        2.03090        6.09830
H          9.54190        3.36320       -1.06860
H          9.33820        3.88870        0.61400
H          7.95770        1.46900       -0.66220
H          7.75940        1.99030        1.01260
H          9.32790        1.39740        0.45170
H          7.39000        4.58170        2.36630
H          8.17840        2.97820       -3.34020
H          7.10280        2.59080       -5.43590
H          0.92280        3.16570       -6.06260
H         -1.11430        2.09020       -6.96320
H         -2.17660        0.37230       -8.40340
H          1.66040       -0.89630       -9.77840
H          3.69070        0.16200       -8.92450
