
  xtb     02032220143D
 energy: -287.444062254177 gnorm: 0.000417496390 xtb: 6.4.1 (unknown)
165184  0     0  0            999 V2000
   -8.7125   -3.9787  -11.4202 C   0  0  0  0  0  0  0  0  0  0  0  0
   -9.9002   -4.0062  -10.7538 C   0  0  0  0  0  0  0  0  0  0  0  0
  -11.1671   -3.6693  -11.4618 C   0  0  0  0  0  0  0  0  0  0  0  0
  -11.3249   -3.5874  -12.6601 O   0  0  0  0  0  0  0  0  0  0  0  0
  -12.1426   -3.4077  -10.3908 C   0  0  0  0  0  0  0  0  0  0  0  0
  -13.4442   -2.9395  -10.4720 C   0  0  0  0  0  0  0  0  0  0  0  0
  -14.1552   -2.7548   -9.3043 C   0  0  0  0  0  0  0  0  0  0  0  0
  -13.5794   -3.0254   -8.0539 C   0  0  0  0  0  0  0  0  0  0  0  0
  -14.3735   -2.7989   -6.9864 O   0  0  0  0  0  0  0  0  0  0  0  0
  -13.8747   -3.0632   -5.6928 C   0  0  0  0  0  0  0  0  0  0  0  0
  -12.2677   -3.4989   -7.9690 C   0  0  0  0  0  0  0  0  0  0  0  0
  -11.5627   -3.6930   -9.1423 C   0  0  0  0  0  0  0  0  0  0  0  0
  -10.2185   -4.2225   -9.3623 C   0  0  0  0  0  0  0  0  0  0  0  0
   -9.5366   -5.0376   -8.4948 C   0  0  0  0  0  0  0  0  0  0  0  0
   -8.4011   -5.7827   -8.8740 C   0  0  0  0  0  0  0  0  0  0  0  0
   -7.5126   -6.4475   -9.1692 N   0  0  0  0  0  0  0  0  0  0  0  0
   -9.9562   -5.3012   -7.1777 C   0  0  0  0  0  0  0  0  0  0  0  0
  -10.2580   -5.5306   -6.0932 N   0  0  0  0  0  0  0  0  0  0  0  0
   -7.4088   -3.8349  -10.8982 C   0  0  0  0  0  0  0  0  0  0  0  0
   -7.1133   -3.1214   -9.3094 S   0  0  0  0  0  0  0  0  0  0  0  0
   -5.4175   -3.2601   -9.5485 C   0  0  0  0  0  0  0  0  0  0  0  0
   -4.2052   -3.0008   -8.9187 C   0  0  0  0  0  0  0  0  0  0  0  0
   -3.1891   -3.4325   -9.8012 C   0  0  0  0  0  0  0  0  0  0  0  0
   -3.7480   -3.9481  -10.9375 N   0  0  0  0  0  0  0  0  0  0  0  0
   -3.0249   -4.3998  -12.0979 C   0  0  0  0  0  0  0  0  0  0  0  0
   -2.5686   -3.2270  -12.9637 C   0  0  0  0  0  0  0  0  0  0  0  0
   -5.1083   -3.8340  -10.8077 C   0  0  0  0  0  0  0  0  0  0  0  0
   -6.2326   -4.1263  -11.5710 C   0  0  0  0  0  0  0  0  0  0  0  0
   -1.8963   -3.2433   -9.3060 C   0  0  0  0  0  0  0  0  0  0  0  0
   -1.9135   -2.6559   -8.0591 C   0  0  0  0  0  0  0  0  0  0  0  0
   -3.5440   -2.3494   -7.4660 S   0  0  0  0  0  0  0  0  0  0  0  0
   -0.8054   -2.3124   -7.2339 C   0  0  0  0  0  0  0  0  0  0  0  0
    0.5268   -2.1506   -7.5743 C   0  0  0  0  0  0  0  0  0  0  0  0
    1.0819   -2.1349   -8.9299 C   0  0  0  0  0  0  0  0  0  0  0  0
    0.4943   -1.3691   -9.9346 C   0  0  0  0  0  0  0  0  0  0  0  0
    1.0610   -1.3347  -11.1937 C   0  0  0  0  0  0  0  0  0  0  0  0
    2.2168   -2.0498  -11.4610 C   0  0  0  0  0  0  0  0  0  0  0  0
    2.8233   -2.8069  -10.4676 C   0  0  0  0  0  0  0  0  0  0  0  0
    4.1137   -3.5299  -10.7227 C   0  0  0  0  0  0  0  0  0  0  0  0
    5.2951   -2.6751  -10.2594 C   0  0  0  0  0  0  0  0  0  0  0  0
    2.2471   -2.8404   -9.2057 C   0  0  0  0  0  0  0  0  0  0  0  0
    1.3173   -1.9092   -6.4323 C   0  0  0  0  0  0  0  0  0  0  0  0
    3.0263   -1.6049   -6.2203 S   0  0  0  0  0  0  0  0  0  0  0  0
    2.7563   -1.4009   -4.5220 C   0  0  0  0  0  0  0  0  0  0  0  0
    3.4706   -1.0608   -3.3606 C   0  0  0  0  0  0  0  0  0  0  0  0
    4.8077   -0.6453   -3.1795 C   0  0  0  0  0  0  0  0  0  0  0  0
    5.2215   -0.1825   -1.8849 C   0  0  0  0  0  0  0  0  0  0  0  0
    6.4760    0.2403   -1.8766 N   0  0  0  0  0  0  0  0  0  0  0  0
    7.0866    0.0647   -3.3656 S   0  0  0  0  0  0  0  0  0  0  0  0
    5.7727   -0.5551   -4.0814 N   0  0  0  0  0  0  0  0  0  0  0  0
    4.3178   -0.2783   -0.8048 C   0  0  0  0  0  0  0  0  0  0  0  0
    4.4803   -0.0259    0.5673 C   0  0  0  0  0  0  0  0  0  0  0  0
    5.6737    0.6033    1.6523 S   0  0  0  0  0  0  0  0  0  0  0  0
    4.5843    0.3015    2.9839 C   0  0  0  0  0  0  0  0  0  0  0  0
    4.7012    0.5181    4.3712 C   0  0  0  0  0  0  0  0  0  0  0  0
    5.9091    1.0598    4.9982 C   0  0  0  0  0  0  0  0  0  0  0  0
    6.4784    2.2332    4.5160 C   0  0  0  0  0  0  0  0  0  0  0  0
    7.6293    2.7277    5.1002 C   0  0  0  0  0  0  0  0  0  0  0  0
    8.2214    2.0556    6.1541 C   0  0  0  0  0  0  0  0  0  0  0  0
    7.6735    0.8735    6.6380 C   0  0  0  0  0  0  0  0  0  0  0  0
    8.3476    0.1126    7.7429 C   0  0  0  0  0  0  0  0  0  0  0  0
    9.3903   -0.8487    7.1690 C   0  0  0  0  0  0  0  0  0  0  0  0
    6.5195    0.3825    6.0491 C   0  0  0  0  0  0  0  0  0  0  0  0
    3.5616    0.1172    5.0423 C   0  0  0  0  0  0  0  0  0  0  0  0
    2.3542   -0.5648    3.9539 S   0  0  0  0  0  0  0  0  0  0  0  0
    3.3734   -0.2702    2.5894 C   0  0  0  0  0  0  0  0  0  0  0  0
    3.3078   -0.4443    1.2014 C   0  0  0  0  0  0  0  0  0  0  0  0
    2.4196   -0.9216    0.2740 N   0  0  0  0  0  0  0  0  0  0  0  0
    3.0063   -0.8044   -0.9733 C   0  0  0  0  0  0  0  0  0  0  0  0
    2.5390   -1.0740   -2.2857 C   0  0  0  0  0  0  0  0  0  0  0  0
    1.2846   -1.3865   -2.7920 N   0  0  0  0  0  0  0  0  0  0  0  0
    1.4236   -1.5686   -4.1442 C   0  0  0  0  0  0  0  0  0  0  0  0
    0.5973   -1.8539   -5.2382 C   0  0  0  0  0  0  0  0  0  0  0  0
   -1.0854   -2.1320   -5.5087 S   0  0  0  0  0  0  0  0  0  0  0  0
   -0.0186   -1.0105   -2.2875 C   0  0  0  0  0  0  0  0  0  0  0  0
   -0.1876    0.5075   -2.2907 C   0  0  0  0  0  0  0  0  0  0  0  0
    1.2981   -1.7267    0.7003 C   0  0  0  0  0  0  0  0  0  0  0  0
    0.1331   -0.8769    1.2064 C   0  0  0  0  0  0  0  0  0  0  0  0
    3.1932    0.2848    6.4063 C   0  0  0  0  0  0  0  0  0  0  0  0
    3.9991    1.4662    7.4302 S   0  0  0  0  0  0  0  0  0  0  0  0
    2.8818    1.1298    8.7049 C   0  0  0  0  0  0  0  0  0  0  0  0
    2.5616    1.5276   10.0011 C   0  0  0  0  0  0  0  0  0  0  0  0
    1.4378    0.7446   10.3863 C   0  0  0  0  0  0  0  0  0  0  0  0
    1.0985   -0.1191    9.3734 N   0  0  0  0  0  0  0  0  0  0  0  0
   -0.0464   -0.9914    9.3418 C   0  0  0  0  0  0  0  0  0  0  0  0
   -1.2713   -0.2923    8.7550 C   0  0  0  0  0  0  0  0  0  0  0  0
    1.9551    0.1293    8.3355 C   0  0  0  0  0  0  0  0  0  0  0  0
    2.1315   -0.3378    7.0325 C   0  0  0  0  0  0  0  0  0  0  0  0
    0.9764    1.0499   11.6505 C   0  0  0  0  0  0  0  0  0  0  0  0
    1.7218    2.0717   12.2521 C   0  0  0  0  0  0  0  0  0  0  0  0
    3.0351    2.6452   11.2211 S   0  0  0  0  0  0  0  0  0  0  0  0
    1.3902    2.5550   13.5236 C   0  0  0  0  0  0  0  0  0  0  0  0
    1.9368    3.5688   14.2711 C   0  0  0  0  0  0  0  0  0  0  0  0
    3.0684    4.4181   13.8730 C   0  0  0  0  0  0  0  0  0  0  0  0
    3.7345    4.3360   12.8552 O   0  0  0  0  0  0  0  0  0  0  0  0
    3.2398    5.3967   14.9546 C   0  0  0  0  0  0  0  0  0  0  0  0
    4.1459    6.4314   15.0633 C   0  0  0  0  0  0  0  0  0  0  0  0
    4.1083    7.2452   16.1850 C   0  0  0  0  0  0  0  0  0  0  0  0
    3.1658    7.0181   17.1887 C   0  0  0  0  0  0  0  0  0  0  0  0
    3.0472    7.7582   18.3127 O   0  0  0  0  0  0  0  0  0  0  0  0
    3.9183    8.8459   18.5177 C   0  0  0  0  0  0  0  0  0  0  0  0
    2.2471    5.9618   17.0789 C   0  0  0  0  0  0  0  0  0  0  0  0
    2.2869    5.1547   15.9632 C   0  0  0  0  0  0  0  0  0  0  0  0
    1.4708    4.0039   15.5696 C   0  0  0  0  0  0  0  0  0  0  0  0
    0.4613    3.4599   16.3235 C   0  0  0  0  0  0  0  0  0  0  0  0
   -0.3283    2.3471   15.9696 C   0  0  0  0  0  0  0  0  0  0  0  0
   -1.0187    1.4504   15.7669 N   0  0  0  0  0  0  0  0  0  0  0  0
    0.0660    3.9421   17.5886 C   0  0  0  0  0  0  0  0  0  0  0  0
   -0.3143    4.2742   18.6200 N   0  0  0  0  0  0  0  0  0  0  0  0
   -8.7877   -3.9855  -12.5035 H   0  0  0  0  0  0  0  0  0  0  0  0
  -13.8854   -2.7304  -11.4340 H   0  0  0  0  0  0  0  0  0  0  0  0
  -15.1724   -2.3970   -9.3208 H   0  0  0  0  0  0  0  0  0  0  0  0
  -13.0213   -2.4213   -5.4549 H   0  0  0  0  0  0  0  0  0  0  0  0
  -13.5838   -4.1114   -5.5803 H   0  0  0  0  0  0  0  0  0  0  0  0
  -14.6948   -2.8396   -5.0130 H   0  0  0  0  0  0  0  0  0  0  0  0
  -11.8085   -3.6994   -7.0161 H   0  0  0  0  0  0  0  0  0  0  0  0
   -3.6800   -5.0619  -12.6683 H   0  0  0  0  0  0  0  0  0  0  0  0
   -2.1568   -4.9738  -11.7608 H   0  0  0  0  0  0  0  0  0  0  0  0
   -2.0335   -3.5938  -13.8350 H   0  0  0  0  0  0  0  0  0  0  0  0
   -3.4262   -2.6472  -13.2973 H   0  0  0  0  0  0  0  0  0  0  0  0
   -1.9073   -2.5762  -12.3961 H   0  0  0  0  0  0  0  0  0  0  0  0
   -6.2279   -4.5626  -12.5534 H   0  0  0  0  0  0  0  0  0  0  0  0
   -0.9910   -3.5268   -9.8087 H   0  0  0  0  0  0  0  0  0  0  0  0
   -0.3970   -0.7985   -9.7193 H   0  0  0  0  0  0  0  0  0  0  0  0
    0.6047   -0.7390  -11.9714 H   0  0  0  0  0  0  0  0  0  0  0  0
    2.6546   -2.0140  -12.4482 H   0  0  0  0  0  0  0  0  0  0  0  0
    4.2168   -3.7447  -11.7882 H   0  0  0  0  0  0  0  0  0  0  0  0
    4.1214   -4.4770  -10.1793 H   0  0  0  0  0  0  0  0  0  0  0  0
    5.2114   -2.4576   -9.1971 H   0  0  0  0  0  0  0  0  0  0  0  0
    5.3135   -1.7316  -10.8004 H   0  0  0  0  0  0  0  0  0  0  0  0
    6.2332   -3.1957  -10.4363 H   0  0  0  0  0  0  0  0  0  0  0  0
    2.7055   -3.4321   -8.4267 H   0  0  0  0  0  0  0  0  0  0  0  0
    6.0100    2.7600    3.6984 H   0  0  0  0  0  0  0  0  0  0  0  0
    8.0661    3.6437    4.7308 H   0  0  0  0  0  0  0  0  0  0  0  0
    9.1193    2.4499    6.6077 H   0  0  0  0  0  0  0  0  0  0  0  0
    8.8370    0.8099    8.4255 H   0  0  0  0  0  0  0  0  0  0  0  0
    7.6053   -0.4540    8.3083 H   0  0  0  0  0  0  0  0  0  0  0  0
    8.9185   -1.5601    6.4947 H   0  0  0  0  0  0  0  0  0  0  0  0
    9.8815   -1.3995    7.9678 H   0  0  0  0  0  0  0  0  0  0  0  0
   10.1447   -0.2991    6.6106 H   0  0  0  0  0  0  0  0  0  0  0  0
    6.0879   -0.5429    6.4046 H   0  0  0  0  0  0  0  0  0  0  0  0
   -0.1861   -1.4080   -1.2913 H   0  0  0  0  0  0  0  0  0  0  0  0
   -0.7557   -1.4642   -2.9550 H   0  0  0  0  0  0  0  0  0  0  0  0
    0.5602    0.9769   -1.6545 H   0  0  0  0  0  0  0  0  0  0  0  0
   -1.1778    0.7728   -1.9304 H   0  0  0  0  0  0  0  0  0  0  0  0
   -0.0705    0.8960   -3.2998 H   0  0  0  0  0  0  0  0  0  0  0  0
    1.6432   -2.3651    1.5221 H   0  0  0  0  0  0  0  0  0  0  0  0
    1.0054   -2.3833   -0.1202 H   0  0  0  0  0  0  0  0  0  0  0  0
   -0.1611   -0.1274    0.4774 H   0  0  0  0  0  0  0  0  0  0  0  0
   -0.7197   -1.5140    1.4244 H   0  0  0  0  0  0  0  0  0  0  0  0
    0.4194   -0.3642    2.1206 H   0  0  0  0  0  0  0  0  0  0  0  0
   -0.2531   -1.3175   10.3642 H   0  0  0  0  0  0  0  0  0  0  0  0
    0.2086   -1.8691    8.7413 H   0  0  0  0  0  0  0  0  0  0  0  0
   -1.5303    0.5783    9.3527 H   0  0  0  0  0  0  0  0  0  0  0  0
   -1.0674    0.0342    7.7378 H   0  0  0  0  0  0  0  0  0  0  0  0
   -2.1183   -0.9724    8.7419 H   0  0  0  0  0  0  0  0  0  0  0  0
    1.5287   -1.0847    6.5474 H   0  0  0  0  0  0  0  0  0  0  0  0
    0.1394    0.5894   12.1445 H   0  0  0  0  0  0  0  0  0  0  0  0
    0.5442    2.0380   13.9606 H   0  0  0  0  0  0  0  0  0  0  0  0
    4.8695    6.6002   14.2806 H   0  0  0  0  0  0  0  0  0  0  0  0
    4.8153    8.0550   16.2690 H   0  0  0  0  0  0  0  0  0  0  0  0
    3.6255    9.2781   19.4730 H   0  0  0  0  0  0  0  0  0  0  0  0
    3.8110    9.5998   17.7316 H   0  0  0  0  0  0  0  0  0  0  0  0
    4.9615    8.5199   18.5728 H   0  0  0  0  0  0  0  0  0  0  0  0
    1.5387    5.8260   17.8787 H   0  0  0  0  0  0  0  0  0  0  0  0
  1  2  2  0  0  0  0
  2  3  1  0  0  0  0
  3  4  2  0  0  0  0
  3  5  1  0  0  0  0
  5  6  2  0  0  0  0
  6  7  1  0  0  0  0
  7  8  2  0  0  0  0
  8  9  1  0  0  0  0
  9 10  1  0  0  0  0
  8 11  1  0  0  0  0
 11 12  2  0  0  0  0
 12 13  1  0  0  0  0
 13 14  2  0  0  0  0
 14 15  1  0  0  0  0
 15 16  3  0  0  0  0
 14 17  1  0  0  0  0
 17 18  3  0  0  0  0
  1 19  1  0  0  0  0
 19 20  1  0  0  0  0
 20 21  1  0  0  0  0
 21 22  1  0  0  0  0
 22 23  2  0  0  0  0
 23 24  1  0  0  0  0
 24 25  1  0  0  0  0
 25 26  1  0  0  0  0
 24 27  1  0  0  0  0
 27 28  1  0  0  0  0
 23 29  1  0  0  0  0
 29 30  2  0  0  0  0
 30 31  1  0  0  0  0
 30 32  1  0  0  0  0
 32 33  2  0  0  0  0
 33 34  1  0  0  0  0
 34 35  2  0  0  0  0
 35 36  1  0  0  0  0
 36 37  2  0  0  0  0
 37 38  1  0  0  0  0
 38 39  1  0  0  0  0
 39 40  1  0  0  0  0
 38 41  2  0  0  0  0
 33 42  1  0  0  0  0
 42 43  1  0  0  0  0
 43 44  1  0  0  0  0
 44 45  1  0  0  0  0
 45 46  1  0  0  0  0
 46 47  1  0  0  0  0
 47 48  2  0  0  0  0
 48 49  1  0  0  0  0
 49 50  1  0  0  0  0
 47 51  1  0  0  0  0
 51 52  1  0  0  0  0
 52 53  1  0  0  0  0
 53 54  1  0  0  0  0
 54 55  1  0  0  0  0
 55 56  1  0  0  0  0
 56 57  2  0  0  0  0
 57 58  1  0  0  0  0
 58 59  2  0  0  0  0
 59 60  1  0  0  0  0
 60 61  1  0  0  0  0
 61 62  1  0  0  0  0
 60 63  2  0  0  0  0
 55 64  2  0  0  0  0
 64 65  1  0  0  0  0
 65 66  1  0  0  0  0
 66 67  1  0  0  0  0
 67 68  1  0  0  0  0
 68 69  1  0  0  0  0
 69 70  1  0  0  0  0
 70 71  1  0  0  0  0
 71 72  1  0  0  0  0
 72 73  1  0  0  0  0
 73 74  1  0  0  0  0
 71 75  1  0  0  0  0
 75 76  1  0  0  0  0
 68 77  1  0  0  0  0
 77 78  1  0  0  0  0
 64 79  1  0  0  0  0
 79 80  1  0  0  0  0
 80 81  1  0  0  0  0
 81 82  1  0  0  0  0
 82 83  2  0  0  0  0
 83 84  1  0  0  0  0
 84 85  1  0  0  0  0
 85 86  1  0  0  0  0
 84 87  1  0  0  0  0
 87 88  1  0  0  0  0
 83 89  1  0  0  0  0
 89 90  2  0  0  0  0
 90 91  1  0  0  0  0
 90 92  1  0  0  0  0
 92 93  2  0  0  0  0
 93 94  1  0  0  0  0
 94 95  2  0  0  0  0
 94 96  1  0  0  0  0
 96 97  2  0  0  0  0
 97 98  1  0  0  0  0
 98 99  2  0  0  0  0
 99100  1  0  0  0  0
100101  1  0  0  0  0
 99102  1  0  0  0  0
102103  2  0  0  0  0
103104  1  0  0  0  0
104105  2  0  0  0  0
105106  1  0  0  0  0
106107  3  0  0  0  0
105108  1  0  0  0  0
108109  3  0  0  0  0
 13  2  1  0  0  0  0
 28 19  2  0  0  0  0
 74 32  1  0  0  0  0
 88 79  2  0  0  0  0
104 93  1  0  0  0  0
 12  5  1  0  0  0  0
 27 21  2  0  0  0  0
 41 34  1  0  0  0  0
 73 42  2  0  0  0  0
 87 81  2  0  0  0  0
103 96  1  0  0  0  0
 31 22  1  0  0  0  0
 72 44  2  0  0  0  0
 91 82  1  0  0  0  0
 70 45  2  0  0  0  0
 50 46  2  0  0  0  0
 69 51  2  0  0  0  0
 67 52  2  0  0  0  0
 66 54  2  0  0  0  0
 63 56  1  0  0  0  0
  1110  1  0  0  0  0
  6111  1  0  0  0  0
  7112  1  0  0  0  0
 10113  1  0  0  0  0
 10114  1  0  0  0  0
 10115  1  0  0  0  0
 11116  1  0  0  0  0
 25117  1  0  0  0  0
 25118  1  0  0  0  0
 26119  1  0  0  0  0
 26120  1  0  0  0  0
 26121  1  0  0  0  0
 28122  1  0  0  0  0
 29123  1  0  0  0  0
 35124  1  0  0  0  0
 36125  1  0  0  0  0
 37126  1  0  0  0  0
 39127  1  0  0  0  0
 39128  1  0  0  0  0
 40129  1  0  0  0  0
 40130  1  0  0  0  0
 40131  1  0  0  0  0
 41132  1  0  0  0  0
 57133  1  0  0  0  0
 58134  1  0  0  0  0
 59135  1  0  0  0  0
 61136  1  0  0  0  0
 61137  1  0  0  0  0
 62138  1  0  0  0  0
 62139  1  0  0  0  0
 62140  1  0  0  0  0
 63141  1  0  0  0  0
 75142  1  0  0  0  0
 75143  1  0  0  0  0
 76144  1  0  0  0  0
 76145  1  0  0  0  0
 76146  1  0  0  0  0
 77147  1  0  0  0  0
 77148  1  0  0  0  0
 78149  1  0  0  0  0
 78150  1  0  0  0  0
 78151  1  0  0  0  0
 85152  1  0  0  0  0
 85153  1  0  0  0  0
 86154  1  0  0  0  0
 86155  1  0  0  0  0
 86156  1  0  0  0  0
 88157  1  0  0  0  0
 89158  1  0  0  0  0
 92159  1  0  0  0  0
 97160  1  0  0  0  0
 98161  1  0  0  0  0
101162  1  0  0  0  0
101163  1  0  0  0  0
101164  1  0  0  0  0
102165  1  0  0  0  0
M  END
