161

C         -2.96850        6.18900      -11.75990
C         -3.06620        5.27840      -12.78290
C         -2.48320        3.92920      -12.79240
O         -1.86240        3.38350      -11.89600
C         -2.79410        3.36280      -14.11080
C         -2.45720        2.13220      -14.63570
C         -2.85830        1.81690      -15.92470
C         -3.59270        2.73380      -16.67800
O         -4.02390        2.51980      -17.94020
C         -3.72660        1.29670      -18.57260
C         -3.93720        3.98500      -16.14140
C         -3.53720        4.29560      -14.86020
C         -3.73640        5.49710      -14.04640
C         -4.44960        6.60250      -14.43670
C         -4.66780        7.76110      -13.66400
N         -4.89750        8.73950      -13.10580
C         -5.08750        6.73570      -15.68760
N         -5.63320        6.92220      -16.68070
C         -2.35730        6.09390      -10.50360
S         -1.52590        4.68180       -9.84800
C         -1.20650        5.54820       -8.39640
C         -0.58940        5.40390       -7.15600
C         -0.73910        6.62970       -6.46990
N         -1.44310        7.51250       -7.24260
C         -1.69590        8.89290       -6.91990
C         -0.45360        9.75560       -7.13320
C         -1.71920        6.87540       -8.42770
C         -2.36510        7.17280       -9.61090
C         -0.15920        6.64020       -5.19990
C          0.44290        5.43340       -4.91140
S          0.27780        4.25440       -6.20630
C          1.12920        5.06970       -3.71730
C          1.72550        5.88830       -2.77490
C          1.89510        7.33990       -2.87860
C          2.41790        7.92320       -4.03030
C          2.58850        9.29270       -4.08970
C          2.24840       10.08870       -3.00810
C          1.73660        9.52210       -1.84850
C          1.42000       10.36230       -0.64550
C          2.58470       10.32460        0.34590
C          1.56740        8.14580       -1.79500
C          2.20860        5.13960       -1.68290
S          3.04620        5.59350       -0.21690
C          3.07860        3.92670        0.25250
C          3.51560        3.12670        1.32110
C          4.26950        3.44070        2.47270
C          4.62900        2.38550        3.37670
N          5.37180        2.81410        4.38500
S          5.59780        4.40860        4.21390
N          4.75390        4.61450        2.84690
C          4.11380        1.09050        3.15120
C          4.11770       -0.05610        3.96260
S          4.72360       -0.57830        5.49840
C          3.81200       -2.06180        5.33400
C          3.61220       -3.17340        6.18480
C          4.29810       -3.39880        7.45400
C          4.59500       -2.34020        8.31010
C          5.22030       -2.58720        9.51750
C          5.54570       -3.88090        9.88840
C          5.27190       -4.94700        9.04060
C          5.56220       -6.36380        9.44300
C          4.27620       -7.05290        9.90540
C          4.66320       -4.69150        7.82230
C          2.71610       -4.06710        5.63230
S          2.18860       -3.59390        4.02390
C          3.11160       -2.13860        4.13030
C          3.29380       -0.99490        3.34100
N          2.82500       -0.49910        2.15530
C          3.30960        0.79100        2.01590
C          3.11330        1.79330        1.02920
N          2.50370        1.78380       -0.21640
C          2.48190        3.07290       -0.67650
C          1.99670        3.76500       -1.79370
S          1.18920        3.37220       -3.26970
C          2.31130        0.69270       -1.14680
C          3.59940       -0.09720       -1.36140
C          1.72740       -1.15900        1.48680
C          0.42220       -0.38360        1.64720
C          2.06990       -5.20580        6.21780
C          1.43050       -5.29410        7.43750
C          1.30190       -4.21280        8.46430
C          0.48020       -3.03340        7.94390
C          0.77910       -6.53250        7.57010
C          0.91770       -7.38830        6.46850
S          1.88590       -6.65660        5.23380
C          0.21070       -8.56970        6.59370
C         -0.51490       -8.62460        7.78530
S         -0.26270       -7.19140        8.77380
C         -1.37970       -9.69400        8.07120
C         -2.28520       -9.85650        9.08620
C         -2.55280       -8.89280       10.16680
O         -1.92890       -7.87800       10.42520
C         -3.73150       -9.39910       10.87740
C         -4.42710       -8.83510       11.92780
C         -5.54620       -9.48650       12.42070
C         -5.96050      -10.69760       11.86250
O         -7.04130      -11.39750       12.26610
C         -7.83780      -10.89530       13.31450
C         -5.24540      -11.27540       10.80070
C         -4.13420      -10.62450       10.31110
C         -3.21600      -10.96030        9.22140
C         -3.24450      -12.12150        8.49470
C         -4.18350      -13.15670        8.69010
N         -4.91110      -14.03920        8.78780
C         -2.34440      -12.47210        7.46670
N         -1.65420      -12.83730        6.62390
H         -3.42970        7.15460      -11.92940
H         -1.88810        1.43060      -14.04550
H         -2.59420        0.85550      -16.33540
H         -2.64690        1.14770      -18.67050
H         -4.16620        0.45010      -18.03630
H         -4.17170        1.36500      -19.56370
H         -4.50400        4.65940      -16.76080
H         -2.51410        9.24300       -7.55290
H         -2.01400        8.95110       -5.87430
H         -0.12980        9.70040       -8.16990
H         -0.67370       10.79110       -6.88970
H          0.35750        9.41150       -6.49540
H         -2.83110        8.11040       -9.85660
H         -0.18110        7.46410       -4.51160
H          2.69350        7.29950       -4.86770
H          2.99620        9.74420       -4.98260
H          2.38600       11.15890       -3.06440
H          1.23470       11.39440       -0.94940
H          0.52060        9.98240       -0.15600
H          3.48660       10.71960       -0.11620
H          2.78190        9.30220        0.65980
H          2.35440       10.92150        1.22520
H          1.16220        7.69340       -0.90150
H          4.31760       -1.33350        8.03850
H          5.44680       -1.76460       10.17940
H          6.02070       -4.06450       10.84120
H          6.29470       -6.38070       10.25180
H          5.97700       -6.91140        8.59390
H          3.53820       -7.05870        9.10600
H          4.47870       -8.08030       10.19810
H          3.84960       -6.52680       10.75660
H          4.47160       -5.51050        7.14450
H          2.00530        1.14460       -2.09360
H          1.49320        0.04670       -0.82440
H          4.36980        0.55300       -1.76950
H          3.96860       -0.51370       -0.42720
H          3.42320       -0.90790       -2.06320
H          1.96640       -1.33160        0.43720
H          1.62180       -2.14010        1.95640
H          0.16250       -0.31070        2.70080
H          0.51090        0.62420        1.24910
H         -0.38120       -0.89890        1.12780
H          0.80540       -4.64160        9.33700
H          2.28780       -3.86110        8.77110
H          0.97080       -2.56650        7.09350
H          0.36560       -2.28800        8.72640
H         -0.50790       -3.36680        7.63450
H          0.18520       -9.35530        5.86020
H         -1.34160      -10.47570        7.32170
H         -4.10110       -7.89690       12.34970
H         -6.09310       -9.04360       13.23760
H         -7.26910      -10.80970       14.24530
H         -8.27080       -9.92340       13.05850
H         -8.63740      -11.62190       13.44690
H         -5.60310      -12.20990       10.40240
