179

C         11.88300       -0.25360        3.10500
C         12.56200       -1.09440        3.94210
C         13.87560       -1.63480        3.49350
O         14.34870       -1.54650        2.38130
C         14.47330       -2.24680        4.68960
C         15.71650       -2.82270        4.85560
C         16.06550       -3.32950        6.09780
C         15.17380       -3.25130        7.16890
O         15.42770       -3.70660        8.41500
C         16.65700       -4.34150        8.68030
C         13.90750       -2.66970        6.99920
C         13.56050       -2.17740        5.76100
C         12.31140       -1.58620        5.27340
C         11.09370       -1.73510        5.89040
C          9.85210       -1.44620        5.29290
N          8.80190       -1.27200        4.86130
C         10.91780       -2.27650        7.17940
N         10.69740       -2.67020        8.23560
C         10.83020        0.63820        3.37550
S          9.84790        1.18510        2.01270
C          8.84890        2.08410        3.07780
C          7.67520        2.82890        3.10330
C          7.45660        3.21000        4.44720
N          8.46520        2.72310        5.23390
C          8.59580        2.84920        6.66300
C          9.73220        3.79570        7.04260
C          9.31190        2.01760        4.41770
C         10.42090        1.19790        4.57860
C          6.25060        3.89140        4.64430
C          5.54100        4.01490        3.46820
S          6.38230        3.33130        2.08170
C          4.20190        4.47150        3.28600
C          3.42160        5.29610        4.08030
C          3.92610        6.11680        5.18060
C          3.20630        6.23510        6.36640
C          3.69440        7.02190        7.39270
C          4.89590        7.69410        7.24960
C          5.61940        7.59970        6.06720
C          6.94720        8.28370        5.90900
C          8.08300        7.28360        6.13340
C          5.12280        6.81330        5.03980
C          2.07460        5.27970        3.65870
S          0.61390        6.02720        4.26940
C         -0.30380        5.20590        3.04870
C         -1.64570        4.96980        2.68900
C         -2.88360        5.29020        3.29430
C         -4.08640        4.63970        2.83180
N         -5.14190        4.96320        3.56060
S         -4.67870        5.99910        4.71500
N         -3.10580        6.07230        4.33790
C         -4.03240        3.81060        1.68730
C         -4.98530        3.05840        0.97380
S         -6.63130        2.52960        1.11340
C         -6.42240        1.56850       -0.34000
C         -7.23350        0.61710       -0.97740
C         -8.53920        0.25460       -0.41610
C         -9.48160        1.24440       -0.15720
C        -10.68890        0.90860        0.42730
C        -10.95780       -0.40460        0.76860
C        -10.02010       -1.40360        0.53280
C        -10.28530       -2.82130        0.95030
C         -9.79040       -3.05790        2.37840
C         -8.81230       -1.06140       -0.05370
C         -6.58490        0.04120       -2.06880
S         -4.95020        0.65880       -2.27750
C         -5.15580        1.69990       -0.91080
C         -4.33660        2.53810       -0.15400
N         -3.01990        2.92260       -0.16520
C         -2.80750        3.65360        0.98550
C         -1.60580        4.08710        1.57990
N         -0.29290        3.75890        1.29070
C          0.48880        4.43350        2.19460
C          1.84180        4.47450        2.54300
S          3.29040        3.72910        1.98020
C          0.18430        2.50230        0.74830
C          0.34300        1.45280        1.84810
C         -2.28330        3.03540       -1.40780
C         -3.05230        3.86120       -2.43780
C         -7.05240       -0.93520       -2.99760
C         -8.37250       -1.37220       -3.10980
C         -8.74440       -2.39650       -3.96400
C         -7.83410       -3.04980       -4.79650
C         -6.49070       -2.55090       -4.79380
N         -5.57050       -3.08880       -5.60540
C         -4.33970       -2.63130       -5.60490
C         -3.37740       -3.34260       -6.45030
C         -3.78600       -3.81750       -7.69430
C         -2.90270       -4.50960       -8.49930
C         -1.60870       -4.74660       -8.06630
C         -1.20270       -4.29580       -6.82060
C         -2.07900       -3.59660       -6.01340
C         -3.98870       -1.51050       -4.79110
N         -4.87560       -1.01730       -3.95870
C         -6.11700       -1.51000       -3.91200
C         -2.68910       -0.83290       -4.86160
C         -2.11600       -0.52170       -6.09250
C         -0.90480        0.14140       -6.14500
C         -0.25000        0.49320       -4.97590
C         -0.81800        0.19010       -3.74950
C         -2.03530       -0.46170       -3.68970
C         -8.06370       -4.19190       -5.61360
C         -9.14920       -4.98010       -5.87390
C        -10.57480       -4.81170       -5.48990
O        -11.08080       -3.96050       -4.78500
C        -11.30000       -5.90010       -6.16050
C        -12.65720       -6.17910       -6.14290
C        -13.11750       -7.26680       -6.85420
C        -12.23360       -8.07520       -7.58450
O        -12.79970       -9.11150       -8.23870
C        -11.97890       -9.98460       -8.98450
C        -10.86640       -7.79110       -7.60400
C        -10.40570       -6.70080       -6.88520
C         -9.05400       -6.17870       -6.69610
C         -7.91520       -6.77840       -7.16990
C         -7.91330       -7.94170       -7.96840
N         -7.83600       -8.88000       -8.62700
C         -6.57570       -6.39530       -6.93390
N         -5.44730       -6.22080       -6.80300
H         12.24980       -0.25260        2.08230
H         16.40120       -2.87880        4.02350
H         17.03500       -3.78420        6.22400
H         16.78690       -5.23630        8.06400
H         16.61580       -4.63000        9.72910
H         17.50150       -3.66310        8.52440
H         13.25120       -2.62780        7.85260
H          8.77880        1.85540        7.08550
H          7.64760        3.22270        7.05470
H          9.80580        3.86940        8.12400
H         10.67880        3.42890        6.65350
H          9.55280        4.78740        6.63510
H         10.93560        1.02590        5.50680
H          5.87590        4.24040        5.58860
H          2.27610        5.70130        6.48610
H          3.13490        7.10890        8.31230
H          5.27240        8.30310        8.05890
H          7.03520        9.10040        6.62740
H          7.03050        8.70120        4.90340
H          8.02040        6.86470        7.13600
H          9.04910        7.77020        6.01930
H          8.01410        6.47050        5.41280
H          5.66740        6.74460        4.10890
H         -9.27080        2.26810       -0.42790
H        -11.42290        1.67720        0.61890
H        -11.90370       -0.65990        1.22390
H        -11.35630       -3.02650        0.90090
H         -9.77440       -3.50770        0.27190
H         -8.72140       -2.86780        2.44470
H         -9.98050       -4.08470        2.68200
H        -10.29890       -2.39050        3.07070
H         -8.06850       -1.82490       -0.23550
H         -0.51890        2.12650        0.01060
H          1.14920        2.68960        0.26780
H          1.06850        1.77380        2.59050
H          0.68450        0.51730        1.41420
H         -0.61090        1.28280        2.34320
H         -2.10540        2.03390       -1.81350
H         -1.33450        3.53330       -1.20640
H         -3.28870        4.84380       -2.03500
H         -3.97560        3.36410       -2.71990
H         -2.44250        3.98350       -3.32870
H         -9.13500       -0.90790       -2.50610
H         -9.77660       -2.70720       -3.97550
H         -4.79780       -3.62940       -8.01810
H         -3.22590       -4.87260       -9.46350
H         -0.91870       -5.29070       -8.69420
H         -0.19950       -4.49520       -6.47350
H         -1.76470       -3.26930       -5.03310
H         -2.62790       -0.78780       -7.00560
H         -0.46870        0.38360       -7.10260
H          0.70080        1.00320       -5.02070
H         -0.30360        0.45890       -2.83760
H         -2.48610       -0.70430       -2.73950
H         -7.14420       -4.49570       -6.10340
H        -13.32920       -5.55220       -5.57780
H        -14.16420       -7.52570       -6.86800
H        -12.65170      -10.73250       -9.40030
H        -11.23570      -10.47670       -8.35060
H        -11.47090       -9.46060       -9.79910
H        -10.18850       -8.40690       -8.16770
