165

C         -8.71250       -3.97870      -11.42020
C         -9.90020       -4.00620      -10.75380
C        -11.16710       -3.66930      -11.46180
O        -11.32490       -3.58740      -12.66010
C        -12.14260       -3.40770      -10.39080
C        -13.44420       -2.93950      -10.47200
C        -14.15520       -2.75480       -9.30430
C        -13.57940       -3.02540       -8.05390
O        -14.37350       -2.79890       -6.98640
C        -13.87470       -3.06320       -5.69280
C        -12.26770       -3.49890       -7.96900
C        -11.56270       -3.69300       -9.14230
C        -10.21850       -4.22250       -9.36230
C         -9.53660       -5.03760       -8.49480
C         -8.40110       -5.78270       -8.87400
N         -7.51260       -6.44750       -9.16920
C         -9.95620       -5.30120       -7.17770
N        -10.25800       -5.53060       -6.09320
C         -7.40880       -3.83490      -10.89820
S         -7.11330       -3.12140       -9.30940
C         -5.41750       -3.26010       -9.54850
C         -4.20520       -3.00080       -8.91870
C         -3.18910       -3.43250       -9.80120
N         -3.74800       -3.94810      -10.93750
C         -3.02490       -4.39980      -12.09790
C         -2.56860       -3.22700      -12.96370
C         -5.10830       -3.83400      -10.80770
C         -6.23260       -4.12630      -11.57100
C         -1.89630       -3.24330       -9.30600
C         -1.91350       -2.65590       -8.05910
S         -3.54400       -2.34940       -7.46600
C         -0.80540       -2.31240       -7.23390
C          0.52680       -2.15060       -7.57430
C          1.08190       -2.13490       -8.92990
C          0.49430       -1.36910       -9.93460
C          1.06100       -1.33470      -11.19370
C          2.21680       -2.04980      -11.46100
C          2.82330       -2.80690      -10.46760
C          4.11370       -3.52990      -10.72270
C          5.29510       -2.67510      -10.25940
C          2.24710       -2.84040       -9.20570
C          1.31730       -1.90920       -6.43230
S          3.02630       -1.60490       -6.22030
C          2.75630       -1.40090       -4.52200
C          3.47060       -1.06080       -3.36060
C          4.80770       -0.64530       -3.17950
C          5.22150       -0.18250       -1.88490
N          6.47600        0.24030       -1.87660
S          7.08660        0.06470       -3.36560
N          5.77270       -0.55510       -4.08140
C          4.31780       -0.27830       -0.80480
C          4.48030       -0.02590        0.56730
S          5.67370        0.60330        1.65230
C          4.58430        0.30150        2.98390
C          4.70120        0.51810        4.37120
C          5.90910        1.05980        4.99820
C          6.47840        2.23320        4.51600
C          7.62930        2.72770        5.10020
C          8.22140        2.05560        6.15410
C          7.67350        0.87350        6.63800
C          8.34760        0.11260        7.74290
C          9.39030       -0.84870        7.16900
C          6.51950        0.38250        6.04910
C          3.56160        0.11720        5.04230
S          2.35420       -0.56480        3.95390
C          3.37340       -0.27020        2.58940
C          3.30780       -0.44430        1.20140
N          2.41960       -0.92160        0.27400
C          3.00630       -0.80440       -0.97330
C          2.53900       -1.07400       -2.28570
N          1.28460       -1.38650       -2.79200
C          1.42360       -1.56860       -4.14420
C          0.59730       -1.85390       -5.23820
S         -1.08540       -2.13200       -5.50870
C         -0.01860       -1.01050       -2.28750
C         -0.18760        0.50750       -2.29070
C          1.29810       -1.72670        0.70030
C          0.13310       -0.87690        1.20640
C          3.19320        0.28480        6.40630
S          3.99910        1.46620        7.43020
C          2.88180        1.12980        8.70490
C          2.56160        1.52760       10.00110
C          1.43780        0.74460       10.38630
N          1.09850       -0.11910        9.37340
C         -0.04640       -0.99140        9.34180
C         -1.27130       -0.29230        8.75500
C          1.95510        0.12930        8.33550
C          2.13150       -0.33780        7.03250
C          0.97640        1.04990       11.65050
C          1.72180        2.07170       12.25210
S          3.03510        2.64520       11.22110
C          1.39020        2.55500       13.52360
C          1.93680        3.56880       14.27110
C          3.06840        4.41810       13.87300
O          3.73450        4.33600       12.85520
C          3.23980        5.39670       14.95460
C          4.14590        6.43140       15.06330
C          4.10830        7.24520       16.18500
C          3.16580        7.01810       17.18870
O          3.04720        7.75820       18.31270
C          3.91830        8.84590       18.51770
C          2.24710        5.96180       17.07890
C          2.28690        5.15470       15.96320
C          1.47080        4.00390       15.56960
C          0.46130        3.45990       16.32350
C         -0.32830        2.34710       15.96960
N         -1.01870        1.45040       15.76690
C          0.06600        3.94210       17.58860
N         -0.31430        4.27420       18.62000
H         -8.78770       -3.98550      -12.50350
H        -13.88540       -2.73040      -11.43400
H        -15.17240       -2.39700       -9.32080
H        -13.02130       -2.42130       -5.45490
H        -13.58380       -4.11140       -5.58030
H        -14.69480       -2.83960       -5.01300
H        -11.80850       -3.69940       -7.01610
H         -3.68000       -5.06190      -12.66830
H         -2.15680       -4.97380      -11.76080
H         -2.03350       -3.59380      -13.83500
H         -3.42620       -2.64720      -13.29730
H         -1.90730       -2.57620      -12.39610
H         -6.22790       -4.56260      -12.55340
H         -0.99100       -3.52680       -9.80870
H         -0.39700       -0.79850       -9.71930
H          0.60470       -0.73900      -11.97140
H          2.65460       -2.01400      -12.44820
H          4.21680       -3.74470      -11.78820
H          4.12140       -4.47700      -10.17930
H          5.21140       -2.45760       -9.19710
H          5.31350       -1.73160      -10.80040
H          6.23320       -3.19570      -10.43630
H          2.70550       -3.43210       -8.42670
H          6.01000        2.76000        3.69840
H          8.06610        3.64370        4.73080
H          9.11930        2.44990        6.60770
H          8.83700        0.80990        8.42550
H          7.60530       -0.45400        8.30830
H          8.91850       -1.56010        6.49470
H          9.88150       -1.39950        7.96780
H         10.14470       -0.29910        6.61060
H          6.08790       -0.54290        6.40460
H         -0.18610       -1.40800       -1.29130
H         -0.75570       -1.46420       -2.95500
H          0.56020        0.97690       -1.65450
H         -1.17780        0.77280       -1.93040
H         -0.07050        0.89600       -3.29980
H          1.64320       -2.36510        1.52210
H          1.00540       -2.38330       -0.12020
H         -0.16110       -0.12740        0.47740
H         -0.71970       -1.51400        1.42440
H          0.41940       -0.36420        2.12060
H         -0.25310       -1.31750       10.36420
H          0.20860       -1.86910        8.74130
H         -1.53030        0.57830        9.35270
H         -1.06740        0.03420        7.73780
H         -2.11830       -0.97240        8.74190
H          1.52870       -1.08470        6.54740
H          0.13940        0.58940       12.14450
H          0.54420        2.03800       13.96060
H          4.86950        6.60020       14.28060
H          4.81530        8.05500       16.26900
H          3.62550        9.27810       19.47300
H          3.81100        9.59980       17.73160
H          4.96150        8.51990       18.57280
H          1.53870        5.82600       17.87870
