137

C          4.60850       -4.60780        7.97760
C          4.10670       -5.77970        7.49630
C          3.55520       -6.00380        6.13960
O          3.54090       -5.22430        5.20520
C          3.01910       -7.36590        6.14140
C          2.36900       -8.04430        5.12860
C          1.93270       -9.33780        5.35800
C          2.14790       -9.94580        6.59800
O          1.75600      -11.19500        6.91520
C          1.07920      -11.97470        5.95510
C          2.81290       -9.25570        7.62490
C          3.24800       -7.96850        7.39410
C          3.95750       -7.01730        8.24970
C          4.41160       -7.27830        9.51250
C          4.23020       -8.51050       10.17950
N          4.12030       -9.47930       10.78440
C          5.13970       -6.39080       10.33590
N          5.74360       -5.75070       11.07290
C          4.74230       -3.35800        7.33100
N          5.18310       -2.32040        8.00680
N          5.25010       -1.21340        7.34560
C          4.86450       -1.31940        6.09130
S          4.36710       -2.94500        5.66400
C          4.76820       -0.26310        5.15380
C          4.88390        1.11290        5.32170
C          5.30280        1.79000        6.54650
C          4.58780        2.89770        6.99800
C          4.97820        3.54300        8.15510
C          6.07940        3.09710        8.86500
C          6.80930        2.00080        8.42250
C          8.02800        1.53520        9.16490
C          9.28740        2.19080        8.59530
C          6.41760        1.36000        7.25760
C          4.49810        1.79150        4.14930
S          4.35460        3.49070        3.74850
C          3.74100        3.05330        2.18880
C          3.14830        3.65280        1.06590
C          2.77610        4.99310        0.81790
C          1.91810        5.27960       -0.29660
N          1.58040        6.55790       -0.35850
S          2.28860        7.33640        0.87160
N          3.04650        6.07060        1.53700
C          1.55970        4.23180       -1.17360
C          0.71510        4.20220       -2.29530
S         -0.42150        5.21940       -3.11810
C         -0.85370        3.86560       -4.13850
C         -1.88880        3.67680       -5.06860
C         -2.80660        4.75420       -5.45990
C         -4.16500        4.69050       -5.17210
C         -4.99170        5.73590       -5.54010
C         -4.47130        6.84520       -6.18210
C         -3.11200        6.93250       -6.45690
C         -2.52800        8.16260       -7.08900
C         -2.04100        9.13060       -6.00860
C         -2.28750        5.88130       -6.08580
C         -1.89280        2.37720       -5.54580
S         -0.60490        1.39040       -4.86970
C         -0.10200        2.71270       -3.88190
C          0.78320        2.90710       -2.81730
N          1.62360        2.13290       -2.06410
C          2.07730        2.91410       -1.01290
C          2.78240        2.60010        0.17770
N          3.14700        1.39740        0.75540
C          3.69370        1.67180        1.97770
C          4.12120        0.95140        3.09650
S          4.23440       -0.70920        3.54180
C          2.74730        0.04530        0.44060
C          1.23690       -0.13830        0.56470
C          2.18710        0.93160       -2.64450
C          3.69250        1.06460       -2.85510
C         -2.76540        1.70540       -6.43510
N         -2.42370        0.54390       -6.95940
N         -3.35350       -0.01580       -7.65630
C         -4.49240        0.63570       -7.68220
S         -4.40520        2.16380       -6.80460
C         -5.62030        0.05320       -8.30490
C         -6.93620        0.34950       -8.11740
C         -7.47640        1.31960       -7.13940
O         -6.89900        2.24800       -6.61030
C         -8.87470        0.91670       -6.91510
C         -9.76260        1.39610       -5.99530
C        -11.05090        0.82250       -5.92000
C        -11.99880        1.26240       -4.97330
C        -13.23670        0.68750       -4.89710
C        -13.55740       -0.35160       -5.78160
F        -14.77860       -0.90620       -5.68970
C        -12.67730       -0.81350       -6.72060
C        -11.39630       -0.23510       -6.81170
C        -10.46010       -0.70020       -7.76470
C         -9.21440       -0.13350       -7.81470
C         -8.05130       -0.42300       -8.64590
C         -8.03100       -1.22820       -9.75040
C         -9.15480       -1.94130      -10.21990
N        -10.03650       -2.54470      -10.63870
C         -6.91090       -1.40880      -10.59180
N         -6.05180       -1.58220      -11.33230
H          4.94020       -4.56300        9.00760
H          2.20670       -7.56430        4.17580
H          1.42450       -9.86800        4.56860
H          0.87280      -12.92470        6.44440
H          0.13530      -11.50990        5.65450
H          1.70000      -12.15030        5.07140
H          2.95440       -9.76560        8.56270
H          3.71570        3.23400        6.45780
H          4.41670        4.39560        8.50770
H          6.37390        3.60270        9.77350
H          8.11220        0.45070        9.08040
H          7.93580        1.79010       10.22210
H          9.22360        3.27340        8.68180
H         10.16950        1.85090        9.13290
H          9.40310        1.93890        7.54350
H          6.98730        0.51930        6.89490
H         -4.56830        3.83900       -4.64540
H         -6.04780        5.68040       -5.32410
H         -5.12490        7.65620       -6.46960
H         -1.68810        7.88690       -7.72990
H         -3.28100        8.65710       -7.70540
H         -1.60960       10.02000       -6.46180
H         -1.28640        8.65500       -5.38620
H         -2.86850        9.43180       -5.37030
H         -1.22810        5.92980       -6.29520
H          3.24710       -0.60350        1.16380
H          3.10980       -0.23770       -0.54710
H          0.96610       -1.15940        0.31110
H          0.70040        0.54310       -0.09110
H          0.92430        0.05760        1.58770
H          1.94070        0.05430       -2.04500
H          1.69790        0.80080       -3.61300
H          3.90200        1.89090       -3.53050
H          4.20950        1.25540       -1.91760
H          4.08540        0.15140       -3.29370
H         -5.35910       -0.80810       -8.90850
H         -9.48130        2.19440       -5.32490
H        -11.72820        2.06370       -4.30220
H        -13.97180        1.00910       -4.17640
H        -12.95900       -1.61480       -7.38560
H        -10.74770       -1.50600       -8.42090
