
  xtb     02032219443D
 energy: -372.277764218979 gnorm: 0.000672895061 xtb: 6.4.1 (unknown)
217242  0     0  0            999 V2000
    3.6642    2.6405   -8.0400 C   0  0  0  0  0  0  0  0  0  0  0  0
    4.4484    3.3389   -7.1661 C   0  0  0  0  0  0  0  0  0  0  0  0
    4.3465    3.3543   -5.6816 C   0  0  0  0  0  0  0  0  0  0  0  0
    3.6810    2.6384   -4.9612 O   0  0  0  0  0  0  0  0  0  0  0  0
    5.1754    4.4859   -5.2448 C   0  0  0  0  0  0  0  0  0  0  0  0
    5.3861    4.9649   -3.9616 C   0  0  0  0  0  0  0  0  0  0  0  0
    6.2085    6.0580   -3.7914 C   0  0  0  0  0  0  0  0  0  0  0  0
    6.8154    6.6827   -4.8917 C   0  0  0  0  0  0  0  0  0  0  0  0
    7.5927    7.7445   -4.5986 O   0  0  0  0  0  0  0  0  0  0  0  0
    8.2427    8.4333   -5.6458 C   0  0  0  0  0  0  0  0  0  0  0  0
    6.6002    6.2014   -6.1858 C   0  0  0  0  0  0  0  0  0  0  0  0
    5.7815    5.0978   -6.3527 C   0  0  0  0  0  0  0  0  0  0  0  0
    5.3885    4.3730   -7.5584 C   0  0  0  0  0  0  0  0  0  0  0  0
    5.8921    4.5878   -8.8149 C   0  0  0  0  0  0  0  0  0  0  0  0
    6.8221    5.6007   -9.1271 C   0  0  0  0  0  0  0  0  0  0  0  0
    7.5765    6.4088   -9.4385 N   0  0  0  0  0  0  0  0  0  0  0  0
    5.5939    3.8180   -9.9597 C   0  0  0  0  0  0  0  0  0  0  0  0
    5.4264    3.2335  -10.9340 N   0  0  0  0  0  0  0  0  0  0  0  0
    2.7694    1.5805   -7.7689 C   0  0  0  0  0  0  0  0  0  0  0  0
    2.7203    0.6943   -6.7220 C   0  0  0  0  0  0  0  0  0  0  0  0
    1.6466   -0.2139   -6.7983 C   0  0  0  0  0  0  0  0  0  0  0  0
    1.2813   -1.1919   -5.8533 C   0  0  0  0  0  0  0  0  0  0  0  0
    1.9810   -1.3604   -4.5741 C   0  0  0  0  0  0  0  0  0  0  0  0
    2.3177   -2.6587   -4.1283 C   0  0  0  0  0  0  0  0  0  0  0  0
    2.8739   -2.8549   -2.8991 C   0  0  0  0  0  0  0  0  0  0  0  0
    3.1243   -1.7658   -2.0361 C   0  0  0  0  0  0  0  0  0  0  0  0
    3.6501   -1.9378   -0.7454 C   0  0  0  0  0  0  0  0  0  0  0  0
    3.8869   -0.8590    0.0744 C   0  0  0  0  0  0  0  0  0  0  0  0
    4.5964   -1.2016    1.6595 S   0  0  0  0  0  0  0  0  0  0  0  0
    4.2429    0.2511    2.7064 C   0  0  0  0  0  0  0  0  0  0  0  0
    2.7663    0.4379    2.9855 C   0  0  0  0  0  0  0  0  0  0  0  0
    3.6188    0.4425   -0.3888 C   0  0  0  0  0  0  0  0  0  0  0  0
    3.0969    0.6338   -1.6366 C   0  0  0  0  0  0  0  0  0  0  0  0
    2.8226   -0.4551   -2.4914 C   0  0  0  0  0  0  0  0  0  0  0  0
    2.2504   -0.2800   -3.7643 C   0  0  0  0  0  0  0  0  0  0  0  0
    0.1521   -1.9355   -6.1504 C   0  0  0  0  0  0  0  0  0  0  0  0
   -0.6529   -1.7324   -7.3021 C   0  0  0  0  0  0  0  0  0  0  0  0
   -0.2812   -0.7601   -8.2469 C   0  0  0  0  0  0  0  0  0  0  0  0
   -1.0950   -0.4793   -9.4376 C   0  0  0  0  0  0  0  0  0  0  0  0
   -0.5255   -0.4651  -10.6883 C   0  0  0  0  0  0  0  0  0  0  0  0
   -1.2921   -0.1785  -11.8317 C   0  0  0  0  0  0  0  0  0  0  0  0
   -0.7320   -0.1666  -13.1263 C   0  0  0  0  0  0  0  0  0  0  0  0
   -1.4931    0.1184  -14.2228 C   0  0  0  0  0  0  0  0  0  0  0  0
   -2.8596    0.4208  -14.0759 C   0  0  0  0  0  0  0  0  0  0  0  0
   -3.9130    0.7676  -15.4549 S   0  0  0  0  0  0  0  0  0  0  0  0
   -2.7962    1.5377  -16.6810 C   0  0  0  0  0  0  0  0  0  0  0  0
   -2.1858    2.8274  -16.1689 C   0  0  0  0  0  0  0  0  0  0  0  0
   -3.4368    0.4060  -12.8289 C   0  0  0  0  0  0  0  0  0  0  0  0
   -2.6760    0.1048  -11.6867 C   0  0  0  0  0  0  0  0  0  0  0  0
   -3.2367    0.0944  -10.3908 C   0  0  0  0  0  0  0  0  0  0  0  0
   -2.4702   -0.1892   -9.2988 C   0  0  0  0  0  0  0  0  0  0  0  0
    0.8718   -0.0385   -7.9770 C   0  0  0  0  0  0  0  0  0  0  0  0
    1.5052    1.2541   -8.9552 S   0  0  0  0  0  0  0  0  0  0  0  0
   -1.8088   -2.5557   -7.2967 C   0  0  0  0  0  0  0  0  0  0  0  0
   -1.9182   -3.3311   -6.1777 C   0  0  0  0  0  0  0  0  0  0  0  0
   -0.5476   -3.1336   -5.0999 S   0  0  0  0  0  0  0  0  0  0  0  0
   -3.0090   -4.1109   -5.6918 C   0  0  0  0  0  0  0  0  0  0  0  0
   -4.3388   -4.0907   -6.0477 C   0  0  0  0  0  0  0  0  0  0  0  0
   -5.1502   -4.7236   -5.0953 C   0  0  0  0  0  0  0  0  0  0  0  0
   -6.8837   -4.7601   -4.8219 S   0  0  0  0  0  0  0  0  0  0  0  0
   -6.6061   -5.3592   -3.2126 C   0  0  0  0  0  0  0  0  0  0  0  0
   -7.2689   -5.4396   -1.9736 C   0  0  0  0  0  0  0  0  0  0  0  0
   -8.5684   -5.0385   -1.5865 C   0  0  0  0  0  0  0  0  0  0  0  0
   -8.8234   -4.7552   -0.1988 C   0  0  0  0  0  0  0  0  0  0  0  0
  -10.0402   -4.2767    0.0014 N   0  0  0  0  0  0  0  0  0  0  0  0
  -10.8073   -4.2028   -1.4227 S   0  0  0  0  0  0  0  0  0  0  0  0
   -9.6084   -4.7634   -2.3557 N   0  0  0  0  0  0  0  0  0  0  0  0
   -7.7984   -4.9747    0.7490 C   0  0  0  0  0  0  0  0  0  0  0  0
   -7.6416   -4.5610    2.0869 C   0  0  0  0  0  0  0  0  0  0  0  0
   -6.3889   -5.0168    2.4997 C   0  0  0  0  0  0  0  0  0  0  0  0
   -5.7723   -5.7202    1.4994 N   0  0  0  0  0  0  0  0  0  0  0  0
   -4.7904   -6.7261    1.8576 C   0  0  0  0  0  0  0  0  0  0  0  0
   -5.2399   -8.1223    1.4389 C   0  0  0  0  0  0  0  0  0  0  0  0
   -6.5887   -5.6281    0.3795 C   0  0  0  0  0  0  0  0  0  0  0  0
   -6.2833   -5.7667   -0.9979 C   0  0  0  0  0  0  0  0  0  0  0  0
   -5.0730   -5.9351   -1.6426 N   0  0  0  0  0  0  0  0  0  0  0  0
   -5.2581   -5.6224   -2.9582 C   0  0  0  0  0  0  0  0  0  0  0  0
   -4.4298   -5.2553   -4.0225 C   0  0  0  0  0  0  0  0  0  0  0  0
   -2.7338   -5.0232   -4.2184 S   0  0  0  0  0  0  0  0  0  0  0  0
   -3.7316   -6.0798   -1.1319 C   0  0  0  0  0  0  0  0  0  0  0  0
   -3.2115   -4.7789   -0.5239 C   0  0  0  0  0  0  0  0  0  0  0  0
   -5.9698   -4.4342    3.6975 C   0  0  0  0  0  0  0  0  0  0  0  0
   -4.4618   -4.3162    4.5226 S   0  0  0  0  0  0  0  0  0  0  0  0
   -5.0662   -2.9622    5.4642 C   0  0  0  0  0  0  0  0  0  0  0  0
   -6.3953   -2.7042    5.2086 C   0  0  0  0  0  0  0  0  0  0  0  0
   -6.9081   -3.5257    4.1968 C   0  0  0  0  0  0  0  0  0  0  0  0
   -8.3724   -3.4748    3.2312 S   0  0  0  0  0  0  0  0  0  0  0  0
   -4.1102   -2.1644    6.1572 C   0  0  0  0  0  0  0  0  0  0  0  0
   -4.2849   -0.9577    6.7767 C   0  0  0  0  0  0  0  0  0  0  0  0
   -3.0697   -0.3057    7.1017 C   0  0  0  0  0  0  0  0  0  0  0  0
   -2.8997    0.9739    7.6628 C   0  0  0  0  0  0  0  0  0  0  0  0
   -4.0532    1.7545    8.1277 C   0  0  0  0  0  0  0  0  0  0  0  0
   -4.2215    3.0906    7.7027 C   0  0  0  0  0  0  0  0  0  0  0  0
   -5.2912    3.8264    8.1199 C   0  0  0  0  0  0  0  0  0  0  0  0
   -6.2575    3.2732    8.9877 C   0  0  0  0  0  0  0  0  0  0  0  0
   -7.3782    4.0009    9.4215 C   0  0  0  0  0  0  0  0  0  0  0  0
   -8.3075    3.4328   10.2599 C   0  0  0  0  0  0  0  0  0  0  0  0
   -9.6541    4.4536   10.7840 S   0  0  0  0  0  0  0  0  0  0  0  0
  -11.0043    3.2711   11.1329 C   0  0  0  0  0  0  0  0  0  0  0  0
  -11.4305    2.5065    9.8949 C   0  0  0  0  0  0  0  0  0  0  0  0
   -8.1363    2.1088   10.7049 C   0  0  0  0  0  0  0  0  0  0  0  0
   -7.0601    1.3793   10.2888 C   0  0  0  0  0  0  0  0  0  0  0  0
   -6.0946    1.9302    9.4201 C   0  0  0  0  0  0  0  0  0  0  0  0
   -4.9822    1.1951    8.9738 C   0  0  0  0  0  0  0  0  0  0  0  0
   -1.6004    1.4559    7.7277 C   0  0  0  0  0  0  0  0  0  0  0  0
   -0.4756    0.7022    7.2950 C   0  0  0  0  0  0  0  0  0  0  0  0
   -0.6390   -0.6055    6.7948 C   0  0  0  0  0  0  0  0  0  0  0  0
    0.5252   -1.3927    6.3737 C   0  0  0  0  0  0  0  0  0  0  0  0
    0.5840   -1.9655    5.1254 C   0  0  0  0  0  0  0  0  0  0  0  0
    1.7253   -2.6724    4.7045 C   0  0  0  0  0  0  0  0  0  0  0  0
    1.8242   -3.2443    3.4179 C   0  0  0  0  0  0  0  0  0  0  0  0
    2.9513   -3.9034    3.0200 C   0  0  0  0  0  0  0  0  0  0  0  0
    4.0481   -4.0188    3.8941 C   0  0  0  0  0  0  0  0  0  0  0  0
    5.5268   -4.8803    3.4660 S   0  0  0  0  0  0  0  0  0  0  0  0
    5.5392   -4.8351    1.6334 C   0  0  0  0  0  0  0  0  0  0  0  0
    6.9403   -5.1371    1.1381 C   0  0  0  0  0  0  0  0  0  0  0  0
    3.9772   -3.4829    5.1587 C   0  0  0  0  0  0  0  0  0  0  0  0
    2.8273   -2.8037    5.5910 C   0  0  0  0  0  0  0  0  0  0  0  0
    2.7321   -2.2308    6.8784 C   0  0  0  0  0  0  0  0  0  0  0  0
    1.6183   -1.5424    7.2569 C   0  0  0  0  0  0  0  0  0  0  0  0
   -1.9385   -1.0616    6.6935 C   0  0  0  0  0  0  0  0  0  0  0  0
   -2.4151   -2.5934    6.0130 S   0  0  0  0  0  0  0  0  0  0  0  0
    0.7248    1.4312    7.3698 C   0  0  0  0  0  0  0  0  0  0  0  0
    0.5733    2.6984    7.8772 C   0  0  0  0  0  0  0  0  0  0  0  0
   -1.1076    3.0199    8.3124 S   0  0  0  0  0  0  0  0  0  0  0  0
    1.5197    3.7123    8.1435 C   0  0  0  0  0  0  0  0  0  0  0  0
    2.8151    3.8390    7.7216 C   0  0  0  0  0  0  0  0  0  0  0  0
    3.5052    3.0792    6.6476 C   0  0  0  0  0  0  0  0  0  0  0  0
    3.0840    2.1555    5.9771 O   0  0  0  0  0  0  0  0  0  0  0  0
    4.8181    3.7161    6.4913 C   0  0  0  0  0  0  0  0  0  0  0  0
    5.8397    3.3877    5.6219 C   0  0  0  0  0  0  0  0  0  0  0  0
    7.0136    4.1220    5.6533 C   0  0  0  0  0  0  0  0  0  0  0  0
    7.1557    5.1848    6.5487 C   0  0  0  0  0  0  0  0  0  0  0  0
    8.2579    5.9551    6.6550 O   0  0  0  0  0  0  0  0  0  0  0  0
    9.3721    5.6871    5.8349 C   0  0  0  0  0  0  0  0  0  0  0  0
    6.1127    5.5226    7.4260 C   0  0  0  0  0  0  0  0  0  0  0  0
    4.9487    4.7854    7.3967 C   0  0  0  0  0  0  0  0  0  0  0  0
    3.7215    4.8767    8.1867 C   0  0  0  0  0  0  0  0  0  0  0  0
    3.5194    5.7520    9.2207 C   0  0  0  0  0  0  0  0  0  0  0  0
    2.3848    5.8080   10.0590 C   0  0  0  0  0  0  0  0  0  0  0  0
    1.5191    5.9184   10.8061 N   0  0  0  0  0  0  0  0  0  0  0  0
    4.4505    6.7350    9.6204 C   0  0  0  0  0  0  0  0  0  0  0  0
    5.1483    7.5638    9.9997 N   0  0  0  0  0  0  0  0  0  0  0  0
    3.6732    2.9566   -9.0769 H   0  0  0  0  0  0  0  0  0  0  0  0
    4.9141    4.4814   -3.1206 H   0  0  0  0  0  0  0  0  0  0  0  0
    6.4062    6.4636   -2.8119 H   0  0  0  0  0  0  0  0  0  0  0  0
    8.9280    7.7793   -6.1921 H   0  0  0  0  0  0  0  0  0  0  0  0
    7.5238    8.8713   -6.3439 H   0  0  0  0  0  0  0  0  0  0  0  0
    8.8083    9.2285   -5.1636 H   0  0  0  0  0  0  0  0  0  0  0  0
    7.0563    6.6823   -7.0333 H   0  0  0  0  0  0  0  0  0  0  0  0
    3.4459    0.6797   -5.9320 H   0  0  0  0  0  0  0  0  0  0  0  0
    2.1466   -3.4986   -4.7855 H   0  0  0  0  0  0  0  0  0  0  0  0
    3.1286   -3.8512   -2.5672 H   0  0  0  0  0  0  0  0  0  0  0  0
    3.8705   -2.9360   -0.3969 H   0  0  0  0  0  0  0  0  0  0  0  0
    4.7778    0.0207    3.6281 H   0  0  0  0  0  0  0  0  0  0  0  0
    4.6961    1.1293    2.2460 H   0  0  0  0  0  0  0  0  0  0  0  0
    2.3418   -0.4843    3.3750 H   0  0  0  0  0  0  0  0  0  0  0  0
    2.6372    1.2155    3.7358 H   0  0  0  0  0  0  0  0  0  0  0  0
    2.2255    0.7167    2.0830 H   0  0  0  0  0  0  0  0  0  0  0  0
    3.8314    1.2943    0.2386 H   0  0  0  0  0  0  0  0  0  0  0  0
    2.8946    1.6323   -1.9956 H   0  0  0  0  0  0  0  0  0  0  0  0
    1.9978    0.7206   -4.0820 H   0  0  0  0  0  0  0  0  0  0  0  0
    0.5235   -0.6943  -10.8103 H   0  0  0  0  0  0  0  0  0  0  0  0
    0.3184   -0.3930  -13.2403 H   0  0  0  0  0  0  0  0  0  0  0  0
   -1.0438    0.1008  -15.2035 H   0  0  0  0  0  0  0  0  0  0  0  0
   -2.0390    0.8110  -16.9738 H   0  0  0  0  0  0  0  0  0  0  0  0
   -3.4464    1.7240  -17.5357 H   0  0  0  0  0  0  0  0  0  0  0  0
   -1.5645    2.6430  -15.2944 H   0  0  0  0  0  0  0  0  0  0  0  0
   -2.9683    3.5305  -15.8926 H   0  0  0  0  0  0  0  0  0  0  0  0
   -1.5690    3.2781  -16.9442 H   0  0  0  0  0  0  0  0  0  0  0  0
   -4.4882    0.6291  -12.7242 H   0  0  0  0  0  0  0  0  0  0  0  0
   -4.2865    0.3241  -10.2785 H   0  0  0  0  0  0  0  0  0  0  0  0
   -2.9007   -0.1671   -8.3080 H   0  0  0  0  0  0  0  0  0  0  0  0
   -2.5345   -2.5612   -8.0893 H   0  0  0  0  0  0  0  0  0  0  0  0
   -4.7116   -3.5782   -6.9148 H   0  0  0  0  0  0  0  0  0  0  0  0
   -3.8064   -6.4834    1.4530 H   0  0  0  0  0  0  0  0  0  0  0  0
   -4.6989   -6.6890    2.9464 H   0  0  0  0  0  0  0  0  0  0  0  0
   -5.3942   -8.1833    0.3640 H   0  0  0  0  0  0  0  0  0  0  0  0
   -6.1775   -8.3755    1.9287 H   0  0  0  0  0  0  0  0  0  0  0  0
   -4.4890   -8.8530    1.7279 H   0  0  0  0  0  0  0  0  0  0  0  0
   -3.6909   -6.9056   -0.4240 H   0  0  0  0  0  0  0  0  0  0  0  0
   -3.1012   -6.3525   -1.9825 H   0  0  0  0  0  0  0  0  0  0  0  0
   -2.2150   -4.9305   -0.1181 H   0  0  0  0  0  0  0  0  0  0  0  0
   -3.8673   -4.4246    0.2676 H   0  0  0  0  0  0  0  0  0  0  0  0
   -3.1556   -4.0105   -1.2911 H   0  0  0  0  0  0  0  0  0  0  0  0
   -6.9476   -1.9145    5.6826 H   0  0  0  0  0  0  0  0  0  0  0  0
   -5.2506   -0.5164    6.9432 H   0  0  0  0  0  0  0  0  0  0  0  0
   -3.5014    3.5175    7.0210 H   0  0  0  0  0  0  0  0  0  0  0  0
   -5.4175    4.8457    7.7858 H   0  0  0  0  0  0  0  0  0  0  0  0
   -7.5091    5.0209    9.0922 H   0  0  0  0  0  0  0  0  0  0  0  0
  -10.6937    2.6091   11.9406 H   0  0  0  0  0  0  0  0  0  0  0  0
  -11.8113    3.9066   11.4973 H   0  0  0  0  0  0  0  0  0  0  0  0
  -10.6110    1.9022    9.5104 H   0  0  0  0  0  0  0  0  0  0  0  0
  -11.7427    3.1975    9.1153 H   0  0  0  0  0  0  0  0  0  0  0  0
  -12.2646    1.8496   10.1341 H   0  0  0  0  0  0  0  0  0  0  0  0
   -8.8480    1.6678   11.3854 H   0  0  0  0  0  0  0  0  0  0  0  0
   -6.9326    0.3617   10.6306 H   0  0  0  0  0  0  0  0  0  0  0  0
   -4.8527    0.1807    9.3253 H   0  0  0  0  0  0  0  0  0  0  0  0
   -0.2362   -1.8451    4.4320 H   0  0  0  0  0  0  0  0  0  0  0  0
    0.9856   -3.1515    2.7420 H   0  0  0  0  0  0  0  0  0  0  0  0
    2.9959   -4.3375    2.0341 H   0  0  0  0  0  0  0  0  0  0  0  0
    5.2324   -3.8312    1.3422 H   0  0  0  0  0  0  0  0  0  0  0  0
    4.8292   -5.5778    1.2665 H   0  0  0  0  0  0  0  0  0  0  0  0
    6.9605   -5.1120    0.0505 H   0  0  0  0  0  0  0  0  0  0  0  0
    7.6407   -4.3973    1.5174 H   0  0  0  0  0  0  0  0  0  0  0  0
    7.2616   -6.1211    1.4723 H   0  0  0  0  0  0  0  0  0  0  0  0
    4.8195   -3.5803    5.8275 H   0  0  0  0  0  0  0  0  0  0  0  0
    3.5634   -2.3448    7.5590 H   0  0  0  0  0  0  0  0  0  0  0  0
    1.5480   -1.1181    8.2481 H   0  0  0  0  0  0  0  0  0  0  0  0
    1.6686    1.0412    7.0403 H   0  0  0  0  0  0  0  0  0  0  0  0
    1.1347    4.5040    8.7754 H   0  0  0  0  0  0  0  0  0  0  0  0
    5.7193    2.5635    4.9353 H   0  0  0  0  0  0  0  0  0  0  0  0
    7.8147    3.8609    4.9803 H   0  0  0  0  0  0  0  0  0  0  0  0
    9.1279    5.8049    4.7747 H   0  0  0  0  0  0  0  0  0  0  0  0
   10.1238    6.4228    6.1148 H   0  0  0  0  0  0  0  0  0  0  0  0
    9.7669    4.6817    6.0110 H   0  0  0  0  0  0  0  0  0  0  0  0
    6.2675    6.3528    8.0940 H   0  0  0  0  0  0  0  0  0  0  0  0
  1  2  2  0  0  0  0
  2  3  1  0  0  0  0
  3  4  2  0  0  0  0
  3  5  1  0  0  0  0
  5  6  2  0  0  0  0
  6  7  1  0  0  0  0
  7  8  2  0  0  0  0
  8  9  1  0  0  0  0
  9 10  1  0  0  0  0
  8 11  1  0  0  0  0
 11 12  2  0  0  0  0
 12 13  1  0  0  0  0
 13 14  2  0  0  0  0
 14 15  1  0  0  0  0
 15 16  3  0  0  0  0
 14 17  1  0  0  0  0
 17 18  3  0  0  0  0
  1 19  1  0  0  0  0
 19 20  2  0  0  0  0
 20 21  1  0  0  0  0
 21 22  2  0  0  0  0
 22 23  1  0  0  0  0
 23 24  2  0  0  0  0
 24 25  1  0  0  0  0
 25 26  2  0  0  0  0
 26 27  1  0  0  0  0
 27 28  2  0  0  0  0
 28 29  1  0  0  0  0
 29 30  1  0  0  0  0
 30 31  1  0  0  0  0
 28 32  1  0  0  0  0
 32 33  2  0  0  0  0
 33 34  1  0  0  0  0
 34 35  2  0  0  0  0
 22 36  1  0  0  0  0
 36 37  2  0  0  0  0
 37 38  1  0  0  0  0
 38 39  1  0  0  0  0
 39 40  2  0  0  0  0
 40 41  1  0  0  0  0
 41 42  2  0  0  0  0
 42 43  1  0  0  0  0
 43 44  2  0  0  0  0
 44 45  1  0  0  0  0
 45 46  1  0  0  0  0
 46 47  1  0  0  0  0
 44 48  1  0  0  0  0
 48 49  2  0  0  0  0
 49 50  1  0  0  0  0
 50 51  2  0  0  0  0
 38 52  2  0  0  0  0
 52 53  1  0  0  0  0
 37 54  1  0  0  0  0
 54 55  2  0  0  0  0
 55 56  1  0  0  0  0
 55 57  1  0  0  0  0
 57 58  2  0  0  0  0
 58 59  1  0  0  0  0
 59 60  1  0  0  0  0
 60 61  1  0  0  0  0
 61 62  1  0  0  0  0
 62 63  1  0  0  0  0
 63 64  1  0  0  0  0
 64 65  2  0  0  0  0
 65 66  1  0  0  0  0
 66 67  1  0  0  0  0
 64 68  1  0  0  0  0
 68 69  1  0  0  0  0
 69 70  2  0  0  0  0
 70 71  1  0  0  0  0
 71 72  1  0  0  0  0
 72 73  1  0  0  0  0
 71 74  1  0  0  0  0
 74 75  1  0  0  0  0
 75 76  1  0  0  0  0
 76 77  1  0  0  0  0
 77 78  1  0  0  0  0
 78 79  1  0  0  0  0
 76 80  1  0  0  0  0
 80 81  1  0  0  0  0
 70 82  1  0  0  0  0
 82 83  1  0  0  0  0
 83 84  1  0  0  0  0
 84 85  2  0  0  0  0
 85 86  1  0  0  0  0
 86 87  1  0  0  0  0
 84 88  1  0  0  0  0
 88 89  2  0  0  0  0
 89 90  1  0  0  0  0
 90 91  2  0  0  0  0
 91 92  1  0  0  0  0
 92 93  2  0  0  0  0
 93 94  1  0  0  0  0
 94 95  2  0  0  0  0
 95 96  1  0  0  0  0
 96 97  2  0  0  0  0
 97 98  1  0  0  0  0
 98 99  1  0  0  0  0
 99100  1  0  0  0  0
 97101  1  0  0  0  0
101102  2  0  0  0  0
102103  1  0  0  0  0
103104  2  0  0  0  0
 91105  1  0  0  0  0
105106  2  0  0  0  0
106107  1  0  0  0  0
107108  1  0  0  0  0
108109  2  0  0  0  0
109110  1  0  0  0  0
110111  2  0  0  0  0
111112  1  0  0  0  0
112113  2  0  0  0  0
113114  1  0  0  0  0
114115  1  0  0  0  0
115116  1  0  0  0  0
113117  1  0  0  0  0
117118  2  0  0  0  0
118119  1  0  0  0  0
119120  2  0  0  0  0
107121  2  0  0  0  0
121122  1  0  0  0  0
106123  1  0  0  0  0
123124  2  0  0  0  0
124125  1  0  0  0  0
124126  1  0  0  0  0
126127  2  0  0  0  0
127128  1  0  0  0  0
128129  2  0  0  0  0
128130  1  0  0  0  0
130131  2  0  0  0  0
131132  1  0  0  0  0
132133  2  0  0  0  0
133134  1  0  0  0  0
134135  1  0  0  0  0
133136  1  0  0  0  0
136137  2  0  0  0  0
137138  1  0  0  0  0
138139  2  0  0  0  0
139140  1  0  0  0  0
140141  3  0  0  0  0
139142  1  0  0  0  0
142143  3  0  0  0  0
 13  2  1  0  0  0  0
 53 19  1  0  0  0  0
 79 57  1  0  0  0  0
 86 82  2  0  0  0  0
122 88  1  0  0  0  0
138127  1  0  0  0  0
 12  5  1  0  0  0  0
 52 21  1  0  0  0  0
 78 59  2  0  0  0  0
121 90  1  0  0  0  0
137130  1  0  0  0  0
 35 23  1  0  0  0  0
 56 36  1  0  0  0  0
 77 61  2  0  0  0  0
104 92  1  0  0  0  0
125105  1  0  0  0  0
 34 26  1  0  0  0  0
 51 39  1  0  0  0  0
 75 62  2  0  0  0  0
103 95  1  0  0  0  0
120108  1  0  0  0  0
 49 41  1  0  0  0  0
 67 63  2  0  0  0  0
 74 68  2  0  0  0  0
118110  1  0  0  0  0
 87 69  1  0  0  0  0
  1144  1  0  0  0  0
  6145  1  0  0  0  0
  7146  1  0  0  0  0
 10147  1  0  0  0  0
 10148  1  0  0  0  0
 10149  1  0  0  0  0
 11150  1  0  0  0  0
 20151  1  0  0  0  0
 24152  1  0  0  0  0
 25153  1  0  0  0  0
 27154  1  0  0  0  0
 30155  1  0  0  0  0
 30156  1  0  0  0  0
 31157  1  0  0  0  0
 31158  1  0  0  0  0
 31159  1  0  0  0  0
 32160  1  0  0  0  0
 33161  1  0  0  0  0
 35162  1  0  0  0  0
 40163  1  0  0  0  0
 42164  1  0  0  0  0
 43165  1  0  0  0  0
 46166  1  0  0  0  0
 46167  1  0  0  0  0
 47168  1  0  0  0  0
 47169  1  0  0  0  0
 47170  1  0  0  0  0
 48171  1  0  0  0  0
 50172  1  0  0  0  0
 51173  1  0  0  0  0
 54174  1  0  0  0  0
 58175  1  0  0  0  0
 72176  1  0  0  0  0
 72177  1  0  0  0  0
 73178  1  0  0  0  0
 73179  1  0  0  0  0
 73180  1  0  0  0  0
 80181  1  0  0  0  0
 80182  1  0  0  0  0
 81183  1  0  0  0  0
 81184  1  0  0  0  0
 81185  1  0  0  0  0
 85186  1  0  0  0  0
 89187  1  0  0  0  0
 93188  1  0  0  0  0
 94189  1  0  0  0  0
 96190  1  0  0  0  0
 99191  1  0  0  0  0
 99192  1  0  0  0  0
100193  1  0  0  0  0
100194  1  0  0  0  0
100195  1  0  0  0  0
101196  1  0  0  0  0
102197  1  0  0  0  0
104198  1  0  0  0  0
109199  1  0  0  0  0
111200  1  0  0  0  0
112201  1  0  0  0  0
115202  1  0  0  0  0
115203  1  0  0  0  0
116204  1  0  0  0  0
116205  1  0  0  0  0
116206  1  0  0  0  0
117207  1  0  0  0  0
119208  1  0  0  0  0
120209  1  0  0  0  0
123210  1  0  0  0  0
126211  1  0  0  0  0
131212  1  0  0  0  0
132213  1  0  0  0  0
135214  1  0  0  0  0
135215  1  0  0  0  0
135216  1  0  0  0  0
136217  1  0  0  0  0
M  END
