
  xtb     02102222293D
 energy: -342.696278340599 gnorm: 0.000672846089 xtb: 6.4.1 (unknown)
186205  0     0  0            999 V2000
   10.0073    4.2413   -7.6922 C   0  0  0  0  0  0  0  0  0  0  0  0
   10.7161    3.1215   -7.9730 C   0  0  0  0  0  0  0  0  0  0  0  0
   10.2105    1.7326   -7.7928 C   0  0  0  0  0  0  0  0  0  0  0  0
    9.1837    1.3669   -7.2648 O   0  0  0  0  0  0  0  0  0  0  0  0
   11.1589    0.8776   -8.5356 C   0  0  0  0  0  0  0  0  0  0  0  0
   11.1001   -0.4888   -8.7240 C   0  0  0  0  0  0  0  0  0  0  0  0
   12.0741   -1.0749   -9.5189 C   0  0  0  0  0  0  0  0  0  0  0  0
   13.0464   -0.3083  -10.1384 C   0  0  0  0  0  0  0  0  0  0  0  0
   13.1046    1.0788   -9.9676 C   0  0  0  0  0  0  0  0  0  0  0  0
   13.9684    1.8921  -10.5975 O   0  0  0  0  0  0  0  0  0  0  0  0
   14.9917    1.3535  -11.4033 C   0  0  0  0  0  0  0  0  0  0  0  0
   12.1644    1.6714   -9.1122 C   0  0  0  0  0  0  0  0  0  0  0  0
   11.9860    3.0502   -8.6859 C   0  0  0  0  0  0  0  0  0  0  0  0
   12.8906    4.0752   -8.7412 C   0  0  0  0  0  0  0  0  0  0  0  0
   12.6526    5.3515   -8.1800 C   0  0  0  0  0  0  0  0  0  0  0  0
   12.5497    6.4053   -7.7365 N   0  0  0  0  0  0  0  0  0  0  0  0
   14.2152    4.0302   -9.2302 C   0  0  0  0  0  0  0  0  0  0  0  0
   15.3181    4.1250   -9.5348 N   0  0  0  0  0  0  0  0  0  0  0  0
    8.8701    4.2833   -6.8145 C   0  0  0  0  0  0  0  0  0  0  0  0
    8.8432    3.5487   -5.5964 C   0  0  0  0  0  0  0  0  0  0  0  0
    9.9340    2.8751   -5.1933 N   0  0  0  0  0  0  0  0  0  0  0  0
    9.8693    2.1522   -4.1147 C   0  0  0  0  0  0  0  0  0  0  0  0
    8.6674    2.0497   -3.3590 C   0  0  0  0  0  0  0  0  0  0  0  0
    8.4651    1.2496   -2.3098 O   0  0  0  0  0  0  0  0  0  0  0  0
    9.5194    0.4362   -1.8177 C   0  0  0  0  0  0  0  0  0  0  0  0
   10.4892    1.2168   -0.9369 C   0  0  0  0  0  0  0  0  0  0  0  0
    7.6422    2.8104   -3.6696 N   0  0  0  0  0  0  0  0  0  0  0  0
    7.6994    3.5810   -4.7626 C   0  0  0  0  0  0  0  0  0  0  0  0
    6.5890    4.4313   -5.0557 C   0  0  0  0  0  0  0  0  0  0  0  0
    6.6527    5.1386   -6.2510 C   0  0  0  0  0  0  0  0  0  0  0  0
    7.7677    5.0784   -7.0881 C   0  0  0  0  0  0  0  0  0  0  0  0
    7.7324    5.7703   -8.2383 F   0  0  0  0  0  0  0  0  0  0  0  0
    5.6017    5.8580   -6.6768 F   0  0  0  0  0  0  0  0  0  0  0  0
    5.4698    4.4723   -4.1606 C   0  0  0  0  0  0  0  0  0  0  0  0
    4.5943    5.5188   -3.9046 C   0  0  0  0  0  0  0  0  0  0  0  0
    4.7711    6.9053   -4.3337 C   0  0  0  0  0  0  0  0  0  0  0  0
    6.0273    7.5060   -4.2787 C   0  0  0  0  0  0  0  0  0  0  0  0
    6.1752    8.8274   -4.6508 C   0  0  0  0  0  0  0  0  0  0  0  0
    5.0796    9.5608   -5.0730 C   0  0  0  0  0  0  0  0  0  0  0  0
    3.8179    8.9823   -5.1194 C   0  0  0  0  0  0  0  0  0  0  0  0
    2.6308    9.7580   -5.6122 C   0  0  0  0  0  0  0  0  0  0  0  0
    2.4386    9.5358   -7.1136 C   0  0  0  0  0  0  0  0  0  0  0  0
    3.6755    7.6546   -4.7467 C   0  0  0  0  0  0  0  0  0  0  0  0
    3.5639    5.1112   -3.0387 C   0  0  0  0  0  0  0  0  0  0  0  0
    2.2082    5.9634   -2.3351 S   0  0  0  0  0  0  0  0  0  0  0  0
    1.7784    4.5196   -1.4838 C   0  0  0  0  0  0  0  0  0  0  0  0
    0.8215    4.0747   -0.5604 C   0  0  0  0  0  0  0  0  0  0  0  0
   -0.1941    4.7768    0.1245 C   0  0  0  0  0  0  0  0  0  0  0  0
   -0.9470    4.0922    1.1344 C   0  0  0  0  0  0  0  0  0  0  0  0
   -1.8260    4.8799    1.7337 N   0  0  0  0  0  0  0  0  0  0  0  0
   -1.7171    6.3578    1.0789 S   0  0  0  0  0  0  0  0  0  0  0  0
   -0.5438    6.0478    0.0067 N   0  0  0  0  0  0  0  0  0  0  0  0
   -0.7237    2.7122    1.3305 C   0  0  0  0  0  0  0  0  0  0  0  0
   -1.3843    1.7857    2.1496 C   0  0  0  0  0  0  0  0  0  0  0  0
   -2.6327    1.7508    3.3460 S   0  0  0  0  0  0  0  0  0  0  0  0
   -2.4718    0.0114    3.4339 C   0  0  0  0  0  0  0  0  0  0  0  0
   -3.1234   -0.9740    4.2012 C   0  0  0  0  0  0  0  0  0  0  0  0
   -4.0892   -0.6794    5.2583 C   0  0  0  0  0  0  0  0  0  0  0  0
   -4.9819    0.3805    5.1198 C   0  0  0  0  0  0  0  0  0  0  0  0
   -5.9146    0.6368    6.1063 C   0  0  0  0  0  0  0  0  0  0  0  0
   -5.9720   -0.1567    7.2377 C   0  0  0  0  0  0  0  0  0  0  0  0
   -5.0676   -1.1976    7.4119 C   0  0  0  0  0  0  0  0  0  0  0  0
   -5.0832   -2.0292    8.6630 C   0  0  0  0  0  0  0  0  0  0  0  0
   -4.1403   -1.4379    9.7124 C   0  0  0  0  0  0  0  0  0  0  0  0
   -4.1195   -1.4328    6.4300 C   0  0  0  0  0  0  0  0  0  0  0  0
   -2.6531   -2.2396    3.8814 C   0  0  0  0  0  0  0  0  0  0  0  0
   -1.3689   -2.2073    2.6925 S   0  0  0  0  0  0  0  0  0  0  0  0
   -1.4924   -0.4921    2.5722 C   0  0  0  0  0  0  0  0  0  0  0  0
   -0.8618    0.5267    1.8459 C   0  0  0  0  0  0  0  0  0  0  0  0
    0.1228    0.6431    0.9018 N   0  0  0  0  0  0  0  0  0  0  0  0
    0.2381    1.9844    0.5720 C   0  0  0  0  0  0  0  0  0  0  0  0
    1.0985    2.7004   -0.3033 C   0  0  0  0  0  0  0  0  0  0  0  0
    2.2202    2.3428   -1.0337 N   0  0  0  0  0  0  0  0  0  0  0  0
    2.6320    3.4428   -1.7363 C   0  0  0  0  0  0  0  0  0  0  0  0
    3.6628    3.7792   -2.6245 C   0  0  0  0  0  0  0  0  0  0  0  0
    5.0763    3.0195   -3.2664 S   0  0  0  0  0  0  0  0  0  0  0  0
    3.1230    1.2251   -0.8737 C   0  0  0  0  0  0  0  0  0  0  0  0
    3.6816    1.1548    0.5453 C   0  0  0  0  0  0  0  0  0  0  0  0
    0.5713   -0.5331    0.1904 C   0  0  0  0  0  0  0  0  0  0  0  0
    0.0587   -0.5473   -1.2475 C   0  0  0  0  0  0  0  0  0  0  0  0
   -3.1503   -3.5097    4.3391 C   0  0  0  0  0  0  0  0  0  0  0  0
   -2.3311   -4.5974    4.6036 C   0  0  0  0  0  0  0  0  0  0  0  0
   -0.9998   -4.4818    4.4564 F   0  0  0  0  0  0  0  0  0  0  0  0
   -2.8330   -5.8207    5.0571 C   0  0  0  0  0  0  0  0  0  0  0  0
   -1.9659   -6.8188    5.2744 F   0  0  0  0  0  0  0  0  0  0  0  0
   -4.1862   -6.0388    5.2634 C   0  0  0  0  0  0  0  0  0  0  0  0
   -5.0494   -4.9271    5.0459 C   0  0  0  0  0  0  0  0  0  0  0  0
   -6.3468   -5.0246    5.3550 N   0  0  0  0  0  0  0  0  0  0  0  0
   -7.1752   -4.0344    5.0979 C   0  0  0  0  0  0  0  0  0  0  0  0
   -8.5329   -4.2951    5.5079 C   0  0  0  0  0  0  0  0  0  0  0  0
   -8.7284   -5.3942    6.8422 S   0  0  0  0  0  0  0  0  0  0  0  0
  -10.4450   -5.3558    6.7017 C   0  0  0  0  0  0  0  0  0  0  0  0
  -11.3552   -6.1219    7.6017 C   0  0  0  0  0  0  0  0  0  0  0  0
  -10.6095   -6.8451    8.7134 C   0  0  0  0  0  0  0  0  0  0  0  0
  -10.8018   -4.5437    5.6585 C   0  0  0  0  0  0  0  0  0  0  0  0
   -9.7397   -3.9384    4.9697 C   0  0  0  0  0  0  0  0  0  0  0  0
  -12.0906   -4.3494    5.3142 F   0  0  0  0  0  0  0  0  0  0  0  0
   -6.6889   -2.8570    4.4450 C   0  0  0  0  0  0  0  0  0  0  0  0
   -5.4048   -2.7391    4.1861 N   0  0  0  0  0  0  0  0  0  0  0  0
   -4.5505   -3.7089    4.5214 C   0  0  0  0  0  0  0  0  0  0  0  0
   -7.4682   -1.6966    4.0885 C   0  0  0  0  0  0  0  0  0  0  0  0
   -8.5121   -1.0876    4.7308 C   0  0  0  0  0  0  0  0  0  0  0  0
   -8.8345    0.1423    4.1337 C   0  0  0  0  0  0  0  0  0  0  0  0
   -9.8272    0.9222    4.5991 F   0  0  0  0  0  0  0  0  0  0  0  0
   -8.0704    0.4887    3.0539 C   0  0  0  0  0  0  0  0  0  0  0  0
   -8.1578    1.7244    2.2269 C   0  0  0  0  0  0  0  0  0  0  0  0
   -6.8698    2.5454    2.3067 C   0  0  0  0  0  0  0  0  0  0  0  0
   -6.8875   -0.7346    2.7650 S   0  0  0  0  0  0  0  0  0  0  0  0
   -4.6927   -7.3084    5.7083 C   0  0  0  0  0  0  0  0  0  0  0  0
   -5.9025   -7.8440    5.4316 C   0  0  0  0  0  0  0  0  0  0  0  0
   -6.4321   -8.9596    6.2666 C   0  0  0  0  0  0  0  0  0  0  0  0
   -5.8109   -9.6479    7.0403 O   0  0  0  0  0  0  0  0  0  0  0  0
   -7.8826   -8.9905    5.9857 C   0  0  0  0  0  0  0  0  0  0  0  0
   -8.8581   -9.7607    6.5875 C   0  0  0  0  0  0  0  0  0  0  0  0
  -10.1679   -9.5957    6.1610 C   0  0  0  0  0  0  0  0  0  0  0  0
  -10.4910   -8.6676    5.1852 C   0  0  0  0  0  0  0  0  0  0  0  0
   -9.5134   -7.8716    4.5810 C   0  0  0  0  0  0  0  0  0  0  0  0
   -9.7644   -6.8981    3.6877 O   0  0  0  0  0  0  0  0  0  0  0  0
  -11.0436   -6.7930    3.1006 C   0  0  0  0  0  0  0  0  0  0  0  0
   -8.1808   -8.0669    4.9692 C   0  0  0  0  0  0  0  0  0  0  0  0
   -6.9444   -7.4704    4.4824 C   0  0  0  0  0  0  0  0  0  0  0  0
   -6.7274   -6.9226    3.2478 C   0  0  0  0  0  0  0  0  0  0  0  0
   -7.6775   -6.6887    2.2302 C   0  0  0  0  0  0  0  0  0  0  0  0
   -8.3228   -6.4609    1.3080 N   0  0  0  0  0  0  0  0  0  0  0  0
   -5.4481   -6.5659    2.7699 C   0  0  0  0  0  0  0  0  0  0  0  0
   -4.4434   -6.2631    2.3034 N   0  0  0  0  0  0  0  0  0  0  0  0
   10.2765    5.1815   -8.1576 H   0  0  0  0  0  0  0  0  0  0  0  0
   10.3170   -1.0678   -8.2616 H   0  0  0  0  0  0  0  0  0  0  0  0
   12.0706   -2.1428   -9.6766 H   0  0  0  0  0  0  0  0  0  0  0  0
   13.7668   -0.7968  -10.7753 H   0  0  0  0  0  0  0  0  0  0  0  0
   15.5923    2.2097  -11.7046 H   0  0  0  0  0  0  0  0  0  0  0  0
   14.5829    0.8570  -12.2885 H   0  0  0  0  0  0  0  0  0  0  0  0
   15.6165    0.6549  -10.8403 H   0  0  0  0  0  0  0  0  0  0  0  0
   10.7879    1.6622   -3.8256 H   0  0  0  0  0  0  0  0  0  0  0  0
   10.0431   -0.0583   -2.6435 H   0  0  0  0  0  0  0  0  0  0  0  0
    9.0103   -0.3270   -1.2232 H   0  0  0  0  0  0  0  0  0  0  0  0
    9.9475    1.6841   -0.1186 H   0  0  0  0  0  0  0  0  0  0  0  0
   10.9958    1.9958   -1.5018 H   0  0  0  0  0  0  0  0  0  0  0  0
   11.2336    0.5404   -0.5263 H   0  0  0  0  0  0  0  0  0  0  0  0
    6.8792    6.9388   -3.9307 H   0  0  0  0  0  0  0  0  0  0  0  0
    7.1506    9.2898   -4.6090 H   0  0  0  0  0  0  0  0  0  0  0  0
    5.2049   10.5936   -5.3646 H   0  0  0  0  0  0  0  0  0  0  0  0
    2.7774   10.8227   -5.4202 H   0  0  0  0  0  0  0  0  0  0  0  0
    1.7336    9.4338   -5.0813 H   0  0  0  0  0  0  0  0  0  0  0  0
    3.3178    9.8684   -7.6607 H   0  0  0  0  0  0  0  0  0  0  0  0
    2.2883    8.4792   -7.3222 H   0  0  0  0  0  0  0  0  0  0  0  0
    1.5742   10.0895   -7.4732 H   0  0  0  0  0  0  0  0  0  0  0  0
    2.7023    7.1890   -4.7955 H   0  0  0  0  0  0  0  0  0  0  0  0
   -4.9586    0.9867    4.2289 H   0  0  0  0  0  0  0  0  0  0  0  0
   -6.6096    1.4554    5.9881 H   0  0  0  0  0  0  0  0  0  0  0  0
   -6.7168    0.0362    7.9964 H   0  0  0  0  0  0  0  0  0  0  0  0
   -4.7724   -3.0511    8.4319 H   0  0  0  0  0  0  0  0  0  0  0  0
   -6.0966   -2.0664    9.0684 H   0  0  0  0  0  0  0  0  0  0  0  0
   -3.1229   -1.4035    9.3297 H   0  0  0  0  0  0  0  0  0  0  0  0
   -4.4446   -0.4246    9.9646 H   0  0  0  0  0  0  0  0  0  0  0  0
   -4.1517   -2.0408   10.6172 H   0  0  0  0  0  0  0  0  0  0  0  0
   -3.3953   -2.2224    6.5755 H   0  0  0  0  0  0  0  0  0  0  0  0
    2.6364    0.2926   -1.1614 H   0  0  0  0  0  0  0  0  0  0  0  0
    3.9451    1.3893   -1.5746 H   0  0  0  0  0  0  0  0  0  0  0  0
    2.8853    1.0655    1.2806 H   0  0  0  0  0  0  0  0  0  0  0  0
    4.3464    0.3004    0.6393 H   0  0  0  0  0  0  0  0  0  0  0  0
    4.2463    2.0579    0.7645 H   0  0  0  0  0  0  0  0  0  0  0  0
    0.1636   -1.3938    0.7259 H   0  0  0  0  0  0  0  0  0  0  0  0
    1.6576   -0.6166    0.2310 H   0  0  0  0  0  0  0  0  0  0  0  0
    0.4185   -1.4354   -1.7599 H   0  0  0  0  0  0  0  0  0  0  0  0
    0.3891    0.3334   -1.7933 H   0  0  0  0  0  0  0  0  0  0  0  0
   -1.0287   -0.5619   -1.2530 H   0  0  0  0  0  0  0  0  0  0  0  0
  -11.9137   -6.8483    7.0020 H   0  0  0  0  0  0  0  0  0  0  0  0
  -12.0893   -5.4310    8.0281 H   0  0  0  0  0  0  0  0  0  0  0  0
  -10.0684   -6.1347    9.3333 H   0  0  0  0  0  0  0  0  0  0  0  0
   -9.8943   -7.5497    8.2944 H   0  0  0  0  0  0  0  0  0  0  0  0
  -11.3088   -7.3912    9.3409 H   0  0  0  0  0  0  0  0  0  0  0  0
   -9.8708   -3.3096    4.1095 H   0  0  0  0  0  0  0  0  0  0  0  0
   -9.0024   -1.4653    5.6080 H   0  0  0  0  0  0  0  0  0  0  0  0
   -9.0026    2.3185    2.5817 H   0  0  0  0  0  0  0  0  0  0  0  0
   -8.3441    1.4515    1.1848 H   0  0  0  0  0  0  0  0  0  0  0  0
   -6.6712    2.8469    3.3323 H   0  0  0  0  0  0  0  0  0  0  0  0
   -6.0268    1.9607    1.9457 H   0  0  0  0  0  0  0  0  0  0  0  0
   -6.9587    3.4397    1.6961 H   0  0  0  0  0  0  0  0  0  0  0  0
   -4.0594   -7.8767    6.3819 H   0  0  0  0  0  0  0  0  0  0  0  0
   -8.5956  -10.4683    7.3574 H   0  0  0  0  0  0  0  0  0  0  0  0
  -10.9555  -10.1899    6.5993 H   0  0  0  0  0  0  0  0  0  0  0  0
  -11.5229   -8.5563    4.8908 H   0  0  0  0  0  0  0  0  0  0  0  0
  -11.7921   -6.4515    3.8201 H   0  0  0  0  0  0  0  0  0  0  0  0
  -11.3574   -7.7438    2.6627 H   0  0  0  0  0  0  0  0  0  0  0  0
  -10.9310   -6.0543    2.3094 H   0  0  0  0  0  0  0  0  0  0  0  0
  1  2  2  0  0  0  0
  2  3  1  0  0  0  0
  3  4  2  0  0  0  0
  3  5  1  0  0  0  0
  5  6  2  0  0  0  0
  6  7  1  0  0  0  0
  7  8  2  0  0  0  0
  8  9  1  0  0  0  0
  9 10  1  0  0  0  0
 10 11  1  0  0  0  0
  9 12  2  0  0  0  0
 12 13  1  0  0  0  0
 13 14  2  0  0  0  0
 14 15  1  0  0  0  0
 15 16  3  0  0  0  0
 14 17  1  0  0  0  0
 17 18  3  0  0  0  0
  1 19  1  0  0  0  0
 19 20  1  0  0  0  0
 20 21  2  0  0  0  0
 21 22  1  0  0  0  0
 22 23  2  0  0  0  0
 23 24  1  0  0  0  0
 24 25  1  0  0  0  0
 25 26  1  0  0  0  0
 23 27  1  0  0  0  0
 27 28  2  0  0  0  0
 28 29  1  0  0  0  0
 29 30  2  0  0  0  0
 30 31  1  0  0  0  0
 31 32  1  0  0  0  0
 30 33  1  0  0  0  0
 29 34  1  0  0  0  0
 34 35  2  0  0  0  0
 35 36  1  0  0  0  0
 36 37  2  0  0  0  0
 37 38  1  0  0  0  0
 38 39  2  0  0  0  0
 39 40  1  0  0  0  0
 40 41  1  0  0  0  0
 41 42  1  0  0  0  0
 40 43  2  0  0  0  0
 35 44  1  0  0  0  0
 44 45  1  0  0  0  0
 45 46  1  0  0  0  0
 46 47  1  0  0  0  0
 47 48  1  0  0  0  0
 48 49  1  0  0  0  0
 49 50  2  0  0  0  0
 50 51  1  0  0  0  0
 51 52  1  0  0  0  0
 49 53  1  0  0  0  0
 53 54  1  0  0  0  0
 54 55  1  0  0  0  0
 55 56  1  0  0  0  0
 56 57  1  0  0  0  0
 57 58  1  0  0  0  0
 58 59  2  0  0  0  0
 59 60  1  0  0  0  0
 60 61  2  0  0  0  0
 61 62  1  0  0  0  0
 62 63  1  0  0  0  0
 63 64  1  0  0  0  0
 62 65  2  0  0  0  0
 57 66  2  0  0  0  0
 66 67  1  0  0  0  0
 67 68  1  0  0  0  0
 68 69  1  0  0  0  0
 69 70  1  0  0  0  0
 70 71  1  0  0  0  0
 71 72  1  0  0  0  0
 72 73  1  0  0  0  0
 73 74  1  0  0  0  0
 74 75  1  0  0  0  0
 75 76  1  0  0  0  0
 73 77  1  0  0  0  0
 77 78  1  0  0  0  0
 70 79  1  0  0  0  0
 79 80  1  0  0  0  0
 66 81  1  0  0  0  0
 81 82  2  0  0  0  0
 82 83  1  0  0  0  0
 82 84  1  0  0  0  0
 84 85  1  0  0  0  0
 84 86  2  0  0  0  0
 86 87  1  0  0  0  0
 87 88  2  0  0  0  0
 88 89  1  0  0  0  0
 89 90  1  0  0  0  0
 90 91  1  0  0  0  0
 91 92  1  0  0  0  0
 92 93  1  0  0  0  0
 93 94  1  0  0  0  0
 92 95  2  0  0  0  0
 95 96  1  0  0  0  0
 95 97  1  0  0  0  0
 89 98  2  0  0  0  0
 98 99  1  0  0  0  0
 99100  2  0  0  0  0
 98101  1  0  0  0  0
101102  2  0  0  0  0
102103  1  0  0  0  0
103104  1  0  0  0  0
103105  2  0  0  0  0
105106  1  0  0  0  0
106107  1  0  0  0  0
105108  1  0  0  0  0
 86109  1  0  0  0  0
109110  2  0  0  0  0
110111  1  0  0  0  0
111112  2  0  0  0  0
111113  1  0  0  0  0
113114  2  0  0  0  0
114115  1  0  0  0  0
115116  2  0  0  0  0
116117  1  0  0  0  0
117118  1  0  0  0  0
118119  1  0  0  0  0
117120  2  0  0  0  0
120121  1  0  0  0  0
121122  2  0  0  0  0
122123  1  0  0  0  0
123124  3  0  0  0  0
122125  1  0  0  0  0
125126  3  0  0  0  0
 13  2  1  0  0  0  0
 31 19  2  0  0  0  0
 76 34  1  0  0  0  0
100 81  1  0  0  0  0
108101  1  0  0  0  0
121110  1  0  0  0  0
 12  5  1  0  0  0  0
 28 20  1  0  0  0  0
 43 36  1  0  0  0  0
 75 44  2  0  0  0  0
100 87  1  0  0  0  0
120113  1  0  0  0  0
 74 46  2  0  0  0  0
 96 90  2  0  0  0  0
 72 47  2  0  0  0  0
 52 48  2  0  0  0  0
 71 53  2  0  0  0  0
 69 54  2  0  0  0  0
 68 56  2  0  0  0  0
 65 58  1  0  0  0  0
  1127  1  0  0  0  0
  6128  1  0  0  0  0
  7129  1  0  0  0  0
  8130  1  0  0  0  0
 11131  1  0  0  0  0
 11132  1  0  0  0  0
 11133  1  0  0  0  0
 22134  1  0  0  0  0
 25135  1  0  0  0  0
 25136  1  0  0  0  0
 26137  1  0  0  0  0
 26138  1  0  0  0  0
 26139  1  0  0  0  0
 37140  1  0  0  0  0
 38141  1  0  0  0  0
 39142  1  0  0  0  0
 41143  1  0  0  0  0
 41144  1  0  0  0  0
 42145  1  0  0  0  0
 42146  1  0  0  0  0
 42147  1  0  0  0  0
 43148  1  0  0  0  0
 59149  1  0  0  0  0
 60150  1  0  0  0  0
 61151  1  0  0  0  0
 63152  1  0  0  0  0
 63153  1  0  0  0  0
 64154  1  0  0  0  0
 64155  1  0  0  0  0
 64156  1  0  0  0  0
 65157  1  0  0  0  0
 77158  1  0  0  0  0
 77159  1  0  0  0  0
 78160  1  0  0  0  0
 78161  1  0  0  0  0
 78162  1  0  0  0  0
 79163  1  0  0  0  0
 79164  1  0  0  0  0
 80165  1  0  0  0  0
 80166  1  0  0  0  0
 80167  1  0  0  0  0
 93168  1  0  0  0  0
 93169  1  0  0  0  0
 94170  1  0  0  0  0
 94171  1  0  0  0  0
 94172  1  0  0  0  0
 96173  1  0  0  0  0
102174  1  0  0  0  0
106175  1  0  0  0  0
106176  1  0  0  0  0
107177  1  0  0  0  0
107178  1  0  0  0  0
107179  1  0  0  0  0
109180  1  0  0  0  0
114181  1  0  0  0  0
115182  1  0  0  0  0
116183  1  0  0  0  0
119184  1  0  0  0  0
119185  1  0  0  0  0
119186  1  0  0  0  0
M  END
