145

C         10.38890       -4.23710       -1.00040
C         11.68050       -4.13690       -1.39680
C         12.42940       -2.93440       -1.85440
O         12.18520       -1.76640       -1.65430
C         13.54400       -3.46420       -2.66780
C         14.45980       -2.75570       -3.41990
C         15.39760       -3.47890       -4.14240
C         15.39190       -4.86390       -4.14110
C         14.46270       -5.59140       -3.39050
O         14.34260       -6.92950       -3.40060
C         15.27970       -7.71790       -4.09920
C         13.55350       -4.86760       -2.60670
C         12.52000       -5.30260       -1.68480
C         12.42520       -6.49810       -1.02980
C         11.46790       -6.75620       -0.02030
N         10.74600       -7.02280        0.83130
C         13.31600       -7.59020       -1.12970
N         13.98910       -8.51860       -1.07970
C          9.42740       -3.23360       -0.63230
C          8.06320       -3.56950       -0.69120
F          7.70640       -4.76230       -1.20480
C          7.06640       -2.73290       -0.25390
C          7.38050       -1.49340        0.31230
C          8.73510       -1.12870        0.31810
F          9.08480        0.09340        0.75750
C          9.73320       -1.96280       -0.12940
C          6.33430       -0.66330        0.86040
C          6.33370        0.08120        2.02220
C          7.42780        0.10690        2.99290
C          7.81390        1.30450        3.58660
C          8.86030        1.31570        4.48840
C          9.52450        0.14330        4.80530
C          9.13720       -1.06430        4.23890
C          9.86640       -2.34110        4.54580
C         10.80830       -2.71230        3.39850
C          8.08190       -1.07070        3.34010
C          5.09300        0.72630        2.21410
S          4.45910        1.71290        3.50980
C          2.92680        1.74810        2.70310
C          1.61730        2.20930        2.91830
C          1.02130        2.81890        4.04410
C         -0.40490        2.97960        4.07250
N         -0.83290        3.49240        5.21540
S          0.44740        3.75830        6.17010
N          1.59830        3.22420        5.16430
C         -1.15530        2.63530        2.92710
C         -2.52960        2.73820        2.64960
S         -4.01210        3.14550        3.44730
C         -4.88180        2.79540        1.97140
C         -6.25320        2.82530        1.62650
C         -7.31870        3.26460        2.52620
C         -7.30040        2.89880        3.86890
C         -8.31620        3.31280        4.70870
C         -9.35200        4.09100        4.22330
C         -9.38280        4.47200        2.88740
C        -10.47950        5.35420        2.36310
C        -10.07720        6.82650        2.46790
C         -8.35720        4.06080        2.05140
C         -6.44000        2.45470        0.31140
S         -4.93540        2.10700       -0.52190
C         -4.04420        2.41470        0.92310
C         -2.70060        2.36700        1.31560
N         -1.49970        2.01370        0.76170
C         -0.53190        2.14400        1.74620
C          0.84860        1.81500        1.78750
N          1.67290        1.11270        0.92420
C          2.91750        1.05730        1.48950
C          4.15500        0.46090        1.21550
S          4.80100       -0.59140        0.00860
C          1.34030        0.22420       -0.16560
C          0.41470       -0.90220        0.28670
C         -1.35890        1.99610       -0.67820
C         -0.47250        3.13720       -1.16970
C         -7.65850        2.25230       -0.44170
C         -8.78230        1.60590        0.08920
F         -8.75830        1.15880        1.35890
C         -9.90870        1.35560       -0.66090
C         -9.95790        1.70780       -2.01130
C         -8.84960        2.38500       -2.53330
F         -8.89720        2.86590       -3.78620
C         -7.72980        2.64870       -1.77940
C        -11.11740        1.39240       -2.82020
C        -11.05270        0.88230       -4.06950
C         -9.82320        0.26710       -4.65340
O         -8.71170        0.23260       -4.17890
C        -10.27730       -0.41520       -5.87890
C         -9.52130       -1.16950       -6.75360
C        -10.17250       -1.76130       -7.82570
C        -11.54140       -1.63220       -7.98690
C        -12.31800       -0.88320       -7.09680
O        -13.65500       -0.77640       -7.15390
C        -14.36790       -1.32820       -8.23790
C        -11.66060       -0.22920       -6.04350
C        -12.15750        0.65150       -4.99830
C        -13.36170        1.29700       -4.93670
C        -14.41290        1.27410       -5.88160
N        -15.32540        1.39940       -6.56700
C        -13.71200        2.19960       -3.90550
N        -14.07160        2.94630       -3.11100
H          9.97480       -5.24000       -0.97990
H         14.43500       -1.67810       -3.43530
H         16.13810       -2.96040       -4.73250
H         16.11880       -5.38790       -4.74150
H         15.01020       -8.74690       -3.86940
H         16.29840       -7.52640       -3.75210
H         15.21590       -7.55020       -5.17850
H          6.03810       -3.05470       -0.31640
H         10.75380       -1.62100       -0.08890
H          7.30910        2.22130        3.32320
H          9.16510        2.24680        4.94250
H         10.34880        0.16420        5.50370
H          9.14780       -3.15050        4.69290
H         10.44370       -2.22600        5.46480
H         10.24660       -2.87330        2.48040
H         11.35200       -3.62440        3.63300
H         11.52490       -1.91260        3.22480
H          7.75640       -2.00860        2.91090
H         -6.50610        2.27290        4.24500
H         -8.30290        3.02080        5.74840
H        -10.14660        4.40490        4.88490
H        -11.39290        5.18860        2.93760
H        -10.68400        5.10980        1.31840
H         -9.17360        7.01390        1.89200
H         -9.88260        7.09250        3.50450
H        -10.87060        7.46550        2.08750
H         -8.36180        4.36880        1.01450
H          0.91540        0.78390       -0.99950
H          2.28270       -0.20430       -0.51550
H         -0.50940       -0.51020        0.70410
H          0.17590       -1.54620       -0.55540
H          0.90530       -1.49970        1.05150
H         -2.36430        2.12050       -1.08810
H         -0.99390        1.02740       -1.02220
H         -0.39500        3.10490       -2.25320
H          0.52580        3.07490       -0.74320
H         -0.90410        4.09290       -0.88130
H        -10.73530        0.83220       -0.20630
H         -6.90000        3.16750       -2.23400
H        -12.07720        1.55890       -2.34910
H         -8.46060       -1.28090       -6.59690
H         -9.61350       -2.34510       -8.54120
H        -12.01700       -2.13110       -8.81650
H        -14.31460       -2.42090       -8.23520
H        -15.39730       -1.00780       -8.08790
H        -14.00410       -0.94010       -9.19310
