
  xtb     02102222483D
 energy: -235.181094374124 gnorm: 0.000354220215 xtb: 6.4.1 (unknown)
124136  0     0  0            999 V2000
   -1.0321    2.9591   -8.1173 C   0  0  0  0  0  0  0  0  0  0  0  0
   -1.9123    3.9799   -8.3280 C   0  0  0  0  0  0  0  0  0  0  0  0
   -2.5986    4.5994   -7.1679 C   0  0  0  0  0  0  0  0  0  0  0  0
   -2.3007    4.4811   -5.9994 O   0  0  0  0  0  0  0  0  0  0  0  0
   -3.7512    5.3274   -7.7398 C   0  0  0  0  0  0  0  0  0  0  0  0
   -4.7727    5.9825   -7.0824 C   0  0  0  0  0  0  0  0  0  0  0  0
   -5.7863    6.5343   -7.8524 C   0  0  0  0  0  0  0  0  0  0  0  0
   -5.7968    6.3932   -9.2297 C   0  0  0  0  0  0  0  0  0  0  0  0
   -4.7719    5.7214   -9.9044 C   0  0  0  0  0  0  0  0  0  0  0  0
   -4.7606    5.4655  -11.2267 O   0  0  0  0  0  0  0  0  0  0  0  0
   -5.7445    6.0367  -12.0582 C   0  0  0  0  0  0  0  0  0  0  0  0
   -3.7082    5.2268   -9.1407 C   0  0  0  0  0  0  0  0  0  0  0  0
   -2.4638    4.5706   -9.5316 C   0  0  0  0  0  0  0  0  0  0  0  0
   -1.8005    4.7302  -10.7199 C   0  0  0  0  0  0  0  0  0  0  0  0
   -2.2382    5.4915  -11.8251 C   0  0  0  0  0  0  0  0  0  0  0  0
   -2.4595    6.1136  -12.7645 N   0  0  0  0  0  0  0  0  0  0  0  0
   -0.4764    4.2920  -10.9398 C   0  0  0  0  0  0  0  0  0  0  0  0
    0.6094    4.0004  -11.1733 N   0  0  0  0  0  0  0  0  0  0  0  0
   -0.5151    2.0315   -9.0432 C   0  0  0  0  0  0  0  0  0  0  0  0
    0.4021    1.0934   -8.6718 C   0  0  0  0  0  0  0  0  0  0  0  0
    0.9769    0.1640   -9.5644 C   0  0  0  0  0  0  0  0  0  0  0  0
    1.8636   -0.8311   -9.2745 C   0  0  0  0  0  0  0  0  0  0  0  0
    2.3773   -1.2740   -8.0321 C   0  0  0  0  0  0  0  0  0  0  0  0
    3.3255   -2.2798   -7.8648 C   0  0  0  0  0  0  0  0  0  0  0  0
    3.9764   -3.0622   -8.9601 C   0  0  0  0  0  0  0  0  0  0  0  0
    3.1225   -4.2731   -9.3442 C   0  0  0  0  0  0  0  0  0  0  0  0
    3.5896   -2.5272   -6.5128 C   0  0  0  0  0  0  0  0  0  0  0  0
    4.6594   -3.6541   -5.7048 S   0  0  0  0  0  0  0  0  0  0  0  0
    4.1176   -3.0372   -4.1812 C   0  0  0  0  0  0  0  0  0  0  0  0
    4.3528   -3.2261   -2.8114 C   0  0  0  0  0  0  0  0  0  0  0  0
    5.2899   -4.0400   -2.1382 C   0  0  0  0  0  0  0  0  0  0  0  0
    5.3891   -3.9465   -0.7109 C   0  0  0  0  0  0  0  0  0  0  0  0
    6.3407   -4.7232   -0.2174 N   0  0  0  0  0  0  0  0  0  0  0  0
    7.0485   -5.5084   -1.4443 S   0  0  0  0  0  0  0  0  0  0  0  0
    6.1679   -4.8867   -2.6523 N   0  0  0  0  0  0  0  0  0  0  0  0
    4.4744   -3.1246   -0.0174 C   0  0  0  0  0  0  0  0  0  0  0  0
    4.2622   -2.9427    1.3576 C   0  0  0  0  0  0  0  0  0  0  0  0
    4.9377   -3.4427    2.8674 S   0  0  0  0  0  0  0  0  0  0  0  0
    3.6852   -2.5428    3.7085 C   0  0  0  0  0  0  0  0  0  0  0  0
    3.3730   -2.3242    5.0689 C   0  0  0  0  0  0  0  0  0  0  0  0
    3.9561   -2.8435    6.1562 O   0  0  0  0  0  0  0  0  0  0  0  0
    5.1779   -3.5514    6.0093 C   0  0  0  0  0  0  0  0  0  0  0  0
    5.6870   -3.8642    7.4056 C   0  0  0  0  0  0  0  0  0  0  0  0
    2.2482   -1.5188    5.2094 C   0  0  0  0  0  0  0  0  0  0  0  0
    1.5534   -1.0620    3.6704 S   0  0  0  0  0  0  0  0  0  0  0  0
    2.8007   -1.9047    2.8343 C   0  0  0  0  0  0  0  0  0  0  0  0
    3.1374   -2.1275    1.4922 C   0  0  0  0  0  0  0  0  0  0  0  0
    2.6658   -1.7704    0.2592 N   0  0  0  0  0  0  0  0  0  0  0  0
    3.4777   -2.3637   -0.6934 C   0  0  0  0  0  0  0  0  0  0  0  0
    3.4901   -2.3318   -2.1139 C   0  0  0  0  0  0  0  0  0  0  0  0
    2.7804   -1.5957   -3.0492 N   0  0  0  0  0  0  0  0  0  0  0  0
    3.1633   -2.0219   -4.2922 C   0  0  0  0  0  0  0  0  0  0  0  0
    2.8624   -1.7272   -5.6256 C   0  0  0  0  0  0  0  0  0  0  0  0
    1.8343   -0.6390   -6.4787 S   0  0  0  0  0  0  0  0  0  0  0  0
    2.0963   -0.3279   -2.9160 C   0  0  0  0  0  0  0  0  0  0  0  0
    3.0103    0.7433   -2.3270 C   0  0  0  0  0  0  0  0  0  0  0  0
    1.3407   -1.2044    0.1376 C   0  0  0  0  0  0  0  0  0  0  0  0
    0.3587   -2.2020   -0.4713 C   0  0  0  0  0  0  0  0  0  0  0  0
    1.6554   -1.0520    6.4353 C   0  0  0  0  0  0  0  0  0  0  0  0
    2.4255   -0.6581    7.5406 C   0  0  0  0  0  0  0  0  0  0  0  0
    3.7602   -0.6582    7.4599 F   0  0  0  0  0  0  0  0  0  0  0  0
    1.8388   -0.2119    8.7094 C   0  0  0  0  0  0  0  0  0  0  0  0
    2.6237    0.1536    9.7309 F   0  0  0  0  0  0  0  0  0  0  0  0
    0.4512   -0.0711    8.8461 C   0  0  0  0  0  0  0  0  0  0  0  0
   -0.3161   -0.4691    7.7440 C   0  0  0  0  0  0  0  0  0  0  0  0
   -1.6562   -0.4431    7.8245 F   0  0  0  0  0  0  0  0  0  0  0  0
    0.2650   -0.9420    6.5851 C   0  0  0  0  0  0  0  0  0  0  0  0
   -0.5375   -1.3321    5.5812 F   0  0  0  0  0  0  0  0  0  0  0  0
   -0.1020    0.4182   10.0858 C   0  0  0  0  0  0  0  0  0  0  0  0
   -1.2316    1.1195   10.3090 C   0  0  0  0  0  0  0  0  0  0  0  0
   -1.7528    1.2241   11.7108 C   0  0  0  0  0  0  0  0  0  0  0  0
   -1.1466    0.9663   12.7215 O   0  0  0  0  0  0  0  0  0  0  0  0
   -3.1604    1.6384   11.5650 C   0  0  0  0  0  0  0  0  0  0  0  0
   -4.1353    1.7396   12.5378 C   0  0  0  0  0  0  0  0  0  0  0  0
   -5.4142    2.0943   12.1334 C   0  0  0  0  0  0  0  0  0  0  0  0
   -5.7141    2.2997   10.7970 C   0  0  0  0  0  0  0  0  0  0  0  0
   -4.7374    2.1908    9.8010 C   0  0  0  0  0  0  0  0  0  0  0  0
   -4.9667    2.2932    8.4820 O   0  0  0  0  0  0  0  0  0  0  0  0
   -6.2505    2.6438    8.0167 C   0  0  0  0  0  0  0  0  0  0  0  0
   -3.4285    1.8998   10.2095 C   0  0  0  0  0  0  0  0  0  0  0  0
   -2.1958    1.7894    9.4445 C   0  0  0  0  0  0  0  0  0  0  0  0
   -1.9005    2.4315    8.2748 C   0  0  0  0  0  0  0  0  0  0  0  0
   -0.6208    2.4100    7.6817 C   0  0  0  0  0  0  0  0  0  0  0  0
    0.4030    2.4271    7.1627 N   0  0  0  0  0  0  0  0  0  0  0  0
   -2.7598    3.3030    7.5688 C   0  0  0  0  0  0  0  0  0  0  0  0
   -3.3462    4.0734    6.9533 N   0  0  0  0  0  0  0  0  0  0  0  0
   -0.7612    2.8075   -7.0767 H   0  0  0  0  0  0  0  0  0  0  0  0
   -4.7693    6.0571   -6.0069 H   0  0  0  0  0  0  0  0  0  0  0  0
   -6.5945    7.0683   -7.3756 H   0  0  0  0  0  0  0  0  0  0  0  0
   -6.6217    6.8063   -9.7884 H   0  0  0  0  0  0  0  0  0  0  0  0
   -6.7362    5.6271  -11.8421 H   0  0  0  0  0  0  0  0  0  0  0  0
   -5.7628    7.1256  -11.9630 H   0  0  0  0  0  0  0  0  0  0  0  0
   -5.4496    5.7718  -13.0716 H   0  0  0  0  0  0  0  0  0  0  0  0
   -0.8690    2.0483  -10.0636 H   0  0  0  0  0  0  0  0  0  0  0  0
    0.7306    1.0979   -7.6425 H   0  0  0  0  0  0  0  0  0  0  0  0
    0.6967    0.2769  -10.6038 H   0  0  0  0  0  0  0  0  0  0  0  0
    2.2333   -1.4016  -10.1169 H   0  0  0  0  0  0  0  0  0  0  0  0
    4.1424   -2.4317   -9.8346 H   0  0  0  0  0  0  0  0  0  0  0  0
    4.9470   -3.4105   -8.6010 H   0  0  0  0  0  0  0  0  0  0  0  0
    2.9855   -4.9238   -8.4839 H   0  0  0  0  0  0  0  0  0  0  0  0
    2.1432   -3.9571   -9.6970 H   0  0  0  0  0  0  0  0  0  0  0  0
    3.6112   -4.8399  -10.1324 H   0  0  0  0  0  0  0  0  0  0  0  0
    5.0074   -4.4747    5.4407 H   0  0  0  0  0  0  0  0  0  0  0  0
    5.9030   -2.9333    5.4671 H   0  0  0  0  0  0  0  0  0  0  0  0
    5.8289   -2.9399    7.9586 H   0  0  0  0  0  0  0  0  0  0  0  0
    4.9659   -4.4794    7.9367 H   0  0  0  0  0  0  0  0  0  0  0  0
    6.6320   -4.3948    7.3414 H   0  0  0  0  0  0  0  0  0  0  0  0
    1.7984   -0.0301   -3.9242 H   0  0  0  0  0  0  0  0  0  0  0  0
    1.1812   -0.4411   -2.3348 H   0  0  0  0  0  0  0  0  0  0  0  0
    3.3817    0.4519   -1.3474 H   0  0  0  0  0  0  0  0  0  0  0  0
    2.4687    1.6807   -2.2343 H   0  0  0  0  0  0  0  0  0  0  0  0
    3.8658    0.9014   -2.9799 H   0  0  0  0  0  0  0  0  0  0  0  0
    1.0153   -0.9545    1.1501 H   0  0  0  0  0  0  0  0  0  0  0  0
    1.3718   -0.2721   -0.4265 H   0  0  0  0  0  0  0  0  0  0  0  0
    0.2692   -3.0737    0.1726 H   0  0  0  0  0  0  0  0  0  0  0  0
    0.6907   -2.5370   -1.4512 H   0  0  0  0  0  0  0  0  0  0  0  0
   -0.6211   -1.7427   -0.5684 H   0  0  0  0  0  0  0  0  0  0  0  0
    0.4617    0.1549   10.9762 H   0  0  0  0  0  0  0  0  0  0  0  0
   -3.8972    1.5477   13.5714 H   0  0  0  0  0  0  0  0  0  0  0  0
   -6.1999    2.1976   12.8664 H   0  0  0  0  0  0  0  0  0  0  0  0
   -6.7288    2.5426   10.5239 H   0  0  0  0  0  0  0  0  0  0  0  0
   -6.9882    1.8747    8.2644 H   0  0  0  0  0  0  0  0  0  0  0  0
   -6.1497    2.7216    6.9360 H   0  0  0  0  0  0  0  0  0  0  0  0
   -6.5688    3.6094    8.4185 H   0  0  0  0  0  0  0  0  0  0  0  0
  1  2  2  0  0  0  0
  2  3  1  0  0  0  0
  3  4  2  0  0  0  0
  3  5  1  0  0  0  0
  5  6  2  0  0  0  0
  6  7  1  0  0  0  0
  7  8  2  0  0  0  0
  8  9  1  0  0  0  0
  9 10  1  0  0  0  0
 10 11  1  0  0  0  0
  9 12  2  0  0  0  0
 12 13  1  0  0  0  0
 13 14  2  0  0  0  0
 14 15  1  0  0  0  0
 15 16  3  0  0  0  0
 14 17  1  0  0  0  0
 17 18  3  0  0  0  0
  1 19  1  0  0  0  0
 19 20  2  0  0  0  0
 20 21  1  0  0  0  0
 21 22  2  0  0  0  0
 22 23  1  0  0  0  0
 23 24  2  0  0  0  0
 24 25  1  0  0  0  0
 25 26  1  0  0  0  0
 24 27  1  0  0  0  0
 27 28  1  0  0  0  0
 28 29  1  0  0  0  0
 29 30  1  0  0  0  0
 30 31  1  0  0  0  0
 31 32  1  0  0  0  0
 32 33  2  0  0  0  0
 33 34  1  0  0  0  0
 34 35  1  0  0  0  0
 32 36  1  0  0  0  0
 36 37  1  0  0  0  0
 37 38  1  0  0  0  0
 38 39  1  0  0  0  0
 39 40  1  0  0  0  0
 40 41  1  0  0  0  0
 41 42  1  0  0  0  0
 42 43  1  0  0  0  0
 40 44  2  0  0  0  0
 44 45  1  0  0  0  0
 45 46  1  0  0  0  0
 46 47  1  0  0  0  0
 47 48  1  0  0  0  0
 48 49  1  0  0  0  0
 49 50  1  0  0  0  0
 50 51  1  0  0  0  0
 51 52  1  0  0  0  0
 52 53  1  0  0  0  0
 53 54  1  0  0  0  0
 51 55  1  0  0  0  0
 55 56  1  0  0  0  0
 48 57  1  0  0  0  0
 57 58  1  0  0  0  0
 44 59  1  0  0  0  0
 59 60  2  0  0  0  0
 60 61  1  0  0  0  0
 60 62  1  0  0  0  0
 62 63  1  0  0  0  0
 62 64  2  0  0  0  0
 64 65  1  0  0  0  0
 65 66  1  0  0  0  0
 65 67  2  0  0  0  0
 67 68  1  0  0  0  0
 64 69  1  0  0  0  0
 69 70  2  0  0  0  0
 70 71  1  0  0  0  0
 71 72  2  0  0  0  0
 71 73  1  0  0  0  0
 73 74  2  0  0  0  0
 74 75  1  0  0  0  0
 75 76  2  0  0  0  0
 76 77  1  0  0  0  0
 77 78  1  0  0  0  0
 78 79  1  0  0  0  0
 77 80  2  0  0  0  0
 80 81  1  0  0  0  0
 81 82  2  0  0  0  0
 82 83  1  0  0  0  0
 83 84  3  0  0  0  0
 82 85  1  0  0  0  0
 85 86  3  0  0  0  0
 13  2  1  0  0  0  0
 54 23  1  0  0  0  0
 67 59  1  0  0  0  0
 81 70  1  0  0  0  0
 12  5  1  0  0  0  0
 53 27  2  0  0  0  0
 80 73  1  0  0  0  0
 52 29  2  0  0  0  0
 50 30  2  0  0  0  0
 35 31  2  0  0  0  0
 49 36  2  0  0  0  0
 47 37  2  0  0  0  0
 46 39  2  0  0  0  0
  1 87  1  0  0  0  0
  6 88  1  0  0  0  0
  7 89  1  0  0  0  0
  8 90  1  0  0  0  0
 11 91  1  0  0  0  0
 11 92  1  0  0  0  0
 11 93  1  0  0  0  0
 19 94  1  0  0  0  0
 20 95  1  0  0  0  0
 21 96  1  0  0  0  0
 22 97  1  0  0  0  0
 25 98  1  0  0  0  0
 25 99  1  0  0  0  0
 26100  1  0  0  0  0
 26101  1  0  0  0  0
 26102  1  0  0  0  0
 42103  1  0  0  0  0
 42104  1  0  0  0  0
 43105  1  0  0  0  0
 43106  1  0  0  0  0
 43107  1  0  0  0  0
 55108  1  0  0  0  0
 55109  1  0  0  0  0
 56110  1  0  0  0  0
 56111  1  0  0  0  0
 56112  1  0  0  0  0
 57113  1  0  0  0  0
 57114  1  0  0  0  0
 58115  1  0  0  0  0
 58116  1  0  0  0  0
 58117  1  0  0  0  0
 69118  1  0  0  0  0
 74119  1  0  0  0  0
 75120  1  0  0  0  0
 76121  1  0  0  0  0
 79122  1  0  0  0  0
 79123  1  0  0  0  0
 79124  1  0  0  0  0
M  END
