
  xtb     02042201573D
 energy: -314.299242488896 gnorm: 0.000665251806 xtb: 6.4.1 (unknown)
165182  0     0  0            999 V2000
    9.6497    2.1451   -4.1732 C   0  0  0  0  0  0  0  0  0  0  0  0
   10.0038    2.9663   -5.2048 C   0  0  0  0  0  0  0  0  0  0  0  0
    9.6547    4.4070   -5.2808 C   0  0  0  0  0  0  0  0  0  0  0  0
    9.1340    5.0953   -4.4277 O   0  0  0  0  0  0  0  0  0  0  0  0
    9.9252    4.7980   -6.6773 C   0  0  0  0  0  0  0  0  0  0  0  0
    9.7230    6.0287   -7.2674 C   0  0  0  0  0  0  0  0  0  0  0  0
   10.0050    6.1502   -8.6205 C   0  0  0  0  0  0  0  0  0  0  0  0
   10.4335    5.0619   -9.3605 C   0  0  0  0  0  0  0  0  0  0  0  0
   10.6268    3.8068   -8.7732 C   0  0  0  0  0  0  0  0  0  0  0  0
   10.9686    2.6931   -9.4432 O   0  0  0  0  0  0  0  0  0  0  0  0
   11.2992    2.7602  -10.8115 C   0  0  0  0  0  0  0  0  0  0  0  0
   10.4048    3.6893   -7.3946 C   0  0  0  0  0  0  0  0  0  0  0  0
   10.5590    2.5631   -6.4856 C   0  0  0  0  0  0  0  0  0  0  0  0
   11.2450    1.3947   -6.6897 C   0  0  0  0  0  0  0  0  0  0  0  0
   11.4127    0.4134   -5.6865 C   0  0  0  0  0  0  0  0  0  0  0  0
   11.5998   -0.4218   -4.9206 N   0  0  0  0  0  0  0  0  0  0  0  0
   11.9667    0.9984   -7.8370 C   0  0  0  0  0  0  0  0  0  0  0  0
   12.6234    0.5533   -8.6673 N   0  0  0  0  0  0  0  0  0  0  0  0
    9.3021    2.5911   -2.8794 C   0  0  0  0  0  0  0  0  0  0  0  0
    8.1168    1.7389   -1.9298 S   0  0  0  0  0  0  0  0  0  0  0  0
    8.1662    2.8945   -0.6197 C   0  0  0  0  0  0  0  0  0  0  0  0
    9.1152    3.8613   -0.9047 C   0  0  0  0  0  0  0  0  0  0  0  0
    9.6606    5.3048   -0.1017 S   0  0  0  0  0  0  0  0  0  0  0  0
   10.8231    5.6041   -1.3648 C   0  0  0  0  0  0  0  0  0  0  0  0
   11.7071    6.7689   -1.2512 C   0  0  0  0  0  0  0  0  0  0  0  0
   12.5860    7.0546   -2.0214 O   0  0  0  0  0  0  0  0  0  0  0  0
   11.3811    7.4759   -0.1593 O   0  0  0  0  0  0  0  0  0  0  0  0
   12.1629    8.6368    0.1181 C   0  0  0  0  0  0  0  0  0  0  0  0
   13.4181    8.2819    0.9018 C   0  0  0  0  0  0  0  0  0  0  0  0
   10.7708    4.6692   -2.3599 C   0  0  0  0  0  0  0  0  0  0  0  0
    9.7664    3.6858   -2.1558 C   0  0  0  0  0  0  0  0  0  0  0  0
   11.6207    4.6394   -3.3802 F   0  0  0  0  0  0  0  0  0  0  0  0
    7.2522    2.7251    0.4591 C   0  0  0  0  0  0  0  0  0  0  0  0
    7.3227    3.0756    1.7954 C   0  0  0  0  0  0  0  0  0  0  0  0
    8.4884    3.6776    2.5090 C   0  0  0  0  0  0  0  0  0  0  0  0
    9.7035    2.7512    2.4876 C   0  0  0  0  0  0  0  0  0  0  0  0
    6.1535    2.6956    2.4757 C   0  0  0  0  0  0  0  0  0  0  0  0
    5.6552    2.9044    4.1388 S   0  0  0  0  0  0  0  0  0  0  0  0
    4.1501    2.1419    3.7587 C   0  0  0  0  0  0  0  0  0  0  0  0
    2.9154    1.8704    4.3686 C   0  0  0  0  0  0  0  0  0  0  0  0
    2.3849    2.2414    5.6249 C   0  0  0  0  0  0  0  0  0  0  0  0
    0.9832    2.0444    5.8762 C   0  0  0  0  0  0  0  0  0  0  0  0
    0.6112    2.5186    7.0546 N   0  0  0  0  0  0  0  0  0  0  0  0
    1.9086    3.1481    7.7896 S   0  0  0  0  0  0  0  0  0  0  0  0
    2.9970    2.8472    6.6298 N   0  0  0  0  0  0  0  0  0  0  0  0
    0.2029    1.3656    4.9141 C   0  0  0  0  0  0  0  0  0  0  0  0
   -1.1513    0.9880    4.8867 C   0  0  0  0  0  0  0  0  0  0  0  0
   -2.5896    1.1707    5.8257 S   0  0  0  0  0  0  0  0  0  0  0  0
   -3.4768    0.2395    4.6230 C   0  0  0  0  0  0  0  0  0  0  0  0
   -4.8245   -0.1434    4.4701 C   0  0  0  0  0  0  0  0  0  0  0  0
   -5.8298    0.0063    5.3324 O   0  0  0  0  0  0  0  0  0  0  0  0
   -5.6173    0.7332    6.5311 C   0  0  0  0  0  0  0  0  0  0  0  0
   -6.9396    0.7637    7.2776 C   0  0  0  0  0  0  0  0  0  0  0  0
   -5.0300   -0.8308    3.2662 C   0  0  0  0  0  0  0  0  0  0  0  0
   -3.5365   -1.1169    2.3979 S   0  0  0  0  0  0  0  0  0  0  0  0
   -2.6677   -0.1843    3.5655 C   0  0  0  0  0  0  0  0  0  0  0  0
   -1.3454    0.2387    3.7232 C   0  0  0  0  0  0  0  0  0  0  0  0
   -0.1712    0.1415    3.0190 N   0  0  0  0  0  0  0  0  0  0  0  0
    0.7845    0.8599    3.7190 C   0  0  0  0  0  0  0  0  0  0  0  0
    2.1073    1.2368    3.3843 C   0  0  0  0  0  0  0  0  0  0  0  0
    2.8202    1.1673    2.2030 N   0  0  0  0  0  0  0  0  0  0  0  0
    4.0523    1.7211    2.4273 C   0  0  0  0  0  0  0  0  0  0  0  0
    5.1955    2.0490    1.6900 C   0  0  0  0  0  0  0  0  0  0  0  0
    5.7468    1.8954    0.0630 S   0  0  0  0  0  0  0  0  0  0  0  0
    2.3532    0.9412    0.8534 C   0  0  0  0  0  0  0  0  0  0  0  0
    2.9723   -0.3114    0.2322 C   0  0  0  0  0  0  0  0  0  0  0  0
    0.0396   -1.0304    2.1950 C   0  0  0  0  0  0  0  0  0  0  0  0
    0.0080   -2.3024    3.0415 C   0  0  0  0  0  0  0  0  0  0  0  0
   -6.2505   -1.2782    2.6875 C   0  0  0  0  0  0  0  0  0  0  0  0
   -7.5129   -0.7484    2.9532 C   0  0  0  0  0  0  0  0  0  0  0  0
   -7.6615    0.3407    3.7233 F   0  0  0  0  0  0  0  0  0  0  0  0
   -8.6742   -1.2507    2.3691 C   0  0  0  0  0  0  0  0  0  0  0  0
   -9.8221   -0.6171    2.6658 F   0  0  0  0  0  0  0  0  0  0  0  0
   -8.6812   -2.3019    1.4586 C   0  0  0  0  0  0  0  0  0  0  0  0
   -7.3999   -2.8029    1.0908 C   0  0  0  0  0  0  0  0  0  0  0  0
   -7.3158   -3.8172    0.2271 N   0  0  0  0  0  0  0  0  0  0  0  0
   -6.1410   -4.2737   -0.1550 C   0  0  0  0  0  0  0  0  0  0  0  0
   -6.1989   -5.4691   -0.9528 C   0  0  0  0  0  0  0  0  0  0  0  0
   -7.7417   -5.8470   -1.6625 S   0  0  0  0  0  0  0  0  0  0  0  0
   -7.1434   -7.3265   -2.3158 C   0  0  0  0  0  0  0  0  0  0  0  0
   -7.9882   -8.2355   -3.1390 C   0  0  0  0  0  0  0  0  0  0  0  0
   -8.5949   -7.5105   -4.3397 C   0  0  0  0  0  0  0  0  0  0  0  0
   -5.8314   -7.4931   -1.9609 C   0  0  0  0  0  0  0  0  0  0  0  0
   -5.2798   -6.4584   -1.1907 C   0  0  0  0  0  0  0  0  0  0  0  0
   -5.1151   -8.5720   -2.3253 F   0  0  0  0  0  0  0  0  0  0  0  0
   -4.9469   -3.5993    0.2627 C   0  0  0  0  0  0  0  0  0  0  0  0
   -5.0282   -2.6766    1.1986 N   0  0  0  0  0  0  0  0  0  0  0  0
   -6.2127   -2.2827    1.6698 C   0  0  0  0  0  0  0  0  0  0  0  0
   -3.6526   -3.8165   -0.3397 C   0  0  0  0  0  0  0  0  0  0  0  0
   -3.3616   -4.0938   -1.6490 C   0  0  0  0  0  0  0  0  0  0  0  0
   -1.9759   -4.1426   -1.8745 C   0  0  0  0  0  0  0  0  0  0  0  0
   -1.4549   -4.3907   -3.0881 F   0  0  0  0  0  0  0  0  0  0  0  0
   -1.1979   -3.9095   -0.7752 C   0  0  0  0  0  0  0  0  0  0  0  0
    0.2892   -3.9457   -0.6855 C   0  0  0  0  0  0  0  0  0  0  0  0
    0.7725   -5.2063    0.0350 C   0  0  0  0  0  0  0  0  0  0  0  0
   -2.2060   -3.6051    0.5962 S   0  0  0  0  0  0  0  0  0  0  0  0
   -9.8357   -2.8409    0.8075 C   0  0  0  0  0  0  0  0  0  0  0  0
  -11.1412   -2.8522    1.1665 C   0  0  0  0  0  0  0  0  0  0  0  0
  -12.1651   -3.1536    0.1220 C   0  0  0  0  0  0  0  0  0  0  0  0
  -11.9655   -3.6389   -0.9669 O   0  0  0  0  0  0  0  0  0  0  0  0
  -13.4430   -2.6760    0.6869 C   0  0  0  0  0  0  0  0  0  0  0  0
  -14.6759   -2.5781    0.0732 C   0  0  0  0  0  0  0  0  0  0  0  0
  -15.7194   -2.0322    0.8065 C   0  0  0  0  0  0  0  0  0  0  0  0
  -15.5242   -1.5694    2.0970 C   0  0  0  0  0  0  0  0  0  0  0  0
  -14.2780   -1.6576    2.7268 C   0  0  0  0  0  0  0  0  0  0  0  0
  -13.9938   -1.1634    3.9439 O   0  0  0  0  0  0  0  0  0  0  0  0
  -15.0210   -0.6116    4.7348 C   0  0  0  0  0  0  0  0  0  0  0  0
  -13.2345   -2.2608    2.0133 C   0  0  0  0  0  0  0  0  0  0  0  0
  -11.8587   -2.5510    2.3946 C   0  0  0  0  0  0  0  0  0  0  0  0
  -11.3905   -2.7892    3.6580 C   0  0  0  0  0  0  0  0  0  0  0  0
  -10.0829   -3.2531    3.9092 C   0  0  0  0  0  0  0  0  0  0  0  0
   -9.0312   -3.6445    4.1528 N   0  0  0  0  0  0  0  0  0  0  0  0
  -12.1454   -2.7494    4.8500 C   0  0  0  0  0  0  0  0  0  0  0  0
  -12.6726   -2.8080    5.8679 N   0  0  0  0  0  0  0  0  0  0  0  0
    9.5681    1.0792   -4.3449 H   0  0  0  0  0  0  0  0  0  0  0  0
    9.3636    6.8599   -6.6825 H   0  0  0  0  0  0  0  0  0  0  0  0
    9.8758    7.1013   -9.1146 H   0  0  0  0  0  0  0  0  0  0  0  0
   10.6133    5.1882  -10.4165 H   0  0  0  0  0  0  0  0  0  0  0  0
   12.1122    3.4686  -10.9914 H   0  0  0  0  0  0  0  0  0  0  0  0
   10.4300    3.0290  -11.4193 H   0  0  0  0  0  0  0  0  0  0  0  0
   11.6333    1.7565  -11.0683 H   0  0  0  0  0  0  0  0  0  0  0  0
   11.5058    9.2887    0.6975 H   0  0  0  0  0  0  0  0  0  0  0  0
   12.4292    9.1175   -0.8289 H   0  0  0  0  0  0  0  0  0  0  0  0
   14.0601    7.6394    0.3039 H   0  0  0  0  0  0  0  0  0  0  0  0
   13.1539    7.7633    1.8204 H   0  0  0  0  0  0  0  0  0  0  0  0
   13.9613    9.1894    1.1488 H   0  0  0  0  0  0  0  0  0  0  0  0
    8.1901    3.8606    3.5432 H   0  0  0  0  0  0  0  0  0  0  0  0
    8.7521    4.6350    2.0577 H   0  0  0  0  0  0  0  0  0  0  0  0
    9.4600    1.7972    2.9496 H   0  0  0  0  0  0  0  0  0  0  0  0
   10.0320    2.5670    1.4682 H   0  0  0  0  0  0  0  0  0  0  0  0
   10.5233    3.2037    3.0383 H   0  0  0  0  0  0  0  0  0  0  0  0
   -5.2845    1.7515    6.2949 H   0  0  0  0  0  0  0  0  0  0  0  0
   -4.8419    0.2419    7.1328 H   0  0  0  0  0  0  0  0  0  0  0  0
   -6.8315    1.3340    8.1951 H   0  0  0  0  0  0  0  0  0  0  0  0
   -7.2547   -0.2480    7.5176 H   0  0  0  0  0  0  0  0  0  0  0  0
   -7.7009    1.2223    6.6531 H   0  0  0  0  0  0  0  0  0  0  0  0
    2.6469    1.8075    0.2496 H   0  0  0  0  0  0  0  0  0  0  0  0
    1.2637    0.8970    0.8592 H   0  0  0  0  0  0  0  0  0  0  0  0
    2.5007   -0.5180   -0.7245 H   0  0  0  0  0  0  0  0  0  0  0  0
    2.8579   -1.1795    0.8780 H   0  0  0  0  0  0  0  0  0  0  0  0
    4.0350   -0.1598    0.0643 H   0  0  0  0  0  0  0  0  0  0  0  0
    1.0046   -0.9602    1.7064 H   0  0  0  0  0  0  0  0  0  0  0  0
   -0.7561   -1.0664    1.4451 H   0  0  0  0  0  0  0  0  0  0  0  0
   -0.9715   -2.4420    3.4889 H   0  0  0  0  0  0  0  0  0  0  0  0
    0.7528   -2.2459    3.8330 H   0  0  0  0  0  0  0  0  0  0  0  0
    0.2235   -3.1638    2.4170 H   0  0  0  0  0  0  0  0  0  0  0  0
   -7.3702   -9.0710   -3.4752 H   0  0  0  0  0  0  0  0  0  0  0  0
   -8.7953   -8.6368   -2.5196 H   0  0  0  0  0  0  0  0  0  0  0  0
   -9.2223   -6.6880   -4.0045 H   0  0  0  0  0  0  0  0  0  0  0  0
   -7.8111   -7.1120   -4.9795 H   0  0  0  0  0  0  0  0  0  0  0  0
   -9.2020   -8.1978   -4.9226 H   0  0  0  0  0  0  0  0  0  0  0  0
   -4.2707   -6.4701   -0.8245 H   0  0  0  0  0  0  0  0  0  0  0  0
   -4.0932   -4.2361   -2.4221 H   0  0  0  0  0  0  0  0  0  0  0  0
    0.6443   -3.0617   -0.1509 H   0  0  0  0  0  0  0  0  0  0  0  0
    0.6969   -3.9247   -1.6981 H   0  0  0  0  0  0  0  0  0  0  0  0
    0.4700   -6.0942   -0.5140 H   0  0  0  0  0  0  0  0  0  0  0  0
    1.8565   -5.2011    0.1130 H   0  0  0  0  0  0  0  0  0  0  0  0
    0.3480   -5.2592    1.0351 H   0  0  0  0  0  0  0  0  0  0  0  0
   -9.6247   -3.2836   -0.1615 H   0  0  0  0  0  0  0  0  0  0  0  0
  -14.8089   -2.9169   -0.9416 H   0  0  0  0  0  0  0  0  0  0  0  0
  -16.7008   -1.9484    0.3645 H   0  0  0  0  0  0  0  0  0  0  0  0
  -16.3558   -1.1243    2.6202 H   0  0  0  0  0  0  0  0  0  0  0  0
  -15.8230   -1.3347    4.9071 H   0  0  0  0  0  0  0  0  0  0  0  0
  -15.4297    0.2968    4.2816 H   0  0  0  0  0  0  0  0  0  0  0  0
  -14.5489   -0.3680    5.6845 H   0  0  0  0  0  0  0  0  0  0  0  0
  1  2  2  0  0  0  0
  2  3  1  0  0  0  0
  3  4  2  0  0  0  0
  3  5  1  0  0  0  0
  5  6  2  0  0  0  0
  6  7  1  0  0  0  0
  7  8  2  0  0  0  0
  8  9  1  0  0  0  0
  9 10  1  0  0  0  0
 10 11  1  0  0  0  0
  9 12  2  0  0  0  0
 12 13  1  0  0  0  0
 13 14  2  0  0  0  0
 14 15  1  0  0  0  0
 15 16  3  0  0  0  0
 14 17  1  0  0  0  0
 17 18  3  0  0  0  0
  1 19  1  0  0  0  0
 19 20  1  0  0  0  0
 20 21  1  0  0  0  0
 21 22  2  0  0  0  0
 22 23  1  0  0  0  0
 23 24  1  0  0  0  0
 24 25  1  0  0  0  0
 25 26  2  0  0  0  0
 25 27  1  0  0  0  0
 27 28  1  0  0  0  0
 28 29  1  0  0  0  0
 24 30  2  0  0  0  0
 30 31  1  0  0  0  0
 30 32  1  0  0  0  0
 21 33  1  0  0  0  0
 33 34  2  0  0  0  0
 34 35  1  0  0  0  0
 35 36  1  0  0  0  0
 34 37  1  0  0  0  0
 37 38  1  0  0  0  0
 38 39  1  0  0  0  0
 39 40  1  0  0  0  0
 40 41  1  0  0  0  0
 41 42  1  0  0  0  0
 42 43  2  0  0  0  0
 43 44  1  0  0  0  0
 44 45  1  0  0  0  0
 42 46  1  0  0  0  0
 46 47  1  0  0  0  0
 47 48  1  0  0  0  0
 48 49  1  0  0  0  0
 49 50  1  0  0  0  0
 50 51  1  0  0  0  0
 51 52  1  0  0  0  0
 52 53  1  0  0  0  0
 50 54  2  0  0  0  0
 54 55  1  0  0  0  0
 55 56  1  0  0  0  0
 56 57  1  0  0  0  0
 57 58  1  0  0  0  0
 58 59  1  0  0  0  0
 59 60  1  0  0  0  0
 60 61  1  0  0  0  0
 61 62  1  0  0  0  0
 62 63  1  0  0  0  0
 63 64  1  0  0  0  0
 61 65  1  0  0  0  0
 65 66  1  0  0  0  0
 58 67  1  0  0  0  0
 67 68  1  0  0  0  0
 54 69  1  0  0  0  0
 69 70  2  0  0  0  0
 70 71  1  0  0  0  0
 70 72  1  0  0  0  0
 72 73  1  0  0  0  0
 72 74  2  0  0  0  0
 74 75  1  0  0  0  0
 75 76  2  0  0  0  0
 76 77  1  0  0  0  0
 77 78  1  0  0  0  0
 78 79  1  0  0  0  0
 79 80  1  0  0  0  0
 80 81  1  0  0  0  0
 81 82  1  0  0  0  0
 80 83  2  0  0  0  0
 83 84  1  0  0  0  0
 83 85  1  0  0  0  0
 77 86  2  0  0  0  0
 86 87  1  0  0  0  0
 87 88  2  0  0  0  0
 86 89  1  0  0  0  0
 89 90  2  0  0  0  0
 90 91  1  0  0  0  0
 91 92  1  0  0  0  0
 91 93  2  0  0  0  0
 93 94  1  0  0  0  0
 94 95  1  0  0  0  0
 93 96  1  0  0  0  0
 74 97  1  0  0  0  0
 97 98  2  0  0  0  0
 98 99  1  0  0  0  0
 99100  2  0  0  0  0
 99101  1  0  0  0  0
101102  2  0  0  0  0
102103  1  0  0  0  0
103104  2  0  0  0  0
104105  1  0  0  0  0
105106  1  0  0  0  0
106107  1  0  0  0  0
105108  2  0  0  0  0
108109  1  0  0  0  0
109110  2  0  0  0  0
110111  1  0  0  0  0
111112  3  0  0  0  0
110113  1  0  0  0  0
113114  3  0  0  0  0
 13  2  1  0  0  0  0
 31 19  2  0  0  0  0
 64 33  1  0  0  0  0
 88 69  1  0  0  0  0
 96 89  1  0  0  0  0
109 98  1  0  0  0  0
 12  5  1  0  0  0  0
 31 22  1  0  0  0  0
 63 37  2  0  0  0  0
 88 75  1  0  0  0  0
108101  1  0  0  0  0
 62 39  2  0  0  0  0
 84 78  2  0  0  0  0
 60 40  2  0  0  0  0
 45 41  2  0  0  0  0
 59 46  2  0  0  0  0
 57 47  2  0  0  0  0
 56 49  2  0  0  0  0
  1115  1  0  0  0  0
  6116  1  0  0  0  0
  7117  1  0  0  0  0
  8118  1  0  0  0  0
 11119  1  0  0  0  0
 11120  1  0  0  0  0
 11121  1  0  0  0  0
 28122  1  0  0  0  0
 28123  1  0  0  0  0
 29124  1  0  0  0  0
 29125  1  0  0  0  0
 29126  1  0  0  0  0
 35127  1  0  0  0  0
 35128  1  0  0  0  0
 36129  1  0  0  0  0
 36130  1  0  0  0  0
 36131  1  0  0  0  0
 52132  1  0  0  0  0
 52133  1  0  0  0  0
 53134  1  0  0  0  0
 53135  1  0  0  0  0
 53136  1  0  0  0  0
 65137  1  0  0  0  0
 65138  1  0  0  0  0
 66139  1  0  0  0  0
 66140  1  0  0  0  0
 66141  1  0  0  0  0
 67142  1  0  0  0  0
 67143  1  0  0  0  0
 68144  1  0  0  0  0
 68145  1  0  0  0  0
 68146  1  0  0  0  0
 81147  1  0  0  0  0
 81148  1  0  0  0  0
 82149  1  0  0  0  0
 82150  1  0  0  0  0
 82151  1  0  0  0  0
 84152  1  0  0  0  0
 90153  1  0  0  0  0
 94154  1  0  0  0  0
 94155  1  0  0  0  0
 95156  1  0  0  0  0
 95157  1  0  0  0  0
 95158  1  0  0  0  0
 97159  1  0  0  0  0
102160  1  0  0  0  0
103161  1  0  0  0  0
104162  1  0  0  0  0
107163  1  0  0  0  0
107164  1  0  0  0  0
107165  1  0  0  0  0
M  END
