211

C         -4.39140        4.94800      -14.27280
C         -4.14060        3.72980      -14.79680
C         -3.17300        2.72680      -14.26060
O         -2.30480        2.90330      -13.43830
C         -3.44790        1.48380      -15.00850
C         -2.91170        0.22840      -14.80380
C         -3.37610       -0.80830      -15.59980
C         -4.37140       -0.59780      -16.53940
C         -4.92750        0.66830      -16.74830
O         -5.95300        0.92680      -17.57750
C         -6.44570       -0.08420      -18.42780
C         -4.41290        1.73680      -15.99830
C         -4.72530        3.15710      -16.01270
C         -5.32000        3.85920      -17.02370
C         -5.55750        5.25200      -17.00290
N         -5.79020        6.37480      -17.06570
C         -5.67910        3.35630      -18.29540
N         -5.94510        3.09440      -19.38080
C         -3.89520        5.45820      -13.00980
C         -3.84040        4.65800      -11.85860
C         -3.37260        5.21380      -10.69340
C         -3.22800        4.58820       -9.35140
O         -3.53740        3.47030       -9.01530
C         -2.63370        5.66170       -8.51060
C         -2.47420        6.83010       -9.28140
C         -2.93830        6.55430      -10.63450
C         -3.01800        7.35290      -11.76000
C         -3.51520        6.80110      -12.93120
C         -1.93170        7.96310       -8.70360
C         -1.55770        7.92370       -7.36920
C         -1.72640        6.77220       -6.59350
C         -2.26550        5.62000       -7.18850
C         -1.32330        6.73030       -5.20550
C         -1.25460        7.73980       -4.26840
C         -1.73700        9.11350       -4.43310
C         -2.98340        9.37070       -4.99960
C         -3.43930       10.67080       -5.09440
C         -2.66790       11.71990       -4.62260
C         -1.42620       11.48040       -4.04930
C         -0.60630       12.59950       -3.47580
C         -0.84890       12.71030       -1.96910
C         -0.97220       10.17270       -3.95890
C         -0.74000        7.26770       -3.03990
S         -0.46870        8.03850       -1.49350
C          0.04840        6.51570       -0.85010
C          0.45670        5.95550        0.37220
C          0.52100        6.50690        1.67000
C          0.80550        5.64000        2.77820
N          0.76510        6.27390        3.93970
S          0.40980        7.82960        3.66280
N          0.28810        7.75360        2.04920
C          1.13320        4.29070        2.52380
C          1.54410        3.25880        3.38500
S          1.71430        2.94460        5.08100
C          2.21740        1.31520        4.70310
C          2.48710        0.19230        5.51210
C          2.45970        0.23650        6.97720
C          3.58790       -0.10450        7.71510
C          3.55800       -0.02350        9.09440
C          2.40940        0.39400        9.74220
C          1.27820        0.75230        9.01930
C          0.01850        1.17690        9.71860
C         -0.88840       -0.02990        9.96860
C          1.31680        0.67300        7.63580
C          2.71070       -0.93260        4.74710
S          2.74500       -0.57120        3.02290
C          2.27550        1.05860        3.33490
C          1.87460        2.16760        2.57980
N          1.65100        2.46630        1.26450
C          1.17460        3.76600        1.20120
C          0.71260        4.57700        0.13030
N          0.43370        4.30940       -1.20090
C          0.02330        5.47860       -1.78260
C         -0.43530        5.90790       -3.03560
S         -0.77030        5.18880       -4.56800
C          0.13750        3.05150       -1.84860
C         -0.98540        2.30730       -1.13090
C          2.21800        1.62590        0.23460
C          3.34610        2.33350       -0.51160
C          2.71090       -2.30860        5.14160
C          1.96540       -3.31640        4.53970
N          1.05210       -3.16140        3.50720
C          0.23050       -2.03240        3.42770
C         -0.20800       -1.38210        4.58050
C         -0.92330       -0.20500        4.48640
C         -1.23530        0.35590        3.25420
C         -1.94450        1.67250        3.16810
C         -0.84420       -0.32770        2.10960
C         -0.12250       -1.50070        2.18680
C          0.99710       -4.15620        2.51380
C         -0.22370       -4.54640        1.97270
C         -0.26620       -5.49560        0.97000
C          0.89460       -6.08980        0.49150
C          0.86090       -7.08380       -0.62640
C          2.10680       -5.72080        1.06500
C          2.16510       -4.76350        2.05720
C          2.21250       -4.56190        5.16010
S          1.67420       -6.16730        4.84200
C          2.65440       -6.78140        6.17700
C          3.34880       -5.75560        6.83590
N          4.20200       -5.93780        7.89040
C          4.97890       -7.11060        8.01290
C          5.12790       -7.71950        9.25510
C          5.88850       -8.86530        9.37440
C          6.51250       -9.43030        8.26800
C          7.30500      -10.69320        8.40600
C          6.36450       -8.80590        7.03530
C          5.61460       -7.65420        6.90150
C          4.34030       -4.93210        8.86090
C          5.58430       -4.66890        9.42960
C          5.70300       -3.72170       10.42510
C          4.59780       -3.00670       10.87530
C          4.73890       -2.01950       11.99310
C          3.36580       -3.25810       10.28640
C          3.23080       -4.21190        9.29670
C          3.08760       -4.50430        6.23360
S          3.63910       -2.88860        6.51300
C          2.59240       -8.13330        6.55300
C          2.10170       -9.17890        5.82520
C          1.66570      -10.42300        6.49620
O          1.90090      -10.76090        7.63630
C          0.83620      -11.13180        5.49320
C          0.07510      -12.27300        5.64390
C         -0.68060      -12.69270        4.55820
C         -0.70540      -11.96980        3.37740
C          0.05670      -10.80800        3.21640
O          0.01930      -10.00260        2.13580
C         -0.75130      -10.37680        1.01810
C          0.87390      -10.42030        4.28280
C          1.82600       -9.32330        4.41210
C          2.57810       -8.78600        3.39770
C          2.49870       -9.14870        2.04100
N          2.55900       -9.41540        0.92470
C          3.67190       -7.92630        3.62460
N          4.60430       -7.26780        3.75770
H         -5.02730        5.63190      -14.82090
H         -2.16330        0.07400      -14.04340
H         -2.97520       -1.80300      -15.47690
H         -4.72920       -1.43710      -17.11440
H         -5.65460       -0.48870      -19.06450
H         -7.19000        0.40780      -19.05090
H         -6.91490       -0.89140      -17.85720
H         -4.18210        3.63530      -11.87320
H         -2.70730        8.38640      -11.73420
H         -3.58390        7.41210      -13.82000
H         -1.78610        8.86590       -9.27720
H         -1.11260        8.79750       -6.91870
H         -2.39800        4.71430       -6.61470
H         -3.59090        8.55050       -5.35280
H         -4.40680       10.86810       -5.53230
H         -3.03530       12.73330       -4.69690
H         -0.87330       13.54240       -3.95710
H          0.45430       12.41110       -3.65520
H         -1.89790       12.91860       -1.77020
H         -0.58640       11.77810       -1.47410
H         -0.24870       13.51180       -1.54500
H         -0.00380        9.97500       -3.52220
H          4.49280       -0.40150        7.20650
H          4.43820       -0.28340        9.66130
H          2.39170        0.46040       10.82110
H         -0.51390        1.90720        9.10630
H          0.26460        1.64640       10.67300
H         -0.38170       -0.76270       10.59310
H         -1.15170       -0.50780        9.02750
H         -1.80330        0.27820       10.46940
H          0.44880        0.95240        7.05690
H          1.03560        2.43880       -1.93250
H         -0.18160        3.29240       -2.86550
H         -1.89620        2.90180       -1.15120
H         -1.17920        1.35950       -1.62660
H         -0.72520        2.12010       -0.09160
H          2.61730        0.74430        0.74210
H          1.44290        1.27450       -0.44780
H          4.14750        2.58380        0.17970
H          3.74580        1.68130       -1.28350
H          2.99770        3.25430       -0.97330
H          0.02540       -1.79610        5.55080
H         -1.24590        0.29180        5.39000
H         -1.22730        2.48970        3.26490
H         -2.67280        1.77440        3.96960
H         -2.45400        1.78060        2.21320
H         -1.09580        0.07150        1.13740
H          0.20290       -1.99770        1.28530
H         -1.13560       -4.09570        2.33650
H         -1.22250       -5.77860        0.55310
H          1.38250       -6.68600       -1.49680
H         -0.16270       -7.31340       -0.91410
H          1.36900       -8.00110       -0.33030
H          3.01980       -6.18290        0.71900
H          3.11890       -4.47500        2.47460
H          4.63840       -7.29530       10.11970
H          5.99140       -9.33510       10.34170
H          7.97480      -10.82700        7.56030
H          7.88960      -10.68530        9.32370
H          6.63110      -11.54930        8.44610
H          6.84870       -9.22040        6.16330
H          5.51180       -7.18340        5.93540
H          6.45100       -5.21500        9.08870
H          6.67240       -3.53230       10.86310
H          3.86540       -1.37630       12.05720
H          5.62570       -1.40300       11.85750
H          4.84510       -2.54590       12.94220
H          2.49390       -2.71110       10.61360
H          2.25870       -4.41680        8.87240
H          2.86810       -8.36810        7.57530
H          0.07510      -12.81060        6.57840
H         -1.27890      -13.58830        4.63410
H         -1.33410      -12.31380        2.57130
H         -1.81720      -10.41950        1.26380
H         -0.57720       -9.59860        0.27830
H         -0.42520      -11.33880        0.61290
