
  xtb     02042215223D
 energy: -284.450713565151 gnorm: 0.000222005473 xtb: 6.4.1 (unknown)
162177  0     0  0            999 V2000
    3.6562    6.4689   -7.8522 C   0  0  0  0  0  0  0  0  0  0  0  0
    3.8485    7.5051   -6.9996 C   0  0  0  0  0  0  0  0  0  0  0  0
    3.2037    7.6344   -5.6660 C   0  0  0  0  0  0  0  0  0  0  0  0
    2.2503    7.0324   -5.2238 O   0  0  0  0  0  0  0  0  0  0  0  0
    4.0477    8.5970   -4.9274 C   0  0  0  0  0  0  0  0  0  0  0  0
    3.9328    8.9885   -3.6087 C   0  0  0  0  0  0  0  0  0  0  0  0
    4.8751    9.8788   -3.1145 C   0  0  0  0  0  0  0  0  0  0  0  0
    5.9166   10.3307   -3.9069 C   0  0  0  0  0  0  0  0  0  0  0  0
    6.0485    9.9314   -5.2411 C   0  0  0  0  0  0  0  0  0  0  0  0
    7.0683   10.2712   -6.0468 O   0  0  0  0  0  0  0  0  0  0  0  0
    8.0433   11.1887   -5.6061 C   0  0  0  0  0  0  0  0  0  0  0  0
    5.0686    9.0769   -5.7652 C   0  0  0  0  0  0  0  0  0  0  0  0
    4.8839    8.5271   -7.0977 C   0  0  0  0  0  0  0  0  0  0  0  0
    5.4032    8.9687   -8.2837 C   0  0  0  0  0  0  0  0  0  0  0  0
    4.9875    8.4440   -9.5290 C   0  0  0  0  0  0  0  0  0  0  0  0
    4.6535    8.0917  -10.5694 N   0  0  0  0  0  0  0  0  0  0  0  0
    6.2847   10.0524   -8.4885 C   0  0  0  0  0  0  0  0  0  0  0  0
    6.9586   10.9277   -8.8008 N   0  0  0  0  0  0  0  0  0  0  0  0
    2.5970    5.5000   -7.6987 C   0  0  0  0  0  0  0  0  0  0  0  0
    1.2787    5.8637   -7.4482 C   0  0  0  0  0  0  0  0  0  0  0  0
    0.8415    7.1504   -7.5883 O   0  0  0  0  0  0  0  0  0  0  0  0
    1.0703    7.7778   -8.8430 C   0  0  0  0  0  0  0  0  0  0  0  0
    0.1964    7.1749   -9.9365 C   0  0  0  0  0  0  0  0  0  0  0  0
    0.3221    4.8908   -7.0456 C   0  0  0  0  0  0  0  0  0  0  0  0
   -0.9185    5.2276   -6.6370 O   0  0  0  0  0  0  0  0  0  0  0  0
   -1.1145    6.4183   -5.8744 C   0  0  0  0  0  0  0  0  0  0  0  0
   -2.1536    6.1043   -4.8080 C   0  0  0  0  0  0  0  0  0  0  0  0
    0.6439    3.5353   -7.0682 C   0  0  0  0  0  0  0  0  0  0  0  0
    1.9516    3.1413   -7.4594 C   0  0  0  0  0  0  0  0  0  0  0  0
    2.9338    4.1218   -7.7623 C   0  0  0  0  0  0  0  0  0  0  0  0
    4.1929    3.7595   -8.0663 N   0  0  0  0  0  0  0  0  0  0  0  0
    4.4618    2.4785   -8.1044 C   0  0  0  0  0  0  0  0  0  0  0  0
    3.4865    1.5073   -7.8272 C   0  0  0  0  0  0  0  0  0  0  0  0
    2.2604    1.8342   -7.5075 N   0  0  0  0  0  0  0  0  0  0  0  0
   -0.2845    2.5334   -6.5890 C   0  0  0  0  0  0  0  0  0  0  0  0
   -1.6328    2.3822   -6.8016 C   0  0  0  0  0  0  0  0  0  0  0  0
   -2.4516    3.0614   -7.8509 C   0  0  0  0  0  0  0  0  0  0  0  0
   -2.7447    2.0903   -8.9963 C   0  0  0  0  0  0  0  0  0  0  0  0
   -2.1650    1.3704   -5.9754 C   0  0  0  0  0  0  0  0  0  0  0  0
   -3.7999    0.8071   -5.7091 S   0  0  0  0  0  0  0  0  0  0  0  0
   -3.2131   -0.2405   -4.4608 C   0  0  0  0  0  0  0  0  0  0  0  0
   -3.7105   -1.0938   -3.4624 C   0  0  0  0  0  0  0  0  0  0  0  0
   -5.0342   -1.3754   -3.0590 C   0  0  0  0  0  0  0  0  0  0  0  0
   -5.2479   -2.0902   -1.8320 C   0  0  0  0  0  0  0  0  0  0  0  0
   -6.5319   -2.2110   -1.5346 N   0  0  0  0  0  0  0  0  0  0  0  0
   -7.3985   -1.4971   -2.7017 S   0  0  0  0  0  0  0  0  0  0  0  0
   -6.1675   -0.9983   -3.6292 N   0  0  0  0  0  0  0  0  0  0  0  0
   -4.1312   -2.5930   -1.1293 C   0  0  0  0  0  0  0  0  0  0  0  0
   -4.0385   -3.3328    0.0618 C   0  0  0  0  0  0  0  0  0  0  0  0
   -5.0499   -3.8837    1.3564 S   0  0  0  0  0  0  0  0  0  0  0  0
   -3.6342   -4.5414    2.1429 C   0  0  0  0  0  0  0  0  0  0  0  0
   -3.4433   -5.1448    3.4025 C   0  0  0  0  0  0  0  0  0  0  0  0
   -4.4837   -5.2837    4.2626 O   0  0  0  0  0  0  0  0  0  0  0  0
   -4.3865   -4.6064    5.5088 C   0  0  0  0  0  0  0  0  0  0  0  0
   -4.3352   -3.0932    5.3312 C   0  0  0  0  0  0  0  0  0  0  0  0
   -2.1083   -5.4771    3.6135 C   0  0  0  0  0  0  0  0  0  0  0  0
   -1.0871   -4.9387    2.2932 S   0  0  0  0  0  0  0  0  0  0  0  0
   -2.4580   -4.3674    1.4139 C   0  0  0  0  0  0  0  0  0  0  0  0
   -2.6897   -3.6538    0.2329 C   0  0  0  0  0  0  0  0  0  0  0  0
   -1.9419   -3.1234   -0.7847 N   0  0  0  0  0  0  0  0  0  0  0  0
   -2.8048   -2.4333   -1.6221 C   0  0  0  0  0  0  0  0  0  0  0  0
   -2.5874   -1.5737   -2.7308 C   0  0  0  0  0  0  0  0  0  0  0  0
   -1.4450   -1.0074   -3.2715 N   0  0  0  0  0  0  0  0  0  0  0  0
   -1.8284   -0.1843   -4.2941 C   0  0  0  0  0  0  0  0  0  0  0  0
   -1.2278    0.7477   -5.1528 C   0  0  0  0  0  0  0  0  0  0  0  0
    0.3550    1.3816   -5.4272 S   0  0  0  0  0  0  0  0  0  0  0  0
   -0.1087   -0.9018   -2.7348 C   0  0  0  0  0  0  0  0  0  0  0  0
   -0.0981   -0.1816   -1.3885 C   0  0  0  0  0  0  0  0  0  0  0  0
   -0.6214   -3.6552   -1.0418 C   0  0  0  0  0  0  0  0  0  0  0  0
   -0.5755   -4.4335   -2.3540 C   0  0  0  0  0  0  0  0  0  0  0  0
   -1.5050   -6.1133    4.7451 C   0  0  0  0  0  0  0  0  0  0  0  0
   -0.1672   -5.8915    5.0793 C   0  0  0  0  0  0  0  0  0  0  0  0
    0.6142   -5.1895    4.1949 O   0  0  0  0  0  0  0  0  0  0  0  0
    1.7795   -5.8682    3.7239 C   0  0  0  0  0  0  0  0  0  0  0  0
    2.5372   -4.9121    2.8201 C   0  0  0  0  0  0  0  0  0  0  0  0
    0.3331   -6.2733    6.3423 C   0  0  0  0  0  0  0  0  0  0  0  0
    1.6022   -5.9201    6.7306 O   0  0  0  0  0  0  0  0  0  0  0  0
    1.8362   -4.5230    6.8826 C   0  0  0  0  0  0  0  0  0  0  0  0
    1.0885   -3.9460    8.0789 C   0  0  0  0  0  0  0  0  0  0  0  0
   -0.4712   -6.9410    7.2586 C   0  0  0  0  0  0  0  0  0  0  0  0
   -1.7595   -7.3800    6.8468 C   0  0  0  0  0  0  0  0  0  0  0  0
   -2.2583   -6.9985    5.5743 C   0  0  0  0  0  0  0  0  0  0  0  0
   -3.4025   -7.5240    5.1121 N   0  0  0  0  0  0  0  0  0  0  0  0
   -4.0857   -8.3005    5.9119 C   0  0  0  0  0  0  0  0  0  0  0  0
   -3.6369   -8.6014    7.2083 C   0  0  0  0  0  0  0  0  0  0  0  0
   -2.4791   -8.1816    7.6484 N   0  0  0  0  0  0  0  0  0  0  0  0
   -0.0253   -7.1812    8.6073 C   0  0  0  0  0  0  0  0  0  0  0  0
   -0.7908   -6.8824    9.6834 C   0  0  0  0  0  0  0  0  0  0  0  0
   -1.9648   -5.9738    9.6205 C   0  0  0  0  0  0  0  0  0  0  0  0
   -2.4788   -5.4780    8.6391 O   0  0  0  0  0  0  0  0  0  0  0  0
   -2.2866   -5.6562   11.0254 C   0  0  0  0  0  0  0  0  0  0  0  0
   -3.2592   -4.7997   11.5014 C   0  0  0  0  0  0  0  0  0  0  0  0
   -3.3262   -4.5944   12.8715 C   0  0  0  0  0  0  0  0  0  0  0  0
   -2.4166   -5.1918   13.7273 C   0  0  0  0  0  0  0  0  0  0  0  0
   -1.4169   -6.0474   13.2529 C   0  0  0  0  0  0  0  0  0  0  0  0
   -0.4526   -6.5926   14.0141 O   0  0  0  0  0  0  0  0  0  0  0  0
   -0.4732   -6.4246   15.4131 C   0  0  0  0  0  0  0  0  0  0  0  0
   -1.3859   -6.3176   11.8773 C   0  0  0  0  0  0  0  0  0  0  0  0
   -0.5201   -7.1775   11.0841 C   0  0  0  0  0  0  0  0  0  0  0  0
    0.2869   -8.1944   11.5154 C   0  0  0  0  0  0  0  0  0  0  0  0
    0.4461   -8.6672   12.8367 C   0  0  0  0  0  0  0  0  0  0  0  0
    0.6312   -9.1872   13.8435 N   0  0  0  0  0  0  0  0  0  0  0  0
    1.0356   -9.0151   10.6404 C   0  0  0  0  0  0  0  0  0  0  0  0
    1.6749   -9.7258   10.0048 N   0  0  0  0  0  0  0  0  0  0  0  0
    4.3891    6.2531   -8.6196 H   0  0  0  0  0  0  0  0  0  0  0  0
    3.1313    8.6084   -2.9959 H   0  0  0  0  0  0  0  0  0  0  0  0
    4.8104   10.2185   -2.0918 H   0  0  0  0  0  0  0  0  0  0  0  0
    6.6450   10.9998   -3.4768 H   0  0  0  0  0  0  0  0  0  0  0  0
    8.6319   10.7789   -4.7797 H   0  0  0  0  0  0  0  0  0  0  0  0
    8.6849   11.3540   -6.4696 H   0  0  0  0  0  0  0  0  0  0  0  0
    7.5912   12.1377   -5.3056 H   0  0  0  0  0  0  0  0  0  0  0  0
    0.8088    8.8249   -8.6724 H   0  0  0  0  0  0  0  0  0  0  0  0
    2.1253    7.7185   -9.1349 H   0  0  0  0  0  0  0  0  0  0  0  0
    0.4664    6.1333  -10.1013 H   0  0  0  0  0  0  0  0  0  0  0  0
    0.3412    7.7249  -10.8616 H   0  0  0  0  0  0  0  0  0  0  0  0
   -0.8525    7.2228   -9.6532 H   0  0  0  0  0  0  0  0  0  0  0  0
   -0.1727    6.7349   -5.4195 H   0  0  0  0  0  0  0  0  0  0  0  0
   -1.4736    7.2152   -6.5347 H   0  0  0  0  0  0  0  0  0  0  0  0
   -2.3620    6.9966   -4.2248 H   0  0  0  0  0  0  0  0  0  0  0  0
   -1.7872    5.3235   -4.1467 H   0  0  0  0  0  0  0  0  0  0  0  0
   -3.0725    5.7585   -5.2740 H   0  0  0  0  0  0  0  0  0  0  0  0
    5.4768    2.2065   -8.3604 H   0  0  0  0  0  0  0  0  0  0  0  0
    3.7107    0.4500   -7.8641 H   0  0  0  0  0  0  0  0  0  0  0  0
   -3.3933    3.3873   -7.4042 H   0  0  0  0  0  0  0  0  0  0  0  0
   -1.9273    3.9331   -8.2347 H   0  0  0  0  0  0  0  0  0  0  0  0
   -1.8160    1.7454   -9.4463 H   0  0  0  0  0  0  0  0  0  0  0  0
   -3.3397    2.5828   -9.7613 H   0  0  0  0  0  0  0  0  0  0  0  0
   -3.2956    1.2263   -8.6326 H   0  0  0  0  0  0  0  0  0  0  0  0
   -5.2946   -4.9003    6.0396 H   0  0  0  0  0  0  0  0  0  0  0  0
   -3.5189   -4.9447    6.0874 H   0  0  0  0  0  0  0  0  0  0  0  0
   -3.4189   -2.8014    4.8208 H   0  0  0  0  0  0  0  0  0  0  0  0
   -5.1847   -2.7553    4.7419 H   0  0  0  0  0  0  0  0  0  0  0  0
   -4.3602   -2.6126    6.3049 H   0  0  0  0  0  0  0  0  0  0  0  0
    0.3552   -1.8862   -2.6682 H   0  0  0  0  0  0  0  0  0  0  0  0
    0.4692   -0.3204   -3.4576 H   0  0  0  0  0  0  0  0  0  0  0  0
    0.9167   -0.1295   -1.0032 H   0  0  0  0  0  0  0  0  0  0  0  0
   -0.7261   -0.6928   -0.6628 H   0  0  0  0  0  0  0  0  0  0  0  0
   -0.4745    0.8312   -1.5103 H   0  0  0  0  0  0  0  0  0  0  0  0
    0.1294   -2.8638   -1.0195 H   0  0  0  0  0  0  0  0  0  0  0  0
   -0.3989   -4.3312   -0.2123 H   0  0  0  0  0  0  0  0  0  0  0  0
    0.4260   -4.8214   -2.5203 H   0  0  0  0  0  0  0  0  0  0  0  0
   -0.8537   -3.8042   -3.1959 H   0  0  0  0  0  0  0  0  0  0  0  0
   -1.2694   -5.2699   -2.3131 H   0  0  0  0  0  0  0  0  0  0  0  0
    2.4040   -6.1845    4.5658 H   0  0  0  0  0  0  0  0  0  0  0  0
    1.4689   -6.7602    3.1636 H   0  0  0  0  0  0  0  0  0  0  0  0
    1.8936   -4.5890    2.0067 H   0  0  0  0  0  0  0  0  0  0  0  0
    2.8554   -4.0373    3.3807 H   0  0  0  0  0  0  0  0  0  0  0  0
    3.4113   -5.4115    2.4130 H   0  0  0  0  0  0  0  0  0  0  0  0
    1.5568   -3.9830    5.9711 H   0  0  0  0  0  0  0  0  0  0  0  0
    2.9162   -4.4448    7.0296 H   0  0  0  0  0  0  0  0  0  0  0  0
    0.0135   -4.0558    7.9459 H   0  0  0  0  0  0  0  0  0  0  0  0
    1.3796   -4.4623    8.9910 H   0  0  0  0  0  0  0  0  0  0  0  0
    1.3235   -2.8899    8.1797 H   0  0  0  0  0  0  0  0  0  0  0  0
   -4.9954   -8.7242    5.5102 H   0  0  0  0  0  0  0  0  0  0  0  0
   -4.2071   -9.2328    7.8763 H   0  0  0  0  0  0  0  0  0  0  0  0
    0.9787   -7.5656    8.7268 H   0  0  0  0  0  0  0  0  0  0  0  0
   -3.9379   -4.3148   10.8182 H   0  0  0  0  0  0  0  0  0  0  0  0
   -4.0837   -3.9446   13.2832 H   0  0  0  0  0  0  0  0  0  0  0  0
   -2.4789   -4.9799   14.7830 H   0  0  0  0  0  0  0  0  0  0  0  0
    0.3486   -7.0359   15.7815 H   0  0  0  0  0  0  0  0  0  0  0  0
   -0.3117   -5.3787   15.6917 H   0  0  0  0  0  0  0  0  0  0  0  0
   -1.4113   -6.7836   15.8446 H   0  0  0  0  0  0  0  0  0  0  0  0
  1  2  2  0  0  0  0
  2  3  1  0  0  0  0
  3  4  2  0  0  0  0
  3  5  1  0  0  0  0
  5  6  2  0  0  0  0
  6  7  1  0  0  0  0
  7  8  2  0  0  0  0
  8  9  1  0  0  0  0
  9 10  1  0  0  0  0
 10 11  1  0  0  0  0
  9 12  2  0  0  0  0
 12 13  1  0  0  0  0
 13 14  2  0  0  0  0
 14 15  1  0  0  0  0
 15 16  3  0  0  0  0
 14 17  1  0  0  0  0
 17 18  3  0  0  0  0
  1 19  1  0  0  0  0
 19 20  2  0  0  0  0
 20 21  1  0  0  0  0
 21 22  1  0  0  0  0
 22 23  1  0  0  0  0
 20 24  1  0  0  0  0
 24 25  1  0  0  0  0
 25 26  1  0  0  0  0
 26 27  1  0  0  0  0
 24 28  2  0  0  0  0
 28 29  1  0  0  0  0
 29 30  2  0  0  0  0
 30 31  1  0  0  0  0
 31 32  2  0  0  0  0
 32 33  1  0  0  0  0
 33 34  2  0  0  0  0
 28 35  1  0  0  0  0
 35 36  2  0  0  0  0
 36 37  1  0  0  0  0
 37 38  1  0  0  0  0
 36 39  1  0  0  0  0
 39 40  1  0  0  0  0
 40 41  1  0  0  0  0
 41 42  1  0  0  0  0
 42 43  1  0  0  0  0
 43 44  1  0  0  0  0
 44 45  2  0  0  0  0
 45 46  1  0  0  0  0
 46 47  1  0  0  0  0
 44 48  1  0  0  0  0
 48 49  1  0  0  0  0
 49 50  1  0  0  0  0
 50 51  1  0  0  0  0
 51 52  1  0  0  0  0
 52 53  1  0  0  0  0
 53 54  1  0  0  0  0
 54 55  1  0  0  0  0
 52 56  2  0  0  0  0
 56 57  1  0  0  0  0
 57 58  1  0  0  0  0
 58 59  1  0  0  0  0
 59 60  1  0  0  0  0
 60 61  1  0  0  0  0
 61 62  1  0  0  0  0
 62 63  1  0  0  0  0
 63 64  1  0  0  0  0
 64 65  1  0  0  0  0
 65 66  1  0  0  0  0
 63 67  1  0  0  0  0
 67 68  1  0  0  0  0
 60 69  1  0  0  0  0
 69 70  1  0  0  0  0
 56 71  1  0  0  0  0
 71 72  2  0  0  0  0
 72 73  1  0  0  0  0
 73 74  1  0  0  0  0
 74 75  1  0  0  0  0
 72 76  1  0  0  0  0
 76 77  1  0  0  0  0
 77 78  1  0  0  0  0
 78 79  1  0  0  0  0
 76 80  2  0  0  0  0
 80 81  1  0  0  0  0
 81 82  2  0  0  0  0
 82 83  1  0  0  0  0
 83 84  2  0  0  0  0
 84 85  1  0  0  0  0
 85 86  2  0  0  0  0
 80 87  1  0  0  0  0
 87 88  2  0  0  0  0
 88 89  1  0  0  0  0
 89 90  2  0  0  0  0
 89 91  1  0  0  0  0
 91 92  2  0  0  0  0
 92 93  1  0  0  0  0
 93 94  2  0  0  0  0
 94 95  1  0  0  0  0
 95 96  1  0  0  0  0
 96 97  1  0  0  0  0
 95 98  2  0  0  0  0
 98 99  1  0  0  0  0
 99100  2  0  0  0  0
100101  1  0  0  0  0
101102  3  0  0  0  0
100103  1  0  0  0  0
103104  3  0  0  0  0
 13  2  1  0  0  0  0
 30 19  1  0  0  0  0
 66 35  1  0  0  0  0
 82 71  1  0  0  0  0
 99 88  1  0  0  0  0
 12  5  1  0  0  0  0
 34 29  1  0  0  0  0
 65 39  2  0  0  0  0
 86 81  1  0  0  0  0
 98 91  1  0  0  0  0
 64 41  2  0  0  0  0
 62 42  2  0  0  0  0
 47 43  2  0  0  0  0
 61 48  2  0  0  0  0
 59 49  2  0  0  0  0
 58 51  2  0  0  0  0
  1105  1  0  0  0  0
  6106  1  0  0  0  0
  7107  1  0  0  0  0
  8108  1  0  0  0  0
 11109  1  0  0  0  0
 11110  1  0  0  0  0
 11111  1  0  0  0  0
 22112  1  0  0  0  0
 22113  1  0  0  0  0
 23114  1  0  0  0  0
 23115  1  0  0  0  0
 23116  1  0  0  0  0
 26117  1  0  0  0  0
 26118  1  0  0  0  0
 27119  1  0  0  0  0
 27120  1  0  0  0  0
 27121  1  0  0  0  0
 32122  1  0  0  0  0
 33123  1  0  0  0  0
 37124  1  0  0  0  0
 37125  1  0  0  0  0
 38126  1  0  0  0  0
 38127  1  0  0  0  0
 38128  1  0  0  0  0
 54129  1  0  0  0  0
 54130  1  0  0  0  0
 55131  1  0  0  0  0
 55132  1  0  0  0  0
 55133  1  0  0  0  0
 67134  1  0  0  0  0
 67135  1  0  0  0  0
 68136  1  0  0  0  0
 68137  1  0  0  0  0
 68138  1  0  0  0  0
 69139  1  0  0  0  0
 69140  1  0  0  0  0
 70141  1  0  0  0  0
 70142  1  0  0  0  0
 70143  1  0  0  0  0
 74144  1  0  0  0  0
 74145  1  0  0  0  0
 75146  1  0  0  0  0
 75147  1  0  0  0  0
 75148  1  0  0  0  0
 78149  1  0  0  0  0
 78150  1  0  0  0  0
 79151  1  0  0  0  0
 79152  1  0  0  0  0
 79153  1  0  0  0  0
 84154  1  0  0  0  0
 85155  1  0  0  0  0
 87156  1  0  0  0  0
 92157  1  0  0  0  0
 93158  1  0  0  0  0
 94159  1  0  0  0  0
 97160  1  0  0  0  0
 97161  1  0  0  0  0
 97162  1  0  0  0  0
M  END
