181

C          7.70510       -8.62940       -0.23350
C          7.47640       -9.24570        0.95610
C          6.96660       -8.54910        2.16300
O          6.49910       -7.43320        2.24710
C          7.26350       -9.45840        3.28850
C          7.04550       -9.23890        4.63350
C          7.44350      -10.22720        5.52170
C          8.07160      -11.37690        5.07460
C          8.31060      -11.60040        3.71440
O          8.97430      -12.65820        3.21800
C          9.37190      -13.70950        4.06760
C          7.86230      -10.63320        2.80450
C          7.91040      -10.57840        1.35070
C          8.13650      -11.59880        0.46630
C          8.39050      -12.95760        0.75360
N          8.55500      -14.09160        0.82860
C          8.02580      -11.43630       -0.93390
N          7.92660      -11.38900       -2.07690
C          7.15740       -7.35830       -0.60920
C          5.81000       -7.00880       -0.38850
C          4.74840       -7.83250        0.07600
C          3.57450       -7.17770        0.22810
C          2.26210       -7.72640        0.66680
C          1.24030       -7.69830       -0.47130
S          3.70160       -5.49200       -0.19630
C          5.37540       -5.68960       -0.63310
C          6.22380       -4.68360       -1.08780
C          7.52090       -5.07480       -1.46880
C          7.95760       -6.38960       -1.22130
S          9.63210       -6.58130       -1.63810
C          9.71730       -4.93240       -2.21740
C         10.98760       -4.42270       -2.80130
C         11.33240       -5.13780       -4.10850
C          8.54450       -4.28160       -2.06500
C          5.84980       -3.28700       -1.04070
C          6.58730       -2.27760       -0.45650
C          7.86880       -2.50420        0.21640
C          8.94450       -1.64920        0.00260
C         10.17100       -1.93210        0.57530
C         10.33530       -3.06260        1.35560
C          9.26140       -3.90870        1.60750
C          9.41280       -5.11710        2.48630
C          9.25640       -4.73800        3.95960
C          8.03060       -3.60740        1.04990
C          5.90300       -1.04530       -0.51840
S          6.26160        0.55180        0.09360
C          4.69400        1.08120       -0.42230
C          3.85960        2.21160       -0.31890
C          3.97850        3.43660        0.37640
C          2.81810        4.28150        0.51730
N          3.05770        5.34170        1.27210
S          4.60250        5.29440        1.75500
N          5.02860        3.91340        1.02520
C          1.62850        3.94100       -0.16520
C          0.35950        4.54400       -0.26970
S         -0.54100        5.84050        0.44460
C         -1.93500        5.36080       -0.49140
C         -3.28000        5.78800       -0.50030
C         -3.84130        6.80010        0.39900
C         -3.19720        8.01780        0.58670
C         -3.75160        8.96640        1.42650
C         -4.93740        8.70690        2.08910
C         -5.58120        7.48390        1.93380
C         -6.87080        7.19550        2.64920
C         -8.04380        7.91360        1.98160
C         -5.02300        6.53990        1.08870
C         -4.03270        5.04160       -1.38150
S         -3.10960        3.79500       -2.18950
C         -1.68720        4.27620       -1.33250
C         -0.37630        3.80190       -1.19780
N          0.37450        2.75180       -1.66610
C          1.58620        2.79690       -1.00090
C          2.63670        1.85690       -0.94240
N          2.70190        0.54600       -1.38040
C          3.95180        0.08060       -1.05470
C          4.64400       -1.13520       -1.11180
S          4.30650       -2.73980       -1.65580
C          1.59990       -0.38980       -1.47920
C          1.36220       -1.10920       -0.15150
C          0.14680        2.20040       -2.98650
C          0.11480        3.29850       -4.04920
C         -5.45710        5.19070       -1.58440
C         -6.02130        6.46430       -1.78070
C         -5.35290        7.69570       -2.04430
C         -6.17920        8.76130       -2.10640
C         -5.83540       10.18390       -2.37580
C         -6.38800       10.64840       -3.72430
S         -7.84990        8.31250       -1.84400
C         -7.41440        6.63770       -1.68100
C         -8.28710        5.59600       -1.35760
C         -7.73580        4.30140       -1.32620
C         -6.34240        4.12500       -1.45400
S         -5.90860        2.44640       -1.30210
C         -7.58400        1.98950       -1.14160
C         -7.94300        0.54990       -1.02270
C         -7.63740       -0.20710       -2.31660
C         -8.41070        3.05960       -1.17120
C         -9.65900        5.86840       -1.02890
C        -10.28810        5.37930        0.06980
C         -9.58620        4.79020        1.23880
O         -8.44340        4.39420        1.31630
C        -10.55430        4.88240        2.35130
C        -10.35040        4.56600        3.67920
C        -11.39940        4.77810        4.56180
C        -12.59770        5.32030        4.12980
C        -12.80890        5.65620        2.78830
O        -13.91740        6.24840        2.31200
C        -15.03140        6.44620        3.15180
C        -11.77330        5.39720        1.88020
C        -11.68030        5.59460        0.44220
C        -12.69060        5.77590       -0.46230
C        -12.46080        5.83140       -1.85650
N        -12.34810        5.85800       -2.99860
C        -14.07890        5.81070       -0.20850
N        -15.22590        5.80570       -0.15500
H          8.41270       -9.06230       -0.93150
H          6.57750       -8.32630        4.96620
H          7.27670      -10.09950        6.58070
H          8.39070      -12.11050        5.79800
H          8.51890      -14.13250        4.60540
H          9.78840      -14.46440        3.40320
H         10.13440      -13.38040        4.78000
H          4.86470       -8.88260        0.27840
H          1.88210       -7.13450        1.50370
H          2.40710       -8.75230        1.01130
H          1.08350       -6.67700       -0.81110
H          1.59360       -8.29200       -1.31130
H          0.28990       -8.10370       -0.13380
H         10.88330       -3.35020       -2.97720
H         11.79940       -4.57290       -2.08470
H         10.54060       -4.99180       -4.83960
H         11.44940       -6.20510       -3.93440
H         12.26070       -4.74770       -4.51770
H          8.39370       -3.26320       -2.37270
H          8.82320       -0.78060       -0.62780
H         11.00820       -1.27260        0.39940
H         11.30410       -3.29040        1.77710
H          8.65140       -5.85550        2.22590
H         10.39660       -5.56600        2.32970
H          9.37220       -5.61610        4.59100
H         10.00360       -4.00050        4.24550
H          8.27040       -4.31370        4.13320
H          7.18770       -4.24880        1.26210
H         -2.27240        8.22240        0.06770
H         -3.25270        9.91440        1.56560
H         -5.36200        9.45350        2.74500
H         -7.06250        6.12120        2.63590
H         -6.79530        7.52250        3.68930
H         -8.96850        7.71120        2.51930
H         -7.87960        8.98870        1.96390
H         -8.16040        7.56840        0.95730
H         -5.50930        5.58160        0.97860
H          0.69110        0.14120       -1.74930
H          1.84200       -1.11800       -2.25930
H          2.22770       -1.70020        0.13410
H          0.50830       -1.77400       -0.24670
H          1.15760       -0.38510        0.63430
H          0.96140        1.51650       -3.22410
H         -0.80590        1.65960       -2.98990
H          0.00910        2.84830       -5.03240
H          1.03850        3.87280       -4.02400
H         -0.72140        3.97250       -3.88720
H         -4.29060        7.76720       -2.19010
H         -6.24920       10.81230       -1.58270
H         -4.74870       10.28800       -2.36130
H         -6.12280       11.68730       -3.90220
H         -7.47180       10.55810       -3.73880
H         -5.97980       10.04170       -4.52950
H         -7.37690        0.10030       -0.20270
H         -9.00650        0.47080       -0.78840
H         -6.57740       -0.13980       -2.55070
H         -7.90580       -1.25520       -2.21180
H         -8.20220        0.21590       -3.14430
H         -9.48070        2.97950       -1.09390
H        -10.16220        6.59990       -1.65130
H         -9.40300        4.16720        4.00450
H        -11.28260        4.53190        5.60640
H        -13.37990        5.49480        4.85160
H        -14.81290        7.17250        3.94060
H        -15.81060        6.83430        2.49830
H        -15.36810        5.50550        3.59590
