
  xtb     02042202133D
 energy: -286.302632818508 gnorm: 0.000470106125 xtb: 6.4.1 (unknown)
176191  0     0  0            999 V2000
    4.3649   -3.2898    8.3509 C   0  0  0  0  0  0  0  0  0  0  0  0
    5.2846   -3.9588    7.5885 C   0  0  0  0  0  0  0  0  0  0  0  0
    5.1095   -4.3630    6.1922 C   0  0  0  0  0  0  0  0  0  0  0  0
    4.2186   -4.0383    5.4265 O   0  0  0  0  0  0  0  0  0  0  0  0
    6.2275   -5.2789    5.8925 C   0  0  0  0  0  0  0  0  0  0  0  0
    6.4666   -5.9882    4.7336 C   0  0  0  0  0  0  0  0  0  0  0  0
    7.5580   -6.8446    4.7163 C   0  0  0  0  0  0  0  0  0  0  0  0
    8.3510   -7.0114    5.8382 C   0  0  0  0  0  0  0  0  0  0  0  0
    8.1074   -6.3047    7.0212 C   0  0  0  0  0  0  0  0  0  0  0  0
    8.7842   -6.4829    8.1696 O   0  0  0  0  0  0  0  0  0  0  0  0
    9.9215   -7.3141    8.1993 C   0  0  0  0  0  0  0  0  0  0  0  0
    7.0515   -5.3840    7.0252 C   0  0  0  0  0  0  0  0  0  0  0  0
    6.5673   -4.4667    8.0507 C   0  0  0  0  0  0  0  0  0  0  0  0
    7.2459   -4.0281    9.1575 C   0  0  0  0  0  0  0  0  0  0  0  0
    8.5745   -4.3412    9.5210 C   0  0  0  0  0  0  0  0  0  0  0  0
    9.6520   -4.4496    9.9034 N   0  0  0  0  0  0  0  0  0  0  0  0
    6.7595   -3.0630   10.0677 C   0  0  0  0  0  0  0  0  0  0  0  0
    6.4629   -2.2775   10.8521 N   0  0  0  0  0  0  0  0  0  0  0  0
    3.1087   -2.7697    8.0048 C   0  0  0  0  0  0  0  0  0  0  0  0
    2.2640   -2.1759    8.9548 C   0  0  0  0  0  0  0  0  0  0  0  0
    2.6371   -2.0208   10.3721 C   0  0  0  0  0  0  0  0  0  0  0  0
    3.5283   -1.0139   10.7544 C   0  0  0  0  0  0  0  0  0  0  0  0
    3.8723   -0.8935   12.0909 C   0  0  0  0  0  0  0  0  0  0  0  0
    3.3627   -1.7523   13.0526 C   0  0  0  0  0  0  0  0  0  0  0  0
    3.7338   -1.5823   14.4974 C   0  0  0  0  0  0  0  0  0  0  0  0
    2.8374   -0.5361   15.1625 C   0  0  0  0  0  0  0  0  0  0  0  0
    2.4757   -2.7405   12.6550 C   0  0  0  0  0  0  0  0  0  0  0  0
    2.1037   -2.8885   11.3276 C   0  0  0  0  0  0  0  0  0  0  0  0
    1.1929   -4.0198   10.9341 C   0  0  0  0  0  0  0  0  0  0  0  0
    2.0036   -5.2617   10.5580 C   0  0  0  0  0  0  0  0  0  0  0  0
    4.0760   -0.0290    9.7594 C   0  0  0  0  0  0  0  0  0  0  0  0
    3.1089    1.1405    9.5673 C   0  0  0  0  0  0  0  0  0  0  0  0
    1.0562   -1.7462    8.4164 C   0  0  0  0  0  0  0  0  0  0  0  0
    0.9561   -1.9782    7.0563 C   0  0  0  0  0  0  0  0  0  0  0  0
    2.3722   -2.7521    6.4221 S   0  0  0  0  0  0  0  0  0  0  0  0
   -0.1166   -1.6458    6.1737 C   0  0  0  0  0  0  0  0  0  0  0  0
   -1.4808   -1.6704    6.3730 C   0  0  0  0  0  0  0  0  0  0  0  0
   -2.1998   -2.1728    7.5840 C   0  0  0  0  0  0  0  0  0  0  0  0
   -2.7476   -3.5785    7.3268 C   0  0  0  0  0  0  0  0  0  0  0  0
   -2.1681   -1.2707    5.2112 C   0  0  0  0  0  0  0  0  0  0  0  0
   -3.8715   -1.0946    4.8546 S   0  0  0  0  0  0  0  0  0  0  0  0
   -3.4585   -0.5568    3.2626 C   0  0  0  0  0  0  0  0  0  0  0  0
   -4.0891   -0.0804    2.1015 C   0  0  0  0  0  0  0  0  0  0  0  0
   -5.4455    0.2068    1.8363 C   0  0  0  0  0  0  0  0  0  0  0  0
   -5.7920    0.8264    0.5895 C   0  0  0  0  0  0  0  0  0  0  0  0
   -7.0858    1.0926    0.4982 N   0  0  0  0  0  0  0  0  0  0  0  0
   -7.8070    0.5998    1.8624 S   0  0  0  0  0  0  0  0  0  0  0  0
   -6.4959    0.0303    2.6225 N   0  0  0  0  0  0  0  0  0  0  0  0
   -4.7820    1.0228   -0.3763 C   0  0  0  0  0  0  0  0  0  0  0  0
   -4.8486    1.4771   -1.7020 C   0  0  0  0  0  0  0  0  0  0  0  0
   -6.0172    2.0667   -2.8287 S   0  0  0  0  0  0  0  0  0  0  0  0
   -4.7729    2.1360   -4.0709 C   0  0  0  0  0  0  0  0  0  0  0  0
   -4.7560    2.5173   -5.4314 C   0  0  0  0  0  0  0  0  0  0  0  0
   -5.7845    2.8923   -6.2103 O   0  0  0  0  0  0  0  0  0  0  0  0
   -7.0044    3.2961   -5.6136 C   0  0  0  0  0  0  0  0  0  0  0  0
   -6.8953    4.6390   -4.9044 C   0  0  0  0  0  0  0  0  0  0  0  0
   -3.4844    2.3806   -5.9881 C   0  0  0  0  0  0  0  0  0  0  0  0
   -2.3237    1.7558   -4.8287 S   0  0  0  0  0  0  0  0  0  0  0  0
   -3.5289    1.7057   -3.5988 C   0  0  0  0  0  0  0  0  0  0  0  0
   -3.5728    1.3356   -2.2492 C   0  0  0  0  0  0  0  0  0  0  0  0
   -2.7167    0.8258   -1.3100 N   0  0  0  0  0  0  0  0  0  0  0  0
   -3.4287    0.6469   -0.1384 C   0  0  0  0  0  0  0  0  0  0  0  0
   -3.0609    0.1989    1.1579 C   0  0  0  0  0  0  0  0  0  0  0  0
   -1.8356   -0.0788    1.7484 N   0  0  0  0  0  0  0  0  0  0  0  0
   -2.0848   -0.5257    3.0207 C   0  0  0  0  0  0  0  0  0  0  0  0
   -1.3431   -0.9347    4.1368 C   0  0  0  0  0  0  0  0  0  0  0  0
    0.3206   -1.1403    4.5450 S   0  0  0  0  0  0  0  0  0  0  0  0
   -0.5360    0.4994    1.4810 C   0  0  0  0  0  0  0  0  0  0  0  0
   -0.5245    1.9894    1.8170 C   0  0  0  0  0  0  0  0  0  0  0  0
   -1.4453    0.2802   -1.7285 C   0  0  0  0  0  0  0  0  0  0  0  0
   -0.3804    1.3613   -1.9062 C   0  0  0  0  0  0  0  0  0  0  0  0
   -3.0022    2.6206   -7.3023 C   0  0  0  0  0  0  0  0  0  0  0  0
   -3.5421    3.3534   -8.3621 C   0  0  0  0  0  0  0  0  0  0  0  0
   -4.7863    4.1482   -8.3838 C   0  0  0  0  0  0  0  0  0  0  0  0
   -5.9124    3.6412   -9.0421 C   0  0  0  0  0  0  0  0  0  0  0  0
   -7.0382    4.4389   -9.1480 C   0  0  0  0  0  0  0  0  0  0  0  0
   -7.0658    5.7264   -8.6267 C   0  0  0  0  0  0  0  0  0  0  0  0
   -8.3102    6.5614   -8.7402 C   0  0  0  0  0  0  0  0  0  0  0  0
   -9.2918    6.2346   -7.6131 C   0  0  0  0  0  0  0  0  0  0  0  0
   -5.9456    6.2032   -7.9673 C   0  0  0  0  0  0  0  0  0  0  0  0
   -4.8009    5.4279   -7.8348 C   0  0  0  0  0  0  0  0  0  0  0  0
   -3.5953    5.9969   -7.1378 C   0  0  0  0  0  0  0  0  0  0  0  0
   -2.6448    6.6618   -8.1347 C   0  0  0  0  0  0  0  0  0  0  0  0
   -5.8504    2.2373   -9.5869 C   0  0  0  0  0  0  0  0  0  0  0  0
   -7.1596    1.6866  -10.1369 C   0  0  0  0  0  0  0  0  0  0  0  0
   -2.7072    3.3309   -9.4710 C   0  0  0  0  0  0  0  0  0  0  0  0
   -1.5190    2.6191   -9.3098 C   0  0  0  0  0  0  0  0  0  0  0  0
   -1.4558    1.9313   -7.7091 S   0  0  0  0  0  0  0  0  0  0  0  0
   -0.5479    2.5404  -10.3150 C   0  0  0  0  0  0  0  0  0  0  0  0
    0.6637    1.8957  -10.3237 C   0  0  0  0  0  0  0  0  0  0  0  0
    1.1813    1.0495   -9.2491 C   0  0  0  0  0  0  0  0  0  0  0  0
    0.6948    0.8554   -8.1474 O   0  0  0  0  0  0  0  0  0  0  0  0
    2.4200    0.4391   -9.7700 C   0  0  0  0  0  0  0  0  0  0  0  0
    3.2440   -0.4821   -9.1575 C   0  0  0  0  0  0  0  0  0  0  0  0
    4.3238   -0.9634   -9.8838 C   0  0  0  0  0  0  0  0  0  0  0  0
    4.5360   -0.5653  -11.1919 C   0  0  0  0  0  0  0  0  0  0  0  0
    3.6957    0.3582  -11.8241 C   0  0  0  0  0  0  0  0  0  0  0  0
    3.7954    0.7183  -13.1163 O   0  0  0  0  0  0  0  0  0  0  0  0
    4.8938    0.2910  -13.8881 C   0  0  0  0  0  0  0  0  0  0  0  0
    2.6477    0.9073  -11.0740 C   0  0  0  0  0  0  0  0  0  0  0  0
    1.6375    1.9081  -11.4030 C   0  0  0  0  0  0  0  0  0  0  0  0
    1.6729    2.7995  -12.4451 C   0  0  0  0  0  0  0  0  0  0  0  0
    0.6842    3.7727  -12.7068 C   0  0  0  0  0  0  0  0  0  0  0  0
   -0.0676    4.5901  -13.0033 N   0  0  0  0  0  0  0  0  0  0  0  0
    2.7269    2.9949  -13.3645 C   0  0  0  0  0  0  0  0  0  0  0  0
    3.5223    3.3198  -14.1272 N   0  0  0  0  0  0  0  0  0  0  0  0
    4.5990   -3.1553    9.4014 H   0  0  0  0  0  0  0  0  0  0  0  0
    5.8180   -5.8723    3.8803 H   0  0  0  0  0  0  0  0  0  0  0  0
    7.7869   -7.4085    3.8246 H   0  0  0  0  0  0  0  0  0  0  0  0
    9.1690   -7.7131    5.7972 H   0  0  0  0  0  0  0  0  0  0  0  0
   10.6649   -6.9999    7.4618 H   0  0  0  0  0  0  0  0  0  0  0  0
   10.3342   -7.1909    9.1989 H   0  0  0  0  0  0  0  0  0  0  0  0
    9.6541   -8.3625    8.0348 H   0  0  0  0  0  0  0  0  0  0  0  0
    4.5690   -0.1223   12.3839 H   0  0  0  0  0  0  0  0  0  0  0  0
    3.6281   -2.5337   15.0224 H   0  0  0  0  0  0  0  0  0  0  0  0
    4.7754   -1.2647   14.5717 H   0  0  0  0  0  0  0  0  0  0  0  0
    2.9397    0.4236   14.6611 H   0  0  0  0  0  0  0  0  0  0  0  0
    1.7945   -0.8409   15.1068 H   0  0  0  0  0  0  0  0  0  0  0  0
    3.1076   -0.4119   16.2087 H   0  0  0  0  0  0  0  0  0  0  0  0
    2.0687   -3.4191   13.3922 H   0  0  0  0  0  0  0  0  0  0  0  0
    0.5678   -3.7316   10.0870 H   0  0  0  0  0  0  0  0  0  0  0  0
    0.5372   -4.2636   11.7727 H   0  0  0  0  0  0  0  0  0  0  0  0
    2.6249   -5.0640    9.6871 H   0  0  0  0  0  0  0  0  0  0  0  0
    1.3404   -6.0925   10.3268 H   0  0  0  0  0  0  0  0  0  0  0  0
    2.6521   -5.5525   11.3815 H   0  0  0  0  0  0  0  0  0  0  0  0
    4.2509   -0.5101    8.7959 H   0  0  0  0  0  0  0  0  0  0  0  0
    5.0330    0.3468   10.1240 H   0  0  0  0  0  0  0  0  0  0  0  0
    2.1626    0.7888    9.1617 H   0  0  0  0  0  0  0  0  0  0  0  0
    3.5289    1.8706    8.8791 H   0  0  0  0  0  0  0  0  0  0  0  0
    2.9141    1.6309   10.5184 H   0  0  0  0  0  0  0  0  0  0  0  0
    0.3077   -1.2336    8.9950 H   0  0  0  0  0  0  0  0  0  0  0  0
   -3.0305   -1.4980    7.8030 H   0  0  0  0  0  0  0  0  0  0  0  0
   -1.5340   -2.1996    8.4438 H   0  0  0  0  0  0  0  0  0  0  0  0
   -1.9333   -4.2661    7.1083 H   0  0  0  0  0  0  0  0  0  0  0  0
   -3.4331   -3.5717    6.4832 H   0  0  0  0  0  0  0  0  0  0  0  0
   -3.2806   -3.9374    8.2034 H   0  0  0  0  0  0  0  0  0  0  0  0
   -7.6895    3.3755   -6.4609 H   0  0  0  0  0  0  0  0  0  0  0  0
   -7.3711    2.5236   -4.9276 H   0  0  0  0  0  0  0  0  0  0  0  0
   -7.8677    4.9165   -4.5086 H   0  0  0  0  0  0  0  0  0  0  0  0
   -6.1876    4.5875   -4.0811 H   0  0  0  0  0  0  0  0  0  0  0  0
   -6.5613    5.3959   -5.6093 H   0  0  0  0  0  0  0  0  0  0  0  0
    0.1780   -0.0273    2.1193 H   0  0  0  0  0  0  0  0  0  0  0  0
   -0.2372    0.3432    0.4497 H   0  0  0  0  0  0  0  0  0  0  0  0
   -0.7795    2.1406    2.8634 H   0  0  0  0  0  0  0  0  0  0  0  0
    0.4642    2.4032    1.6380 H   0  0  0  0  0  0  0  0  0  0  0  0
   -1.2496    2.5247    1.2069 H   0  0  0  0  0  0  0  0  0  0  0  0
   -1.1426   -0.4901   -1.0179 H   0  0  0  0  0  0  0  0  0  0  0  0
   -1.6015   -0.2104   -2.6958 H   0  0  0  0  0  0  0  0  0  0  0  0
    0.5769    0.8998   -2.1318 H   0  0  0  0  0  0  0  0  0  0  0  0
   -0.6486    2.0095   -2.7358 H   0  0  0  0  0  0  0  0  0  0  0  0
   -0.2784    1.9741   -1.0151 H   0  0  0  0  0  0  0  0  0  0  0  0
   -7.9179    4.0703   -9.6524 H   0  0  0  0  0  0  0  0  0  0  0  0
   -8.7931    6.3716   -9.7013 H   0  0  0  0  0  0  0  0  0  0  0  0
   -8.0505    7.6209   -8.6939 H   0  0  0  0  0  0  0  0  0  0  0  0
   -9.5666    5.1823   -7.6418 H   0  0  0  0  0  0  0  0  0  0  0  0
  -10.1961    6.8309   -7.7115 H   0  0  0  0  0  0  0  0  0  0  0  0
   -8.8418    6.4443   -6.6455 H   0  0  0  0  0  0  0  0  0  0  0  0
   -5.9558    7.2028   -7.5530 H   0  0  0  0  0  0  0  0  0  0  0  0
   -3.9200    6.7407   -6.4062 H   0  0  0  0  0  0  0  0  0  0  0  0
   -3.0625    5.2088   -6.6027 H   0  0  0  0  0  0  0  0  0  0  0  0
   -1.8031    7.1121   -7.6131 H   0  0  0  0  0  0  0  0  0  0  0  0
   -3.1642    7.4381   -8.6920 H   0  0  0  0  0  0  0  0  0  0  0  0
   -2.2607    5.9307   -8.8420 H   0  0  0  0  0  0  0  0  0  0  0  0
   -5.0929    2.2028  -10.3763 H   0  0  0  0  0  0  0  0  0  0  0  0
   -5.4995    1.5848   -8.7817 H   0  0  0  0  0  0  0  0  0  0  0  0
   -7.0156    0.6571  -10.4582 H   0  0  0  0  0  0  0  0  0  0  0  0
   -7.9356    1.6984   -9.3747 H   0  0  0  0  0  0  0  0  0  0  0  0
   -7.4975    2.2625  -10.9954 H   0  0  0  0  0  0  0  0  0  0  0  0
   -2.9395    3.8469  -10.3878 H   0  0  0  0  0  0  0  0  0  0  0  0
   -0.8301    3.0690  -11.2173 H   0  0  0  0  0  0  0  0  0  0  0  0
    3.0418   -0.8085   -8.1501 H   0  0  0  0  0  0  0  0  0  0  0  0
    5.0009   -1.6754   -9.4363 H   0  0  0  0  0  0  0  0  0  0  0  0
    5.3646   -0.9892  -11.7369 H   0  0  0  0  0  0  0  0  0  0  0  0
    4.8695   -0.7907  -14.0527 H   0  0  0  0  0  0  0  0  0  0  0  0
    5.8421    0.5755  -13.4243 H   0  0  0  0  0  0  0  0  0  0  0  0
    4.7895    0.8115  -14.8384 H   0  0  0  0  0  0  0  0  0  0  0  0
  1  2  2  0  0  0  0
  2  3  1  0  0  0  0
  3  4  2  0  0  0  0
  3  5  1  0  0  0  0
  5  6  2  0  0  0  0
  6  7  1  0  0  0  0
  7  8  2  0  0  0  0
  8  9  1  0  0  0  0
  9 10  1  0  0  0  0
 10 11  1  0  0  0  0
  9 12  2  0  0  0  0
 12 13  1  0  0  0  0
 13 14  2  0  0  0  0
 14 15  1  0  0  0  0
 15 16  3  0  0  0  0
 14 17  1  0  0  0  0
 17 18  3  0  0  0  0
  1 19  1  0  0  0  0
 19 20  2  0  0  0  0
 20 21  1  0  0  0  0
 21 22  2  0  0  0  0
 22 23  1  0  0  0  0
 23 24  2  0  0  0  0
 24 25  1  0  0  0  0
 25 26  1  0  0  0  0
 24 27  1  0  0  0  0
 27 28  2  0  0  0  0
 28 29  1  0  0  0  0
 29 30  1  0  0  0  0
 22 31  1  0  0  0  0
 31 32  1  0  0  0  0
 20 33  1  0  0  0  0
 33 34  2  0  0  0  0
 34 35  1  0  0  0  0
 34 36  1  0  0  0  0
 36 37  2  0  0  0  0
 37 38  1  0  0  0  0
 38 39  1  0  0  0  0
 37 40  1  0  0  0  0
 40 41  1  0  0  0  0
 41 42  1  0  0  0  0
 42 43  1  0  0  0  0
 43 44  1  0  0  0  0
 44 45  1  0  0  0  0
 45 46  2  0  0  0  0
 46 47  1  0  0  0  0
 47 48  1  0  0  0  0
 45 49  1  0  0  0  0
 49 50  1  0  0  0  0
 50 51  1  0  0  0  0
 51 52  1  0  0  0  0
 52 53  1  0  0  0  0
 53 54  1  0  0  0  0
 54 55  1  0  0  0  0
 55 56  1  0  0  0  0
 53 57  2  0  0  0  0
 57 58  1  0  0  0  0
 58 59  1  0  0  0  0
 59 60  1  0  0  0  0
 60 61  1  0  0  0  0
 61 62  1  0  0  0  0
 62 63  1  0  0  0  0
 63 64  1  0  0  0  0
 64 65  1  0  0  0  0
 65 66  1  0  0  0  0
 66 67  1  0  0  0  0
 64 68  1  0  0  0  0
 68 69  1  0  0  0  0
 61 70  1  0  0  0  0
 70 71  1  0  0  0  0
 57 72  1  0  0  0  0
 72 73  2  0  0  0  0
 73 74  1  0  0  0  0
 74 75  2  0  0  0  0
 75 76  1  0  0  0  0
 76 77  2  0  0  0  0
 77 78  1  0  0  0  0
 78 79  1  0  0  0  0
 77 80  1  0  0  0  0
 80 81  2  0  0  0  0
 81 82  1  0  0  0  0
 82 83  1  0  0  0  0
 75 84  1  0  0  0  0
 84 85  1  0  0  0  0
 73 86  1  0  0  0  0
 86 87  2  0  0  0  0
 87 88  1  0  0  0  0
 87 89  1  0  0  0  0
 89 90  2  0  0  0  0
 90 91  1  0  0  0  0
 91 92  2  0  0  0  0
 91 93  1  0  0  0  0
 93 94  2  0  0  0  0
 94 95  1  0  0  0  0
 95 96  2  0  0  0  0
 96 97  1  0  0  0  0
 97 98  1  0  0  0  0
 98 99  1  0  0  0  0
 97100  2  0  0  0  0
100101  1  0  0  0  0
101102  2  0  0  0  0
102103  1  0  0  0  0
103104  3  0  0  0  0
102105  1  0  0  0  0
105106  3  0  0  0  0
 13  2  1  0  0  0  0
 35 19  1  0  0  0  0
 67 36  1  0  0  0  0
 88 72  1  0  0  0  0
101 90  1  0  0  0  0
 12  5  1  0  0  0  0
 28 21  1  0  0  0  0
 66 40  2  0  0  0  0
 81 74  1  0  0  0  0
100 93  1  0  0  0  0
 65 42  2  0  0  0  0
 63 43  2  0  0  0  0
 48 44  2  0  0  0  0
 62 49  2  0  0  0  0
 60 50  2  0  0  0  0
 59 52  2  0  0  0  0
  1107  1  0  0  0  0
  6108  1  0  0  0  0
  7109  1  0  0  0  0
  8110  1  0  0  0  0
 11111  1  0  0  0  0
 11112  1  0  0  0  0
 11113  1  0  0  0  0
 23114  1  0  0  0  0
 25115  1  0  0  0  0
 25116  1  0  0  0  0
 26117  1  0  0  0  0
 26118  1  0  0  0  0
 26119  1  0  0  0  0
 27120  1  0  0  0  0
 29121  1  0  0  0  0
 29122  1  0  0  0  0
 30123  1  0  0  0  0
 30124  1  0  0  0  0
 30125  1  0  0  0  0
 31126  1  0  0  0  0
 31127  1  0  0  0  0
 32128  1  0  0  0  0
 32129  1  0  0  0  0
 32130  1  0  0  0  0
 33131  1  0  0  0  0
 38132  1  0  0  0  0
 38133  1  0  0  0  0
 39134  1  0  0  0  0
 39135  1  0  0  0  0
 39136  1  0  0  0  0
 55137  1  0  0  0  0
 55138  1  0  0  0  0
 56139  1  0  0  0  0
 56140  1  0  0  0  0
 56141  1  0  0  0  0
 68142  1  0  0  0  0
 68143  1  0  0  0  0
 69144  1  0  0  0  0
 69145  1  0  0  0  0
 69146  1  0  0  0  0
 70147  1  0  0  0  0
 70148  1  0  0  0  0
 71149  1  0  0  0  0
 71150  1  0  0  0  0
 71151  1  0  0  0  0
 76152  1  0  0  0  0
 78153  1  0  0  0  0
 78154  1  0  0  0  0
 79155  1  0  0  0  0
 79156  1  0  0  0  0
 79157  1  0  0  0  0
 80158  1  0  0  0  0
 82159  1  0  0  0  0
 82160  1  0  0  0  0
 83161  1  0  0  0  0
 83162  1  0  0  0  0
 83163  1  0  0  0  0
 84164  1  0  0  0  0
 84165  1  0  0  0  0
 85166  1  0  0  0  0
 85167  1  0  0  0  0
 85168  1  0  0  0  0
 86169  1  0  0  0  0
 89170  1  0  0  0  0
 94171  1  0  0  0  0
 95172  1  0  0  0  0
 96173  1  0  0  0  0
 99174  1  0  0  0  0
 99175  1  0  0  0  0
 99176  1  0  0  0  0
M  END
