
  xtb     02042219313D
 energy: -306.584092779822 gnorm: 0.000458643795 xtb: 6.4.1 (unknown)
187204  0     0  0            999 V2000
    1.0664    4.8187   -8.8807 C   0  0  0  0  0  0  0  0  0  0  0  0
   -0.2791    4.8136   -9.0919 C   0  0  0  0  0  0  0  0  0  0  0  0
   -0.9532    6.0317   -9.6014 C   0  0  0  0  0  0  0  0  0  0  0  0
   -0.4347    6.9899  -10.1291 O   0  0  0  0  0  0  0  0  0  0  0  0
   -2.3822    5.8495   -9.2562 C   0  0  0  0  0  0  0  0  0  0  0  0
   -3.4253    6.7434   -9.3902 C   0  0  0  0  0  0  0  0  0  0  0  0
   -4.6759    6.3492   -8.9366 C   0  0  0  0  0  0  0  0  0  0  0  0
   -4.8665    5.1153   -8.3374 C   0  0  0  0  0  0  0  0  0  0  0  0
   -3.8154    4.2045   -8.1913 C   0  0  0  0  0  0  0  0  0  0  0  0
   -3.9014    3.0214   -7.5520 O   0  0  0  0  0  0  0  0  0  0  0  0
   -5.1580    2.5488   -7.1259 C   0  0  0  0  0  0  0  0  0  0  0  0
   -2.5648    4.5729   -8.6983 C   0  0  0  0  0  0  0  0  0  0  0  0
   -1.3082    3.8392   -8.7852 C   0  0  0  0  0  0  0  0  0  0  0  0
   -1.1555    2.4829   -8.9097 C   0  0  0  0  0  0  0  0  0  0  0  0
    0.0652    1.9090   -9.3248 C   0  0  0  0  0  0  0  0  0  0  0  0
    1.0265    1.4150   -9.7135 N   0  0  0  0  0  0  0  0  0  0  0  0
   -2.1701    1.5094   -8.8161 C   0  0  0  0  0  0  0  0  0  0  0  0
   -2.9125    0.6335   -8.7913 N   0  0  0  0  0  0  0  0  0  0  0  0
    1.8446    3.9988   -8.0404 C   0  0  0  0  0  0  0  0  0  0  0  0
    3.2379    4.0024   -7.9854 C   0  0  0  0  0  0  0  0  0  0  0  0
    4.0672    4.8279   -8.8833 C   0  0  0  0  0  0  0  0  0  0  0  0
    4.3459    4.3909  -10.1805 C   0  0  0  0  0  0  0  0  0  0  0  0
    5.1180    5.1936  -11.0064 C   0  0  0  0  0  0  0  0  0  0  0  0
    5.6067    6.4196  -10.5809 C   0  0  0  0  0  0  0  0  0  0  0  0
    6.4681    7.2582  -11.4810 C   0  0  0  0  0  0  0  0  0  0  0  0
    7.9441    6.9033  -11.2909 C   0  0  0  0  0  0  0  0  0  0  0  0
    5.3184    6.8341   -9.2900 C   0  0  0  0  0  0  0  0  0  0  0  0
    4.5538    6.0566   -8.4334 C   0  0  0  0  0  0  0  0  0  0  0  0
    4.2886    6.5463   -7.0355 C   0  0  0  0  0  0  0  0  0  0  0  0
    5.4691    6.2329   -6.1142 C   0  0  0  0  0  0  0  0  0  0  0  0
    3.8846    3.0475  -10.6686 C   0  0  0  0  0  0  0  0  0  0  0  0
    4.8904    1.9631  -10.2775 C   0  0  0  0  0  0  0  0  0  0  0  0
    3.7476    3.1629   -6.9965 C   0  0  0  0  0  0  0  0  0  0  0  0
    2.7730    2.5201   -6.2555 C   0  0  0  0  0  0  0  0  0  0  0  0
    1.1848    2.9583   -6.8026 S   0  0  0  0  0  0  0  0  0  0  0  0
    2.9302    1.6578   -5.1387 C   0  0  0  0  0  0  0  0  0  0  0  0
    4.0881    1.0869   -4.6339 C   0  0  0  0  0  0  0  0  0  0  0  0
    5.4047    1.0993   -5.2789 C   0  0  0  0  0  0  0  0  0  0  0  0
    5.5607    0.6026   -6.5706 C   0  0  0  0  0  0  0  0  0  0  0  0
    6.8127    0.5945   -7.1551 C   0  0  0  0  0  0  0  0  0  0  0  0
    7.9081    1.0847   -6.4645 C   0  0  0  0  0  0  0  0  0  0  0  0
    7.7702    1.5728   -5.1714 C   0  0  0  0  0  0  0  0  0  0  0  0
    8.9439    2.1522   -4.4365 C   0  0  0  0  0  0  0  0  0  0  0  0
    9.0279    3.6607   -4.6804 C   0  0  0  0  0  0  0  0  0  0  0  0
    6.5130    1.5671   -4.5843 C   0  0  0  0  0  0  0  0  0  0  0  0
    3.8426    0.4233   -3.4194 C   0  0  0  0  0  0  0  0  0  0  0  0
    4.8920   -0.4313   -2.3128 S   0  0  0  0  0  0  0  0  0  0  0  0
    3.5219   -0.7466   -1.3021 C   0  0  0  0  0  0  0  0  0  0  0  0
    3.2262   -1.3300   -0.0618 C   0  0  0  0  0  0  0  0  0  0  0  0
    4.0863   -1.8818    0.9112 C   0  0  0  0  0  0  0  0  0  0  0  0
    3.5338   -2.2877    2.1685 C   0  0  0  0  0  0  0  0  0  0  0  0
    4.4546   -2.7403    3.0052 N   0  0  0  0  0  0  0  0  0  0  0  0
    5.8950   -2.6645    2.2689 S   0  0  0  0  0  0  0  0  0  0  0  0
    5.3986   -2.0486    0.8556 N   0  0  0  0  0  0  0  0  0  0  0  0
    2.1379   -2.2025    2.3567 C   0  0  0  0  0  0  0  0  0  0  0  0
    1.3459   -2.5972    3.4446 C   0  0  0  0  0  0  0  0  0  0  0  0
    1.5329   -3.2511    5.0371 S   0  0  0  0  0  0  0  0  0  0  0  0
   -0.2066   -3.2614    5.2038 C   0  0  0  0  0  0  0  0  0  0  0  0
   -1.0481   -3.6244    6.2691 C   0  0  0  0  0  0  0  0  0  0  0  0
   -0.5261   -4.0923    7.5601 C   0  0  0  0  0  0  0  0  0  0  0  0
   -0.7038   -3.3371    8.7141 C   0  0  0  0  0  0  0  0  0  0  0  0
   -0.1745   -3.7808    9.9104 C   0  0  0  0  0  0  0  0  0  0  0  0
    0.5352   -4.9669    9.9609 C   0  0  0  0  0  0  0  0  0  0  0  0
    0.7352   -5.7230    8.8136 C   0  0  0  0  0  0  0  0  0  0  0  0
    1.5610   -6.9767    8.8484 C   0  0  0  0  0  0  0  0  0  0  0  0
    3.0205   -6.6579    8.5176 C   0  0  0  0  0  0  0  0  0  0  0  0
    0.2050   -5.2712    7.6144 C   0  0  0  0  0  0  0  0  0  0  0  0
   -2.3829   -3.4751    5.9357 C   0  0  0  0  0  0  0  0  0  0  0  0
   -2.5897   -2.8455    4.3001 S   0  0  0  0  0  0  0  0  0  0  0  0
   -0.8782   -2.7911    4.0719 C   0  0  0  0  0  0  0  0  0  0  0  0
    0.0160   -2.3942    3.0705 C   0  0  0  0  0  0  0  0  0  0  0  0
   -0.0398   -1.8772    1.8051 N   0  0  0  0  0  0  0  0  0  0  0  0
    1.2565   -1.7208    1.3434 C   0  0  0  0  0  0  0  0  0  0  0  0
    1.8208   -1.1946    0.1462 C   0  0  0  0  0  0  0  0  0  0  0  0
    1.3012   -0.5059   -0.9363 N   0  0  0  0  0  0  0  0  0  0  0  0
    2.3224   -0.2402   -1.8059 C   0  0  0  0  0  0  0  0  0  0  0  0
    2.5051    0.4436   -3.0136 C   0  0  0  0  0  0  0  0  0  0  0  0
    1.5262    1.3205   -4.1345 S   0  0  0  0  0  0  0  0  0  0  0  0
   -0.0056    0.0338   -1.2254 C   0  0  0  0  0  0  0  0  0  0  0  0
   -0.7507   -0.8107   -2.2598 C   0  0  0  0  0  0  0  0  0  0  0  0
   -1.3294   -1.7464    1.1698 C   0  0  0  0  0  0  0  0  0  0  0  0
   -2.0739   -0.4970    1.6433 C   0  0  0  0  0  0  0  0  0  0  0  0
   -3.5476   -3.7855    6.6816 C   0  0  0  0  0  0  0  0  0  0  0  0
   -4.8436   -3.7377    6.1892 C   0  0  0  0  0  0  0  0  0  0  0  0
   -5.8075   -4.0754    7.1266 C   0  0  0  0  0  0  0  0  0  0  0  0
   -7.2402   -4.1020    6.8175 C   0  0  0  0  0  0  0  0  0  0  0  0
   -7.8307   -2.9693    6.2352 C   0  0  0  0  0  0  0  0  0  0  0  0
   -6.9981   -1.9132    6.0323 O   0  0  0  0  0  0  0  0  0  0  0  0
   -7.4907   -0.7536    5.3932 C   0  0  0  0  0  0  0  0  0  0  0  0
   -6.3110    0.1860    5.1946 C   0  0  0  0  0  0  0  0  0  0  0  0
   -9.1860   -2.9753    5.9319 C   0  0  0  0  0  0  0  0  0  0  0  0
   -9.9362   -4.1068    6.1955 C   0  0  0  0  0  0  0  0  0  0  0  0
   -9.3665   -5.2404    6.7400 C   0  0  0  0  0  0  0  0  0  0  0  0
   -8.0124   -5.2499    7.0568 C   0  0  0  0  0  0  0  0  0  0  0  0
   -7.3353   -6.3103    7.5718 O   0  0  0  0  0  0  0  0  0  0  0  0
   -8.0238   -7.5088    7.8740 C   0  0  0  0  0  0  0  0  0  0  0  0
   -8.2477   -8.3841    6.6447 C   0  0  0  0  0  0  0  0  0  0  0  0
   -5.2553   -4.3709    8.3894 C   0  0  0  0  0  0  0  0  0  0  0  0
   -3.5080   -4.2769    8.3407 S   0  0  0  0  0  0  0  0  0  0  0  0
   -6.0306   -4.5981    9.5271 C   0  0  0  0  0  0  0  0  0  0  0  0
   -5.6577   -4.8612   10.8261 C   0  0  0  0  0  0  0  0  0  0  0  0
   -4.2863   -4.9407   11.3371 C   0  0  0  0  0  0  0  0  0  0  0  0
   -3.2442   -4.8683   10.7088 O   0  0  0  0  0  0  0  0  0  0  0  0
   -4.4052   -5.1185   12.7983 C   0  0  0  0  0  0  0  0  0  0  0  0
   -3.4035   -5.2159   13.7425 C   0  0  0  0  0  0  0  0  0  0  0  0
   -3.7700   -5.3620   15.0736 C   0  0  0  0  0  0  0  0  0  0  0  0
   -5.1088   -5.4067   15.4320 C   0  0  0  0  0  0  0  0  0  0  0  0
   -6.1191   -5.3130   14.4825 C   0  0  0  0  0  0  0  0  0  0  0  0
   -5.7643   -5.1688   13.1511 C   0  0  0  0  0  0  0  0  0  0  0  0
   -6.5680   -5.0529   11.9322 C   0  0  0  0  0  0  0  0  0  0  0  0
   -7.9360   -5.1616   11.8819 C   0  0  0  0  0  0  0  0  0  0  0  0
   -8.7313   -5.1556   10.7193 C   0  0  0  0  0  0  0  0  0  0  0  0
   -9.4731   -5.1981    9.8416 N   0  0  0  0  0  0  0  0  0  0  0  0
   -8.7580   -5.3419   13.0130 C   0  0  0  0  0  0  0  0  0  0  0  0
   -9.4920   -5.4839   13.8852 N   0  0  0  0  0  0  0  0  0  0  0  0
    1.6107    5.6323   -9.3522 H   0  0  0  0  0  0  0  0  0  0  0  0
   -3.2606    7.7107   -9.8368 H   0  0  0  0  0  0  0  0  0  0  0  0
   -5.5184    7.0172   -9.0352 H   0  0  0  0  0  0  0  0  0  0  0  0
   -5.8489    4.8610   -7.9717 H   0  0  0  0  0  0  0  0  0  0  0  0
   -4.9720    1.5440   -6.7514 H   0  0  0  0  0  0  0  0  0  0  0  0
   -5.8669    2.4966   -7.9565 H   0  0  0  0  0  0  0  0  0  0  0  0
   -5.5690    3.1722   -6.3254 H   0  0  0  0  0  0  0  0  0  0  0  0
    5.3342    4.8563  -12.0105 H   0  0  0  0  0  0  0  0  0  0  0  0
    6.3201    8.3160  -11.2546 H   0  0  0  0  0  0  0  0  0  0  0  0
    6.1886    7.0895  -12.5228 H   0  0  0  0  0  0  0  0  0  0  0  0
    8.1133    5.8542  -11.5230 H   0  0  0  0  0  0  0  0  0  0  0  0
    8.2453    7.0776  -10.2602 H   0  0  0  0  0  0  0  0  0  0  0  0
    8.5693    7.5091  -11.9429 H   0  0  0  0  0  0  0  0  0  0  0  0
    5.6861    7.7898   -8.9432 H   0  0  0  0  0  0  0  0  0  0  0  0
    4.1330    7.6272   -7.0575 H   0  0  0  0  0  0  0  0  0  0  0  0
    3.3844    6.0839   -6.6352 H   0  0  0  0  0  0  0  0  0  0  0  0
    5.6299    5.1593   -6.0502 H   0  0  0  0  0  0  0  0  0  0  0  0
    5.2805    6.6145   -5.1131 H   0  0  0  0  0  0  0  0  0  0  0  0
    6.3787    6.6918   -6.4950 H   0  0  0  0  0  0  0  0  0  0  0  0
    2.9103    2.7923  -10.2500 H   0  0  0  0  0  0  0  0  0  0  0  0
    3.7881    3.0705  -11.7557 H   0  0  0  0  0  0  0  0  0  0  0  0
    5.8668    2.1747  -10.7093 H   0  0  0  0  0  0  0  0  0  0  0  0
    4.9959    1.9176   -9.1962 H   0  0  0  0  0  0  0  0  0  0  0  0
    4.5505    0.9941  -10.6337 H   0  0  0  0  0  0  0  0  0  0  0  0
    4.7985    3.0401   -6.8116 H   0  0  0  0  0  0  0  0  0  0  0  0
    4.7021    0.2219   -7.1040 H   0  0  0  0  0  0  0  0  0  0  0  0
    6.9343    0.2060   -8.1553 H   0  0  0  0  0  0  0  0  0  0  0  0
    8.8822    1.0824   -6.9318 H   0  0  0  0  0  0  0  0  0  0  0  0
    9.8662    1.6795   -4.7788 H   0  0  0  0  0  0  0  0  0  0  0  0
    8.8389    1.9645   -3.3663 H   0  0  0  0  0  0  0  0  0  0  0  0
    9.8784    4.0848   -4.1522 H   0  0  0  0  0  0  0  0  0  0  0  0
    9.1405    3.8669   -5.7427 H   0  0  0  0  0  0  0  0  0  0  0  0
    8.1224    4.1528   -4.3318 H   0  0  0  0  0  0  0  0  0  0  0  0
    6.3885    1.9431   -3.5788 H   0  0  0  0  0  0  0  0  0  0  0  0
   -1.2487   -2.4061    8.6678 H   0  0  0  0  0  0  0  0  0  0  0  0
   -0.3185   -3.1979   10.8073 H   0  0  0  0  0  0  0  0  0  0  0  0
    0.9417   -5.3112   10.9012 H   0  0  0  0  0  0  0  0  0  0  0  0
    1.1758   -7.6943    8.1211 H   0  0  0  0  0  0  0  0  0  0  0  0
    1.5050   -7.4311    9.8394 H   0  0  0  0  0  0  0  0  0  0  0  0
    3.6216   -7.5642    8.5321 H   0  0  0  0  0  0  0  0  0  0  0  0
    3.0948   -6.2056    7.5312 H   0  0  0  0  0  0  0  0  0  0  0  0
    3.4282   -5.9584    9.2441 H   0  0  0  0  0  0  0  0  0  0  0  0
    0.3492   -5.8484    6.7117 H   0  0  0  0  0  0  0  0  0  0  0  0
    0.1433    1.0371   -1.6398 H   0  0  0  0  0  0  0  0  0  0  0  0
   -0.5708    0.1397   -0.3048 H   0  0  0  0  0  0  0  0  0  0  0  0
   -1.7612   -0.4328   -2.3878 H   0  0  0  0  0  0  0  0  0  0  0  0
   -0.2422   -0.7601   -3.2187 H   0  0  0  0  0  0  0  0  0  0  0  0
   -0.7985   -1.8561   -1.9615 H   0  0  0  0  0  0  0  0  0  0  0  0
   -1.9193   -2.6259    1.4508 H   0  0  0  0  0  0  0  0  0  0  0  0
   -1.2091   -1.7634    0.0904 H   0  0  0  0  0  0  0  0  0  0  0  0
   -2.9851   -0.3692    1.0655 H   0  0  0  0  0  0  0  0  0  0  0  0
   -1.4614    0.3967    1.5413 H   0  0  0  0  0  0  0  0  0  0  0  0
   -2.3420   -0.5991    2.6912 H   0  0  0  0  0  0  0  0  0  0  0  0
   -5.0727   -3.4760    5.1709 H   0  0  0  0  0  0  0  0  0  0  0  0
   -7.9342   -1.0148    4.4223 H   0  0  0  0  0  0  0  0  0  0  0  0
   -8.2604   -0.2742    6.0138 H   0  0  0  0  0  0  0  0  0  0  0  0
   -5.8748    0.4396    6.1567 H   0  0  0  0  0  0  0  0  0  0  0  0
   -6.6389    1.0950    4.6987 H   0  0  0  0  0  0  0  0  0  0  0  0
   -5.5500   -0.2992    4.5889 H   0  0  0  0  0  0  0  0  0  0  0  0
   -9.6627   -2.1098    5.5016 H   0  0  0  0  0  0  0  0  0  0  0  0
  -10.9907   -4.1057    5.9649 H   0  0  0  0  0  0  0  0  0  0  0  0
   -9.9873   -6.0989    6.9289 H   0  0  0  0  0  0  0  0  0  0  0  0
   -8.9678   -7.2884    8.3845 H   0  0  0  0  0  0  0  0  0  0  0  0
   -7.3645   -8.0253    8.5786 H   0  0  0  0  0  0  0  0  0  0  0  0
   -8.7330   -9.3103    6.9400 H   0  0  0  0  0  0  0  0  0  0  0  0
   -8.8700   -7.8764    5.9123 H   0  0  0  0  0  0  0  0  0  0  0  0
   -7.2926   -8.6175    6.1805 H   0  0  0  0  0  0  0  0  0  0  0  0
   -7.0947   -4.5201    9.3415 H   0  0  0  0  0  0  0  0  0  0  0  0
   -2.3686   -5.1774   13.4383 H   0  0  0  0  0  0  0  0  0  0  0  0
   -3.0095   -5.4397   15.8361 H   0  0  0  0  0  0  0  0  0  0  0  0
   -5.3774   -5.5170   16.4720 H   0  0  0  0  0  0  0  0  0  0  0  0
   -7.1504   -5.3493   14.7929 H   0  0  0  0  0  0  0  0  0  0  0  0
  1  2  2  0  0  0  0
  2  3  1  0  0  0  0
  3  4  2  0  0  0  0
  3  5  1  0  0  0  0
  5  6  2  0  0  0  0
  6  7  1  0  0  0  0
  7  8  2  0  0  0  0
  8  9  1  0  0  0  0
  9 10  1  0  0  0  0
 10 11  1  0  0  0  0
  9 12  2  0  0  0  0
 12 13  1  0  0  0  0
 13 14  2  0  0  0  0
 14 15  1  0  0  0  0
 15 16  3  0  0  0  0
 14 17  1  0  0  0  0
 17 18  3  0  0  0  0
  1 19  1  0  0  0  0
 19 20  2  0  0  0  0
 20 21  1  0  0  0  0
 21 22  2  0  0  0  0
 22 23  1  0  0  0  0
 23 24  2  0  0  0  0
 24 25  1  0  0  0  0
 25 26  1  0  0  0  0
 24 27  1  0  0  0  0
 27 28  2  0  0  0  0
 28 29  1  0  0  0  0
 29 30  1  0  0  0  0
 22 31  1  0  0  0  0
 31 32  1  0  0  0  0
 20 33  1  0  0  0  0
 33 34  2  0  0  0  0
 34 35  1  0  0  0  0
 34 36  1  0  0  0  0
 36 37  2  0  0  0  0
 37 38  1  0  0  0  0
 38 39  2  0  0  0  0
 39 40  1  0  0  0  0
 40 41  2  0  0  0  0
 41 42  1  0  0  0  0
 42 43  1  0  0  0  0
 43 44  1  0  0  0  0
 42 45  2  0  0  0  0
 37 46  1  0  0  0  0
 46 47  1  0  0  0  0
 47 48  1  0  0  0  0
 48 49  1  0  0  0  0
 49 50  1  0  0  0  0
 50 51  1  0  0  0  0
 51 52  2  0  0  0  0
 52 53  1  0  0  0  0
 53 54  1  0  0  0  0
 51 55  1  0  0  0  0
 55 56  1  0  0  0  0
 56 57  1  0  0  0  0
 57 58  1  0  0  0  0
 58 59  1  0  0  0  0
 59 60  1  0  0  0  0
 60 61  2  0  0  0  0
 61 62  1  0  0  0  0
 62 63  2  0  0  0  0
 63 64  1  0  0  0  0
 64 65  1  0  0  0  0
 65 66  1  0  0  0  0
 64 67  2  0  0  0  0
 59 68  2  0  0  0  0
 68 69  1  0  0  0  0
 69 70  1  0  0  0  0
 70 71  1  0  0  0  0
 71 72  1  0  0  0  0
 72 73  1  0  0  0  0
 73 74  1  0  0  0  0
 74 75  1  0  0  0  0
 75 76  1  0  0  0  0
 76 77  1  0  0  0  0
 77 78  1  0  0  0  0
 75 79  1  0  0  0  0
 79 80  1  0  0  0  0
 72 81  1  0  0  0  0
 81 82  1  0  0  0  0
 68 83  1  0  0  0  0
 83 84  2  0  0  0  0
 84 85  1  0  0  0  0
 85 86  1  0  0  0  0
 86 87  2  0  0  0  0
 87 88  1  0  0  0  0
 88 89  1  0  0  0  0
 89 90  1  0  0  0  0
 87 91  1  0  0  0  0
 91 92  2  0  0  0  0
 92 93  1  0  0  0  0
 93 94  2  0  0  0  0
 94 95  1  0  0  0  0
 95 96  1  0  0  0  0
 96 97  1  0  0  0  0
 85 98  2  0  0  0  0
 98 99  1  0  0  0  0
 98100  1  0  0  0  0
100101  2  0  0  0  0
101102  1  0  0  0  0
102103  2  0  0  0  0
102104  1  0  0  0  0
104105  2  0  0  0  0
105106  1  0  0  0  0
106107  2  0  0  0  0
107108  1  0  0  0  0
108109  2  0  0  0  0
109110  1  0  0  0  0
110111  2  0  0  0  0
111112  1  0  0  0  0
112113  3  0  0  0  0
111114  1  0  0  0  0
114115  3  0  0  0  0
 13  2  1  0  0  0  0
 35 19  1  0  0  0  0
 78 36  1  0  0  0  0
 99 83  1  0  0  0  0
110101  1  0  0  0  0
 12  5  1  0  0  0  0
 28 21  1  0  0  0  0
 45 38  1  0  0  0  0
 77 46  2  0  0  0  0
 94 86  1  0  0  0  0
109104  1  0  0  0  0
 76 48  2  0  0  0  0
 74 49  2  0  0  0  0
 54 50  2  0  0  0  0
 73 55  2  0  0  0  0
 71 56  2  0  0  0  0
 70 58  2  0  0  0  0
 67 60  1  0  0  0  0
  1116  1  0  0  0  0
  6117  1  0  0  0  0
  7118  1  0  0  0  0
  8119  1  0  0  0  0
 11120  1  0  0  0  0
 11121  1  0  0  0  0
 11122  1  0  0  0  0
 23123  1  0  0  0  0
 25124  1  0  0  0  0
 25125  1  0  0  0  0
 26126  1  0  0  0  0
 26127  1  0  0  0  0
 26128  1  0  0  0  0
 27129  1  0  0  0  0
 29130  1  0  0  0  0
 29131  1  0  0  0  0
 30132  1  0  0  0  0
 30133  1  0  0  0  0
 30134  1  0  0  0  0
 31135  1  0  0  0  0
 31136  1  0  0  0  0
 32137  1  0  0  0  0
 32138  1  0  0  0  0
 32139  1  0  0  0  0
 33140  1  0  0  0  0
 39141  1  0  0  0  0
 40142  1  0  0  0  0
 41143  1  0  0  0  0
 43144  1  0  0  0  0
 43145  1  0  0  0  0
 44146  1  0  0  0  0
 44147  1  0  0  0  0
 44148  1  0  0  0  0
 45149  1  0  0  0  0
 61150  1  0  0  0  0
 62151  1  0  0  0  0
 63152  1  0  0  0  0
 65153  1  0  0  0  0
 65154  1  0  0  0  0
 66155  1  0  0  0  0
 66156  1  0  0  0  0
 66157  1  0  0  0  0
 67158  1  0  0  0  0
 79159  1  0  0  0  0
 79160  1  0  0  0  0
 80161  1  0  0  0  0
 80162  1  0  0  0  0
 80163  1  0  0  0  0
 81164  1  0  0  0  0
 81165  1  0  0  0  0
 82166  1  0  0  0  0
 82167  1  0  0  0  0
 82168  1  0  0  0  0
 84169  1  0  0  0  0
 89170  1  0  0  0  0
 89171  1  0  0  0  0
 90172  1  0  0  0  0
 90173  1  0  0  0  0
 90174  1  0  0  0  0
 91175  1  0  0  0  0
 92176  1  0  0  0  0
 93177  1  0  0  0  0
 96178  1  0  0  0  0
 96179  1  0  0  0  0
 97180  1  0  0  0  0
 97181  1  0  0  0  0
 97182  1  0  0  0  0
100183  1  0  0  0  0
105184  1  0  0  0  0
106185  1  0  0  0  0
107186  1  0  0  0  0
108187  1  0  0  0  0
M  END
