176

C          4.36490       -3.28980        8.35090
C          5.28460       -3.95880        7.58850
C          5.10950       -4.36300        6.19220
O          4.21860       -4.03830        5.42650
C          6.22750       -5.27890        5.89250
C          6.46660       -5.98820        4.73360
C          7.55800       -6.84460        4.71630
C          8.35100       -7.01140        5.83820
C          8.10740       -6.30470        7.02120
O          8.78420       -6.48290        8.16960
C          9.92150       -7.31410        8.19930
C          7.05150       -5.38400        7.02520
C          6.56730       -4.46670        8.05070
C          7.24590       -4.02810        9.15750
C          8.57450       -4.34120        9.52100
N          9.65200       -4.44960        9.90340
C          6.75950       -3.06300       10.06770
N          6.46290       -2.27750       10.85210
C          3.10870       -2.76970        8.00480
C          2.26400       -2.17590        8.95480
C          2.63710       -2.02080       10.37210
C          3.52830       -1.01390       10.75440
C          3.87230       -0.89350       12.09090
C          3.36270       -1.75230       13.05260
C          3.73380       -1.58230       14.49740
C          2.83740       -0.53610       15.16250
C          2.47570       -2.74050       12.65500
C          2.10370       -2.88850       11.32760
C          1.19290       -4.01980       10.93410
C          2.00360       -5.26170       10.55800
C          4.07600       -0.02900        9.75940
C          3.10890        1.14050        9.56730
C          1.05620       -1.74620        8.41640
C          0.95610       -1.97820        7.05630
S          2.37220       -2.75210        6.42210
C         -0.11660       -1.64580        6.17370
C         -1.48080       -1.67040        6.37300
C         -2.19980       -2.17280        7.58400
C         -2.74760       -3.57850        7.32680
C         -2.16810       -1.27070        5.21120
S         -3.87150       -1.09460        4.85460
C         -3.45850       -0.55680        3.26260
C         -4.08910       -0.08040        2.10150
C         -5.44550        0.20680        1.83630
C         -5.79200        0.82640        0.58950
N         -7.08580        1.09260        0.49820
S         -7.80700        0.59980        1.86240
N         -6.49590        0.03030        2.62250
C         -4.78200        1.02280       -0.37630
C         -4.84860        1.47710       -1.70200
S         -6.01720        2.06670       -2.82870
C         -4.77290        2.13600       -4.07090
C         -4.75600        2.51730       -5.43140
O         -5.78450        2.89230       -6.21030
C         -7.00440        3.29610       -5.61360
C         -6.89530        4.63900       -4.90440
C         -3.48440        2.38060       -5.98810
S         -2.32370        1.75580       -4.82870
C         -3.52890        1.70570       -3.59880
C         -3.57280        1.33560       -2.24920
N         -2.71670        0.82580       -1.31000
C         -3.42870        0.64690       -0.13840
C         -3.06090        0.19890        1.15790
N         -1.83560       -0.07880        1.74840
C         -2.08480       -0.52570        3.02070
C         -1.34310       -0.93470        4.13680
S          0.32060       -1.14030        4.54500
C         -0.53600        0.49940        1.48100
C         -0.52450        1.98940        1.81700
C         -1.44530        0.28020       -1.72850
C         -0.38040        1.36130       -1.90620
C         -3.00220        2.62060       -7.30230
C         -3.54210        3.35340       -8.36210
C         -4.78630        4.14820       -8.38380
C         -5.91240        3.64120       -9.04210
C         -7.03820        4.43890       -9.14800
C         -7.06580        5.72640       -8.62670
C         -8.31020        6.56140       -8.74020
C         -9.29180        6.23460       -7.61310
C         -5.94560        6.20320       -7.96730
C         -4.80090        5.42790       -7.83480
C         -3.59530        5.99690       -7.13780
C         -2.64480        6.66180       -8.13470
C         -5.85040        2.23730       -9.58690
C         -7.15960        1.68660      -10.13690
C         -2.70720        3.33090       -9.47100
C         -1.51900        2.61910       -9.30980
S         -1.45580        1.93130       -7.70910
C         -0.54790        2.54040      -10.31500
C          0.66370        1.89570      -10.32370
C          1.18130        1.04950       -9.24910
O          0.69480        0.85540       -8.14740
C          2.42000        0.43910       -9.77000
C          3.24400       -0.48210       -9.15750
C          4.32380       -0.96340       -9.88380
C          4.53600       -0.56530      -11.19190
C          3.69570        0.35820      -11.82410
O          3.79540        0.71830      -13.11630
C          4.89380        0.29100      -13.88810
C          2.64770        0.90730      -11.07400
C          1.63750        1.90810      -11.40300
C          1.67290        2.79950      -12.44510
C          0.68420        3.77270      -12.70680
N         -0.06760        4.59010      -13.00330
C          2.72690        2.99490      -13.36450
N          3.52230        3.31980      -14.12720
H          4.59900       -3.15530        9.40140
H          5.81800       -5.87230        3.88030
H          7.78690       -7.40850        3.82460
H          9.16900       -7.71310        5.79720
H         10.66490       -6.99990        7.46180
H         10.33420       -7.19090        9.19890
H          9.65410       -8.36250        8.03480
H          4.56900       -0.12230       12.38390
H          3.62810       -2.53370       15.02240
H          4.77540       -1.26470       14.57170
H          2.93970        0.42360       14.66110
H          1.79450       -0.84090       15.10680
H          3.10760       -0.41190       16.20870
H          2.06870       -3.41910       13.39220
H          0.56780       -3.73160       10.08700
H          0.53720       -4.26360       11.77270
H          2.62490       -5.06400        9.68710
H          1.34040       -6.09250       10.32680
H          2.65210       -5.55250       11.38150
H          4.25090       -0.51010        8.79590
H          5.03300        0.34680       10.12400
H          2.16260        0.78880        9.16170
H          3.52890        1.87060        8.87910
H          2.91410        1.63090       10.51840
H          0.30770       -1.23360        8.99500
H         -3.03050       -1.49800        7.80300
H         -1.53400       -2.19960        8.44380
H         -1.93330       -4.26610        7.10830
H         -3.43310       -3.57170        6.48320
H         -3.28060       -3.93740        8.20340
H         -7.68950        3.37550       -6.46090
H         -7.37110        2.52360       -4.92760
H         -7.86770        4.91650       -4.50860
H         -6.18760        4.58750       -4.08110
H         -6.56130        5.39590       -5.60930
H          0.17800       -0.02730        2.11930
H         -0.23720        0.34320        0.44970
H         -0.77950        2.14060        2.86340
H          0.46420        2.40320        1.63800
H         -1.24960        2.52470        1.20690
H         -1.14260       -0.49010       -1.01790
H         -1.60150       -0.21040       -2.69580
H          0.57690        0.89980       -2.13180
H         -0.64860        2.00950       -2.73580
H         -0.27840        1.97410       -1.01510
H         -7.91790        4.07030       -9.65240
H         -8.79310        6.37160       -9.70130
H         -8.05050        7.62090       -8.69390
H         -9.56660        5.18230       -7.64180
H        -10.19610        6.83090       -7.71150
H         -8.84180        6.44430       -6.64550
H         -5.95580        7.20280       -7.55300
H         -3.92000        6.74070       -6.40620
H         -3.06250        5.20880       -6.60270
H         -1.80310        7.11210       -7.61310
H         -3.16420        7.43810       -8.69200
H         -2.26070        5.93070       -8.84200
H         -5.09290        2.20280      -10.37630
H         -5.49950        1.58480       -8.78170
H         -7.01560        0.65710      -10.45820
H         -7.93560        1.69840       -9.37470
H         -7.49750        2.26250      -10.99540
H         -2.93950        3.84690      -10.38780
H         -0.83010        3.06900      -11.21730
H          3.04180       -0.80850       -8.15010
H          5.00090       -1.67540       -9.43630
H          5.36460       -0.98920      -11.73690
H          4.86950       -0.79070      -14.05270
H          5.84210        0.57550      -13.42430
H          4.78950        0.81150      -14.83840
