211

C         -4.53160      -10.41200       -0.83030
C         -4.97590      -11.36310        0.06120
C         -5.90410      -11.07540        1.16170
O         -6.37250       -9.99640        1.47680
C         -6.28310      -12.39510        1.71480
C         -7.15430      -12.67340        2.74620
C         -7.37640      -14.00650        3.06270
C         -6.77720      -15.02070        2.33750
C         -5.90730      -14.74520        1.27670
O         -5.35160      -15.67920        0.48130
C         -5.52300      -17.04660        0.77030
C         -5.62800      -13.40410        0.99310
C         -4.74440      -12.78500        0.01200
C         -3.71210      -13.37200       -0.67840
C         -2.83570      -12.64610       -1.51260
N         -2.06780      -12.12420       -2.18980
C         -3.25310      -14.69920       -0.57350
N         -2.71980      -15.71720       -0.53650
C         -4.43300       -9.03810       -0.58850
C         -4.27440       -8.30850        0.60700
N         -4.03790       -8.81510        1.85300
C         -4.39190       -8.04880        2.98430
C         -3.49620       -7.91280        4.03890
C         -3.84340       -7.16140        5.14510
C         -5.07980       -6.53290        5.22490
C         -5.44560       -5.69530        6.41140
C         -5.97170       -6.68720        4.16880
C         -5.63960       -7.43690        3.05900
C         -3.43400      -10.06100        2.06760
C         -3.88480      -10.87880        3.10170
C         -3.31710      -12.12290        3.30400
C         -2.28700      -12.58220        2.49510
C         -1.68790      -13.93940        2.68990
C         -1.81610      -11.74190        1.48820
C         -2.37770      -10.50170        1.27100
C         -4.27620       -6.91860        0.33870
S         -4.07520       -5.51000        1.32800
C         -4.18950       -4.48060       -0.08650
C         -4.30320       -5.19650       -1.26860
N         -4.29730       -4.64620       -2.53890
C         -3.51300       -3.51650       -2.81280
C         -2.25050       -3.37390       -2.24390
C         -1.52010       -2.21850       -2.44620
C         -2.01930       -1.17890       -3.21750
C         -1.26350        0.10500       -3.37740
C         -3.25410       -1.35410       -3.83370
C         -3.98950       -2.50570       -3.64590
C         -5.09490       -5.21610       -3.54180
C         -4.64730       -5.25190       -4.86040
C         -5.43600       -5.80940       -5.84540
C         -6.68100       -6.35320       -5.54940
C         -7.51610       -6.97920       -6.62420
C         -7.11530       -6.32060       -4.23120
C         -6.33920       -5.75930       -3.23670
C         -4.36920       -6.58570       -1.00490
S         -4.45270       -7.98170       -2.01040
C         -4.14360       -3.04960        0.00880
C         -5.02240       -2.17100       -0.58890
C         -6.32240       -2.56550       -1.12780
C         -7.07510       -3.55880       -0.50320
C         -8.30420       -3.92200       -1.01800
C         -8.79410       -3.30980       -2.15910
C         -8.06640       -2.30710       -2.78500
C         -8.60600       -1.59240       -3.99010
C         -9.25890       -0.27120       -3.57950
C         -6.84160       -1.93430       -2.25240
C         -4.51820       -0.85210       -0.55950
S         -5.11550        0.65650       -1.19960
C         -3.68540        1.44230       -0.62680
C         -3.11650        2.72650       -0.60080
C         -3.63650        3.98450       -0.97310
C         -2.87040        5.16380       -0.68370
N         -3.50440        6.27500       -1.02380
S         -4.93850        5.87320       -1.65910
N         -4.80710        4.26440       -1.52460
C         -1.56460        5.01830       -0.16750
C         -0.54230        5.96100        0.03890
S         -0.29030        7.66850       -0.08630
C          1.39690        7.42260        0.29580
C          2.49020        8.30770        0.41800
C          2.37630        9.76350        0.30500
C          1.63960       10.33470       -0.72810
C          1.56660       11.71040       -0.83980
C          2.22600       12.52220        0.06640
C          2.94820       11.96860        1.11640
C          3.70840       12.83360        2.08020
C          5.20580       12.78880        1.76810
C          3.00450       10.58880        1.23300
C          3.65520        7.62980        0.71270
S          3.39790        5.90110        0.88970
C          1.72050        6.08470        0.52120
C          0.60560        5.24700        0.38230
N          0.32900        3.90440        0.44830
C         -1.00890        3.74090        0.11410
C         -1.84660        2.59800        0.02660
N         -1.68700        1.28180        0.42200
C         -2.79720        0.58480        0.02370
C         -3.28410       -0.72960        0.07750
S         -2.74230       -2.24860        0.69770
C         -0.78470        0.71140        1.39510
C          0.19430       -0.27830        0.76560
C          1.42070        2.97010        0.27820
C          1.59830        2.60150       -1.19340
C          5.00430        8.14220        0.80710
C          5.40340        9.23900        0.02320
C          6.69090        9.69990        0.14220
C          7.33890       10.84420       -0.55240
O          6.84410       11.60440       -1.35030
C          8.73330       10.84460       -0.03470
C          8.88960        9.79370        0.89380
C          7.62110        9.08850        1.00810
C          7.24090        7.99170        1.75750
C          5.93740        7.53050        1.64830
C         10.10910        9.59710        1.51410
C         11.17230       10.42060        1.17620
C         11.03420       11.44490        0.23450
C          9.77720       11.67830       -0.35080
C         12.13360       12.30410       -0.13890
C         13.42420       11.94550       -0.33140
C         13.93320       10.55360       -0.48640
O         13.39830        9.51390       -0.17520
C         15.22740       10.69570       -1.18510
C         16.04850        9.69270       -1.66030
C         17.20510       10.06780       -2.32800
C         17.50520       11.40210       -2.54470
C         16.67380       12.42550       -2.07810
O         16.85920       13.73420       -2.31790
C         18.02690       14.17540       -2.97310
C         15.53540       12.05680       -1.34690
C         14.51050       12.85500       -0.69670
C         14.57460       14.16630       -0.31650
C         13.54980       14.81000        0.41580
N         12.77060       15.39330        1.02440
C         15.67120       15.04520       -0.46280
N         16.49930       15.84000       -0.46590
H         -4.27200      -10.72590       -1.83420
H         -7.63700      -11.87300        3.28400
H         -8.03800      -14.26450        3.87630
H         -6.99830      -16.04500        2.59350
H         -5.17970      -17.28790        1.78030
H         -6.56670      -17.35340        0.65010
H         -4.89990      -17.56790        0.04570
H         -2.53070       -8.39460        3.98510
H         -3.13840       -7.05870        5.95730
H         -5.32310       -4.63870        6.17150
H         -4.81090       -5.92630        7.26330
H         -6.48490       -5.85480        6.69110
H         -6.94370       -6.21870        4.22210
H         -6.34480       -7.58450        2.25620
H         -4.68870      -10.53670        3.73580
H         -3.69380      -12.75020        4.09910
H         -1.81730      -14.54510        1.79330
H         -2.15460      -14.45350        3.52600
H         -0.61880      -13.85930        2.88040
H         -1.00060      -12.07020        0.86050
H         -1.99890       -9.87090        0.48080
H         -1.84700       -4.16840       -1.63280
H         -0.54540       -2.12550       -1.98810
H         -1.77490        0.90860       -2.84540
H         -1.20280        0.38980       -4.42620
H         -0.25480        0.01270       -2.98100
H         -3.65100       -0.56590       -4.45720
H         -4.94860       -2.62830       -4.12540
H         -3.67800       -4.84310       -5.10530
H         -5.07460       -5.83090       -6.86350
H         -7.19390       -8.00690       -6.79490
H         -8.56550       -6.99700       -6.34020
H         -7.41220       -6.43650       -7.56140
H         -8.07990       -6.73460       -3.97560
H         -6.70210       -5.72690       -2.22090
H         -6.70330       -4.03100        0.39410
H         -8.88460       -4.68990       -0.52700
H         -9.75120       -3.60810       -2.56200
H         -9.34180       -2.22110       -4.49530
H         -7.79380       -1.38770       -4.69090
H         -8.53480        0.36970       -3.08190
H        -10.08250       -0.45430       -2.89300
H         -9.64390        0.25040       -4.45260
H         -6.27500       -1.14900       -2.72880
H          1.14550        9.70220       -1.45000
H          1.00000       12.15190       -1.64610
H          2.17790       13.59620       -0.03980
H          3.54380       12.48350        3.10210
H          3.35480       13.86370        2.01130
H          5.59320       11.78040        1.90050
H          5.75300       13.45880        2.42740
H          5.38770       13.08760        0.73810
H          3.54780       10.14440        2.05520
H         -0.27500        1.52220        1.91770
H         -1.39080        0.17490        2.13430
H          0.90540       -0.61900        1.51360
H          0.73680        0.16900       -0.06230
H         -0.34820       -1.14170        0.39070
H          1.27230        2.07690        0.87860
H          2.32110        3.47020        0.64380
H          1.80520        3.49310       -1.78090
H          2.42980        1.91110       -1.30780
H          0.69370        2.13860       -1.58270
H          4.72160        9.70460       -0.67020
H          7.93690        7.49950        2.41970
H          5.62590        6.67720        2.23440
H         10.24170        8.81520        2.24610
H         12.12000       10.28690        1.67150
H          9.64100       12.47890       -1.06290
H         11.85460       13.33090       -0.34820
H         15.78670        8.65780       -1.50940
H         17.87960        9.31270       -2.70240
H         18.39840       11.65150       -3.09550
H         18.05810       13.82680       -4.00980
H         18.92700       13.85130       -2.44420
H         17.96910       15.26200       -2.95070
