
  xtb     02272219133D
 energy: -353.047330976822 gnorm: 0.000602843868 xtb: 6.4.1 (unknown)
211233  0     0  0            999 V2000
   -4.5316  -10.4120   -0.8303 C   0  0  0  0  0  0  0  0  0  0  0  0
   -4.9759  -11.3631    0.0612 C   0  0  0  0  0  0  0  0  0  0  0  0
   -5.9041  -11.0754    1.1617 C   0  0  0  0  0  0  0  0  0  0  0  0
   -6.3725   -9.9964    1.4768 O   0  0  0  0  0  0  0  0  0  0  0  0
   -6.2831  -12.3951    1.7148 C   0  0  0  0  0  0  0  0  0  0  0  0
   -7.1543  -12.6734    2.7462 C   0  0  0  0  0  0  0  0  0  0  0  0
   -7.3764  -14.0065    3.0627 C   0  0  0  0  0  0  0  0  0  0  0  0
   -6.7772  -15.0207    2.3375 C   0  0  0  0  0  0  0  0  0  0  0  0
   -5.9073  -14.7452    1.2767 C   0  0  0  0  0  0  0  0  0  0  0  0
   -5.3516  -15.6792    0.4813 O   0  0  0  0  0  0  0  0  0  0  0  0
   -5.5230  -17.0466    0.7703 C   0  0  0  0  0  0  0  0  0  0  0  0
   -5.6280  -13.4041    0.9931 C   0  0  0  0  0  0  0  0  0  0  0  0
   -4.7444  -12.7850    0.0120 C   0  0  0  0  0  0  0  0  0  0  0  0
   -3.7121  -13.3720   -0.6784 C   0  0  0  0  0  0  0  0  0  0  0  0
   -2.8357  -12.6461   -1.5126 C   0  0  0  0  0  0  0  0  0  0  0  0
   -2.0678  -12.1242   -2.1898 N   0  0  0  0  0  0  0  0  0  0  0  0
   -3.2531  -14.6992   -0.5735 C   0  0  0  0  0  0  0  0  0  0  0  0
   -2.7198  -15.7172   -0.5365 N   0  0  0  0  0  0  0  0  0  0  0  0
   -4.4330   -9.0381   -0.5885 C   0  0  0  0  0  0  0  0  0  0  0  0
   -4.2744   -8.3085    0.6070 C   0  0  0  0  0  0  0  0  0  0  0  0
   -4.0379   -8.8151    1.8530 N   0  0  0  0  0  0  0  0  0  0  0  0
   -4.3919   -8.0488    2.9843 C   0  0  0  0  0  0  0  0  0  0  0  0
   -3.4962   -7.9128    4.0389 C   0  0  0  0  0  0  0  0  0  0  0  0
   -3.8434   -7.1614    5.1451 C   0  0  0  0  0  0  0  0  0  0  0  0
   -5.0798   -6.5329    5.2249 C   0  0  0  0  0  0  0  0  0  0  0  0
   -5.4456   -5.6953    6.4114 C   0  0  0  0  0  0  0  0  0  0  0  0
   -5.9717   -6.6872    4.1688 C   0  0  0  0  0  0  0  0  0  0  0  0
   -5.6396   -7.4369    3.0590 C   0  0  0  0  0  0  0  0  0  0  0  0
   -3.4340  -10.0610    2.0676 C   0  0  0  0  0  0  0  0  0  0  0  0
   -3.8848  -10.8788    3.1017 C   0  0  0  0  0  0  0  0  0  0  0  0
   -3.3171  -12.1229    3.3040 C   0  0  0  0  0  0  0  0  0  0  0  0
   -2.2870  -12.5822    2.4951 C   0  0  0  0  0  0  0  0  0  0  0  0
   -1.6879  -13.9394    2.6899 C   0  0  0  0  0  0  0  0  0  0  0  0
   -1.8161  -11.7419    1.4882 C   0  0  0  0  0  0  0  0  0  0  0  0
   -2.3777  -10.5017    1.2710 C   0  0  0  0  0  0  0  0  0  0  0  0
   -4.2762   -6.9186    0.3387 C   0  0  0  0  0  0  0  0  0  0  0  0
   -4.0752   -5.5100    1.3280 S   0  0  0  0  0  0  0  0  0  0  0  0
   -4.1895   -4.4806   -0.0865 C   0  0  0  0  0  0  0  0  0  0  0  0
   -4.3032   -5.1965   -1.2686 C   0  0  0  0  0  0  0  0  0  0  0  0
   -4.2973   -4.6462   -2.5389 N   0  0  0  0  0  0  0  0  0  0  0  0
   -3.5130   -3.5165   -2.8128 C   0  0  0  0  0  0  0  0  0  0  0  0
   -2.2505   -3.3739   -2.2439 C   0  0  0  0  0  0  0  0  0  0  0  0
   -1.5201   -2.2185   -2.4462 C   0  0  0  0  0  0  0  0  0  0  0  0
   -2.0193   -1.1789   -3.2175 C   0  0  0  0  0  0  0  0  0  0  0  0
   -1.2635    0.1050   -3.3774 C   0  0  0  0  0  0  0  0  0  0  0  0
   -3.2541   -1.3541   -3.8337 C   0  0  0  0  0  0  0  0  0  0  0  0
   -3.9895   -2.5057   -3.6459 C   0  0  0  0  0  0  0  0  0  0  0  0
   -5.0949   -5.2161   -3.5418 C   0  0  0  0  0  0  0  0  0  0  0  0
   -4.6473   -5.2519   -4.8604 C   0  0  0  0  0  0  0  0  0  0  0  0
   -5.4360   -5.8094   -5.8454 C   0  0  0  0  0  0  0  0  0  0  0  0
   -6.6810   -6.3532   -5.5494 C   0  0  0  0  0  0  0  0  0  0  0  0
   -7.5161   -6.9792   -6.6242 C   0  0  0  0  0  0  0  0  0  0  0  0
   -7.1153   -6.3206   -4.2312 C   0  0  0  0  0  0  0  0  0  0  0  0
   -6.3392   -5.7593   -3.2367 C   0  0  0  0  0  0  0  0  0  0  0  0
   -4.3692   -6.5857   -1.0049 C   0  0  0  0  0  0  0  0  0  0  0  0
   -4.4527   -7.9817   -2.0104 S   0  0  0  0  0  0  0  0  0  0  0  0
   -4.1436   -3.0496    0.0088 C   0  0  0  0  0  0  0  0  0  0  0  0
   -5.0224   -2.1710   -0.5889 C   0  0  0  0  0  0  0  0  0  0  0  0
   -6.3224   -2.5655   -1.1278 C   0  0  0  0  0  0  0  0  0  0  0  0
   -7.0751   -3.5588   -0.5032 C   0  0  0  0  0  0  0  0  0  0  0  0
   -8.3042   -3.9220   -1.0180 C   0  0  0  0  0  0  0  0  0  0  0  0
   -8.7941   -3.3098   -2.1591 C   0  0  0  0  0  0  0  0  0  0  0  0
   -8.0664   -2.3071   -2.7850 C   0  0  0  0  0  0  0  0  0  0  0  0
   -8.6060   -1.5924   -3.9901 C   0  0  0  0  0  0  0  0  0  0  0  0
   -9.2589   -0.2712   -3.5795 C   0  0  0  0  0  0  0  0  0  0  0  0
   -6.8416   -1.9343   -2.2524 C   0  0  0  0  0  0  0  0  0  0  0  0
   -4.5182   -0.8521   -0.5595 C   0  0  0  0  0  0  0  0  0  0  0  0
   -5.1155    0.6565   -1.1996 S   0  0  0  0  0  0  0  0  0  0  0  0
   -3.6854    1.4423   -0.6268 C   0  0  0  0  0  0  0  0  0  0  0  0
   -3.1165    2.7265   -0.6008 C   0  0  0  0  0  0  0  0  0  0  0  0
   -3.6365    3.9845   -0.9731 C   0  0  0  0  0  0  0  0  0  0  0  0
   -2.8704    5.1638   -0.6837 C   0  0  0  0  0  0  0  0  0  0  0  0
   -3.5044    6.2750   -1.0238 N   0  0  0  0  0  0  0  0  0  0  0  0
   -4.9385    5.8732   -1.6591 S   0  0  0  0  0  0  0  0  0  0  0  0
   -4.8071    4.2644   -1.5246 N   0  0  0  0  0  0  0  0  0  0  0  0
   -1.5646    5.0183   -0.1675 C   0  0  0  0  0  0  0  0  0  0  0  0
   -0.5423    5.9610    0.0389 C   0  0  0  0  0  0  0  0  0  0  0  0
   -0.2903    7.6685   -0.0863 S   0  0  0  0  0  0  0  0  0  0  0  0
    1.3969    7.4226    0.2958 C   0  0  0  0  0  0  0  0  0  0  0  0
    2.4902    8.3077    0.4180 C   0  0  0  0  0  0  0  0  0  0  0  0
    2.3763    9.7635    0.3050 C   0  0  0  0  0  0  0  0  0  0  0  0
    1.6396   10.3347   -0.7281 C   0  0  0  0  0  0  0  0  0  0  0  0
    1.5666   11.7104   -0.8398 C   0  0  0  0  0  0  0  0  0  0  0  0
    2.2260   12.5222    0.0664 C   0  0  0  0  0  0  0  0  0  0  0  0
    2.9482   11.9686    1.1164 C   0  0  0  0  0  0  0  0  0  0  0  0
    3.7084   12.8336    2.0802 C   0  0  0  0  0  0  0  0  0  0  0  0
    5.2058   12.7888    1.7681 C   0  0  0  0  0  0  0  0  0  0  0  0
    3.0045   10.5888    1.2330 C   0  0  0  0  0  0  0  0  0  0  0  0
    3.6552    7.6298    0.7127 C   0  0  0  0  0  0  0  0  0  0  0  0
    3.3979    5.9011    0.8897 S   0  0  0  0  0  0  0  0  0  0  0  0
    1.7205    6.0847    0.5212 C   0  0  0  0  0  0  0  0  0  0  0  0
    0.6056    5.2470    0.3823 C   0  0  0  0  0  0  0  0  0  0  0  0
    0.3290    3.9044    0.4483 N   0  0  0  0  0  0  0  0  0  0  0  0
   -1.0089    3.7409    0.1141 C   0  0  0  0  0  0  0  0  0  0  0  0
   -1.8466    2.5980    0.0266 C   0  0  0  0  0  0  0  0  0  0  0  0
   -1.6870    1.2818    0.4220 N   0  0  0  0  0  0  0  0  0  0  0  0
   -2.7972    0.5848    0.0237 C   0  0  0  0  0  0  0  0  0  0  0  0
   -3.2841   -0.7296    0.0775 C   0  0  0  0  0  0  0  0  0  0  0  0
   -2.7423   -2.2486    0.6977 S   0  0  0  0  0  0  0  0  0  0  0  0
   -0.7847    0.7114    1.3951 C   0  0  0  0  0  0  0  0  0  0  0  0
    0.1943   -0.2783    0.7656 C   0  0  0  0  0  0  0  0  0  0  0  0
    1.4207    2.9701    0.2782 C   0  0  0  0  0  0  0  0  0  0  0  0
    1.5983    2.6015   -1.1934 C   0  0  0  0  0  0  0  0  0  0  0  0
    5.0043    8.1422    0.8071 C   0  0  0  0  0  0  0  0  0  0  0  0
    5.4034    9.2390    0.0232 C   0  0  0  0  0  0  0  0  0  0  0  0
    6.6909    9.6999    0.1422 C   0  0  0  0  0  0  0  0  0  0  0  0
    7.3389   10.8442   -0.5524 C   0  0  0  0  0  0  0  0  0  0  0  0
    6.8441   11.6044   -1.3503 O   0  0  0  0  0  0  0  0  0  0  0  0
    8.7333   10.8446   -0.0347 C   0  0  0  0  0  0  0  0  0  0  0  0
    8.8896    9.7937    0.8938 C   0  0  0  0  0  0  0  0  0  0  0  0
    7.6211    9.0885    1.0081 C   0  0  0  0  0  0  0  0  0  0  0  0
    7.2409    7.9917    1.7575 C   0  0  0  0  0  0  0  0  0  0  0  0
    5.9374    7.5305    1.6483 C   0  0  0  0  0  0  0  0  0  0  0  0
   10.1091    9.5971    1.5141 C   0  0  0  0  0  0  0  0  0  0  0  0
   11.1723   10.4206    1.1762 C   0  0  0  0  0  0  0  0  0  0  0  0
   11.0342   11.4449    0.2345 C   0  0  0  0  0  0  0  0  0  0  0  0
    9.7772   11.6783   -0.3508 C   0  0  0  0  0  0  0  0  0  0  0  0
   12.1336   12.3041   -0.1389 C   0  0  0  0  0  0  0  0  0  0  0  0
   13.4242   11.9455   -0.3314 C   0  0  0  0  0  0  0  0  0  0  0  0
   13.9332   10.5536   -0.4864 C   0  0  0  0  0  0  0  0  0  0  0  0
   13.3983    9.5139   -0.1752 O   0  0  0  0  0  0  0  0  0  0  0  0
   15.2274   10.6957   -1.1851 C   0  0  0  0  0  0  0  0  0  0  0  0
   16.0485    9.6927   -1.6603 C   0  0  0  0  0  0  0  0  0  0  0  0
   17.2051   10.0678   -2.3280 C   0  0  0  0  0  0  0  0  0  0  0  0
   17.5052   11.4021   -2.5447 C   0  0  0  0  0  0  0  0  0  0  0  0
   16.6738   12.4255   -2.0781 C   0  0  0  0  0  0  0  0  0  0  0  0
   16.8592   13.7342   -2.3179 O   0  0  0  0  0  0  0  0  0  0  0  0
   18.0269   14.1754   -2.9731 C   0  0  0  0  0  0  0  0  0  0  0  0
   15.5354   12.0568   -1.3469 C   0  0  0  0  0  0  0  0  0  0  0  0
   14.5105   12.8550   -0.6967 C   0  0  0  0  0  0  0  0  0  0  0  0
   14.5746   14.1663   -0.3165 C   0  0  0  0  0  0  0  0  0  0  0  0
   13.5498   14.8100    0.4158 C   0  0  0  0  0  0  0  0  0  0  0  0
   12.7706   15.3933    1.0244 N   0  0  0  0  0  0  0  0  0  0  0  0
   15.6712   15.0452   -0.4628 C   0  0  0  0  0  0  0  0  0  0  0  0
   16.4993   15.8400   -0.4659 N   0  0  0  0  0  0  0  0  0  0  0  0
   -4.2720  -10.7259   -1.8342 H   0  0  0  0  0  0  0  0  0  0  0  0
   -7.6370  -11.8730    3.2840 H   0  0  0  0  0  0  0  0  0  0  0  0
   -8.0380  -14.2645    3.8763 H   0  0  0  0  0  0  0  0  0  0  0  0
   -6.9983  -16.0450    2.5935 H   0  0  0  0  0  0  0  0  0  0  0  0
   -5.1797  -17.2879    1.7803 H   0  0  0  0  0  0  0  0  0  0  0  0
   -6.5667  -17.3534    0.6501 H   0  0  0  0  0  0  0  0  0  0  0  0
   -4.8999  -17.5679    0.0457 H   0  0  0  0  0  0  0  0  0  0  0  0
   -2.5307   -8.3946    3.9851 H   0  0  0  0  0  0  0  0  0  0  0  0
   -3.1384   -7.0587    5.9573 H   0  0  0  0  0  0  0  0  0  0  0  0
   -5.3231   -4.6387    6.1715 H   0  0  0  0  0  0  0  0  0  0  0  0
   -4.8109   -5.9263    7.2633 H   0  0  0  0  0  0  0  0  0  0  0  0
   -6.4849   -5.8548    6.6911 H   0  0  0  0  0  0  0  0  0  0  0  0
   -6.9437   -6.2187    4.2221 H   0  0  0  0  0  0  0  0  0  0  0  0
   -6.3448   -7.5845    2.2562 H   0  0  0  0  0  0  0  0  0  0  0  0
   -4.6887  -10.5367    3.7358 H   0  0  0  0  0  0  0  0  0  0  0  0
   -3.6938  -12.7502    4.0991 H   0  0  0  0  0  0  0  0  0  0  0  0
   -1.8173  -14.5451    1.7933 H   0  0  0  0  0  0  0  0  0  0  0  0
   -2.1546  -14.4535    3.5260 H   0  0  0  0  0  0  0  0  0  0  0  0
   -0.6188  -13.8593    2.8804 H   0  0  0  0  0  0  0  0  0  0  0  0
   -1.0006  -12.0702    0.8605 H   0  0  0  0  0  0  0  0  0  0  0  0
   -1.9989   -9.8709    0.4808 H   0  0  0  0  0  0  0  0  0  0  0  0
   -1.8470   -4.1684   -1.6328 H   0  0  0  0  0  0  0  0  0  0  0  0
   -0.5454   -2.1255   -1.9881 H   0  0  0  0  0  0  0  0  0  0  0  0
   -1.7749    0.9086   -2.8454 H   0  0  0  0  0  0  0  0  0  0  0  0
   -1.2028    0.3898   -4.4262 H   0  0  0  0  0  0  0  0  0  0  0  0
   -0.2548    0.0127   -2.9810 H   0  0  0  0  0  0  0  0  0  0  0  0
   -3.6510   -0.5659   -4.4572 H   0  0  0  0  0  0  0  0  0  0  0  0
   -4.9486   -2.6283   -4.1254 H   0  0  0  0  0  0  0  0  0  0  0  0
   -3.6780   -4.8431   -5.1053 H   0  0  0  0  0  0  0  0  0  0  0  0
   -5.0746   -5.8309   -6.8635 H   0  0  0  0  0  0  0  0  0  0  0  0
   -7.1939   -8.0069   -6.7949 H   0  0  0  0  0  0  0  0  0  0  0  0
   -8.5655   -6.9970   -6.3402 H   0  0  0  0  0  0  0  0  0  0  0  0
   -7.4122   -6.4365   -7.5614 H   0  0  0  0  0  0  0  0  0  0  0  0
   -8.0799   -6.7346   -3.9756 H   0  0  0  0  0  0  0  0  0  0  0  0
   -6.7021   -5.7269   -2.2209 H   0  0  0  0  0  0  0  0  0  0  0  0
   -6.7033   -4.0310    0.3941 H   0  0  0  0  0  0  0  0  0  0  0  0
   -8.8846   -4.6899   -0.5270 H   0  0  0  0  0  0  0  0  0  0  0  0
   -9.7512   -3.6081   -2.5620 H   0  0  0  0  0  0  0  0  0  0  0  0
   -9.3418   -2.2211   -4.4953 H   0  0  0  0  0  0  0  0  0  0  0  0
   -7.7938   -1.3877   -4.6909 H   0  0  0  0  0  0  0  0  0  0  0  0
   -8.5348    0.3697   -3.0819 H   0  0  0  0  0  0  0  0  0  0  0  0
  -10.0825   -0.4543   -2.8930 H   0  0  0  0  0  0  0  0  0  0  0  0
   -9.6439    0.2504   -4.4526 H   0  0  0  0  0  0  0  0  0  0  0  0
   -6.2750   -1.1490   -2.7288 H   0  0  0  0  0  0  0  0  0  0  0  0
    1.1455    9.7022   -1.4500 H   0  0  0  0  0  0  0  0  0  0  0  0
    1.0000   12.1519   -1.6461 H   0  0  0  0  0  0  0  0  0  0  0  0
    2.1779   13.5962   -0.0398 H   0  0  0  0  0  0  0  0  0  0  0  0
    3.5438   12.4835    3.1021 H   0  0  0  0  0  0  0  0  0  0  0  0
    3.3548   13.8637    2.0113 H   0  0  0  0  0  0  0  0  0  0  0  0
    5.5932   11.7804    1.9005 H   0  0  0  0  0  0  0  0  0  0  0  0
    5.7530   13.4588    2.4274 H   0  0  0  0  0  0  0  0  0  0  0  0
    5.3877   13.0876    0.7381 H   0  0  0  0  0  0  0  0  0  0  0  0
    3.5478   10.1444    2.0552 H   0  0  0  0  0  0  0  0  0  0  0  0
   -0.2750    1.5222    1.9177 H   0  0  0  0  0  0  0  0  0  0  0  0
   -1.3908    0.1749    2.1343 H   0  0  0  0  0  0  0  0  0  0  0  0
    0.9054   -0.6190    1.5136 H   0  0  0  0  0  0  0  0  0  0  0  0
    0.7368    0.1690   -0.0623 H   0  0  0  0  0  0  0  0  0  0  0  0
   -0.3482   -1.1417    0.3907 H   0  0  0  0  0  0  0  0  0  0  0  0
    1.2723    2.0769    0.8786 H   0  0  0  0  0  0  0  0  0  0  0  0
    2.3211    3.4702    0.6438 H   0  0  0  0  0  0  0  0  0  0  0  0
    1.8052    3.4931   -1.7809 H   0  0  0  0  0  0  0  0  0  0  0  0
    2.4298    1.9111   -1.3078 H   0  0  0  0  0  0  0  0  0  0  0  0
    0.6937    2.1386   -1.5827 H   0  0  0  0  0  0  0  0  0  0  0  0
    4.7216    9.7046   -0.6702 H   0  0  0  0  0  0  0  0  0  0  0  0
    7.9369    7.4995    2.4197 H   0  0  0  0  0  0  0  0  0  0  0  0
    5.6259    6.6772    2.2344 H   0  0  0  0  0  0  0  0  0  0  0  0
   10.2417    8.8152    2.2461 H   0  0  0  0  0  0  0  0  0  0  0  0
   12.1200   10.2869    1.6715 H   0  0  0  0  0  0  0  0  0  0  0  0
    9.6410   12.4789   -1.0629 H   0  0  0  0  0  0  0  0  0  0  0  0
   11.8546   13.3309   -0.3482 H   0  0  0  0  0  0  0  0  0  0  0  0
   15.7867    8.6578   -1.5094 H   0  0  0  0  0  0  0  0  0  0  0  0
   17.8796    9.3127   -2.7024 H   0  0  0  0  0  0  0  0  0  0  0  0
   18.3984   11.6515   -3.0955 H   0  0  0  0  0  0  0  0  0  0  0  0
   18.0581   13.8268   -4.0098 H   0  0  0  0  0  0  0  0  0  0  0  0
   18.9270   13.8513   -2.4442 H   0  0  0  0  0  0  0  0  0  0  0  0
   17.9691   15.2620   -2.9507 H   0  0  0  0  0  0  0  0  0  0  0  0
  1  2  2  0  0  0  0
  2  3  1  0  0  0  0
  3  4  2  0  0  0  0
  3  5  1  0  0  0  0
  5  6  2  0  0  0  0
  6  7  1  0  0  0  0
  7  8  2  0  0  0  0
  8  9  1  0  0  0  0
  9 10  1  0  0  0  0
 10 11  1  0  0  0  0
  9 12  2  0  0  0  0
 12 13  1  0  0  0  0
 13 14  2  0  0  0  0
 14 15  1  0  0  0  0
 15 16  3  0  0  0  0
 14 17  1  0  0  0  0
 17 18  3  0  0  0  0
  1 19  1  0  0  0  0
 19 20  2  0  0  0  0
 20 21  1  0  0  0  0
 21 22  1  0  0  0  0
 22 23  2  0  0  0  0
 23 24  1  0  0  0  0
 24 25  2  0  0  0  0
 25 26  1  0  0  0  0
 25 27  1  0  0  0  0
 27 28  2  0  0  0  0
 21 29  1  0  0  0  0
 29 30  2  0  0  0  0
 30 31  1  0  0  0  0
 31 32  2  0  0  0  0
 32 33  1  0  0  0  0
 32 34  1  0  0  0  0
 34 35  2  0  0  0  0
 20 36  1  0  0  0  0
 36 37  1  0  0  0  0
 37 38  1  0  0  0  0
 38 39  2  0  0  0  0
 39 40  1  0  0  0  0
 40 41  1  0  0  0  0
 41 42  2  0  0  0  0
 42 43  1  0  0  0  0
 43 44  2  0  0  0  0
 44 45  1  0  0  0  0
 44 46  1  0  0  0  0
 46 47  2  0  0  0  0
 40 48  1  0  0  0  0
 48 49  2  0  0  0  0
 49 50  1  0  0  0  0
 50 51  2  0  0  0  0
 51 52  1  0  0  0  0
 51 53  1  0  0  0  0
 53 54  2  0  0  0  0
 39 55  1  0  0  0  0
 55 56  1  0  0  0  0
 38 57  1  0  0  0  0
 57 58  2  0  0  0  0
 58 59  1  0  0  0  0
 59 60  2  0  0  0  0
 60 61  1  0  0  0  0
 61 62  2  0  0  0  0
 62 63  1  0  0  0  0
 63 64  1  0  0  0  0
 64 65  1  0  0  0  0
 63 66  2  0  0  0  0
 58 67  1  0  0  0  0
 67 68  1  0  0  0  0
 68 69  1  0  0  0  0
 69 70  1  0  0  0  0
 70 71  1  0  0  0  0
 71 72  1  0  0  0  0
 72 73  2  0  0  0  0
 73 74  1  0  0  0  0
 74 75  1  0  0  0  0
 72 76  1  0  0  0  0
 76 77  1  0  0  0  0
 77 78  1  0  0  0  0
 78 79  1  0  0  0  0
 79 80  1  0  0  0  0
 80 81  1  0  0  0  0
 81 82  2  0  0  0  0
 82 83  1  0  0  0  0
 83 84  2  0  0  0  0
 84 85  1  0  0  0  0
 85 86  1  0  0  0  0
 86 87  1  0  0  0  0
 85 88  2  0  0  0  0
 80 89  2  0  0  0  0
 89 90  1  0  0  0  0
 90 91  1  0  0  0  0
 91 92  1  0  0  0  0
 92 93  1  0  0  0  0
 93 94  1  0  0  0  0
 94 95  1  0  0  0  0
 95 96  1  0  0  0  0
 96 97  1  0  0  0  0
 97 98  1  0  0  0  0
 98 99  1  0  0  0  0
 96100  1  0  0  0  0
100101  1  0  0  0  0
 93102  1  0  0  0  0
102103  1  0  0  0  0
 89104  1  0  0  0  0
104105  2  0  0  0  0
105106  1  0  0  0  0
106107  1  0  0  0  0
107108  2  0  0  0  0
107109  1  0  0  0  0
109110  2  0  0  0  0
110111  1  0  0  0  0
111112  1  0  0  0  0
112113  2  0  0  0  0
110114  1  0  0  0  0
114115  2  0  0  0  0
115116  1  0  0  0  0
116117  2  0  0  0  0
116118  1  0  0  0  0
118119  2  0  0  0  0
119120  1  0  0  0  0
120121  2  0  0  0  0
120122  1  0  0  0  0
122123  2  0  0  0  0
123124  1  0  0  0  0
124125  2  0  0  0  0
125126  1  0  0  0  0
126127  1  0  0  0  0
127128  1  0  0  0  0
126129  2  0  0  0  0
129130  1  0  0  0  0
130131  2  0  0  0  0
131132  1  0  0  0  0
132133  3  0  0  0  0
131134  1  0  0  0  0
134135  3  0  0  0  0
 13  2  1  0  0  0  0
 56 19  1  0  0  0  0
 99 57  1  0  0  0  0
113104  1  0  0  0  0
130119  1  0  0  0  0
 12  5  1  0  0  0  0
 28 22  1  0  0  0  0
 35 29  1  0  0  0  0
 55 36  2  0  0  0  0
 66 59  1  0  0  0  0
 98 67  2  0  0  0  0
111106  2  0  0  0  0
129122  1  0  0  0  0
 47 41  1  0  0  0  0
 54 48  1  0  0  0  0
 97 69  2  0  0  0  0
117109  1  0  0  0  0
 95 70  2  0  0  0  0
 75 71  2  0  0  0  0
 94 76  2  0  0  0  0
 92 77  2  0  0  0  0
 91 79  2  0  0  0  0
 88 81  1  0  0  0  0
  1136  1  0  0  0  0
  6137  1  0  0  0  0
  7138  1  0  0  0  0
  8139  1  0  0  0  0
 11140  1  0  0  0  0
 11141  1  0  0  0  0
 11142  1  0  0  0  0
 23143  1  0  0  0  0
 24144  1  0  0  0  0
 26145  1  0  0  0  0
 26146  1  0  0  0  0
 26147  1  0  0  0  0
 27148  1  0  0  0  0
 28149  1  0  0  0  0
 30150  1  0  0  0  0
 31151  1  0  0  0  0
 33152  1  0  0  0  0
 33153  1  0  0  0  0
 33154  1  0  0  0  0
 34155  1  0  0  0  0
 35156  1  0  0  0  0
 42157  1  0  0  0  0
 43158  1  0  0  0  0
 45159  1  0  0  0  0
 45160  1  0  0  0  0
 45161  1  0  0  0  0
 46162  1  0  0  0  0
 47163  1  0  0  0  0
 49164  1  0  0  0  0
 50165  1  0  0  0  0
 52166  1  0  0  0  0
 52167  1  0  0  0  0
 52168  1  0  0  0  0
 53169  1  0  0  0  0
 54170  1  0  0  0  0
 60171  1  0  0  0  0
 61172  1  0  0  0  0
 62173  1  0  0  0  0
 64174  1  0  0  0  0
 64175  1  0  0  0  0
 65176  1  0  0  0  0
 65177  1  0  0  0  0
 65178  1  0  0  0  0
 66179  1  0  0  0  0
 82180  1  0  0  0  0
 83181  1  0  0  0  0
 84182  1  0  0  0  0
 86183  1  0  0  0  0
 86184  1  0  0  0  0
 87185  1  0  0  0  0
 87186  1  0  0  0  0
 87187  1  0  0  0  0
 88188  1  0  0  0  0
100189  1  0  0  0  0
100190  1  0  0  0  0
101191  1  0  0  0  0
101192  1  0  0  0  0
101193  1  0  0  0  0
102194  1  0  0  0  0
102195  1  0  0  0  0
103196  1  0  0  0  0
103197  1  0  0  0  0
103198  1  0  0  0  0
105199  1  0  0  0  0
112200  1  0  0  0  0
113201  1  0  0  0  0
114202  1  0  0  0  0
115203  1  0  0  0  0
117204  1  0  0  0  0
118205  1  0  0  0  0
123206  1  0  0  0  0
124207  1  0  0  0  0
125208  1  0  0  0  0
128209  1  0  0  0  0
128210  1  0  0  0  0
128211  1  0  0  0  0
M  END
