
  xtb     02042215213D
 energy: -312.027293434894 gnorm: 0.000630534592 xtb: 6.4.1 (unknown)
195212  0     0  0            999 V2000
   -0.6934  -10.3341    1.6090 C   0  0  0  0  0  0  0  0  0  0  0  0
   -1.4124  -11.3363    1.0099 C   0  0  0  0  0  0  0  0  0  0  0  0
   -2.5922  -11.1586    0.1620 C   0  0  0  0  0  0  0  0  0  0  0  0
   -3.0552  -10.1179   -0.2730 O   0  0  0  0  0  0  0  0  0  0  0  0
   -3.1445  -12.5105   -0.0528 C   0  0  0  0  0  0  0  0  0  0  0  0
   -4.2922  -12.8665   -0.7300 C   0  0  0  0  0  0  0  0  0  0  0  0
   -4.6447  -14.2083   -0.7383 C   0  0  0  0  0  0  0  0  0  0  0  0
   -3.8927  -15.1461   -0.0526 C   0  0  0  0  0  0  0  0  0  0  0  0
   -2.7346  -14.7897    0.6473 C   0  0  0  0  0  0  0  0  0  0  0  0
   -2.0101  -15.6351    1.4021 O   0  0  0  0  0  0  0  0  0  0  0  0
   -2.3029  -17.0131    1.4019 C   0  0  0  0  0  0  0  0  0  0  0  0
   -2.3297  -13.4495    0.6000 C   0  0  0  0  0  0  0  0  0  0  0  0
   -1.1710  -12.7623    1.1614 C   0  0  0  0  0  0  0  0  0  0  0  0
   -0.0067  -13.3339    1.6059 C   0  0  0  0  0  0  0  0  0  0  0  0
    0.3401  -14.7027    1.5683 C   0  0  0  0  0  0  0  0  0  0  0  0
    0.7883  -15.7599    1.5375 N   0  0  0  0  0  0  0  0  0  0  0  0
    1.1191  -12.6192    2.0730 C   0  0  0  0  0  0  0  0  0  0  0  0
    2.0889  -12.1389    2.4598 N   0  0  0  0  0  0  0  0  0  0  0  0
   -0.8398   -8.9432    1.5278 C   0  0  0  0  0  0  0  0  0  0  0  0
   -0.0431   -8.0649    2.2824 C   0  0  0  0  0  0  0  0  0  0  0  0
    1.0041   -8.5387    3.2064 C   0  0  0  0  0  0  0  0  0  0  0  0
    0.7368   -8.6263    4.5736 C   0  0  0  0  0  0  0  0  0  0  0  0
    1.7235   -9.1011    5.4242 C   0  0  0  0  0  0  0  0  0  0  0  0
    2.9652   -9.4906    4.9471 C   0  0  0  0  0  0  0  0  0  0  0  0
    4.0338   -9.9777    5.8827 C   0  0  0  0  0  0  0  0  0  0  0  0
    4.9458   -8.8241    6.3044 C   0  0  0  0  0  0  0  0  0  0  0  0
    3.2156   -9.3841    3.5878 C   0  0  0  0  0  0  0  0  0  0  0  0
    2.2525   -8.9191    2.7074 C   0  0  0  0  0  0  0  0  0  0  0  0
    2.5835   -8.7889    1.2469 C   0  0  0  0  0  0  0  0  0  0  0  0
    3.0982   -7.3830    0.9326 C   0  0  0  0  0  0  0  0  0  0  0  0
   -0.6167   -8.2763    5.1301 C   0  0  0  0  0  0  0  0  0  0  0  0
   -1.5378   -9.4980    5.1282 C   0  0  0  0  0  0  0  0  0  0  0  0
   -0.3523   -6.7328    2.0580 C   0  0  0  0  0  0  0  0  0  0  0  0
   -1.3753   -6.5540    1.1354 C   0  0  0  0  0  0  0  0  0  0  0  0
   -1.9771   -8.0634    0.5334 S   0  0  0  0  0  0  0  0  0  0  0  0
   -1.8550   -5.3042    0.6685 C   0  0  0  0  0  0  0  0  0  0  0  0
   -2.9014   -5.0316   -0.1960 C   0  0  0  0  0  0  0  0  0  0  0  0
   -3.8826   -6.0000   -0.6956 C   0  0  0  0  0  0  0  0  0  0  0  0
   -4.6522   -6.7513    0.1878 C   0  0  0  0  0  0  0  0  0  0  0  0
   -5.5981   -7.6289   -0.3031 C   0  0  0  0  0  0  0  0  0  0  0  0
   -5.7909   -7.7549   -1.6676 C   0  0  0  0  0  0  0  0  0  0  0  0
   -5.0439   -6.9996   -2.5609 C   0  0  0  0  0  0  0  0  0  0  0  0
   -5.2960   -7.0739   -4.0390 C   0  0  0  0  0  0  0  0  0  0  0  0
   -6.2671   -5.9698   -4.4631 C   0  0  0  0  0  0  0  0  0  0  0  0
   -4.0935   -6.1209   -2.0626 C   0  0  0  0  0  0  0  0  0  0  0  0
   -2.9511   -3.6667   -0.5293 C   0  0  0  0  0  0  0  0  0  0  0  0
   -4.0065   -2.7559   -1.5827 S   0  0  0  0  0  0  0  0  0  0  0  0
   -3.1250   -1.3222   -1.1778 C   0  0  0  0  0  0  0  0  0  0  0  0
   -3.0949    0.0383   -1.5194 C   0  0  0  0  0  0  0  0  0  0  0  0
   -3.8264    0.7623   -2.4855 C   0  0  0  0  0  0  0  0  0  0  0  0
   -3.4803    2.1319   -2.7316 C   0  0  0  0  0  0  0  0  0  0  0  0
   -4.2021    2.6700   -3.7021 N   0  0  0  0  0  0  0  0  0  0  0  0
   -5.2328    1.5502   -4.2549 S   0  0  0  0  0  0  0  0  0  0  0  0
   -4.7961    0.3340   -3.2784 N   0  0  0  0  0  0  0  0  0  0  0  0
   -2.4978    2.7425   -1.9224 C   0  0  0  0  0  0  0  0  0  0  0  0
   -2.0468    4.0702   -1.8706 C   0  0  0  0  0  0  0  0  0  0  0  0
   -2.2658    5.5691   -2.7118 S   0  0  0  0  0  0  0  0  0  0  0  0
   -1.1593    6.3255   -1.5897 C   0  0  0  0  0  0  0  0  0  0  0  0
   -0.6820    7.6401   -1.4724 C   0  0  0  0  0  0  0  0  0  0  0  0
   -1.0837    8.7082   -2.3974 C   0  0  0  0  0  0  0  0  0  0  0  0
   -1.8283    9.7977   -1.9539 C   0  0  0  0  0  0  0  0  0  0  0  0
   -2.2194   10.7687   -2.8550 C   0  0  0  0  0  0  0  0  0  0  0  0
   -1.8908   10.6519   -4.1950 C   0  0  0  0  0  0  0  0  0  0  0  0
   -1.1656    9.5619   -4.6563 C   0  0  0  0  0  0  0  0  0  0  0  0
   -0.8548    9.3891   -6.1141 C   0  0  0  0  0  0  0  0  0  0  0  0
   -1.6362    8.2152   -6.7063 C   0  0  0  0  0  0  0  0  0  0  0  0
   -0.7622    8.5973   -3.7433 C   0  0  0  0  0  0  0  0  0  0  0  0
    0.1919    7.7726   -0.4044 C   0  0  0  0  0  0  0  0  0  0  0  0
    0.4042    6.2580    0.4721 S   0  0  0  0  0  0  0  0  0  0  0  0
   -0.6662    5.4518   -0.6176 C   0  0  0  0  0  0  0  0  0  0  0  0
   -1.1655    4.1559   -0.7900 C   0  0  0  0  0  0  0  0  0  0  0  0
   -1.0246    2.9308   -0.1970 N   0  0  0  0  0  0  0  0  0  0  0  0
   -1.8277    2.0335   -0.8836 C   0  0  0  0  0  0  0  0  0  0  0  0
   -2.0495    0.6359   -0.7591 C   0  0  0  0  0  0  0  0  0  0  0  0
   -1.4438   -0.3562   -0.0028 N   0  0  0  0  0  0  0  0  0  0  0  0
   -2.0864   -1.5358   -0.2679 C   0  0  0  0  0  0  0  0  0  0  0  0
   -1.9784   -2.8833    0.0967 C   0  0  0  0  0  0  0  0  0  0  0  0
   -0.9606   -3.8468    1.1071 S   0  0  0  0  0  0  0  0  0  0  0  0
   -0.1444   -0.3829    0.6297 C   0  0  0  0  0  0  0  0  0  0  0  0
    0.9704   -0.0702   -0.3654 C   0  0  0  0  0  0  0  0  0  0  0  0
   -0.4295    2.8434    1.1175 C   0  0  0  0  0  0  0  0  0  0  0  0
   -1.4728    2.5333    2.1878 C   0  0  0  0  0  0  0  0  0  0  0  0
    0.9605    8.9090   -0.0425 C   0  0  0  0  0  0  0  0  0  0  0  0
    1.8340    9.0453    1.0330 C   0  0  0  0  0  0  0  0  0  0  0  0
    2.0415    7.9986    2.0526 C   0  0  0  0  0  0  0  0  0  0  0  0
    3.0295    7.0294    1.8557 C   0  0  0  0  0  0  0  0  0  0  0  0
    3.1929    6.0367    2.8097 C   0  0  0  0  0  0  0  0  0  0  0  0
    2.4007    5.9854    3.9464 C   0  0  0  0  0  0  0  0  0  0  0  0
    2.6098    4.9171    4.9818 C   0  0  0  0  0  0  0  0  0  0  0  0
    3.6011    5.3909    6.0461 C   0  0  0  0  0  0  0  0  0  0  0  0
    1.4438    6.9712    4.1345 C   0  0  0  0  0  0  0  0  0  0  0  0
    1.2540    7.9826    3.2057 C   0  0  0  0  0  0  0  0  0  0  0  0
    0.1888    9.0181    3.4439 C   0  0  0  0  0  0  0  0  0  0  0  0
   -1.1743    8.5444    2.9365 C   0  0  0  0  0  0  0  0  0  0  0  0
    3.9247    7.0599    0.6491 C   0  0  0  0  0  0  0  0  0  0  0  0
    5.2166    7.8213    0.9492 C   0  0  0  0  0  0  0  0  0  0  0  0
    2.4930   10.2742    1.0369 C   0  0  0  0  0  0  0  0  0  0  0  0
    2.1869   11.0827   -0.0425 C   0  0  0  0  0  0  0  0  0  0  0  0
    0.9702   10.3292   -1.0419 S   0  0  0  0  0  0  0  0  0  0  0  0
    2.7086   12.3679   -0.3035 C   0  0  0  0  0  0  0  0  0  0  0  0
    2.6438   13.0928   -1.4539 C   0  0  0  0  0  0  0  0  0  0  0  0
    2.8339   14.5624   -1.4137 C   0  0  0  0  0  0  0  0  0  0  0  0
    3.3183   15.2143   -0.5157 O   0  0  0  0  0  0  0  0  0  0  0  0
    2.2383   15.0573   -2.6747 C   0  0  0  0  0  0  0  0  0  0  0  0
    2.0446   16.3620   -3.0814 C   0  0  0  0  0  0  0  0  0  0  0  0
    1.4199   16.5724   -4.3021 C   0  0  0  0  0  0  0  0  0  0  0  0
    0.9838   15.5102   -5.0760 C   0  0  0  0  0  0  0  0  0  0  0  0
    1.1755   14.1847   -4.6736 C   0  0  0  0  0  0  0  0  0  0  0  0
    0.7318   13.1052   -5.3444 O   0  0  0  0  0  0  0  0  0  0  0  0
    0.1968   13.2594   -6.6383 C   0  0  0  0  0  0  0  0  0  0  0  0
    1.8403   13.9631   -3.4623 C   0  0  0  0  0  0  0  0  0  0  0  0
    2.2662   12.7314   -2.8094 C   0  0  0  0  0  0  0  0  0  0  0  0
    2.5778   11.5403   -3.4108 C   0  0  0  0  0  0  0  0  0  0  0  0
    2.3558   11.1695   -4.7517 C   0  0  0  0  0  0  0  0  0  0  0  0
    2.2560   10.7391   -5.8121 N   0  0  0  0  0  0  0  0  0  0  0  0
    3.3145   10.5352   -2.7432 C   0  0  0  0  0  0  0  0  0  0  0  0
    3.9640    9.7186   -2.2637 N   0  0  0  0  0  0  0  0  0  0  0  0
    0.1044  -10.6339    2.2796 H   0  0  0  0  0  0  0  0  0  0  0  0
   -4.8838  -12.1156   -1.2286 H   0  0  0  0  0  0  0  0  0  0  0  0
   -5.5284  -14.5313   -1.2679 H   0  0  0  0  0  0  0  0  0  0  0  0
   -4.2181  -16.1744   -0.0525 H   0  0  0  0  0  0  0  0  0  0  0  0
   -3.2747  -17.2152    1.8632 H   0  0  0  0  0  0  0  0  0  0  0  0
   -1.5113  -17.4689    1.9940 H   0  0  0  0  0  0  0  0  0  0  0  0
   -2.2788  -17.4262    0.3898 H   0  0  0  0  0  0  0  0  0  0  0  0
    1.5115   -9.1766    6.4821 H   0  0  0  0  0  0  0  0  0  0  0  0
    3.5764  -10.4188    6.7706 H   0  0  0  0  0  0  0  0  0  0  0  0
    4.6293  -10.7467    5.3875 H   0  0  0  0  0  0  0  0  0  0  0  0
    4.3697   -8.0515    6.8095 H   0  0  0  0  0  0  0  0  0  0  0  0
    5.7207   -9.1777    6.9809 H   0  0  0  0  0  0  0  0  0  0  0  0
    5.4216   -8.3799    5.4329 H   0  0  0  0  0  0  0  0  0  0  0  0
    4.1761   -9.6892    3.1995 H   0  0  0  0  0  0  0  0  0  0  0  0
    1.7036   -8.9934    0.6345 H   0  0  0  0  0  0  0  0  0  0  0  0
    3.3497   -9.5216    0.9894 H   0  0  0  0  0  0  0  0  0  0  0  0
    2.3307   -6.6415    1.1434 H   0  0  0  0  0  0  0  0  0  0  0  0
    3.3742   -7.3056   -0.1166 H   0  0  0  0  0  0  0  0  0  0  0  0
    3.9718   -7.1559    1.5397 H   0  0  0  0  0  0  0  0  0  0  0  0
   -1.0757   -7.4795    4.5421 H   0  0  0  0  0  0  0  0  0  0  0  0
   -0.5028   -7.9192    6.1560 H   0  0  0  0  0  0  0  0  0  0  0  0
   -1.0818  -10.3152    5.6828 H   0  0  0  0  0  0  0  0  0  0  0  0
   -2.4926   -9.2544    5.5892 H   0  0  0  0  0  0  0  0  0  0  0  0
   -1.7226   -9.8367    4.1110 H   0  0  0  0  0  0  0  0  0  0  0  0
    0.1475   -5.9126    2.5461 H   0  0  0  0  0  0  0  0  0  0  0  0
   -4.5098   -6.6382    1.2527 H   0  0  0  0  0  0  0  0  0  0  0  0
   -6.1906   -8.2163    0.3825 H   0  0  0  0  0  0  0  0  0  0  0  0
   -6.5323   -8.4452   -2.0439 H   0  0  0  0  0  0  0  0  0  0  0  0
   -4.3561   -6.9541   -4.5815 H   0  0  0  0  0  0  0  0  0  0  0  0
   -5.7179   -8.0472   -4.2964 H   0  0  0  0  0  0  0  0  0  0  0  0
   -5.8597   -4.9920   -4.2159 H   0  0  0  0  0  0  0  0  0  0  0  0
   -6.4478   -6.0115   -5.5347 H   0  0  0  0  0  0  0  0  0  0  0  0
   -7.2171   -6.0834   -3.9455 H   0  0  0  0  0  0  0  0  0  0  0  0
   -3.4984   -5.5315   -2.7458 H   0  0  0  0  0  0  0  0  0  0  0  0
   -2.0980    9.8751   -0.9105 H   0  0  0  0  0  0  0  0  0  0  0  0
   -2.7925   11.6179   -2.5122 H   0  0  0  0  0  0  0  0  0  0  0  0
   -2.2079   11.4142   -4.8919 H   0  0  0  0  0  0  0  0  0  0  0  0
   -1.1183   10.3007   -6.6533 H   0  0  0  0  0  0  0  0  0  0  0  0
    0.2169    9.2197   -6.2397 H   0  0  0  0  0  0  0  0  0  0  0  0
   -1.4048    8.1025   -7.7628 H   0  0  0  0  0  0  0  0  0  0  0  0
   -1.3870    7.2881   -6.1969 H   0  0  0  0  0  0  0  0  0  0  0  0
   -2.7064    8.3822   -6.6008 H   0  0  0  0  0  0  0  0  0  0  0  0
   -0.1810    7.7507   -4.0787 H   0  0  0  0  0  0  0  0  0  0  0  0
   -0.0086   -1.3967    1.0146 H   0  0  0  0  0  0  0  0  0  0  0  0
   -0.1194    0.2905    1.4868 H   0  0  0  0  0  0  0  0  0  0  0  0
    1.9331   -0.0872    0.1384 H   0  0  0  0  0  0  0  0  0  0  0  0
    0.9805   -0.8166   -1.1562 H   0  0  0  0  0  0  0  0  0  0  0  0
    0.8282    0.9060   -0.8227 H   0  0  0  0  0  0  0  0  0  0  0  0
    0.3827    2.1160    1.1258 H   0  0  0  0  0  0  0  0  0  0  0  0
    0.0154    3.8206    1.3226 H   0  0  0  0  0  0  0  0  0  0  0  0
   -0.9945    2.4642    3.1611 H   0  0  0  0  0  0  0  0  0  0  0  0
   -2.2150    3.3275    2.2220 H   0  0  0  0  0  0  0  0  0  0  0  0
   -1.9869    1.5981    1.9788 H   0  0  0  0  0  0  0  0  0  0  0  0
    3.9518    5.2820    2.6562 H   0  0  0  0  0  0  0  0  0  0  0  0
    1.6585    4.6738    5.4601 H   0  0  0  0  0  0  0  0  0  0  0  0
    2.9960    4.0122    4.5079 H   0  0  0  0  0  0  0  0  0  0  0  0
    4.5595    5.6280    5.5898 H   0  0  0  0  0  0  0  0  0  0  0  0
    3.7543    4.6188    6.7966 H   0  0  0  0  0  0  0  0  0  0  0  0
    3.2272    6.2857    6.5385 H   0  0  0  0  0  0  0  0  0  0  0  0
    0.8292    6.9527    5.0240 H   0  0  0  0  0  0  0  0  0  0  0  0
    0.4530    9.9525    2.9451 H   0  0  0  0  0  0  0  0  0  0  0  0
    0.1171    9.2147    4.5160 H   0  0  0  0  0  0  0  0  0  0  0  0
   -1.4394    7.5939    3.3940 H   0  0  0  0  0  0  0  0  0  0  0  0
   -1.9425    9.2748    3.1800 H   0  0  0  0  0  0  0  0  0  0  0  0
   -1.1572    8.4110    1.8578 H   0  0  0  0  0  0  0  0  0  0  0  0
    3.4228    7.5401   -0.1920 H   0  0  0  0  0  0  0  0  0  0  0  0
    4.1721    6.0365    0.3585 H   0  0  0  0  0  0  0  0  0  0  0  0
    5.7481    7.3612    1.7799 H   0  0  0  0  0  0  0  0  0  0  0  0
    5.8606    7.8213    0.0741 H   0  0  0  0  0  0  0  0  0  0  0  0
    4.9957    8.8534    1.2086 H   0  0  0  0  0  0  0  0  0  0  0  0
    3.2037   10.5593    1.7928 H   0  0  0  0  0  0  0  0  0  0  0  0
    3.1581   12.8763    0.5440 H   0  0  0  0  0  0  0  0  0  0  0  0
    2.3756   17.1804   -2.4626 H   0  0  0  0  0  0  0  0  0  0  0  0
    1.2573   17.5790   -4.6568 H   0  0  0  0  0  0  0  0  0  0  0  0
    0.4794   15.7181   -6.0067 H   0  0  0  0  0  0  0  0  0  0  0  0
   -0.7764   13.7599   -6.6114 H   0  0  0  0  0  0  0  0  0  0  0  0
    0.0835   12.2463   -7.0190 H   0  0  0  0  0  0  0  0  0  0  0  0
    0.8787   13.8124   -7.2898 H   0  0  0  0  0  0  0  0  0  0  0  0
  1  2  2  0  0  0  0
  2  3  1  0  0  0  0
  3  4  2  0  0  0  0
  3  5  1  0  0  0  0
  5  6  2  0  0  0  0
  6  7  1  0  0  0  0
  7  8  2  0  0  0  0
  8  9  1  0  0  0  0
  9 10  1  0  0  0  0
 10 11  1  0  0  0  0
  9 12  2  0  0  0  0
 12 13  1  0  0  0  0
 13 14  2  0  0  0  0
 14 15  1  0  0  0  0
 15 16  3  0  0  0  0
 14 17  1  0  0  0  0
 17 18  3  0  0  0  0
  1 19  1  0  0  0  0
 19 20  2  0  0  0  0
 20 21  1  0  0  0  0
 21 22  2  0  0  0  0
 22 23  1  0  0  0  0
 23 24  2  0  0  0  0
 24 25  1  0  0  0  0
 25 26  1  0  0  0  0
 24 27  1  0  0  0  0
 27 28  2  0  0  0  0
 28 29  1  0  0  0  0
 29 30  1  0  0  0  0
 22 31  1  0  0  0  0
 31 32  1  0  0  0  0
 20 33  1  0  0  0  0
 33 34  2  0  0  0  0
 34 35  1  0  0  0  0
 34 36  1  0  0  0  0
 36 37  2  0  0  0  0
 37 38  1  0  0  0  0
 38 39  2  0  0  0  0
 39 40  1  0  0  0  0
 40 41  2  0  0  0  0
 41 42  1  0  0  0  0
 42 43  1  0  0  0  0
 43 44  1  0  0  0  0
 42 45  2  0  0  0  0
 37 46  1  0  0  0  0
 46 47  1  0  0  0  0
 47 48  1  0  0  0  0
 48 49  1  0  0  0  0
 49 50  1  0  0  0  0
 50 51  1  0  0  0  0
 51 52  2  0  0  0  0
 52 53  1  0  0  0  0
 53 54  1  0  0  0  0
 51 55  1  0  0  0  0
 55 56  1  0  0  0  0
 56 57  1  0  0  0  0
 57 58  1  0  0  0  0
 58 59  1  0  0  0  0
 59 60  1  0  0  0  0
 60 61  2  0  0  0  0
 61 62  1  0  0  0  0
 62 63  2  0  0  0  0
 63 64  1  0  0  0  0
 64 65  1  0  0  0  0
 65 66  1  0  0  0  0
 64 67  2  0  0  0  0
 59 68  2  0  0  0  0
 68 69  1  0  0  0  0
 69 70  1  0  0  0  0
 70 71  1  0  0  0  0
 71 72  1  0  0  0  0
 72 73  1  0  0  0  0
 73 74  1  0  0  0  0
 74 75  1  0  0  0  0
 75 76  1  0  0  0  0
 76 77  1  0  0  0  0
 77 78  1  0  0  0  0
 75 79  1  0  0  0  0
 79 80  1  0  0  0  0
 72 81  1  0  0  0  0
 81 82  1  0  0  0  0
 68 83  1  0  0  0  0
 83 84  2  0  0  0  0
 84 85  1  0  0  0  0
 85 86  2  0  0  0  0
 86 87  1  0  0  0  0
 87 88  2  0  0  0  0
 88 89  1  0  0  0  0
 89 90  1  0  0  0  0
 88 91  1  0  0  0  0
 91 92  2  0  0  0  0
 92 93  1  0  0  0  0
 93 94  1  0  0  0  0
 86 95  1  0  0  0  0
 95 96  1  0  0  0  0
 84 97  1  0  0  0  0
 97 98  2  0  0  0  0
 98 99  1  0  0  0  0
 98100  1  0  0  0  0
100101  2  0  0  0  0
101102  1  0  0  0  0
102103  2  0  0  0  0
102104  1  0  0  0  0
104105  2  0  0  0  0
105106  1  0  0  0  0
106107  2  0  0  0  0
107108  1  0  0  0  0
108109  1  0  0  0  0
109110  1  0  0  0  0
108111  2  0  0  0  0
111112  1  0  0  0  0
112113  2  0  0  0  0
113114  1  0  0  0  0
114115  3  0  0  0  0
113116  1  0  0  0  0
116117  3  0  0  0  0
 13  2  1  0  0  0  0
 35 19  1  0  0  0  0
 78 36  1  0  0  0  0
 99 83  1  0  0  0  0
112101  1  0  0  0  0
 12  5  1  0  0  0  0
 28 21  1  0  0  0  0
 45 38  1  0  0  0  0
 77 46  2  0  0  0  0
 92 85  1  0  0  0  0
111104  1  0  0  0  0
 76 48  2  0  0  0  0
 74 49  2  0  0  0  0
 54 50  2  0  0  0  0
 73 55  2  0  0  0  0
 71 56  2  0  0  0  0
 70 58  2  0  0  0  0
 67 60  1  0  0  0  0
  1118  1  0  0  0  0
  6119  1  0  0  0  0
  7120  1  0  0  0  0
  8121  1  0  0  0  0
 11122  1  0  0  0  0
 11123  1  0  0  0  0
 11124  1  0  0  0  0
 23125  1  0  0  0  0
 25126  1  0  0  0  0
 25127  1  0  0  0  0
 26128  1  0  0  0  0
 26129  1  0  0  0  0
 26130  1  0  0  0  0
 27131  1  0  0  0  0
 29132  1  0  0  0  0
 29133  1  0  0  0  0
 30134  1  0  0  0  0
 30135  1  0  0  0  0
 30136  1  0  0  0  0
 31137  1  0  0  0  0
 31138  1  0  0  0  0
 32139  1  0  0  0  0
 32140  1  0  0  0  0
 32141  1  0  0  0  0
 33142  1  0  0  0  0
 39143  1  0  0  0  0
 40144  1  0  0  0  0
 41145  1  0  0  0  0
 43146  1  0  0  0  0
 43147  1  0  0  0  0
 44148  1  0  0  0  0
 44149  1  0  0  0  0
 44150  1  0  0  0  0
 45151  1  0  0  0  0
 61152  1  0  0  0  0
 62153  1  0  0  0  0
 63154  1  0  0  0  0
 65155  1  0  0  0  0
 65156  1  0  0  0  0
 66157  1  0  0  0  0
 66158  1  0  0  0  0
 66159  1  0  0  0  0
 67160  1  0  0  0  0
 79161  1  0  0  0  0
 79162  1  0  0  0  0
 80163  1  0  0  0  0
 80164  1  0  0  0  0
 80165  1  0  0  0  0
 81166  1  0  0  0  0
 81167  1  0  0  0  0
 82168  1  0  0  0  0
 82169  1  0  0  0  0
 82170  1  0  0  0  0
 87171  1  0  0  0  0
 89172  1  0  0  0  0
 89173  1  0  0  0  0
 90174  1  0  0  0  0
 90175  1  0  0  0  0
 90176  1  0  0  0  0
 91177  1  0  0  0  0
 93178  1  0  0  0  0
 93179  1  0  0  0  0
 94180  1  0  0  0  0
 94181  1  0  0  0  0
 94182  1  0  0  0  0
 95183  1  0  0  0  0
 95184  1  0  0  0  0
 96185  1  0  0  0  0
 96186  1  0  0  0  0
 96187  1  0  0  0  0
 97188  1  0  0  0  0
100189  1  0  0  0  0
105190  1  0  0  0  0
106191  1  0  0  0  0
107192  1  0  0  0  0
110193  1  0  0  0  0
110194  1  0  0  0  0
110195  1  0  0  0  0
M  END
