191

C         -1.75520        6.37830       -0.68280
C         -0.47550        6.21260       -1.16520
C         -0.13850        5.74030       -2.50780
O         -0.90530        5.39480       -3.39230
C          1.33300        5.79420       -2.60770
C          2.12940        5.51390       -3.69790
C          3.49930        5.68290       -3.55390
C          4.03750        6.15910       -2.37190
C          3.23350        6.46210       -1.26680
O          3.69070        7.00640       -0.12340
C          5.07630        7.17980        0.07120
C          1.85710        6.22510       -1.37890
C          0.75920        6.40610       -0.43330
C          0.88120        6.52270        0.93170
C          2.05660        6.24710        1.65800
N          2.91920        5.91540        2.34130
C         -0.18270        6.77870        1.81940
N         -0.98390        7.01400        2.60940
C         -2.95590        5.87410       -1.19140
C         -4.17520        5.95750       -0.49030
C         -4.33850        6.80810        0.69890
C         -4.43770        6.22080        1.96440
C         -4.52950        7.04030        3.07780
C         -4.54060        8.42180        2.96780
C         -4.67220        9.28340        4.18970
C         -6.14520        9.47060        4.55860
C         -4.47230        8.98450        1.70280
C         -4.35990        8.20030        0.56590
C         -4.33060        8.85650       -0.78830
C         -5.69770        8.76690       -1.46860
C         -4.37610        4.72990        2.15830
C         -2.92940        4.23270        2.15520
C         -5.14850        5.09600       -0.97770
C         -4.71360        4.32690       -2.05000
S         -3.10390        4.77670       -2.53950
C         -5.25470        3.13630       -2.60430
C         -6.27580        2.31090       -2.13360
C         -7.34580        2.73970       -1.23490
C         -7.70780        1.96580       -0.13630
C         -8.72460        2.38900        0.69910
C         -9.38440        3.57920        0.45150
C         -9.04310        4.36210       -0.64580
C         -9.71590        5.68430       -0.87800
C         -9.04210        6.77400       -0.04060
C         -8.02820        3.92920       -1.48430
C         -6.11130        0.98710       -2.59270
S         -6.80950       -0.55440       -2.11370
C         -5.52180       -1.38640       -2.93410
C         -4.88170       -2.64210       -2.93690
C         -5.21620       -3.88930       -2.36180
C         -4.22050       -4.92820       -2.30360
N         -4.67610       -6.03010       -1.73220
S         -6.22050       -5.79150       -1.30620
N         -6.36530       -4.26410       -1.82470
C         -2.90070       -4.63560       -2.72080
C         -1.66790       -5.23120       -2.39280
S         -1.03350       -6.53010       -1.42340
C          0.55770       -5.79380       -1.50200
C          1.74260       -5.99660       -0.76080
C          1.86610       -7.06970        0.23230
C          1.76800       -8.39800       -0.16320
C          1.80480       -9.39980        0.78730
C          1.89710       -9.08280        2.13020
C          1.97380       -7.75840        2.54240
C          1.97130       -7.41150        4.00430
C          0.53290       -7.30170        4.51490
C          1.97720       -6.75900        1.58150
C          2.65710       -4.98850       -0.99500
S          2.08780       -3.82640       -2.18850
C          0.58440       -4.65620       -2.30930
C         -0.67600       -4.34990       -2.83030
N         -1.23110       -3.28770       -3.48160
C         -2.60320       -3.40870       -3.38130
C         -3.63310       -2.46010       -3.59800
N         -3.57890       -1.16960       -4.10130
C         -4.68830       -0.51550       -3.63880
C         -5.02360        0.82560       -3.45320
S         -4.21410        2.31270       -3.76510
C         -2.88120       -0.64340       -5.25830
C         -2.87180       -1.64280       -6.41040
C         -0.39700       -2.16940       -3.85190
C         -0.44240       -1.05480       -2.80940
C          3.90260       -4.64230       -0.39300
C          4.98000       -5.41920        0.03340
C          5.03000       -6.88980       -0.06020
C          5.13320       -7.65430        1.10680
C          5.12060       -9.03700        1.01520
C          5.04080       -9.68370       -0.20660
C          5.06830      -11.18290       -0.28580
C          6.50910      -11.68910       -0.37580
C          4.99930       -8.91180       -1.35560
C          4.98250       -7.52580       -1.30600
C          4.99070       -6.76430       -2.60730
C          3.78390       -7.07950       -3.49110
C          5.28490       -7.03940        2.47120
C          6.72400       -7.17100        2.97490
C          6.01150       -4.61770        0.51210
C          5.75530       -3.24490        0.49440
S          4.16950       -2.94410       -0.16140
C          6.67190       -2.28170        0.93660
C          6.53530       -0.91700        1.04110
C          5.30910       -0.15540        0.77570
O          4.26100       -0.56630        0.30740
C          5.58700        1.23090        1.18960
C          4.73530        2.31920        1.21380
C          5.22350        3.53850        1.65810
C          6.55400        3.63920        2.04840
Cl         7.15760        5.16550        2.57290
C          7.42150        2.54930        2.03610
C          6.92470        1.32950        1.60990
C          7.54910        0.00750        1.50690
C          8.86490       -0.26540        1.77850
C          9.48450       -1.52710        1.66210
N         10.06700       -2.51470        1.58710
C          9.80370        0.69990        2.19940
N         10.61990        1.43020        2.54410
H         -1.87170        6.90330        0.25880
H          1.68950        5.17760       -4.62300
H          4.16020        5.46050       -4.37800
H          5.10350        6.31030       -2.31050
H          5.17870        7.52270        1.09930
H          5.48340        7.93300       -0.61030
H          5.61930        6.23840       -0.04910
H         -4.58070        6.58780        4.05770
H         -4.21960       10.25930        4.00510
H         -4.14750        8.81640        5.02500
H         -6.68230        9.94810        3.74180
H         -6.61100        8.50770        4.75610
H         -6.23990       10.09130        5.44660
H         -4.49190       10.06060        1.59890
H         -4.05790        9.90710       -0.67140
H         -3.58240        8.38600       -1.42860
H         -5.68210        9.29140       -2.42120
H         -5.96290        7.72800       -1.65200
H         -6.46380        9.21320       -0.83810
H         -4.83260        4.48090        3.11820
H         -4.93540        4.21260        1.37690
H         -2.33720        4.79600        2.87240
H         -2.48120        4.35910        1.17210
H         -2.89190        3.17770        2.41690
H         -6.12530        5.00910       -0.53740
H         -7.18150        1.04730        0.07170
H         -9.00000        1.78750        1.55250
H        -10.17500        3.90530        1.11160
H        -10.76960        5.61770       -0.60000
H         -9.65660        5.95220       -1.93450
H         -7.99370        6.87280       -0.31320
H         -9.53140        7.73210       -0.19990
H         -9.09540        6.52830        1.01760
H         -7.76310        4.51540       -2.35340
H          1.67380       -8.64060       -1.21080
H          1.74500      -10.43290        0.47930
H          1.90190       -9.87060        2.87000
H          2.49340       -8.18370        4.57370
H          2.48210       -6.45990        4.16430
H          0.52280       -7.04980        5.57290
H          0.00900       -8.24460        4.37620
H         -0.00370       -6.53000        3.96790
H          2.03680       -5.72230        1.88260
H         -1.87190       -0.31840       -4.99860
H         -3.42890        0.25220       -5.56350
H         -2.35120       -1.21570       -7.26340
H         -3.89100       -1.87860       -6.70830
H         -2.38010       -2.57070       -6.12770
H         -0.67170       -1.81130       -4.84230
H          0.62470       -2.55250       -3.91950
H         -1.45890       -0.70340       -2.65140
H         -0.05430       -1.42010       -1.86170
H          0.17370       -0.22000       -3.13160
H          5.17280       -9.62190        1.92260
H          4.59270      -11.60620        0.60120
H          4.51360      -11.51760       -1.16470
H          6.99680      -11.28560       -1.26040
H          7.07490      -11.37470        0.49820
H          6.53010      -12.77510       -0.43190
H          4.98340       -9.40370       -2.31760
H          5.90080       -7.03260       -3.15290
H          5.02970       -5.69090       -2.42030
H          3.80750       -6.46390       -4.38770
H          3.78360       -8.12310       -3.79410
H          2.85690       -6.88120       -2.96000
H          4.62580       -7.56060        3.16720
H          4.99610       -5.98810        2.45640
H          7.42150       -6.68680        2.29610
H          7.00450       -8.21880        3.05100
H          6.82430       -6.71360        3.95660
H          6.95470       -5.00900        0.85060
H          7.61450       -2.70650        1.26050
H          3.70880        2.21220        0.89920
H          4.57610        4.40090        1.72240
H          8.44080        2.67460        2.36170
