163

C        -10.29870        6.60530        2.03020
C        -11.15950        5.72160        1.48510
C        -10.76130        4.36340        1.00080
O         -9.64300        3.92020        0.88270
C        -12.02800        3.63070        0.82870
C        -12.19900        2.31360        0.45180
C        -13.49370        1.81780        0.40650
C        -14.57290        2.60510        0.77060
C        -14.40900        3.93590        1.16950
O        -15.39740        4.73070        1.60830
C        -16.73540        4.28690        1.57230
C        -13.11060        4.46750        1.15310
C        -12.61810        5.80270        1.44740
C        -13.32210        6.97280        1.50760
C        -14.70560        7.15980        1.28690
N        -15.79140        7.46920        1.08070
C        -12.71170        8.23380        1.70430
N        -12.28590        9.28940        1.85180
C         -8.85630        6.49250        1.92070
C         -8.21900        6.22660        0.70370
F         -8.94120        6.16270       -0.41880
C         -6.84430        6.10870        0.62490
F         -6.28140        5.88570       -0.57250
C         -6.01890        6.24830        1.74990
C         -6.66110        6.52780        2.96480
F         -5.94320        6.61200        4.09320
C         -8.03440        6.66850        3.03770
F         -8.60820        6.91600        4.22390
C         -4.58750        6.06730        1.66470
C         -3.58910        6.78300        2.29900
C         -3.79510        8.02050        3.04930
C         -4.68730        8.98800        2.59220
C         -4.86270       10.15560        3.30890
C         -4.15490       10.37000        4.47880
C         -3.25280        9.42090        4.94260
C         -2.51490        9.62520        6.23370
C         -3.31650        9.03960        7.39800
C         -3.08020        8.25120        4.21930
C         -2.32480        6.20940        2.05250
S         -0.70920        6.62900        2.56960
C         -0.09750        5.26810        1.69310
C          1.11260        4.57800        1.51130
C          2.38240        4.73180        2.11160
C          3.36760        3.69860        1.93590
N          4.47140        3.93220        2.62790
S          4.29520        5.33230        3.42160
N          2.79800        5.69320        2.92050
C          3.08690        2.62400        1.06360
C          3.83540        1.49940        0.66910
S          5.33570        0.71640        1.03640
C          4.94030       -0.54990       -0.10450
C          5.59800       -1.73550       -0.50870
C          6.94750       -2.10960       -0.09380
C          7.81780       -2.72160       -0.99450
C          9.10750       -3.03400       -0.60860
C          9.55020       -2.72320        0.66560
C          8.70470       -2.09400        1.57160
C          9.18720       -1.75240        2.95290
C          9.01400       -2.93480        3.90750
C          7.40580       -1.80290        1.18480
C          4.84260       -2.42500       -1.43350
S          3.36060       -1.60330       -1.86260
C          3.71720       -0.34230       -0.74130
C          3.08580        0.82660       -0.29660
N          1.90100        1.48070       -0.51900
C          1.86530        2.56670        0.34010
C          0.82370        3.46690        0.67250
N         -0.52820        3.46420        0.38930
C         -1.08530        4.54940        1.01310
C         -2.36240        5.08400        1.22510
S         -3.97340        4.71610        0.73280
C         -1.36810        2.39520       -0.10420
C         -2.03160        2.74640       -1.43580
C          1.24980        1.35220       -1.80520
C          2.19040        1.74130       -2.94590
C          5.04430       -3.73860       -2.01180
C          5.30220       -4.85310       -1.21700
O          5.41540       -4.65590        0.12270
C          6.47130       -5.32320        0.82240
C          6.22610       -5.11360        2.30560
C          5.31410       -6.14990       -1.79520
O          5.25900       -7.26860       -1.01300
C          4.09500       -7.38160       -0.19490
C          2.83030       -7.55660       -1.02700
C          5.28790       -6.31570       -3.18040
C          5.04740       -5.18430       -4.00340
C          4.87090       -3.90640       -3.41190
N          4.59560       -2.83340       -4.17510
C          4.49100       -3.01670       -5.46600
C          4.67480       -4.28090       -6.05140
N          4.95510       -5.34050       -5.33620
C          5.35170       -7.62250       -3.77010
C          6.16500       -8.61370       -3.33130
C          7.38960       -8.40170       -2.51360
O          7.74480       -7.40480       -1.92690
C          8.16910       -9.65040       -2.66940
C          9.42500       -9.93620       -2.17290
C          9.97880      -11.16980       -2.48330
C          9.30950      -12.07170       -3.29310
C          8.04160      -11.78790       -3.81040
O          7.35950      -12.58160       -4.65370
C          7.85190      -13.86180       -4.97650
C          7.45270      -10.56560       -3.45900
C          6.15110      -10.00100       -3.77240
C          5.01820      -10.64190       -4.19570
C          3.76470       -9.99030       -4.24840
N          2.70980       -9.53640       -4.25350
C          4.85790      -12.01070       -4.50040
N          4.57430      -13.09770       -4.73820
H        -10.65930        7.43350        2.62630
H        -11.34530        1.70540        0.20030
H        -13.66960        0.79800        0.09960
H        -15.56110        2.17360        0.75250
H        -16.89650        3.45140        2.25990
H        -17.32470        5.14520        1.88940
H        -17.03240        3.99920        0.56040
H         -5.22490        8.83180        1.66780
H         -5.55420       10.90440        2.95130
H         -4.30030       11.28490        5.03470
H         -2.35420       10.69130        6.40540
H         -1.54090        9.13480        6.18300
H         -4.28330        9.53160        7.47710
H         -3.48780        7.97720        7.24120
H         -2.78020        9.17260        8.33470
H         -2.39480        7.49870        4.58000
H          7.48760       -2.93670       -1.99990
H          9.77370       -3.51430       -1.31020
H         10.56440       -2.95770        0.95550
H         10.24390       -1.48000        2.91060
H          8.62950       -0.89570        3.33540
H          9.53900       -3.80880        3.52820
H          9.41190       -2.68960        4.88950
H          7.96170       -3.18600        4.01430
H          6.73860       -1.32870        1.88950
H         -0.77450        1.48360       -0.17610
H         -2.15530        2.22120        0.63860
H         -1.30380        3.06670       -2.17800
H         -2.74530        3.55410       -1.30000
H         -2.56390        1.88020       -1.81820
H          0.38870        2.01070       -1.83300
H          0.92620        0.31400       -1.93150
H          3.03830        1.06510       -3.00250
H          1.65250        1.69770       -3.88910
H          2.55920        2.75460       -2.79940
H          7.42420       -4.87180        0.52370
H          6.50700       -6.38690        0.57610
H          5.30080       -5.59480        2.61340
H          6.15040       -4.04960        2.51220
H          7.05060       -5.53310        2.87410
H          4.28320       -8.26990        0.41270
H          3.99000       -6.51200        0.46310
H          2.61980       -6.65310       -1.59600
H          2.93950       -8.38340       -1.72510
H          1.98950       -7.75890       -0.36970
H          4.26490       -2.14260       -6.06130
H          4.59660       -4.42640       -7.12020
H          4.72640       -7.77310       -4.64060
H          9.94510       -9.21590       -1.56210
H         10.95360      -11.43360       -2.10170
H          9.78550      -13.00940       -3.53320
H          7.07030      -14.31940       -5.58020
H          8.01450      -14.46480       -4.07910
H          8.77850      -13.79880       -5.55500
