
  xtb     02042212083D
 energy: -284.254486444114 gnorm: 0.000687758995 xtb: 6.4.1 (unknown)
161180  0     0  0            999 V2000
   -7.1900    1.1902   11.6068 C   0  0  0  0  0  0  0  0  0  0  0  0
   -7.7298    0.0582   12.1450 C   0  0  0  0  0  0  0  0  0  0  0  0
   -8.4858    0.1565   13.4190 C   0  0  0  0  0  0  0  0  0  0  0  0
   -8.5116    1.0992   14.1781 O   0  0  0  0  0  0  0  0  0  0  0  0
   -9.2400   -1.1121   13.5250 C   0  0  0  0  0  0  0  0  0  0  0  0
  -10.1814   -1.4863   14.4619 C   0  0  0  0  0  0  0  0  0  0  0  0
  -10.7951   -2.7207   14.3025 C   0  0  0  0  0  0  0  0  0  0  0  0
  -10.5086   -3.5292   13.2155 C   0  0  0  0  0  0  0  0  0  0  0  0
   -9.5651   -3.1530   12.2543 C   0  0  0  0  0  0  0  0  0  0  0  0
   -9.3037   -3.8368   11.1214 O   0  0  0  0  0  0  0  0  0  0  0  0
   -9.8499   -5.1237   10.9433 C   0  0  0  0  0  0  0  0  0  0  0  0
   -8.8876   -1.9450   12.4506 C   0  0  0  0  0  0  0  0  0  0  0  0
   -7.7987   -1.3199   11.7055 C   0  0  0  0  0  0  0  0  0  0  0  0
   -6.8316   -1.9853   10.9957 C   0  0  0  0  0  0  0  0  0  0  0  0
   -6.7695   -3.3775   10.7773 C   0  0  0  0  0  0  0  0  0  0  0  0
   -6.5879   -4.4911   10.5627 N   0  0  0  0  0  0  0  0  0  0  0  0
   -5.6612   -1.3706   10.5055 C   0  0  0  0  0  0  0  0  0  0  0  0
   -4.6787   -0.9429   10.0924 N   0  0  0  0  0  0  0  0  0  0  0  0
   -6.7403    1.4335   10.2961 C   0  0  0  0  0  0  0  0  0  0  0  0
   -5.7562    2.8723   10.0127 S   0  0  0  0  0  0  0  0  0  0  0  0
   -5.6102    2.4643    8.3528 C   0  0  0  0  0  0  0  0  0  0  0  0
   -4.9893    2.8742    7.1764 C   0  0  0  0  0  0  0  0  0  0  0  0
   -5.3560    1.9443    6.1778 C   0  0  0  0  0  0  0  0  0  0  0  0
   -6.1722    0.9850    6.7105 N   0  0  0  0  0  0  0  0  0  0  0  0
   -6.7679   -0.1219    6.0091 C   0  0  0  0  0  0  0  0  0  0  0  0
   -8.1470    0.2383    5.4594 C   0  0  0  0  0  0  0  0  0  0  0  0
   -6.3382    1.2873    8.0370 C   0  0  0  0  0  0  0  0  0  0  0  0
   -6.9729    0.7156    9.1306 C   0  0  0  0  0  0  0  0  0  0  0  0
   -4.7752    2.2093    4.9363 C   0  0  0  0  0  0  0  0  0  0  0  0
   -3.9704    3.3307    4.9742 C   0  0  0  0  0  0  0  0  0  0  0  0
   -3.9278    4.0896    6.5608 S   0  0  0  0  0  0  0  0  0  0  0  0
   -3.1492    3.7899    3.9071 C   0  0  0  0  0  0  0  0  0  0  0  0
   -2.3800    4.9342    3.7989 C   0  0  0  0  0  0  0  0  0  0  0  0
   -2.4019    6.0646    4.7307 C   0  0  0  0  0  0  0  0  0  0  0  0
   -1.2120    6.5565    5.2568 C   0  0  0  0  0  0  0  0  0  0  0  0
   -1.2389    7.6298    6.1267 C   0  0  0  0  0  0  0  0  0  0  0  0
   -2.4425    8.2179    6.4736 C   0  0  0  0  0  0  0  0  0  0  0  0
   -3.6378    7.7513    5.9416 C   0  0  0  0  0  0  0  0  0  0  0  0
   -4.9528    8.3523    6.3460 C   0  0  0  0  0  0  0  0  0  0  0  0
   -5.5920    7.5207    7.4602 C   0  0  0  0  0  0  0  0  0  0  0  0
   -3.6045    6.6777    5.0653 C   0  0  0  0  0  0  0  0  0  0  0  0
   -1.5665    4.9008    2.6487 C   0  0  0  0  0  0  0  0  0  0  0  0
   -0.3807    6.0111    2.0038 S   0  0  0  0  0  0  0  0  0  0  0  0
   -0.0876    4.9080    0.7004 C   0  0  0  0  0  0  0  0  0  0  0  0
    0.7381    4.7832   -0.4326 C   0  0  0  0  0  0  0  0  0  0  0  0
    1.6611    5.6623   -1.0410 C   0  0  0  0  0  0  0  0  0  0  0  0
    2.3304    5.2499   -2.2454 C   0  0  0  0  0  0  0  0  0  0  0  0
    3.1249    6.1918   -2.7285 N   0  0  0  0  0  0  0  0  0  0  0  0
    3.0446    7.4826   -1.7541 S   0  0  0  0  0  0  0  0  0  0  0  0
    1.9927    6.8906   -0.6760 N   0  0  0  0  0  0  0  0  0  0  0  0
    2.1501    3.9286   -2.7126 C   0  0  0  0  0  0  0  0  0  0  0  0
    2.8265    3.1795   -3.6900 C   0  0  0  0  0  0  0  0  0  0  0  0
    4.0658    3.3949   -4.8800 S   0  0  0  0  0  0  0  0  0  0  0  0
    4.0052    1.6818   -5.2173 C   0  0  0  0  0  0  0  0  0  0  0  0
    4.7551    0.8615   -6.0826 C   0  0  0  0  0  0  0  0  0  0  0  0
    5.8416    1.3892   -6.9126 C   0  0  0  0  0  0  0  0  0  0  0  0
    7.1270    0.8631   -6.8223 C   0  0  0  0  0  0  0  0  0  0  0  0
    8.1465    1.4114   -7.5762 C   0  0  0  0  0  0  0  0  0  0  0  0
    7.8966    2.4857   -8.4122 C   0  0  0  0  0  0  0  0  0  0  0  0
    6.6226    3.0314   -8.5023 C   0  0  0  0  0  0  0  0  0  0  0  0
    6.3578    4.2408   -9.3509 C   0  0  0  0  0  0  0  0  0  0  0  0
    6.4840    5.5120   -8.5083 C   0  0  0  0  0  0  0  0  0  0  0  0
    5.6028    2.4766   -7.7439 C   0  0  0  0  0  0  0  0  0  0  0  0
    4.3672   -0.4621   -5.9862 C   0  0  0  0  0  0  0  0  0  0  0  0
    3.0846   -0.6912   -4.7967 S   0  0  0  0  0  0  0  0  0  0  0  0
    3.0621    1.0001   -4.4460 C   0  0  0  0  0  0  0  0  0  0  0  0
    2.3783    1.8593   -3.5782 C   0  0  0  0  0  0  0  0  0  0  0  0
    1.4260    1.7705   -2.5968 N   0  0  0  0  0  0  0  0  0  0  0  0
    1.2609    3.0329   -2.0588 C   0  0  0  0  0  0  0  0  0  0  0  0
    0.4491    3.5153   -1.0044 C   0  0  0  0  0  0  0  0  0  0  0  0
   -0.5706    2.9152   -0.2816 N   0  0  0  0  0  0  0  0  0  0  0  0
   -0.8771    3.7571    0.7582 C   0  0  0  0  0  0  0  0  0  0  0  0
   -1.7274    3.7556    1.8682 C   0  0  0  0  0  0  0  0  0  0  0  0
   -2.8989    2.6878    2.5520 S   0  0  0  0  0  0  0  0  0  0  0  0
   -1.5901    2.0153   -0.7767 C   0  0  0  0  0  0  0  0  0  0  0  0
   -2.8320    2.7822   -1.2319 C   0  0  0  0  0  0  0  0  0  0  0  0
    1.0507    0.4845   -2.0531 C   0  0  0  0  0  0  0  0  0  0  0  0
    0.0953   -0.2756   -2.9734 C   0  0  0  0  0  0  0  0  0  0  0  0
    4.7755   -1.6052   -6.7252 C   0  0  0  0  0  0  0  0  0  0  0  0
    5.7345   -1.4702   -8.1930 S   0  0  0  0  0  0  0  0  0  0  0  0
    5.6674   -3.1860   -8.4001 C   0  0  0  0  0  0  0  0  0  0  0  0
    6.1090   -4.2002   -9.2428 C   0  0  0  0  0  0  0  0  0  0  0  0
    5.6179   -5.4209   -8.6971 C   0  0  0  0  0  0  0  0  0  0  0  0
    4.8862   -5.1583   -7.5666 N   0  0  0  0  0  0  0  0  0  0  0  0
    4.3045   -6.1430   -6.6909 C   0  0  0  0  0  0  0  0  0  0  0  0
    5.3035   -6.6164   -5.6374 C   0  0  0  0  0  0  0  0  0  0  0  0
    4.9261   -3.8081   -7.3671 C   0  0  0  0  0  0  0  0  0  0  0  0
    4.4231   -2.9077   -6.4283 C   0  0  0  0  0  0  0  0  0  0  0  0
    5.9741   -6.5465   -9.4164 C   0  0  0  0  0  0  0  0  0  0  0  0
    6.7443   -6.2272  -10.5303 C   0  0  0  0  0  0  0  0  0  0  0  0
    7.0175   -4.4736  -10.6715 S   0  0  0  0  0  0  0  0  0  0  0  0
    7.3225   -7.0167  -11.5313 C   0  0  0  0  0  0  0  0  0  0  0  0
    7.3432   -8.3787  -11.7334 C   0  0  0  0  0  0  0  0  0  0  0  0
    6.7606   -9.4481  -10.8994 C   0  0  0  0  0  0  0  0  0  0  0  0
    6.1095   -9.3624   -9.8742 O   0  0  0  0  0  0  0  0  0  0  0  0
    7.1259  -10.7173  -11.5576 C   0  0  0  0  0  0  0  0  0  0  0  0
    6.8275  -12.0067  -11.1608 C   0  0  0  0  0  0  0  0  0  0  0  0
    7.2793  -13.0605  -11.9384 C   0  0  0  0  0  0  0  0  0  0  0  0
    8.0147  -12.7997  -13.0884 C   0  0  0  0  0  0  0  0  0  0  0  0
    8.5706  -14.1219  -14.0445 Cl  0  0  0  0  0  0  0  0  0  0  0  0
    8.3206  -11.5054  -13.4982 C   0  0  0  0  0  0  0  0  0  0  0  0
    7.8679  -10.4540  -12.7189 C   0  0  0  0  0  0  0  0  0  0  0  0
    8.0101   -9.0032  -12.8618 C   0  0  0  0  0  0  0  0  0  0  0  0
    8.6574   -8.3904  -13.9046 C   0  0  0  0  0  0  0  0  0  0  0  0
    8.8086   -7.0030  -14.1143 C   0  0  0  0  0  0  0  0  0  0  0  0
    8.9882   -5.9013  -14.3880 N   0  0  0  0  0  0  0  0  0  0  0  0
    9.2822   -9.0823  -14.9643 C   0  0  0  0  0  0  0  0  0  0  0  0
    9.8142   -9.5716  -15.8564 N   0  0  0  0  0  0  0  0  0  0  0  0
   -7.1614    2.0405   12.2815 H   0  0  0  0  0  0  0  0  0  0  0  0
  -10.4198   -0.8341   15.2865 H   0  0  0  0  0  0  0  0  0  0  0  0
  -11.5243   -3.0558   15.0246 H   0  0  0  0  0  0  0  0  0  0  0  0
  -11.0345   -4.4650   13.1100 H   0  0  0  0  0  0  0  0  0  0  0  0
   -9.5871   -5.7852   11.7728 H   0  0  0  0  0  0  0  0  0  0  0  0
   -9.3975   -5.5022   10.0288 H   0  0  0  0  0  0  0  0  0  0  0  0
  -10.9377   -5.0836   10.8289 H   0  0  0  0  0  0  0  0  0  0  0  0
   -6.1000   -0.4066    5.1921 H   0  0  0  0  0  0  0  0  0  0  0  0
   -6.8447   -0.9641    6.7022 H   0  0  0  0  0  0  0  0  0  0  0  0
   -8.8140    0.5240    6.2694 H   0  0  0  0  0  0  0  0  0  0  0  0
   -8.5747   -0.6136    4.9384 H   0  0  0  0  0  0  0  0  0  0  0  0
   -8.0702    1.0716    4.7648 H   0  0  0  0  0  0  0  0  0  0  0  0
   -7.6028   -0.1547    9.0952 H   0  0  0  0  0  0  0  0  0  0  0  0
   -4.9127    1.6243    4.0446 H   0  0  0  0  0  0  0  0  0  0  0  0
   -0.2753    6.0885    4.9940 H   0  0  0  0  0  0  0  0  0  0  0  0
   -0.3152    8.0079    6.5391 H   0  0  0  0  0  0  0  0  0  0  0  0
   -2.4549    9.0521    7.1602 H   0  0  0  0  0  0  0  0  0  0  0  0
   -4.8023    9.3744    6.6981 H   0  0  0  0  0  0  0  0  0  0  0  0
   -5.6267    8.3820    5.4871 H   0  0  0  0  0  0  0  0  0  0  0  0
   -6.5412    7.9560    7.7638 H   0  0  0  0  0  0  0  0  0  0  0  0
   -4.9346    7.4797    8.3255 H   0  0  0  0  0  0  0  0  0  0  0  0
   -5.7673    6.5024    7.1209 H   0  0  0  0  0  0  0  0  0  0  0  0
   -4.5243    6.3147    4.6280 H   0  0  0  0  0  0  0  0  0  0  0  0
    7.3240    0.0392   -6.1521 H   0  0  0  0  0  0  0  0  0  0  0  0
    9.1436    1.0024   -7.5070 H   0  0  0  0  0  0  0  0  0  0  0  0
    8.7000    2.9088   -8.9978 H   0  0  0  0  0  0  0  0  0  0  0  0
    5.3514    4.1859   -9.7707 H   0  0  0  0  0  0  0  0  0  0  0  0
    7.0716    4.2802  -10.1757 H   0  0  0  0  0  0  0  0  0  0  0  0
    6.2881    6.3922   -9.1161 H   0  0  0  0  0  0  0  0  0  0  0  0
    5.7746    5.4920   -7.6840 H   0  0  0  0  0  0  0  0  0  0  0  0
    7.4862    5.5920   -8.0935 H   0  0  0  0  0  0  0  0  0  0  0  0
    4.6051    2.8873   -7.8063 H   0  0  0  0  0  0  0  0  0  0  0  0
   -1.8567    1.3213    0.0269 H   0  0  0  0  0  0  0  0  0  0  0  0
   -1.2000    1.4603   -1.6221 H   0  0  0  0  0  0  0  0  0  0  0  0
   -3.2873    3.3143   -0.4013 H   0  0  0  0  0  0  0  0  0  0  0  0
   -3.5617    2.0870   -1.6380 H   0  0  0  0  0  0  0  0  0  0  0  0
   -2.5665    3.5026   -2.0030 H   0  0  0  0  0  0  0  0  0  0  0  0
    1.9650   -0.1094   -1.9377 H   0  0  0  0  0  0  0  0  0  0  0  0
    0.6253    0.6313   -1.0600 H   0  0  0  0  0  0  0  0  0  0  0  0
   -0.2537   -1.1761   -2.4760 H   0  0  0  0  0  0  0  0  0  0  0  0
   -0.7654    0.3295   -3.2496 H   0  0  0  0  0  0  0  0  0  0  0  0
    0.6064   -0.5634   -3.8877 H   0  0  0  0  0  0  0  0  0  0  0  0
    3.4297   -5.6973   -6.2101 H   0  0  0  0  0  0  0  0  0  0  0  0
    3.9775   -6.9883   -7.3015 H   0  0  0  0  0  0  0  0  0  0  0  0
    4.8378   -7.3524   -4.9883 H   0  0  0  0  0  0  0  0  0  0  0  0
    5.6417   -5.7785   -5.0321 H   0  0  0  0  0  0  0  0  0  0  0  0
    6.1668   -7.0709   -6.1169 H   0  0  0  0  0  0  0  0  0  0  0  0
    3.8368   -3.1682   -5.5655 H   0  0  0  0  0  0  0  0  0  0  0  0
    5.7135   -7.5600   -9.1754 H   0  0  0  0  0  0  0  0  0  0  0  0
    7.8514   -6.4284  -12.2714 H   0  0  0  0  0  0  0  0  0  0  0  0
    6.2544  -12.1772  -10.2626 H   0  0  0  0  0  0  0  0  0  0  0  0
    7.0671  -14.0809  -11.6612 H   0  0  0  0  0  0  0  0  0  0  0  0
    8.8940  -11.3535  -14.3970 H   0  0  0  0  0  0  0  0  0  0  0  0
  1  2  2  0  0  0  0
  2  3  1  0  0  0  0
  3  4  2  0  0  0  0
  3  5  1  0  0  0  0
  5  6  2  0  0  0  0
  6  7  1  0  0  0  0
  7  8  2  0  0  0  0
  8  9  1  0  0  0  0
  9 10  1  0  0  0  0
 10 11  1  0  0  0  0
  9 12  2  0  0  0  0
 12 13  1  0  0  0  0
 13 14  2  0  0  0  0
 14 15  1  0  0  0  0
 15 16  3  0  0  0  0
 14 17  1  0  0  0  0
 17 18  3  0  0  0  0
  1 19  1  0  0  0  0
 19 20  1  0  0  0  0
 20 21  1  0  0  0  0
 21 22  1  0  0  0  0
 22 23  2  0  0  0  0
 23 24  1  0  0  0  0
 24 25  1  0  0  0  0
 25 26  1  0  0  0  0
 24 27  1  0  0  0  0
 27 28  1  0  0  0  0
 23 29  1  0  0  0  0
 29 30  2  0  0  0  0
 30 31  1  0  0  0  0
 30 32  1  0  0  0  0
 32 33  2  0  0  0  0
 33 34  1  0  0  0  0
 34 35  2  0  0  0  0
 35 36  1  0  0  0  0
 36 37  2  0  0  0  0
 37 38  1  0  0  0  0
 38 39  1  0  0  0  0
 39 40  1  0  0  0  0
 38 41  2  0  0  0  0
 33 42  1  0  0  0  0
 42 43  1  0  0  0  0
 43 44  1  0  0  0  0
 44 45  1  0  0  0  0
 45 46  1  0  0  0  0
 46 47  1  0  0  0  0
 47 48  2  0  0  0  0
 48 49  1  0  0  0  0
 49 50  1  0  0  0  0
 47 51  1  0  0  0  0
 51 52  1  0  0  0  0
 52 53  1  0  0  0  0
 53 54  1  0  0  0  0
 54 55  1  0  0  0  0
 55 56  1  0  0  0  0
 56 57  2  0  0  0  0
 57 58  1  0  0  0  0
 58 59  2  0  0  0  0
 59 60  1  0  0  0  0
 60 61  1  0  0  0  0
 61 62  1  0  0  0  0
 60 63  2  0  0  0  0
 55 64  2  0  0  0  0
 64 65  1  0  0  0  0
 65 66  1  0  0  0  0
 66 67  1  0  0  0  0
 67 68  1  0  0  0  0
 68 69  1  0  0  0  0
 69 70  1  0  0  0  0
 70 71  1  0  0  0  0
 71 72  1  0  0  0  0
 72 73  1  0  0  0  0
 73 74  1  0  0  0  0
 71 75  1  0  0  0  0
 75 76  1  0  0  0  0
 68 77  1  0  0  0  0
 77 78  1  0  0  0  0
 64 79  1  0  0  0  0
 79 80  1  0  0  0  0
 80 81  1  0  0  0  0
 81 82  1  0  0  0  0
 82 83  2  0  0  0  0
 83 84  1  0  0  0  0
 84 85  1  0  0  0  0
 85 86  1  0  0  0  0
 84 87  1  0  0  0  0
 87 88  1  0  0  0  0
 83 89  1  0  0  0  0
 89 90  2  0  0  0  0
 90 91  1  0  0  0  0
 90 92  1  0  0  0  0
 92 93  2  0  0  0  0
 93 94  1  0  0  0  0
 94 95  2  0  0  0  0
 94 96  1  0  0  0  0
 96 97  2  0  0  0  0
 97 98  1  0  0  0  0
 98 99  2  0  0  0  0
 99100  1  0  0  0  0
 99101  1  0  0  0  0
101102  2  0  0  0  0
102103  1  0  0  0  0
103104  2  0  0  0  0
104105  1  0  0  0  0
105106  3  0  0  0  0
104107  1  0  0  0  0
107108  3  0  0  0  0
 13  2  1  0  0  0  0
 28 19  2  0  0  0  0
 74 32  1  0  0  0  0
 88 79  2  0  0  0  0
103 93  1  0  0  0  0
 12  5  1  0  0  0  0
 27 21  2  0  0  0  0
 41 34  1  0  0  0  0
 73 42  2  0  0  0  0
 87 81  2  0  0  0  0
102 96  1  0  0  0  0
 31 22  1  0  0  0  0
 72 44  2  0  0  0  0
 91 82  1  0  0  0  0
 70 45  2  0  0  0  0
 50 46  2  0  0  0  0
 69 51  2  0  0  0  0
 67 52  2  0  0  0  0
 66 54  2  0  0  0  0
 63 56  1  0  0  0  0
  1109  1  0  0  0  0
  6110  1  0  0  0  0
  7111  1  0  0  0  0
  8112  1  0  0  0  0
 11113  1  0  0  0  0
 11114  1  0  0  0  0
 11115  1  0  0  0  0
 25116  1  0  0  0  0
 25117  1  0  0  0  0
 26118  1  0  0  0  0
 26119  1  0  0  0  0
 26120  1  0  0  0  0
 28121  1  0  0  0  0
 29122  1  0  0  0  0
 35123  1  0  0  0  0
 36124  1  0  0  0  0
 37125  1  0  0  0  0
 39126  1  0  0  0  0
 39127  1  0  0  0  0
 40128  1  0  0  0  0
 40129  1  0  0  0  0
 40130  1  0  0  0  0
 41131  1  0  0  0  0
 57132  1  0  0  0  0
 58133  1  0  0  0  0
 59134  1  0  0  0  0
 61135  1  0  0  0  0
 61136  1  0  0  0  0
 62137  1  0  0  0  0
 62138  1  0  0  0  0
 62139  1  0  0  0  0
 63140  1  0  0  0  0
 75141  1  0  0  0  0
 75142  1  0  0  0  0
 76143  1  0  0  0  0
 76144  1  0  0  0  0
 76145  1  0  0  0  0
 77146  1  0  0  0  0
 77147  1  0  0  0  0
 78148  1  0  0  0  0
 78149  1  0  0  0  0
 78150  1  0  0  0  0
 85151  1  0  0  0  0
 85152  1  0  0  0  0
 86153  1  0  0  0  0
 86154  1  0  0  0  0
 86155  1  0  0  0  0
 88156  1  0  0  0  0
 89157  1  0  0  0  0
 92158  1  0  0  0  0
 97159  1  0  0  0  0
 98160  1  0  0  0  0
101161  1  0  0  0  0
M  END
