185

C         -9.46670        3.36890       -9.93680
C        -10.36600        3.95440       -9.10050
C        -11.16660        5.11750       -9.55710
O        -11.32310        5.49320      -10.69740
C        -11.66440        5.74970       -8.31490
C        -12.35180        6.93720       -8.16300
C        -12.66220        7.34290       -6.87290
C        -12.26530        6.60280       -5.77160
C        -11.56300        5.40170       -5.91320
O        -11.07430        4.66700       -4.89610
C        -11.39300        5.01360       -3.56820
C        -11.29960        4.95690       -7.21350
C        -10.67760        3.73250       -7.70060
C        -10.70380        2.50320       -7.09680
C        -11.22580        2.21360       -5.81980
N        -11.66180        1.85840       -4.81880
C        -10.34770        1.32320       -7.78580
N        -10.11730        0.33930       -8.33140
C         -8.35030        2.56540       -9.61710
S         -7.62920        2.56230       -8.00530
C         -6.40530        1.48300       -8.54250
C         -5.28050        0.80030       -8.09090
C         -4.77850        0.06750       -9.19030
N         -5.57050        0.27590      -10.28590
C         -5.34080       -0.22430      -11.61650
C         -4.52270        0.75860      -12.45180
C         -6.55830        1.15110       -9.91140
C         -7.63960        1.78400      -10.51420
C         -3.63380       -0.67820       -8.89130
C         -3.26490       -0.53090       -7.57150
S         -4.32610        0.55460       -6.67760
C         -2.15890       -1.11550       -6.88980
C         -1.40280       -2.22530       -7.22540
C         -1.68990       -3.15790       -8.31820
C         -0.67590       -3.56640       -9.17870
C         -0.95550       -4.46270      -10.19370
C         -2.23710       -4.95970      -10.35480
C         -3.25660       -4.57830       -9.49080
C         -4.66010       -5.08140       -9.67250
C         -5.50820       -4.04260      -10.40930
C         -2.97000       -3.67980       -8.47480
C         -0.34130       -2.41240       -6.31750
S          0.91580       -3.62220       -6.20520
C          1.47910       -2.86540       -4.75280
C          2.50350       -3.00630       -3.80520
C          3.58460       -3.91210       -3.75580
C          4.54410       -3.78630       -2.69960
N          5.52310       -4.67240       -2.79580
S          5.25630       -5.58910       -4.10350
N          3.88210       -4.88930       -4.59810
C          4.33380       -2.81080       -1.70160
C          5.04050       -2.55620       -0.51760
S          6.40540       -3.16170        0.35910
C          6.03340       -2.04950        1.65880
C          6.58800       -1.85540        2.93480
C          7.60890       -2.73600        3.49840
C          7.44800       -3.26820        4.77710
C          8.39810       -4.13420        5.28110
C          9.50500       -4.47740        4.52370
C          9.67120       -3.96720        3.24240
C         10.89160       -4.29920        2.43330
C         11.99030       -3.26550        2.68810
C          8.71430       -3.10060        2.73780
C          5.91900       -0.84550        3.62130
S          4.55180       -0.21250        2.72630
C          4.92210       -1.24110        1.39280
C          4.35010       -1.54410        0.15370
N          3.24900       -1.16920       -0.56660
C          3.21580       -1.92240       -1.72630
C          2.32880       -1.97250       -2.83780
N          1.24420       -1.20580       -3.23130
C          0.73100       -1.74920       -4.37590
C         -0.30660       -1.48160       -5.27770
S         -1.57710       -0.32200       -5.43520
C          0.72130        0.05820       -2.76970
C         -0.59940       -0.10880       -2.01600
C          2.27960       -0.30390        0.06300
C          2.70510        1.16320        0.01380
C          6.18630       -0.29500        4.91130
C          7.44310       -0.26870        5.51760
F          8.54230       -0.58900        4.81540
C          7.61780        0.07710        6.85640
F          8.84570       -0.03920        7.38060
C          6.56940        0.49540        7.67060
C          5.33190        0.72400        7.00500
N          4.37140        1.44100        7.58210
C          3.17660        1.55270        7.03860
C          2.34690        2.54740        7.65510
S          3.09040        3.39210        8.98390
C          1.68020        4.34470        9.24590
C          1.56570        5.33810       10.35210
C          2.90610        5.64360       11.00540
C          0.72630        4.02330        8.31570
C          1.08380        3.01940        7.40490
F         -0.47910        4.62390        8.28770
C          2.87280        0.74720        5.89030
N          3.87230        0.23340        5.20800
C          5.11840        0.25640        5.67850
C          1.54470        0.42680        5.43900
C          0.41260        0.22070        6.18100
C         -0.67070       -0.16680        5.37300
F         -1.89110       -0.40870        5.87990
C         -0.39750       -0.26680        4.03730
C         -1.32870       -0.62300        2.93010
C         -1.42740        0.49660        1.89400
S          1.26750        0.10530        3.75590
C          6.73290        0.72350        9.07320
C          5.75770        0.70120       10.01520
C          5.98060        1.32650       11.34730
O          7.03850        1.62070       11.85000
C          4.62200        1.57440       11.88050
C          4.25740        2.27640       13.01200
C          2.90280        2.44410       13.26040
C          1.94780        1.95790       12.38270
C          2.30600        1.25060       11.23190
O          1.44040        0.83600       10.28550
C          0.05300        0.96830       10.49960
C          3.67000        1.02180       11.00680
C          4.36200        0.29150        9.95320
C          3.88030       -0.76900        9.23310
C          4.69510       -1.56590        8.40110
N          5.29880       -2.26380        7.71700
C          2.55360       -1.24470        9.20170
N          1.51490       -1.71660        9.06940
H         -9.57450        3.62450      -10.98680
H        -12.63430        7.51880       -9.02570
H        -13.21010        8.25980       -6.71560
H        -12.50120        6.97100       -4.78550
H        -10.94740        5.97330       -3.28810
H        -12.47490        5.04720       -3.41390
H        -10.96930        4.21930       -2.95690
H         -4.81280       -1.17730      -11.53390
H         -6.31150       -0.40310      -12.08680
H         -4.37180        0.36180      -13.45170
H         -3.55170        0.92700      -11.99180
H         -5.03980        1.71230      -12.52780
H         -7.93630        1.67460      -11.54150
H         -3.08470       -1.28240       -9.58880
H          0.32200       -3.17340       -9.05650
H         -0.16820       -4.77550      -10.86340
H         -2.44730       -5.65780      -11.15240
H         -4.65080       -6.01190      -10.24260
H         -5.10880       -5.28150       -8.69750
H         -5.08090       -3.83380      -11.38850
H         -6.52310       -4.40730      -10.54620
H         -5.54880       -3.11530       -9.84130
H         -3.74930       -3.38400       -7.78700
H          6.57920       -3.01480        5.36680
H          8.27170       -4.54320        6.27240
H         10.24590       -5.15160        4.92890
H         10.63990       -4.30540        1.37090
H         11.25850       -5.29110        2.70470
H         12.26180       -3.25480        3.74120
H         12.87640       -3.49750        2.10170
H         11.64240       -2.27130        2.41750
H          8.83860       -2.68470        1.74850
H          0.53610        0.67620       -3.65550
H          1.47090        0.56390       -2.16810
H         -1.37980       -0.43440       -2.69820
H         -0.51780       -0.85100       -1.22460
H         -0.89790        0.84120       -1.58180
H          1.30630       -0.45930       -0.39140
H          2.20850       -0.60280        1.11490
H          1.91740        1.78900        0.42380
H          3.60150        1.30790        0.60970
H          2.92050        1.48600       -1.00270
H          1.11870        6.25410        9.95440
H          0.87290        4.94840       11.10640
H          3.60470        6.03940       10.27250
H          3.33470        4.74010       11.43460
H          2.77950        6.37790       11.79640
H          0.43660        2.68330        6.61760
H          0.36720        0.29260        7.25160
H         -2.31240       -0.82390        3.35870
H         -0.97740       -1.53590        2.44140
H         -1.81190        1.40420        2.35270
H         -2.09800        0.20520        1.09000
H         -0.44530        0.70850        1.47710
H          7.72840        0.98320        9.41610
H          5.01060        2.67840       13.67030
H          2.57920        2.97980       14.14000
H          0.90610        2.14180       12.59370
H         -0.41930        0.44500        9.67040
H         -0.25430        0.49600       11.43590
H         -0.25300        2.01910       10.49370
