
  xtb     02102222403D
 energy: -219.905593584807 gnorm: 0.000378076622 xtb: 6.4.1 (unknown)
124137  0     0  0            999 V2000
    1.7021    7.6248   -7.7975 C   0  0  0  0  0  0  0  0  0  0  0  0
    3.0305    7.9139   -7.9844 C   0  0  0  0  0  0  0  0  0  0  0  0
    4.1137    7.5996   -7.0516 C   0  0  0  0  0  0  0  0  0  0  0  0
    4.0470    6.9671   -6.0121 O   0  0  0  0  0  0  0  0  0  0  0  0
    5.3263    8.2330   -7.6058 C   0  0  0  0  0  0  0  0  0  0  0  0
    6.5948    8.2693   -7.0654 C   0  0  0  0  0  0  0  0  0  0  0  0
    7.5644    8.9913   -7.7465 C   0  0  0  0  0  0  0  0  0  0  0  0
    7.2532    9.6868   -8.9015 C   0  0  0  0  0  0  0  0  0  0  0  0
    5.9647    9.6658   -9.4473 C   0  0  0  0  0  0  0  0  0  0  0  0
    5.5786   10.3882  -10.5144 O   0  0  0  0  0  0  0  0  0  0  0  0
    6.5292   11.1101  -11.2626 C   0  0  0  0  0  0  0  0  0  0  0  0
    4.9980    8.8777   -8.8092 C   0  0  0  0  0  0  0  0  0  0  0  0
    3.6025    8.5983   -9.1327 C   0  0  0  0  0  0  0  0  0  0  0  0
    2.9850    8.7985  -10.3418 C   0  0  0  0  0  0  0  0  0  0  0  0
    3.5845    9.2331  -11.5445 C   0  0  0  0  0  0  0  0  0  0  0  0
    3.9381    9.4960  -12.6054 N   0  0  0  0  0  0  0  0  0  0  0  0
    1.6373    8.4866  -10.6229 C   0  0  0  0  0  0  0  0  0  0  0  0
    0.5540    8.2742  -10.9445 N   0  0  0  0  0  0  0  0  0  0  0  0
    1.0535    6.9175   -6.7772 C   0  0  0  0  0  0  0  0  0  0  0  0
    1.8234    6.1382   -5.3925 S   0  0  0  0  0  0  0  0  0  0  0  0
    0.2934    5.5404   -4.8825 C   0  0  0  0  0  0  0  0  0  0  0  0
   -0.2932    4.7459   -3.9012 C   0  0  0  0  0  0  0  0  0  0  0  0
   -1.6740    4.6730   -4.1878 C   0  0  0  0  0  0  0  0  0  0  0  0
   -1.9573    5.4297   -5.2925 N   0  0  0  0  0  0  0  0  0  0  0  0
   -3.2284    5.5160   -5.9637 C   0  0  0  0  0  0  0  0  0  0  0  0
   -3.4042    4.3908   -6.9814 C   0  0  0  0  0  0  0  0  0  0  0  0
   -0.7651    5.9427   -5.7432 C   0  0  0  0  0  0  0  0  0  0  0  0
   -0.3320    6.7182   -6.8002 C   0  0  0  0  0  0  0  0  0  0  0  0
   -2.3829    3.8563   -3.3072 C   0  0  0  0  0  0  0  0  0  0  0  0
   -1.5671    3.2945   -2.3420 C   0  0  0  0  0  0  0  0  0  0  0  0
    0.1089    3.8087   -2.5122 S   0  0  0  0  0  0  0  0  0  0  0  0
   -2.0046    2.3611   -1.3585 C   0  0  0  0  0  0  0  0  0  0  0  0
   -3.6787    1.8076   -1.5124 S   0  0  0  0  0  0  0  0  0  0  0  0
   -3.4478    0.7333   -0.2007 C   0  0  0  0  0  0  0  0  0  0  0  0
   -4.1420   -0.2752    0.4853 C   0  0  0  0  0  0  0  0  0  0  0  0
   -5.4697   -0.7442    0.3841 C   0  0  0  0  0  0  0  0  0  0  0  0
   -5.9004   -1.8027    1.2540 C   0  0  0  0  0  0  0  0  0  0  0  0
   -7.1752   -2.1130    1.0801 N   0  0  0  0  0  0  0  0  0  0  0  0
   -7.7821   -1.1590   -0.0794 S   0  0  0  0  0  0  0  0  0  0  0  0
   -6.4400   -0.3140   -0.4067 N   0  0  0  0  0  0  0  0  0  0  0  0
   -4.9525   -2.4184    2.1010 C   0  0  0  0  0  0  0  0  0  0  0  0
   -5.0284   -3.5737    2.8934 C   0  0  0  0  0  0  0  0  0  0  0  0
   -6.1900   -4.7619    3.3790 S   0  0  0  0  0  0  0  0  0  0  0  0
   -4.9227   -5.6226    4.2268 C   0  0  0  0  0  0  0  0  0  0  0  0
   -4.9129   -6.8157    4.9583 C   0  0  0  0  0  0  0  0  0  0  0  0
   -6.1160   -7.6464    5.2547 C   0  0  0  0  0  0  0  0  0  0  0  0
   -6.8884   -7.0558    6.4367 C   0  0  0  0  0  0  0  0  0  0  0  0
   -3.6404   -7.0994    5.4255 C   0  0  0  0  0  0  0  0  0  0  0  0
   -2.4445   -5.8854    4.9526 S   0  0  0  0  0  0  0  0  0  0  0  0
   -3.6719   -4.9974    4.1287 C   0  0  0  0  0  0  0  0  0  0  0  0
   -3.7386   -3.8223    3.3744 C   0  0  0  0  0  0  0  0  0  0  0  0
   -2.8802   -2.8475    2.9456 N   0  0  0  0  0  0  0  0  0  0  0  0
   -3.6026   -1.9663    2.1616 C   0  0  0  0  0  0  0  0  0  0  0  0
   -3.2334   -0.8056    1.4370 C   0  0  0  0  0  0  0  0  0  0  0  0
   -2.0501   -0.0776    1.3837 N   0  0  0  0  0  0  0  0  0  0  0  0
   -2.1699    0.8346    0.3526 C   0  0  0  0  0  0  0  0  0  0  0  0
   -1.3246    1.7461   -0.3178 C   0  0  0  0  0  0  0  0  0  0  0  0
    0.1179    1.9862    0.0094 C   0  0  0  0  0  0  0  0  0  0  0  0
    0.3142    3.2530    0.8457 C   0  0  0  0  0  0  0  0  0  0  0  0
   -1.1707    0.1773    2.5101 C   0  0  0  0  0  0  0  0  0  0  0  0
   -1.9446    0.3820    3.8103 C   0  0  0  0  0  0  0  0  0  0  0  0
   -1.4513   -3.0389    3.0558 C   0  0  0  0  0  0  0  0  0  0  0  0
   -0.8034   -3.2682    1.6937 C   0  0  0  0  0  0  0  0  0  0  0  0
   -3.2012   -8.1578    6.1838 C   0  0  0  0  0  0  0  0  0  0  0  0
   -2.6370   -8.9992    6.8646 C   0  0  0  0  0  0  0  0  0  0  0  0
   -1.9741   -9.9791    7.5657 C   0  0  0  0  0  0  0  0  0  0  0  0
   -0.6229  -10.0024    7.7632 C   0  0  0  0  0  0  0  0  0  0  0  0
    0.0573  -11.2440    8.1891 C   0  0  0  0  0  0  0  0  0  0  0  0
   -0.4482  -12.2246    8.6890 O   0  0  0  0  0  0  0  0  0  0  0  0
    1.4744  -11.0484    7.8083 C   0  0  0  0  0  0  0  0  0  0  0  0
    2.5222  -11.9391    7.9215 C   0  0  0  0  0  0  0  0  0  0  0  0
    3.7686  -11.5356    7.4642 C   0  0  0  0  0  0  0  0  0  0  0  0
    3.9527  -10.2839    6.9024 C   0  0  0  0  0  0  0  0  0  0  0  0
    2.8975   -9.3741    6.7844 C   0  0  0  0  0  0  0  0  0  0  0  0
    2.9917   -8.1559    6.2222 O   0  0  0  0  0  0  0  0  0  0  0  0
    4.2398   -7.6642    5.7933 C   0  0  0  0  0  0  0  0  0  0  0  0
    1.6391   -9.7635    7.2604 C   0  0  0  0  0  0  0  0  0  0  0  0
    0.3806   -9.0350    7.3603 C   0  0  0  0  0  0  0  0  0  0  0  0
    0.1635   -7.6828    7.2834 C   0  0  0  0  0  0  0  0  0  0  0  0
    1.0074   -6.6710    6.7807 C   0  0  0  0  0  0  0  0  0  0  0  0
    1.5318   -5.7365    6.3650 N   0  0  0  0  0  0  0  0  0  0  0  0
   -0.9848   -7.0794    7.8439 C   0  0  0  0  0  0  0  0  0  0  0  0
   -1.8266   -6.5096    8.3786 N   0  0  0  0  0  0  0  0  0  0  0  0
    1.0170    7.9946   -8.5505 H   0  0  0  0  0  0  0  0  0  0  0  0
    6.8094    7.7510   -6.1447 H   0  0  0  0  0  0  0  0  0  0  0  0
    8.5736    9.0332   -7.3652 H   0  0  0  0  0  0  0  0  0  0  0  0
    8.0245   10.2671   -9.3830 H   0  0  0  0  0  0  0  0  0  0  0  0
    6.9470   11.9393  -10.6833 H   0  0  0  0  0  0  0  0  0  0  0  0
    5.9788   11.4977  -12.1180 H   0  0  0  0  0  0  0  0  0  0  0  0
    7.3346   10.4612  -11.6171 H   0  0  0  0  0  0  0  0  0  0  0  0
   -3.2840    6.4870   -6.4627 H   0  0  0  0  0  0  0  0  0  0  0  0
   -4.0170    5.4666   -5.2080 H   0  0  0  0  0  0  0  0  0  0  0  0
   -2.6187    4.4361   -7.7321 H   0  0  0  0  0  0  0  0  0  0  0  0
   -3.3558    3.4239   -6.4860 H   0  0  0  0  0  0  0  0  0  0  0  0
   -4.3667    4.4829   -7.4763 H   0  0  0  0  0  0  0  0  0  0  0  0
   -0.9520    7.1210   -7.5811 H   0  0  0  0  0  0  0  0  0  0  0  0
   -3.4383    3.6593   -3.3562 H   0  0  0  0  0  0  0  0  0  0  0  0
   -5.8068   -8.6661    5.4912 H   0  0  0  0  0  0  0  0  0  0  0  0
   -6.7611   -7.6649    4.3736 H   0  0  0  0  0  0  0  0  0  0  0  0
   -6.2572   -7.0275    7.3221 H   0  0  0  0  0  0  0  0  0  0  0  0
   -7.7641   -7.6626    6.6512 H   0  0  0  0  0  0  0  0  0  0  0  0
   -7.2139   -6.0439    6.2073 H   0  0  0  0  0  0  0  0  0  0  0  0
    0.5179    1.1196    0.5387 H   0  0  0  0  0  0  0  0  0  0  0  0
    0.6857    2.0831   -0.9170 H   0  0  0  0  0  0  0  0  0  0  0  0
   -0.2457    3.2015    1.7779 H   0  0  0  0  0  0  0  0  0  0  0  0
    1.3670    3.3868    1.0799 H   0  0  0  0  0  0  0  0  0  0  0  0
   -0.0288    4.1244    0.2953 H   0  0  0  0  0  0  0  0  0  0  0  0
   -0.6349    1.0990    2.2914 H   0  0  0  0  0  0  0  0  0  0  0  0
   -0.4277   -0.6177    2.6109 H   0  0  0  0  0  0  0  0  0  0  0  0
   -2.5082   -0.5019    4.0944 H   0  0  0  0  0  0  0  0  0  0  0  0
   -1.2504    0.6224    4.6116 H   0  0  0  0  0  0  0  0  0  0  0  0
   -2.6444    1.2076    3.6983 H   0  0  0  0  0  0  0  0  0  0  0  0
   -1.3014   -3.9235    3.6795 H   0  0  0  0  0  0  0  0  0  0  0  0
   -0.9910   -2.2002    3.5793 H   0  0  0  0  0  0  0  0  0  0  0  0
    0.2641   -3.4276    1.8189 H   0  0  0  0  0  0  0  0  0  0  0  0
   -1.2319   -4.1495    1.2219 H   0  0  0  0  0  0  0  0  0  0  0  0
   -0.9588   -2.4187    1.0334 H   0  0  0  0  0  0  0  0  0  0  0  0
   -2.5405  -10.8360    7.9128 H   0  0  0  0  0  0  0  0  0  0  0  0
    2.3634  -12.9130    8.3557 H   0  0  0  0  0  0  0  0  0  0  0  0
    4.6124  -12.2049    7.5392 H   0  0  0  0  0  0  0  0  0  0  0  0
    4.9337  -10.0109    6.5463 H   0  0  0  0  0  0  0  0  0  0  0  0
    4.9677   -7.6525    6.6095 H   0  0  0  0  0  0  0  0  0  0  0  0
    4.0398   -6.6438    5.4705 H   0  0  0  0  0  0  0  0  0  0  0  0
    4.6326   -8.2474    4.9548 H   0  0  0  0  0  0  0  0  0  0  0  0
  1  2  2  0  0  0  0
  2  3  1  0  0  0  0
  3  4  2  0  0  0  0
  3  5  1  0  0  0  0
  5  6  2  0  0  0  0
  6  7  1  0  0  0  0
  7  8  2  0  0  0  0
  8  9  1  0  0  0  0
  9 10  1  0  0  0  0
 10 11  1  0  0  0  0
  9 12  2  0  0  0  0
 12 13  1  0  0  0  0
 13 14  2  0  0  0  0
 14 15  1  0  0  0  0
 15 16  3  0  0  0  0
 14 17  1  0  0  0  0
 17 18  3  0  0  0  0
  1 19  1  0  0  0  0
 19 20  1  0  0  0  0
 20 21  1  0  0  0  0
 21 22  1  0  0  0  0
 22 23  2  0  0  0  0
 23 24  1  0  0  0  0
 24 25  1  0  0  0  0
 25 26  1  0  0  0  0
 24 27  1  0  0  0  0
 27 28  1  0  0  0  0
 23 29  1  0  0  0  0
 29 30  2  0  0  0  0
 30 31  1  0  0  0  0
 30 32  1  0  0  0  0
 32 33  1  0  0  0  0
 33 34  1  0  0  0  0
 34 35  1  0  0  0  0
 35 36  1  0  0  0  0
 36 37  1  0  0  0  0
 37 38  2  0  0  0  0
 38 39  1  0  0  0  0
 39 40  1  0  0  0  0
 37 41  1  0  0  0  0
 41 42  1  0  0  0  0
 42 43  1  0  0  0  0
 43 44  1  0  0  0  0
 44 45  1  0  0  0  0
 45 46  1  0  0  0  0
 46 47  1  0  0  0  0
 45 48  2  0  0  0  0
 48 49  1  0  0  0  0
 49 50  1  0  0  0  0
 50 51  1  0  0  0  0
 51 52  1  0  0  0  0
 52 53  1  0  0  0  0
 53 54  1  0  0  0  0
 54 55  1  0  0  0  0
 55 56  1  0  0  0  0
 56 57  1  0  0  0  0
 57 58  1  0  0  0  0
 58 59  1  0  0  0  0
 55 60  1  0  0  0  0
 60 61  1  0  0  0  0
 52 62  1  0  0  0  0
 62 63  1  0  0  0  0
 48 64  1  0  0  0  0
 64 65  3  0  0  0  0
 65 66  1  0  0  0  0
 66 67  2  0  0  0  0
 67 68  1  0  0  0  0
 68 69  2  0  0  0  0
 68 70  1  0  0  0  0
 70 71  2  0  0  0  0
 71 72  1  0  0  0  0
 72 73  2  0  0  0  0
 73 74  1  0  0  0  0
 74 75  1  0  0  0  0
 75 76  1  0  0  0  0
 74 77  2  0  0  0  0
 77 78  1  0  0  0  0
 78 79  2  0  0  0  0
 79 80  1  0  0  0  0
 80 81  3  0  0  0  0
 79 82  1  0  0  0  0
 82 83  3  0  0  0  0
 13  2  1  0  0  0  0
 28 19  2  0  0  0  0
 57 32  2  0  0  0  0
 78 67  1  0  0  0  0
 12  5  1  0  0  0  0
 27 21  2  0  0  0  0
 56 34  2  0  0  0  0
 77 70  1  0  0  0  0
 31 22  1  0  0  0  0
 54 35  2  0  0  0  0
 40 36  2  0  0  0  0
 53 41  2  0  0  0  0
 51 42  2  0  0  0  0
 50 44  2  0  0  0  0
  1 84  1  0  0  0  0
  6 85  1  0  0  0  0
  7 86  1  0  0  0  0
  8 87  1  0  0  0  0
 11 88  1  0  0  0  0
 11 89  1  0  0  0  0
 11 90  1  0  0  0  0
 25 91  1  0  0  0  0
 25 92  1  0  0  0  0
 26 93  1  0  0  0  0
 26 94  1  0  0  0  0
 26 95  1  0  0  0  0
 28 96  1  0  0  0  0
 29 97  1  0  0  0  0
 46 98  1  0  0  0  0
 46 99  1  0  0  0  0
 47100  1  0  0  0  0
 47101  1  0  0  0  0
 47102  1  0  0  0  0
 58103  1  0  0  0  0
 58104  1  0  0  0  0
 59105  1  0  0  0  0
 59106  1  0  0  0  0
 59107  1  0  0  0  0
 60108  1  0  0  0  0
 60109  1  0  0  0  0
 61110  1  0  0  0  0
 61111  1  0  0  0  0
 61112  1  0  0  0  0
 62113  1  0  0  0  0
 62114  1  0  0  0  0
 63115  1  0  0  0  0
 63116  1  0  0  0  0
 63117  1  0  0  0  0
 66118  1  0  0  0  0
 71119  1  0  0  0  0
 72120  1  0  0  0  0
 73121  1  0  0  0  0
 76122  1  0  0  0  0
 76123  1  0  0  0  0
 76124  1  0  0  0  0
M  END
