124

C          1.70210        7.62480       -7.79750
C          3.03050        7.91390       -7.98440
C          4.11370        7.59960       -7.05160
O          4.04700        6.96710       -6.01210
C          5.32630        8.23300       -7.60580
C          6.59480        8.26930       -7.06540
C          7.56440        8.99130       -7.74650
C          7.25320        9.68680       -8.90150
C          5.96470        9.66580       -9.44730
O          5.57860       10.38820      -10.51440
C          6.52920       11.11010      -11.26260
C          4.99800        8.87770       -8.80920
C          3.60250        8.59830       -9.13270
C          2.98500        8.79850      -10.34180
C          3.58450        9.23310      -11.54450
N          3.93810        9.49600      -12.60540
C          1.63730        8.48660      -10.62290
N          0.55400        8.27420      -10.94450
C          1.05350        6.91750       -6.77720
S          1.82340        6.13820       -5.39250
C          0.29340        5.54040       -4.88250
C         -0.29320        4.74590       -3.90120
C         -1.67400        4.67300       -4.18780
N         -1.95730        5.42970       -5.29250
C         -3.22840        5.51600       -5.96370
C         -3.40420        4.39080       -6.98140
C         -0.76510        5.94270       -5.74320
C         -0.33200        6.71820       -6.80020
C         -2.38290        3.85630       -3.30720
C         -1.56710        3.29450       -2.34200
S          0.10890        3.80870       -2.51220
C         -2.00460        2.36110       -1.35850
S         -3.67870        1.80760       -1.51240
C         -3.44780        0.73330       -0.20070
C         -4.14200       -0.27520        0.48530
C         -5.46970       -0.74420        0.38410
C         -5.90040       -1.80270        1.25400
N         -7.17520       -2.11300        1.08010
S         -7.78210       -1.15900       -0.07940
N         -6.44000       -0.31400       -0.40670
C         -4.95250       -2.41840        2.10100
C         -5.02840       -3.57370        2.89340
S         -6.19000       -4.76190        3.37900
C         -4.92270       -5.62260        4.22680
C         -4.91290       -6.81570        4.95830
C         -6.11600       -7.64640        5.25470
C         -6.88840       -7.05580        6.43670
C         -3.64040       -7.09940        5.42550
S         -2.44450       -5.88540        4.95260
C         -3.67190       -4.99740        4.12870
C         -3.73860       -3.82230        3.37440
N         -2.88020       -2.84750        2.94560
C         -3.60260       -1.96630        2.16160
C         -3.23340       -0.80560        1.43700
N         -2.05010       -0.07760        1.38370
C         -2.16990        0.83460        0.35260
C         -1.32460        1.74610       -0.31780
C          0.11790        1.98620        0.00940
C          0.31420        3.25300        0.84570
C         -1.17070        0.17730        2.51010
C         -1.94460        0.38200        3.81030
C         -1.45130       -3.03890        3.05580
C         -0.80340       -3.26820        1.69370
C         -3.20120       -8.15780        6.18380
C         -2.63700       -8.99920        6.86460
C         -1.97410       -9.97910        7.56570
C         -0.62290      -10.00240        7.76320
C          0.05730      -11.24400        8.18910
O         -0.44820      -12.22460        8.68900
C          1.47440      -11.04840        7.80830
C          2.52220      -11.93910        7.92150
C          3.76860      -11.53560        7.46420
C          3.95270      -10.28390        6.90240
C          2.89750       -9.37410        6.78440
O          2.99170       -8.15590        6.22220
C          4.23980       -7.66420        5.79330
C          1.63910       -9.76350        7.26040
C          0.38060       -9.03500        7.36030
C          0.16350       -7.68280        7.28340
C          1.00740       -6.67100        6.78070
N          1.53180       -5.73650        6.36500
C         -0.98480       -7.07940        7.84390
N         -1.82660       -6.50960        8.37860
H          1.01700        7.99460       -8.55050
H          6.80940        7.75100       -6.14470
H          8.57360        9.03320       -7.36520
H          8.02450       10.26710       -9.38300
H          6.94700       11.93930      -10.68330
H          5.97880       11.49770      -12.11800
H          7.33460       10.46120      -11.61710
H         -3.28400        6.48700       -6.46270
H         -4.01700        5.46660       -5.20800
H         -2.61870        4.43610       -7.73210
H         -3.35580        3.42390       -6.48600
H         -4.36670        4.48290       -7.47630
H         -0.95200        7.12100       -7.58110
H         -3.43830        3.65930       -3.35620
H         -5.80680       -8.66610        5.49120
H         -6.76110       -7.66490        4.37360
H         -6.25720       -7.02750        7.32210
H         -7.76410       -7.66260        6.65120
H         -7.21390       -6.04390        6.20730
H          0.51790        1.11960        0.53870
H          0.68570        2.08310       -0.91700
H         -0.24570        3.20150        1.77790
H          1.36700        3.38680        1.07990
H         -0.02880        4.12440        0.29530
H         -0.63490        1.09900        2.29140
H         -0.42770       -0.61770        2.61090
H         -2.50820       -0.50190        4.09440
H         -1.25040        0.62240        4.61160
H         -2.64440        1.20760        3.69830
H         -1.30140       -3.92350        3.67950
H         -0.99100       -2.20020        3.57930
H          0.26410       -3.42760        1.81890
H         -1.23190       -4.14950        1.22190
H         -0.95880       -2.41870        1.03340
H         -2.54050      -10.83600        7.91280
H          2.36340      -12.91300        8.35570
H          4.61240      -12.20490        7.53920
H          4.93370      -10.01090        6.54630
H          4.96770       -7.65250        6.60950
H          4.03980       -6.64380        5.47050
H          4.63260       -8.24740        4.95480
