
  xtb     02102222353D
 energy: -282.188588029543 gnorm: 0.000782471766 xtb: 6.4.1 (unknown)
158177  0     0  0            999 V2000
   -5.3544   -7.0823  -10.3364 C   0  0  0  0  0  0  0  0  0  0  0  0
   -5.7462   -8.2884   -9.8148 C   0  0  0  0  0  0  0  0  0  0  0  0
   -5.6033   -8.7054   -8.4182 C   0  0  0  0  0  0  0  0  0  0  0  0
   -5.0204   -8.1244   -7.5200 O   0  0  0  0  0  0  0  0  0  0  0  0
   -6.3388   -9.9793   -8.2962 C   0  0  0  0  0  0  0  0  0  0  0  0
   -6.5571  -10.7357   -7.1636 C   0  0  0  0  0  0  0  0  0  0  0  0
   -7.3478  -11.8691   -7.2887 C   0  0  0  0  0  0  0  0  0  0  0  0
   -7.9327  -12.1990   -8.4986 C   0  0  0  0  0  0  0  0  0  0  0  0
   -7.7272  -11.4282   -9.6485 C   0  0  0  0  0  0  0  0  0  0  0  0
   -8.3356  -11.6440  -10.8285 O   0  0  0  0  0  0  0  0  0  0  0  0
   -9.1322  -12.7909  -11.0153 C   0  0  0  0  0  0  0  0  0  0  0  0
   -6.8685  -10.3254   -9.5499 C   0  0  0  0  0  0  0  0  0  0  0  0
   -6.4129   -9.3574  -10.5420 C   0  0  0  0  0  0  0  0  0  0  0  0
   -6.4654   -9.4921  -11.9062 C   0  0  0  0  0  0  0  0  0  0  0  0
   -6.8848  -10.6276  -12.6339 C   0  0  0  0  0  0  0  0  0  0  0  0
   -7.1199  -11.4919  -13.3530 N   0  0  0  0  0  0  0  0  0  0  0  0
   -5.9895   -8.5373  -12.8306 C   0  0  0  0  0  0  0  0  0  0  0  0
   -5.6437   -7.8201  -13.6597 N   0  0  0  0  0  0  0  0  0  0  0  0
   -4.6923   -5.9989   -9.7426 C   0  0  0  0  0  0  0  0  0  0  0  0
   -4.0899   -5.9235   -8.0853 S   0  0  0  0  0  0  0  0  0  0  0  0
   -3.4899   -4.3383   -8.3782 C   0  0  0  0  0  0  0  0  0  0  0  0
   -2.8165   -3.2950   -7.7465 C   0  0  0  0  0  0  0  0  0  0  0  0
   -2.6943   -2.2478   -8.6863 C   0  0  0  0  0  0  0  0  0  0  0  0
   -3.2844   -2.6105   -9.8666 N   0  0  0  0  0  0  0  0  0  0  0  0
   -3.2514   -1.8493  -11.0884 C   0  0  0  0  0  0  0  0  0  0  0  0
   -1.9092   -1.9937  -11.8030 C   0  0  0  0  0  0  0  0  0  0  0  0
   -3.7577   -3.8891   -9.7011 C   0  0  0  0  0  0  0  0  0  0  0  0
   -4.4280   -4.8277  -10.4611 C   0  0  0  0  0  0  0  0  0  0  0  0
   -2.0331   -1.1209   -8.1944 C   0  0  0  0  0  0  0  0  0  0  0  0
   -1.6312   -1.3027   -6.8872 C   0  0  0  0  0  0  0  0  0  0  0  0
   -2.0932   -2.8723   -6.2390 S   0  0  0  0  0  0  0  0  0  0  0  0
   -0.9398   -0.3816   -6.0502 C   0  0  0  0  0  0  0  0  0  0  0  0
   -0.2166    0.7458   -6.4000 C   0  0  0  0  0  0  0  0  0  0  0  0
    0.1570    1.1491   -7.7579 C   0  0  0  0  0  0  0  0  0  0  0  0
    0.7202    0.2328   -8.6438 C   0  0  0  0  0  0  0  0  0  0  0  0
    1.1063    0.6432   -9.9047 C   0  0  0  0  0  0  0  0  0  0  0  0
    0.9457    1.9639  -10.2906 C   0  0  0  0  0  0  0  0  0  0  0  0
    0.3989    2.8928   -9.4156 C   0  0  0  0  0  0  0  0  0  0  0  0
    0.2832    4.3408   -9.7938 C   0  0  0  0  0  0  0  0  0  0  0  0
    1.4875    5.1197   -9.2607 C   0  0  0  0  0  0  0  0  0  0  0  0
    0.0097    2.4737   -8.1511 C   0  0  0  0  0  0  0  0  0  0  0  0
    0.2128    1.4500   -5.2567 C   0  0  0  0  0  0  0  0  0  0  0  0
    1.1441    2.9158   -5.0527 S   0  0  0  0  0  0  0  0  0  0  0  0
    1.0550    2.7060   -3.3357 C   0  0  0  0  0  0  0  0  0  0  0  0
    1.4616    3.3543   -2.1583 C   0  0  0  0  0  0  0  0  0  0  0  0
    2.0950    4.5994   -1.9548 C   0  0  0  0  0  0  0  0  0  0  0  0
    2.2883    5.0683   -0.6126 C   0  0  0  0  0  0  0  0  0  0  0  0
    2.8424    6.2698   -0.5707 N   0  0  0  0  0  0  0  0  0  0  0  0
    3.1028    6.7670   -2.0899 S   0  0  0  0  0  0  0  0  0  0  0  0
    2.5173    5.4685   -2.8599 N   0  0  0  0  0  0  0  0  0  0  0  0
    1.9416    4.2214    0.4624 C   0  0  0  0  0  0  0  0  0  0  0  0
    2.1394    4.3597    1.8456 C   0  0  0  0  0  0  0  0  0  0  0  0
    2.7533    5.5198    2.9749 S   0  0  0  0  0  0  0  0  0  0  0  0
    2.4947    4.3653    4.2605 C   0  0  0  0  0  0  0  0  0  0  0  0
    2.7198    4.4286    5.6492 C   0  0  0  0  0  0  0  0  0  0  0  0
    3.1996    5.6436    6.3130 C   0  0  0  0  0  0  0  0  0  0  0  0
    2.4773    6.2129    7.3583 C   0  0  0  0  0  0  0  0  0  0  0  0
    2.9190    7.3868    7.9369 C   0  0  0  0  0  0  0  0  0  0  0  0
    4.0711    8.0012    7.4774 C   0  0  0  0  0  0  0  0  0  0  0  0
    4.7959    7.4521    6.4277 C   0  0  0  0  0  0  0  0  0  0  0  0
    6.0082    8.1455    5.8780 C   0  0  0  0  0  0  0  0  0  0  0  0
    5.6139    9.0402    4.7008 C   0  0  0  0  0  0  0  0  0  0  0  0
    4.3473    6.2742    5.8495 C   0  0  0  0  0  0  0  0  0  0  0  0
    2.3832    3.2410    6.2714 C   0  0  0  0  0  0  0  0  0  0  0  0
    1.7366    2.0566    5.1341 S   0  0  0  0  0  0  0  0  0  0  0  0
    1.9564    3.1560    3.8185 C   0  0  0  0  0  0  0  0  0  0  0  0
    1.7433    3.1568    2.4347 C   0  0  0  0  0  0  0  0  0  0  0  0
    1.2735    2.2963    1.4788 N   0  0  0  0  0  0  0  0  0  0  0  0
    1.3769    2.9322    0.2512 C   0  0  0  0  0  0  0  0  0  0  0  0
    1.0277    2.5459   -1.0699 C   0  0  0  0  0  0  0  0  0  0  0  0
    0.3360    1.4596   -1.5838 N   0  0  0  0  0  0  0  0  0  0  0  0
    0.3519    1.5642   -2.9483 C   0  0  0  0  0  0  0  0  0  0  0  0
   -0.1399    0.8490   -4.0480 C   0  0  0  0  0  0  0  0  0  0  0  0
   -1.0514   -0.5952   -4.3100 S   0  0  0  0  0  0  0  0  0  0  0  0
   -0.6251    0.5857   -0.9486 C   0  0  0  0  0  0  0  0  0  0  0  0
   -1.7302    1.3774   -0.2544 C   0  0  0  0  0  0  0  0  0  0  0  0
    1.1427    0.8902    1.7879 C   0  0  0  0  0  0  0  0  0  0  0  0
    2.2210    0.0595    1.0969 C   0  0  0  0  0  0  0  0  0  0  0  0
    2.5864    2.8222    7.6143 C   0  0  0  0  0  0  0  0  0  0  0  0
    3.6206    3.7325    8.7084 S   0  0  0  0  0  0  0  0  0  0  0  0
    3.3999    2.5262    9.9265 C   0  0  0  0  0  0  0  0  0  0  0  0
    3.7740    2.2136   11.2290 C   0  0  0  0  0  0  0  0  0  0  0  0
    3.1446    0.9764   11.5441 C   0  0  0  0  0  0  0  0  0  0  0  0
    2.4200    0.5407   10.4634 N   0  0  0  0  0  0  0  0  0  0  0  0
    1.5725   -0.6234   10.4305 C   0  0  0  0  0  0  0  0  0  0  0  0
    0.1666   -0.3058   10.9350 C   0  0  0  0  0  0  0  0  0  0  0  0
    2.5555    1.4815    9.4822 C   0  0  0  0  0  0  0  0  0  0  0  0
    2.1032    1.6555    8.1732 C   0  0  0  0  0  0  0  0  0  0  0  0
    3.4221    0.5096   12.8171 C   0  0  0  0  0  0  0  0  0  0  0  0
    4.2688    1.3679   13.5095 C   0  0  0  0  0  0  0  0  0  0  0  0
    4.7173    2.7901   12.5401 S   0  0  0  0  0  0  0  0  0  0  0  0
    4.8250    1.3061   14.7948 C   0  0  0  0  0  0  0  0  0  0  0  0
    4.7215    0.3728   15.7974 C   0  0  0  0  0  0  0  0  0  0  0  0
    3.9514   -0.8945   15.8292 C   0  0  0  0  0  0  0  0  0  0  0  0
    3.2279   -1.3757   14.9798 O   0  0  0  0  0  0  0  0  0  0  0  0
    4.2380   -1.4892   17.1474 C   0  0  0  0  0  0  0  0  0  0  0  0
    3.8801   -2.6460   17.8561 C   0  0  0  0  0  0  0  0  0  0  0  0
    4.4816   -2.6610   19.0846 C   0  0  0  0  0  0  0  0  0  0  0  0
    4.3275   -3.8751   20.2701 Cl  0  0  0  0  0  0  0  0  0  0  0  0
    5.4893   -1.2683   19.3958 S   0  0  0  0  0  0  0  0  0  0  0  0
    5.0943   -0.6544   17.8421 C   0  0  0  0  0  0  0  0  0  0  0  0
    5.4235    0.5114   17.0675 C   0  0  0  0  0  0  0  0  0  0  0  0
    6.2482    1.5142   17.5168 C   0  0  0  0  0  0  0  0  0  0  0  0
    6.6137    2.6874   16.8313 C   0  0  0  0  0  0  0  0  0  0  0  0
    6.9628    3.6689   16.3466 N   0  0  0  0  0  0  0  0  0  0  0  0
    6.8281    1.4330   18.8003 C   0  0  0  0  0  0  0  0  0  0  0  0
    7.3072    1.3753   19.8417 N   0  0  0  0  0  0  0  0  0  0  0  0
   -5.6056   -6.9008  -11.3745 H   0  0  0  0  0  0  0  0  0  0  0  0
   -6.1241  -10.4422   -6.2209 H   0  0  0  0  0  0  0  0  0  0  0  0
   -7.5320  -12.4961   -6.4294 H   0  0  0  0  0  0  0  0  0  0  0  0
   -8.5711  -13.0670   -8.5480 H   0  0  0  0  0  0  0  0  0  0  0  0
  -10.0347  -12.7548  -10.3972 H   0  0  0  0  0  0  0  0  0  0  0  0
   -9.4055  -12.7755  -12.0688 H   0  0  0  0  0  0  0  0  0  0  0  0
   -8.5721  -13.7054  -10.8025 H   0  0  0  0  0  0  0  0  0  0  0  0
   -3.4318   -0.7981  -10.8437 H   0  0  0  0  0  0  0  0  0  0  0  0
   -4.0620   -2.2023  -11.7297 H   0  0  0  0  0  0  0  0  0  0  0  0
   -1.9115   -1.4118  -12.7203 H   0  0  0  0  0  0  0  0  0  0  0  0
   -1.7237   -3.0364  -12.0497 H   0  0  0  0  0  0  0  0  0  0  0  0
   -1.1040   -1.6369  -11.1647 H   0  0  0  0  0  0  0  0  0  0  0  0
   -4.7229   -4.7118  -11.4888 H   0  0  0  0  0  0  0  0  0  0  0  0
   -1.8617   -0.2127   -8.7407 H   0  0  0  0  0  0  0  0  0  0  0  0
    0.8593   -0.7926   -8.3348 H   0  0  0  0  0  0  0  0  0  0  0  0
    1.5443   -0.0683  -10.5898 H   0  0  0  0  0  0  0  0  0  0  0  0
    1.2536    2.2763  -11.2780 H   0  0  0  0  0  0  0  0  0  0  0  0
   -0.6316    4.7620   -9.3718 H   0  0  0  0  0  0  0  0  0  0  0  0
    0.2379    4.4406  -10.8800 H   0  0  0  0  0  0  0  0  0  0  0  0
    1.5481    5.0285   -8.1786 H   0  0  0  0  0  0  0  0  0  0  0  0
    1.4032    6.1728   -9.5182 H   0  0  0  0  0  0  0  0  0  0  0  0
    2.4084    4.7296   -9.6883 H   0  0  0  0  0  0  0  0  0  0  0  0
   -0.4241    3.1857   -7.4641 H   0  0  0  0  0  0  0  0  0  0  0  0
    1.5687    5.7404    7.7020 H   0  0  0  0  0  0  0  0  0  0  0  0
    2.3589    7.8283    8.7478 H   0  0  0  0  0  0  0  0  0  0  0  0
    4.4096    8.9190    7.9361 H   0  0  0  0  0  0  0  0  0  0  0  0
    6.7357    7.4054    5.5390 H   0  0  0  0  0  0  0  0  0  0  0  0
    6.4744    8.7532    6.6557 H   0  0  0  0  0  0  0  0  0  0  0  0
    5.1472    8.4491    3.9160 H   0  0  0  0  0  0  0  0  0  0  0  0
    4.9045    9.7987    5.0242 H   0  0  0  0  0  0  0  0  0  0  0  0
    6.4900    9.5362    4.2899 H   0  0  0  0  0  0  0  0  0  0  0  0
    4.9028    5.8325    5.0346 H   0  0  0  0  0  0  0  0  0  0  0  0
   -1.0638   -0.0218   -1.7440 H   0  0  0  0  0  0  0  0  0  0  0  0
   -0.1294   -0.1002   -0.2607 H   0  0  0  0  0  0  0  0  0  0  0  0
   -2.2635    1.9848   -0.9820 H   0  0  0  0  0  0  0  0  0  0  0  0
   -1.3237    2.0397    0.5063 H   0  0  0  0  0  0  0  0  0  0  0  0
   -2.4367    0.6960    0.2120 H   0  0  0  0  0  0  0  0  0  0  0  0
    0.1417    0.5331    1.5426 H   0  0  0  0  0  0  0  0  0  0  0  0
    1.2582    0.7999    2.8710 H   0  0  0  0  0  0  0  0  0  0  0  0
    2.1804    0.1799    0.0171 H   0  0  0  0  0  0  0  0  0  0  0  0
    3.2053    0.3744    1.4358 H   0  0  0  0  0  0  0  0  0  0  0  0
    2.0912   -0.9919    1.3392 H   0  0  0  0  0  0  0  0  0  0  0  0
    1.5322   -0.9871    9.4003 H   0  0  0  0  0  0  0  0  0  0  0  0
    2.0293   -1.3932   11.0574 H   0  0  0  0  0  0  0  0  0  0  0  0
   -0.4513   -1.1985   10.9008 H   0  0  0  0  0  0  0  0  0  0  0  0
   -0.2926    0.4632   10.3179 H   0  0  0  0  0  0  0  0  0  0  0  0
    0.2086    0.0504   11.9614 H   0  0  0  0  0  0  0  0  0  0  0  0
    1.4575    0.9809    7.6401 H   0  0  0  0  0  0  0  0  0  0  0  0
    3.0487   -0.3982   13.2525 H   0  0  0  0  0  0  0  0  0  0  0  0
    5.4585    2.1567   15.0187 H   0  0  0  0  0  0  0  0  0  0  0  0
    3.2264   -3.4163   17.4928 H   0  0  0  0  0  0  0  0  0  0  0  0
  1  2  2  0  0  0  0
  2  3  1  0  0  0  0
  3  4  2  0  0  0  0
  3  5  1  0  0  0  0
  5  6  2  0  0  0  0
  6  7  1  0  0  0  0
  7  8  2  0  0  0  0
  8  9  1  0  0  0  0
  9 10  1  0  0  0  0
 10 11  1  0  0  0  0
  9 12  2  0  0  0  0
 12 13  1  0  0  0  0
 13 14  2  0  0  0  0
 14 15  1  0  0  0  0
 15 16  3  0  0  0  0
 14 17  1  0  0  0  0
 17 18  3  0  0  0  0
  1 19  1  0  0  0  0
 19 20  1  0  0  0  0
 20 21  1  0  0  0  0
 21 22  1  0  0  0  0
 22 23  2  0  0  0  0
 23 24  1  0  0  0  0
 24 25  1  0  0  0  0
 25 26  1  0  0  0  0
 24 27  1  0  0  0  0
 27 28  1  0  0  0  0
 23 29  1  0  0  0  0
 29 30  2  0  0  0  0
 30 31  1  0  0  0  0
 30 32  1  0  0  0  0
 32 33  2  0  0  0  0
 33 34  1  0  0  0  0
 34 35  2  0  0  0  0
 35 36  1  0  0  0  0
 36 37  2  0  0  0  0
 37 38  1  0  0  0  0
 38 39  1  0  0  0  0
 39 40  1  0  0  0  0
 38 41  2  0  0  0  0
 33 42  1  0  0  0  0
 42 43  1  0  0  0  0
 43 44  1  0  0  0  0
 44 45  1  0  0  0  0
 45 46  1  0  0  0  0
 46 47  1  0  0  0  0
 47 48  2  0  0  0  0
 48 49  1  0  0  0  0
 49 50  1  0  0  0  0
 47 51  1  0  0  0  0
 51 52  1  0  0  0  0
 52 53  1  0  0  0  0
 53 54  1  0  0  0  0
 54 55  1  0  0  0  0
 55 56  1  0  0  0  0
 56 57  2  0  0  0  0
 57 58  1  0  0  0  0
 58 59  2  0  0  0  0
 59 60  1  0  0  0  0
 60 61  1  0  0  0  0
 61 62  1  0  0  0  0
 60 63  2  0  0  0  0
 55 64  2  0  0  0  0
 64 65  1  0  0  0  0
 65 66  1  0  0  0  0
 66 67  1  0  0  0  0
 67 68  1  0  0  0  0
 68 69  1  0  0  0  0
 69 70  1  0  0  0  0
 70 71  1  0  0  0  0
 71 72  1  0  0  0  0
 72 73  1  0  0  0  0
 73 74  1  0  0  0  0
 71 75  1  0  0  0  0
 75 76  1  0  0  0  0
 68 77  1  0  0  0  0
 77 78  1  0  0  0  0
 64 79  1  0  0  0  0
 79 80  1  0  0  0  0
 80 81  1  0  0  0  0
 81 82  1  0  0  0  0
 82 83  2  0  0  0  0
 83 84  1  0  0  0  0
 84 85  1  0  0  0  0
 85 86  1  0  0  0  0
 84 87  1  0  0  0  0
 87 88  1  0  0  0  0
 83 89  1  0  0  0  0
 89 90  2  0  0  0  0
 90 91  1  0  0  0  0
 90 92  1  0  0  0  0
 92 93  2  0  0  0  0
 93 94  1  0  0  0  0
 94 95  2  0  0  0  0
 94 96  1  0  0  0  0
 96 97  1  0  0  0  0
 97 98  2  0  0  0  0
 98 99  1  0  0  0  0
 98100  1  0  0  0  0
100101  1  0  0  0  0
101102  1  0  0  0  0
102103  2  0  0  0  0
103104  1  0  0  0  0
104105  3  0  0  0  0
103106  1  0  0  0  0
106107  3  0  0  0  0
 13  2  1  0  0  0  0
 28 19  2  0  0  0  0
 74 32  1  0  0  0  0
 88 79  2  0  0  0  0
102 93  1  0  0  0  0
 12  5  1  0  0  0  0
 27 21  2  0  0  0  0
 41 34  1  0  0  0  0
 73 42  2  0  0  0  0
 87 81  2  0  0  0  0
101 96  2  0  0  0  0
 31 22  1  0  0  0  0
 72 44  2  0  0  0  0
 91 82  1  0  0  0  0
 70 45  2  0  0  0  0
 50 46  2  0  0  0  0
 69 51  2  0  0  0  0
 67 52  2  0  0  0  0
 66 54  2  0  0  0  0
 63 56  1  0  0  0  0
  1108  1  0  0  0  0
  6109  1  0  0  0  0
  7110  1  0  0  0  0
  8111  1  0  0  0  0
 11112  1  0  0  0  0
 11113  1  0  0  0  0
 11114  1  0  0  0  0
 25115  1  0  0  0  0
 25116  1  0  0  0  0
 26117  1  0  0  0  0
 26118  1  0  0  0  0
 26119  1  0  0  0  0
 28120  1  0  0  0  0
 29121  1  0  0  0  0
 35122  1  0  0  0  0
 36123  1  0  0  0  0
 37124  1  0  0  0  0
 39125  1  0  0  0  0
 39126  1  0  0  0  0
 40127  1  0  0  0  0
 40128  1  0  0  0  0
 40129  1  0  0  0  0
 41130  1  0  0  0  0
 57131  1  0  0  0  0
 58132  1  0  0  0  0
 59133  1  0  0  0  0
 61134  1  0  0  0  0
 61135  1  0  0  0  0
 62136  1  0  0  0  0
 62137  1  0  0  0  0
 62138  1  0  0  0  0
 63139  1  0  0  0  0
 75140  1  0  0  0  0
 75141  1  0  0  0  0
 76142  1  0  0  0  0
 76143  1  0  0  0  0
 76144  1  0  0  0  0
 77145  1  0  0  0  0
 77146  1  0  0  0  0
 78147  1  0  0  0  0
 78148  1  0  0  0  0
 78149  1  0  0  0  0
 85150  1  0  0  0  0
 85151  1  0  0  0  0
 86152  1  0  0  0  0
 86153  1  0  0  0  0
 86154  1  0  0  0  0
 88155  1  0  0  0  0
 89156  1  0  0  0  0
 92157  1  0  0  0  0
 97158  1  0  0  0  0
M  END
