
  xtb     02042203073D
 energy: -261.718567396836 gnorm: 0.000386486565 xtb: 6.4.1 (unknown)
146163  0     0  0            999 V2000
    7.2114   -4.0781  -11.8983 C   0  0  0  0  0  0  0  0  0  0  0  0
    8.3880   -4.5292  -12.4404 C   0  0  0  0  0  0  0  0  0  0  0  0
    9.7227   -4.3214  -11.8763 C   0  0  0  0  0  0  0  0  0  0  0  0
   10.0133   -3.7897  -10.8191 O   0  0  0  0  0  0  0  0  0  0  0  0
   10.6733   -4.8645  -12.8661 C   0  0  0  0  0  0  0  0  0  0  0  0
   12.0517   -4.8614  -12.8182 C   0  0  0  0  0  0  0  0  0  0  0  0
   12.7352   -5.3802  -13.9086 C   0  0  0  0  0  0  0  0  0  0  0  0
   12.0541   -5.8406  -15.0216 C   0  0  0  0  0  0  0  0  0  0  0  0
   10.6560   -5.8324  -15.0829 C   0  0  0  0  0  0  0  0  0  0  0  0
    9.9401   -6.1848  -16.1656 O   0  0  0  0  0  0  0  0  0  0  0  0
   10.5795   -6.7558  -17.2837 C   0  0  0  0  0  0  0  0  0  0  0  0
    9.9551   -5.3807  -13.9569 C   0  0  0  0  0  0  0  0  0  0  0  0
    8.5264   -5.2875  -13.6737 C   0  0  0  0  0  0  0  0  0  0  0  0
    7.5120   -5.9169  -14.3508 C   0  0  0  0  0  0  0  0  0  0  0  0
    7.6352   -6.8537  -15.4007 C   0  0  0  0  0  0  0  0  0  0  0  0
    7.5730   -7.6794  -16.1970 N   0  0  0  0  0  0  0  0  0  0  0  0
    6.1406   -5.8162  -14.0315 C   0  0  0  0  0  0  0  0  0  0  0  0
    5.0042   -5.7911  -13.8581 N   0  0  0  0  0  0  0  0  0  0  0  0
    6.9526   -3.4139  -10.6921 C   0  0  0  0  0  0  0  0  0  0  0  0
    8.1407   -2.9683   -9.4648 S   0  0  0  0  0  0  0  0  0  0  0  0
    6.8775   -2.3620   -8.4663 C   0  0  0  0  0  0  0  0  0  0  0  0
    6.6552   -1.7936   -7.2140 C   0  0  0  0  0  0  0  0  0  0  0  0
    5.2622   -1.6034   -7.0806 C   0  0  0  0  0  0  0  0  0  0  0  0
    4.6282   -2.0024   -8.2260 N   0  0  0  0  0  0  0  0  0  0  0  0
    3.2057   -2.0695   -8.4375 C   0  0  0  0  0  0  0  0  0  0  0  0
    2.6302   -3.4067   -7.9752 C   0  0  0  0  0  0  0  0  0  0  0  0
    5.5964   -2.4911   -9.0696 C   0  0  0  0  0  0  0  0  0  0  0  0
    5.6465   -3.0759  -10.3193 C   0  0  0  0  0  0  0  0  0  0  0  0
    4.8879   -1.0820   -5.8419 C   0  0  0  0  0  0  0  0  0  0  0  0
    5.9785   -0.8656   -5.0203 C   0  0  0  0  0  0  0  0  0  0  0  0
    7.4985   -1.2939   -5.7953 S   0  0  0  0  0  0  0  0  0  0  0  0
    5.9129   -0.4035   -3.6768 C   0  0  0  0  0  0  0  0  0  0  0  0
    6.9066   -0.1088   -2.7634 C   0  0  0  0  0  0  0  0  0  0  0  0
    8.3813   -0.1145   -3.0033 C   0  0  0  0  0  0  0  0  0  0  0  0
    8.8278    1.1694   -3.7042 C   0  0  0  0  0  0  0  0  0  0  0  0
    6.3630    0.2574   -1.5193 C   0  0  0  0  0  0  0  0  0  0  0  0
    7.1168    0.6808    0.0004 S   0  0  0  0  0  0  0  0  0  0  0  0
    5.5461    0.8102    0.7130 C   0  0  0  0  0  0  0  0  0  0  0  0
    4.9675    1.0234    1.9746 C   0  0  0  0  0  0  0  0  0  0  0  0
    5.5562    1.1577    3.2507 C   0  0  0  0  0  0  0  0  0  0  0  0
    4.7071    1.1642    4.4076 C   0  0  0  0  0  0  0  0  0  0  0  0
    5.3932    1.2216    5.5384 N   0  0  0  0  0  0  0  0  0  0  0  0
    6.9713    1.2699    5.1781 S   0  0  0  0  0  0  0  0  0  0  0  0
    6.8407    1.2163    3.5654 N   0  0  0  0  0  0  0  0  0  0  0  0
    3.3077    1.1689    4.2243 C   0  0  0  0  0  0  0  0  0  0  0  0
    2.2552    1.2919    5.1449 C   0  0  0  0  0  0  0  0  0  0  0  0
    2.0230    1.3822    6.8567 S   0  0  0  0  0  0  0  0  0  0  0  0
    0.3113    1.5865    6.5827 C   0  0  0  0  0  0  0  0  0  0  0  0
   -0.7818    1.7449    7.4566 C   0  0  0  0  0  0  0  0  0  0  0  0
   -0.6714    1.7513    8.8185 O   0  0  0  0  0  0  0  0  0  0  0  0
   -0.6578    3.0433    9.4194 C   0  0  0  0  0  0  0  0  0  0  0  0
    0.5735    3.8589    9.0483 C   0  0  0  0  0  0  0  0  0  0  0  0
   -1.9790    1.8729    6.7681 C   0  0  0  0  0  0  0  0  0  0  0  0
   -1.7470    1.8090    5.0343 S   0  0  0  0  0  0  0  0  0  0  0  0
   -0.0430    1.5849    5.2316 C   0  0  0  0  0  0  0  0  0  0  0  0
    1.0743    1.4027    4.4060 C   0  0  0  0  0  0  0  0  0  0  0  0
    1.3543    1.3267    3.0664 N   0  0  0  0  0  0  0  0  0  0  0  0
    2.7203    1.1537    2.9280 C   0  0  0  0  0  0  0  0  0  0  0  0
    3.5579    0.9460    1.8008 C   0  0  0  0  0  0  0  0  0  0  0  0
    3.2938    0.6658    0.4666 N   0  0  0  0  0  0  0  0  0  0  0  0
    4.5002    0.5661   -0.1790 C   0  0  0  0  0  0  0  0  0  0  0  0
    4.9696    0.2429   -1.4582 C   0  0  0  0  0  0  0  0  0  0  0  0
    4.2981   -0.2141   -2.9822 S   0  0  0  0  0  0  0  0  0  0  0  0
    2.1515   -0.0076   -0.1121 C   0  0  0  0  0  0  0  0  0  0  0  0
    2.0398   -1.4392    0.4081 C   0  0  0  0  0  0  0  0  0  0  0  0
    0.3759    1.7740    2.1011 C   0  0  0  0  0  0  0  0  0  0  0  0
   -0.6911    0.7171    1.8212 C   0  0  0  0  0  0  0  0  0  0  0  0
   -3.2893    2.0020    7.3082 C   0  0  0  0  0  0  0  0  0  0  0  0
   -4.6128    2.5405    6.2811 S   0  0  0  0  0  0  0  0  0  0  0  0
   -5.7066    2.4032    7.6093 C   0  0  0  0  0  0  0  0  0  0  0  0
   -7.0467    2.5778    7.9415 C   0  0  0  0  0  0  0  0  0  0  0  0
   -7.1697    2.2270    9.3133 C   0  0  0  0  0  0  0  0  0  0  0  0
   -5.9419    1.8696    9.8102 N   0  0  0  0  0  0  0  0  0  0  0  0
   -5.6866    1.3556   11.1314 C   0  0  0  0  0  0  0  0  0  0  0  0
   -5.9925   -0.1379   11.2195 C   0  0  0  0  0  0  0  0  0  0  0  0
   -5.0492    1.9563    8.7794 C   0  0  0  0  0  0  0  0  0  0  0  0
   -3.6814    1.7307    8.6020 C   0  0  0  0  0  0  0  0  0  0  0  0
   -8.4584    2.3410    9.8118 C   0  0  0  0  0  0  0  0  0  0  0  0
   -9.3493    2.7788    8.8418 C   0  0  0  0  0  0  0  0  0  0  0  0
   -8.5532    3.0640    7.2797 S   0  0  0  0  0  0  0  0  0  0  0  0
  -10.7237    3.0652    8.8935 C   0  0  0  0  0  0  0  0  0  0  0  0
  -11.6554    2.8484    9.8751 C   0  0  0  0  0  0  0  0  0  0  0  0
  -11.5293    2.0647   11.1191 C   0  0  0  0  0  0  0  0  0  0  0  0
  -10.5287    1.6430   11.6674 O   0  0  0  0  0  0  0  0  0  0  0  0
  -12.9128    1.8478   11.5932 C   0  0  0  0  0  0  0  0  0  0  0  0
  -13.3352    1.0896   12.6662 C   0  0  0  0  0  0  0  0  0  0  0  0
  -14.7012    0.9862   12.8841 C   0  0  0  0  0  0  0  0  0  0  0  0
  -15.6080    1.5887   12.0290 C   0  0  0  0  0  0  0  0  0  0  0  0
  -15.1879    2.3493   10.9324 C   0  0  0  0  0  0  0  0  0  0  0  0
  -16.0114    2.8868   10.0142 O   0  0  0  0  0  0  0  0  0  0  0  0
  -17.4058    2.8585   10.2149 C   0  0  0  0  0  0  0  0  0  0  0  0
  -13.8096    2.5170   10.7473 C   0  0  0  0  0  0  0  0  0  0  0  0
  -13.0461    3.2753    9.7661 C   0  0  0  0  0  0  0  0  0  0  0  0
  -13.4943    4.3296    9.0148 C   0  0  0  0  0  0  0  0  0  0  0  0
  -12.6788    5.1132    8.1674 C   0  0  0  0  0  0  0  0  0  0  0  0
  -12.0926    5.8131    7.4700 N   0  0  0  0  0  0  0  0  0  0  0  0
  -14.7820    4.9084    9.0552 C   0  0  0  0  0  0  0  0  0  0  0  0
  -15.7572    5.5146    9.0353 N   0  0  0  0  0  0  0  0  0  0  0  0
    6.3138   -4.2546  -12.4780 H   0  0  0  0  0  0  0  0  0  0  0  0
   12.5657   -4.4653  -11.9572 H   0  0  0  0  0  0  0  0  0  0  0  0
   13.8144   -5.4097  -13.9051 H   0  0  0  0  0  0  0  0  0  0  0  0
   12.6203   -6.2037  -15.8648 H   0  0  0  0  0  0  0  0  0  0  0  0
    9.7707   -7.0504  -17.9500 H   0  0  0  0  0  0  0  0  0  0  0  0
   11.2288   -6.0316  -17.7853 H   0  0  0  0  0  0  0  0  0  0  0  0
   11.1564   -7.6416  -17.0044 H   0  0  0  0  0  0  0  0  0  0  0  0
    3.0128   -1.9264   -9.5040 H   0  0  0  0  0  0  0  0  0  0  0  0
    2.7403   -1.2479   -7.8864 H   0  0  0  0  0  0  0  0  0  0  0  0
    1.5578   -3.4307   -8.1469 H   0  0  0  0  0  0  0  0  0  0  0  0
    2.8192   -3.5518   -6.9140 H   0  0  0  0  0  0  0  0  0  0  0  0
    3.0909   -4.2244   -8.5242 H   0  0  0  0  0  0  0  0  0  0  0  0
    4.8018   -3.2840  -10.9514 H   0  0  0  0  0  0  0  0  0  0  0  0
    3.8794   -0.8730   -5.5327 H   0  0  0  0  0  0  0  0  0  0  0  0
    8.6663   -0.9800   -3.6030 H   0  0  0  0  0  0  0  0  0  0  0  0
    8.8811   -0.1879   -2.0350 H   0  0  0  0  0  0  0  0  0  0  0  0
    9.9032    1.1548   -3.8575 H   0  0  0  0  0  0  0  0  0  0  0  0
    8.5738    2.0361   -3.0981 H   0  0  0  0  0  0  0  0  0  0  0  0
    8.3419    1.2669   -4.6719 H   0  0  0  0  0  0  0  0  0  0  0  0
   -1.5717    3.5899    9.1480 H   0  0  0  0  0  0  0  0  0  0  0  0
   -0.6701    2.8380   10.4923 H   0  0  0  0  0  0  0  0  0  0  0  0
    1.4759    3.2925    9.2646 H   0  0  0  0  0  0  0  0  0  0  0  0
    0.5846    4.7808    9.6229 H   0  0  0  0  0  0  0  0  0  0  0  0
    0.5649    4.1080    7.9892 H   0  0  0  0  0  0  0  0  0  0  0  0
    1.2326    0.5390    0.0796 H   0  0  0  0  0  0  0  0  0  0  0  0
    2.3120   -0.0207   -1.1932 H   0  0  0  0  0  0  0  0  0  0  0  0
    1.9166   -1.4449    1.4892 H   0  0  0  0  0  0  0  0  0  0  0  0
    2.9403   -1.9981    0.1636 H   0  0  0  0  0  0  0  0  0  0  0  0
    1.1886   -1.9367   -0.0490 H   0  0  0  0  0  0  0  0  0  0  0  0
    0.8965    2.0856    1.1945 H   0  0  0  0  0  0  0  0  0  0  0  0
   -0.1170    2.6607    2.5163 H   0  0  0  0  0  0  0  0  0  0  0  0
   -0.2487   -0.2281    1.5207 H   0  0  0  0  0  0  0  0  0  0  0  0
   -1.3544    1.0651    1.0340 H   0  0  0  0  0  0  0  0  0  0  0  0
   -1.2846    0.5448    2.7148 H   0  0  0  0  0  0  0  0  0  0  0  0
   -6.3124    1.9063   11.8389 H   0  0  0  0  0  0  0  0  0  0  0  0
   -4.6368    1.5425   11.3706 H   0  0  0  0  0  0  0  0  0  0  0  0
   -5.3832   -0.6915   10.5086 H   0  0  0  0  0  0  0  0  0  0  0  0
   -7.0412   -0.3194   10.9971 H   0  0  0  0  0  0  0  0  0  0  0  0
   -5.7805   -0.5018   12.2207 H   0  0  0  0  0  0  0  0  0  0  0  0
   -3.0024    1.3619    9.3476 H   0  0  0  0  0  0  0  0  0  0  0  0
   -8.7675    2.1196   10.8159 H   0  0  0  0  0  0  0  0  0  0  0  0
  -11.0977    3.5074    7.9769 H   0  0  0  0  0  0  0  0  0  0  0  0
  -12.6170    0.5993   13.3036 H   0  0  0  0  0  0  0  0  0  0  0  0
  -15.0718    0.4125   13.7203 H   0  0  0  0  0  0  0  0  0  0  0  0
  -16.6626    1.4561   12.2119 H   0  0  0  0  0  0  0  0  0  0  0  0
  -17.6798    3.3119   11.1713 H   0  0  0  0  0  0  0  0  0  0  0  0
  -17.7966    1.8376   10.1612 H   0  0  0  0  0  0  0  0  0  0  0  0
  -17.8201    3.4551    9.4043 H   0  0  0  0  0  0  0  0  0  0  0  0
  1  2  2  0  0  0  0
  2  3  1  0  0  0  0
  3  4  2  0  0  0  0
  3  5  1  0  0  0  0
  5  6  2  0  0  0  0
  6  7  1  0  0  0  0
  7  8  2  0  0  0  0
  8  9  1  0  0  0  0
  9 10  1  0  0  0  0
 10 11  1  0  0  0  0
  9 12  2  0  0  0  0
 12 13  1  0  0  0  0
 13 14  2  0  0  0  0
 14 15  1  0  0  0  0
 15 16  3  0  0  0  0
 14 17  1  0  0  0  0
 17 18  3  0  0  0  0
  1 19  1  0  0  0  0
 19 20  1  0  0  0  0
 20 21  1  0  0  0  0
 21 22  1  0  0  0  0
 22 23  2  0  0  0  0
 23 24  1  0  0  0  0
 24 25  1  0  0  0  0
 25 26  1  0  0  0  0
 24 27  1  0  0  0  0
 27 28  1  0  0  0  0
 23 29  1  0  0  0  0
 29 30  2  0  0  0  0
 30 31  1  0  0  0  0
 30 32  1  0  0  0  0
 32 33  2  0  0  0  0
 33 34  1  0  0  0  0
 34 35  1  0  0  0  0
 33 36  1  0  0  0  0
 36 37  1  0  0  0  0
 37 38  1  0  0  0  0
 38 39  1  0  0  0  0
 39 40  1  0  0  0  0
 40 41  1  0  0  0  0
 41 42  2  0  0  0  0
 42 43  1  0  0  0  0
 43 44  1  0  0  0  0
 41 45  1  0  0  0  0
 45 46  1  0  0  0  0
 46 47  1  0  0  0  0
 47 48  1  0  0  0  0
 48 49  1  0  0  0  0
 49 50  1  0  0  0  0
 50 51  1  0  0  0  0
 51 52  1  0  0  0  0
 49 53  2  0  0  0  0
 53 54  1  0  0  0  0
 54 55  1  0  0  0  0
 55 56  1  0  0  0  0
 56 57  1  0  0  0  0
 57 58  1  0  0  0  0
 58 59  1  0  0  0  0
 59 60  1  0  0  0  0
 60 61  1  0  0  0  0
 61 62  1  0  0  0  0
 62 63  1  0  0  0  0
 60 64  1  0  0  0  0
 64 65  1  0  0  0  0
 57 66  1  0  0  0  0
 66 67  1  0  0  0  0
 53 68  1  0  0  0  0
 68 69  1  0  0  0  0
 69 70  1  0  0  0  0
 70 71  1  0  0  0  0
 71 72  2  0  0  0  0
 72 73  1  0  0  0  0
 73 74  1  0  0  0  0
 74 75  1  0  0  0  0
 73 76  1  0  0  0  0
 76 77  1  0  0  0  0
 72 78  1  0  0  0  0
 78 79  2  0  0  0  0
 79 80  1  0  0  0  0
 79 81  1  0  0  0  0
 81 82  2  0  0  0  0
 82 83  1  0  0  0  0
 83 84  2  0  0  0  0
 83 85  1  0  0  0  0
 85 86  2  0  0  0  0
 86 87  1  0  0  0  0
 87 88  2  0  0  0  0
 88 89  1  0  0  0  0
 89 90  1  0  0  0  0
 90 91  1  0  0  0  0
 89 92  2  0  0  0  0
 92 93  1  0  0  0  0
 93 94  2  0  0  0  0
 94 95  1  0  0  0  0
 95 96  3  0  0  0  0
 94 97  1  0  0  0  0
 97 98  3  0  0  0  0
 13  2  1  0  0  0  0
 28 19  2  0  0  0  0
 63 32  1  0  0  0  0
 77 68  2  0  0  0  0
 93 82  1  0  0  0  0
 12  5  1  0  0  0  0
 27 21  2  0  0  0  0
 62 36  2  0  0  0  0
 76 70  2  0  0  0  0
 92 85  1  0  0  0  0
 31 22  1  0  0  0  0
 61 38  2  0  0  0  0
 80 71  1  0  0  0  0
 59 39  2  0  0  0  0
 44 40  2  0  0  0  0
 58 45  2  0  0  0  0
 56 46  2  0  0  0  0
 55 48  2  0  0  0  0
  1 99  1  0  0  0  0
  6100  1  0  0  0  0
  7101  1  0  0  0  0
  8102  1  0  0  0  0
 11103  1  0  0  0  0
 11104  1  0  0  0  0
 11105  1  0  0  0  0
 25106  1  0  0  0  0
 25107  1  0  0  0  0
 26108  1  0  0  0  0
 26109  1  0  0  0  0
 26110  1  0  0  0  0
 28111  1  0  0  0  0
 29112  1  0  0  0  0
 34113  1  0  0  0  0
 34114  1  0  0  0  0
 35115  1  0  0  0  0
 35116  1  0  0  0  0
 35117  1  0  0  0  0
 51118  1  0  0  0  0
 51119  1  0  0  0  0
 52120  1  0  0  0  0
 52121  1  0  0  0  0
 52122  1  0  0  0  0
 64123  1  0  0  0  0
 64124  1  0  0  0  0
 65125  1  0  0  0  0
 65126  1  0  0  0  0
 65127  1  0  0  0  0
 66128  1  0  0  0  0
 66129  1  0  0  0  0
 67130  1  0  0  0  0
 67131  1  0  0  0  0
 67132  1  0  0  0  0
 74133  1  0  0  0  0
 74134  1  0  0  0  0
 75135  1  0  0  0  0
 75136  1  0  0  0  0
 75137  1  0  0  0  0
 77138  1  0  0  0  0
 78139  1  0  0  0  0
 81140  1  0  0  0  0
 86141  1  0  0  0  0
 87142  1  0  0  0  0
 88143  1  0  0  0  0
 91144  1  0  0  0  0
 91145  1  0  0  0  0
 91146  1  0  0  0  0
M  END
