
  xtb     02032223553D
 energy: -333.260847916250 gnorm: 0.000454020628 xtb: 6.4.1 (unknown)
185205  0     0  0            999 V2000
   -9.4667    3.3689   -9.9368 C   0  0  0  0  0  0  0  0  0  0  0  0
  -10.3660    3.9544   -9.1005 C   0  0  0  0  0  0  0  0  0  0  0  0
  -11.1666    5.1175   -9.5571 C   0  0  0  0  0  0  0  0  0  0  0  0
  -11.3231    5.4932  -10.6974 O   0  0  0  0  0  0  0  0  0  0  0  0
  -11.6644    5.7497   -8.3149 C   0  0  0  0  0  0  0  0  0  0  0  0
  -12.3518    6.9372   -8.1630 C   0  0  0  0  0  0  0  0  0  0  0  0
  -12.6622    7.3429   -6.8729 C   0  0  0  0  0  0  0  0  0  0  0  0
  -12.2653    6.6028   -5.7716 C   0  0  0  0  0  0  0  0  0  0  0  0
  -11.5630    5.4017   -5.9132 C   0  0  0  0  0  0  0  0  0  0  0  0
  -11.0743    4.6670   -4.8961 O   0  0  0  0  0  0  0  0  0  0  0  0
  -11.3930    5.0136   -3.5682 C   0  0  0  0  0  0  0  0  0  0  0  0
  -11.2996    4.9569   -7.2135 C   0  0  0  0  0  0  0  0  0  0  0  0
  -10.6776    3.7325   -7.7006 C   0  0  0  0  0  0  0  0  0  0  0  0
  -10.7038    2.5032   -7.0968 C   0  0  0  0  0  0  0  0  0  0  0  0
  -11.2258    2.2136   -5.8198 C   0  0  0  0  0  0  0  0  0  0  0  0
  -11.6618    1.8584   -4.8188 N   0  0  0  0  0  0  0  0  0  0  0  0
  -10.3477    1.3232   -7.7858 C   0  0  0  0  0  0  0  0  0  0  0  0
  -10.1173    0.3393   -8.3314 N   0  0  0  0  0  0  0  0  0  0  0  0
   -8.3503    2.5654   -9.6171 C   0  0  0  0  0  0  0  0  0  0  0  0
   -7.6292    2.5623   -8.0053 S   0  0  0  0  0  0  0  0  0  0  0  0
   -6.4053    1.4830   -8.5425 C   0  0  0  0  0  0  0  0  0  0  0  0
   -5.2805    0.8003   -8.0909 C   0  0  0  0  0  0  0  0  0  0  0  0
   -4.7785    0.0675   -9.1903 C   0  0  0  0  0  0  0  0  0  0  0  0
   -5.5705    0.2759  -10.2859 N   0  0  0  0  0  0  0  0  0  0  0  0
   -5.3408   -0.2243  -11.6165 C   0  0  0  0  0  0  0  0  0  0  0  0
   -4.5227    0.7586  -12.4518 C   0  0  0  0  0  0  0  0  0  0  0  0
   -6.5583    1.1511   -9.9114 C   0  0  0  0  0  0  0  0  0  0  0  0
   -7.6396    1.7840  -10.5142 C   0  0  0  0  0  0  0  0  0  0  0  0
   -3.6338   -0.6782   -8.8913 C   0  0  0  0  0  0  0  0  0  0  0  0
   -3.2649   -0.5309   -7.5715 C   0  0  0  0  0  0  0  0  0  0  0  0
   -4.3261    0.5546   -6.6776 S   0  0  0  0  0  0  0  0  0  0  0  0
   -2.1589   -1.1155   -6.8898 C   0  0  0  0  0  0  0  0  0  0  0  0
   -1.4028   -2.2253   -7.2254 C   0  0  0  0  0  0  0  0  0  0  0  0
   -1.6899   -3.1579   -8.3182 C   0  0  0  0  0  0  0  0  0  0  0  0
   -0.6759   -3.5664   -9.1787 C   0  0  0  0  0  0  0  0  0  0  0  0
   -0.9555   -4.4627  -10.1937 C   0  0  0  0  0  0  0  0  0  0  0  0
   -2.2371   -4.9597  -10.3548 C   0  0  0  0  0  0  0  0  0  0  0  0
   -3.2566   -4.5783   -9.4908 C   0  0  0  0  0  0  0  0  0  0  0  0
   -4.6601   -5.0814   -9.6725 C   0  0  0  0  0  0  0  0  0  0  0  0
   -5.5082   -4.0426  -10.4093 C   0  0  0  0  0  0  0  0  0  0  0  0
   -2.9700   -3.6798   -8.4748 C   0  0  0  0  0  0  0  0  0  0  0  0
   -0.3413   -2.4124   -6.3175 C   0  0  0  0  0  0  0  0  0  0  0  0
    0.9158   -3.6222   -6.2052 S   0  0  0  0  0  0  0  0  0  0  0  0
    1.4791   -2.8654   -4.7528 C   0  0  0  0  0  0  0  0  0  0  0  0
    2.5035   -3.0063   -3.8052 C   0  0  0  0  0  0  0  0  0  0  0  0
    3.5846   -3.9121   -3.7558 C   0  0  0  0  0  0  0  0  0  0  0  0
    4.5441   -3.7863   -2.6996 C   0  0  0  0  0  0  0  0  0  0  0  0
    5.5231   -4.6724   -2.7958 N   0  0  0  0  0  0  0  0  0  0  0  0
    5.2563   -5.5891   -4.1035 S   0  0  0  0  0  0  0  0  0  0  0  0
    3.8821   -4.8893   -4.5981 N   0  0  0  0  0  0  0  0  0  0  0  0
    4.3338   -2.8108   -1.7016 C   0  0  0  0  0  0  0  0  0  0  0  0
    5.0405   -2.5562   -0.5176 C   0  0  0  0  0  0  0  0  0  0  0  0
    6.4054   -3.1617    0.3591 S   0  0  0  0  0  0  0  0  0  0  0  0
    6.0334   -2.0495    1.6588 C   0  0  0  0  0  0  0  0  0  0  0  0
    6.5880   -1.8554    2.9348 C   0  0  0  0  0  0  0  0  0  0  0  0
    7.6089   -2.7360    3.4984 C   0  0  0  0  0  0  0  0  0  0  0  0
    7.4480   -3.2682    4.7771 C   0  0  0  0  0  0  0  0  0  0  0  0
    8.3981   -4.1342    5.2811 C   0  0  0  0  0  0  0  0  0  0  0  0
    9.5050   -4.4774    4.5237 C   0  0  0  0  0  0  0  0  0  0  0  0
    9.6712   -3.9672    3.2424 C   0  0  0  0  0  0  0  0  0  0  0  0
   10.8916   -4.2992    2.4333 C   0  0  0  0  0  0  0  0  0  0  0  0
   11.9903   -3.2655    2.6881 C   0  0  0  0  0  0  0  0  0  0  0  0
    8.7143   -3.1006    2.7378 C   0  0  0  0  0  0  0  0  0  0  0  0
    5.9190   -0.8455    3.6213 C   0  0  0  0  0  0  0  0  0  0  0  0
    4.5518   -0.2125    2.7263 S   0  0  0  0  0  0  0  0  0  0  0  0
    4.9221   -1.2411    1.3928 C   0  0  0  0  0  0  0  0  0  0  0  0
    4.3501   -1.5441    0.1537 C   0  0  0  0  0  0  0  0  0  0  0  0
    3.2490   -1.1692   -0.5666 N   0  0  0  0  0  0  0  0  0  0  0  0
    3.2158   -1.9224   -1.7263 C   0  0  0  0  0  0  0  0  0  0  0  0
    2.3288   -1.9725   -2.8378 C   0  0  0  0  0  0  0  0  0  0  0  0
    1.2442   -1.2058   -3.2313 N   0  0  0  0  0  0  0  0  0  0  0  0
    0.7310   -1.7492   -4.3759 C   0  0  0  0  0  0  0  0  0  0  0  0
   -0.3066   -1.4816   -5.2777 C   0  0  0  0  0  0  0  0  0  0  0  0
   -1.5771   -0.3220   -5.4352 S   0  0  0  0  0  0  0  0  0  0  0  0
    0.7213    0.0582   -2.7697 C   0  0  0  0  0  0  0  0  0  0  0  0
   -0.5994   -0.1088   -2.0160 C   0  0  0  0  0  0  0  0  0  0  0  0
    2.2796   -0.3039    0.0630 C   0  0  0  0  0  0  0  0  0  0  0  0
    2.7051    1.1632    0.0138 C   0  0  0  0  0  0  0  0  0  0  0  0
    6.1863   -0.2950    4.9113 C   0  0  0  0  0  0  0  0  0  0  0  0
    7.4431   -0.2687    5.5176 C   0  0  0  0  0  0  0  0  0  0  0  0
    8.5423   -0.5890    4.8154 F   0  0  0  0  0  0  0  0  0  0  0  0
    7.6178    0.0771    6.8564 C   0  0  0  0  0  0  0  0  0  0  0  0
    8.8457   -0.0392    7.3806 F   0  0  0  0  0  0  0  0  0  0  0  0
    6.5694    0.4954    7.6706 C   0  0  0  0  0  0  0  0  0  0  0  0
    5.3319    0.7240    7.0050 C   0  0  0  0  0  0  0  0  0  0  0  0
    4.3714    1.4410    7.5821 N   0  0  0  0  0  0  0  0  0  0  0  0
    3.1766    1.5527    7.0386 C   0  0  0  0  0  0  0  0  0  0  0  0
    2.3469    2.5474    7.6551 C   0  0  0  0  0  0  0  0  0  0  0  0
    3.0904    3.3921    8.9839 S   0  0  0  0  0  0  0  0  0  0  0  0
    1.6802    4.3447    9.2459 C   0  0  0  0  0  0  0  0  0  0  0  0
    1.5657    5.3381   10.3521 C   0  0  0  0  0  0  0  0  0  0  0  0
    2.9061    5.6436   11.0054 C   0  0  0  0  0  0  0  0  0  0  0  0
    0.7263    4.0233    8.3157 C   0  0  0  0  0  0  0  0  0  0  0  0
    1.0838    3.0194    7.4049 C   0  0  0  0  0  0  0  0  0  0  0  0
   -0.4791    4.6239    8.2877 F   0  0  0  0  0  0  0  0  0  0  0  0
    2.8728    0.7472    5.8903 C   0  0  0  0  0  0  0  0  0  0  0  0
    3.8723    0.2334    5.2080 N   0  0  0  0  0  0  0  0  0  0  0  0
    5.1184    0.2564    5.6785 C   0  0  0  0  0  0  0  0  0  0  0  0
    1.5447    0.4268    5.4390 C   0  0  0  0  0  0  0  0  0  0  0  0
    0.4126    0.2207    6.1810 C   0  0  0  0  0  0  0  0  0  0  0  0
   -0.6707   -0.1668    5.3730 C   0  0  0  0  0  0  0  0  0  0  0  0
   -1.8911   -0.4087    5.8799 F   0  0  0  0  0  0  0  0  0  0  0  0
   -0.3975   -0.2668    4.0373 C   0  0  0  0  0  0  0  0  0  0  0  0
   -1.3287   -0.6230    2.9301 C   0  0  0  0  0  0  0  0  0  0  0  0
   -1.4274    0.4966    1.8940 C   0  0  0  0  0  0  0  0  0  0  0  0
    1.2675    0.1053    3.7559 S   0  0  0  0  0  0  0  0  0  0  0  0
    6.7329    0.7235    9.0732 C   0  0  0  0  0  0  0  0  0  0  0  0
    5.7577    0.7012   10.0152 C   0  0  0  0  0  0  0  0  0  0  0  0
    5.9806    1.3265   11.3473 C   0  0  0  0  0  0  0  0  0  0  0  0
    7.0385    1.6207   11.8500 O   0  0  0  0  0  0  0  0  0  0  0  0
    4.6220    1.5744   11.8805 C   0  0  0  0  0  0  0  0  0  0  0  0
    4.2574    2.2764   13.0120 C   0  0  0  0  0  0  0  0  0  0  0  0
    2.9028    2.4441   13.2604 C   0  0  0  0  0  0  0  0  0  0  0  0
    1.9478    1.9579   12.3827 C   0  0  0  0  0  0  0  0  0  0  0  0
    2.3060    1.2506   11.2319 C   0  0  0  0  0  0  0  0  0  0  0  0
    1.4404    0.8360   10.2855 O   0  0  0  0  0  0  0  0  0  0  0  0
    0.0530    0.9683   10.4996 C   0  0  0  0  0  0  0  0  0  0  0  0
    3.6700    1.0218   11.0068 C   0  0  0  0  0  0  0  0  0  0  0  0
    4.3620    0.2915    9.9532 C   0  0  0  0  0  0  0  0  0  0  0  0
    3.8803   -0.7690    9.2331 C   0  0  0  0  0  0  0  0  0  0  0  0
    4.6951   -1.5659    8.4011 C   0  0  0  0  0  0  0  0  0  0  0  0
    5.2988   -2.2638    7.7170 N   0  0  0  0  0  0  0  0  0  0  0  0
    2.5536   -1.2447    9.2017 C   0  0  0  0  0  0  0  0  0  0  0  0
    1.5149   -1.7166    9.0694 N   0  0  0  0  0  0  0  0  0  0  0  0
   -9.5745    3.6245  -10.9868 H   0  0  0  0  0  0  0  0  0  0  0  0
  -12.6343    7.5188   -9.0257 H   0  0  0  0  0  0  0  0  0  0  0  0
  -13.2101    8.2598   -6.7156 H   0  0  0  0  0  0  0  0  0  0  0  0
  -12.5012    6.9710   -4.7855 H   0  0  0  0  0  0  0  0  0  0  0  0
  -10.9474    5.9733   -3.2881 H   0  0  0  0  0  0  0  0  0  0  0  0
  -12.4749    5.0472   -3.4139 H   0  0  0  0  0  0  0  0  0  0  0  0
  -10.9693    4.2193   -2.9569 H   0  0  0  0  0  0  0  0  0  0  0  0
   -4.8128   -1.1773  -11.5339 H   0  0  0  0  0  0  0  0  0  0  0  0
   -6.3115   -0.4031  -12.0868 H   0  0  0  0  0  0  0  0  0  0  0  0
   -4.3718    0.3618  -13.4517 H   0  0  0  0  0  0  0  0  0  0  0  0
   -3.5517    0.9270  -11.9918 H   0  0  0  0  0  0  0  0  0  0  0  0
   -5.0398    1.7123  -12.5278 H   0  0  0  0  0  0  0  0  0  0  0  0
   -7.9363    1.6746  -11.5415 H   0  0  0  0  0  0  0  0  0  0  0  0
   -3.0847   -1.2824   -9.5888 H   0  0  0  0  0  0  0  0  0  0  0  0
    0.3220   -3.1734   -9.0565 H   0  0  0  0  0  0  0  0  0  0  0  0
   -0.1682   -4.7755  -10.8634 H   0  0  0  0  0  0  0  0  0  0  0  0
   -2.4473   -5.6578  -11.1524 H   0  0  0  0  0  0  0  0  0  0  0  0
   -4.6508   -6.0119  -10.2426 H   0  0  0  0  0  0  0  0  0  0  0  0
   -5.1088   -5.2815   -8.6975 H   0  0  0  0  0  0  0  0  0  0  0  0
   -5.0809   -3.8338  -11.3885 H   0  0  0  0  0  0  0  0  0  0  0  0
   -6.5231   -4.4073  -10.5462 H   0  0  0  0  0  0  0  0  0  0  0  0
   -5.5488   -3.1153   -9.8413 H   0  0  0  0  0  0  0  0  0  0  0  0
   -3.7493   -3.3840   -7.7870 H   0  0  0  0  0  0  0  0  0  0  0  0
    6.5792   -3.0148    5.3668 H   0  0  0  0  0  0  0  0  0  0  0  0
    8.2717   -4.5432    6.2724 H   0  0  0  0  0  0  0  0  0  0  0  0
   10.2459   -5.1516    4.9289 H   0  0  0  0  0  0  0  0  0  0  0  0
   10.6399   -4.3054    1.3709 H   0  0  0  0  0  0  0  0  0  0  0  0
   11.2585   -5.2911    2.7047 H   0  0  0  0  0  0  0  0  0  0  0  0
   12.2618   -3.2548    3.7412 H   0  0  0  0  0  0  0  0  0  0  0  0
   12.8764   -3.4975    2.1017 H   0  0  0  0  0  0  0  0  0  0  0  0
   11.6424   -2.2713    2.4175 H   0  0  0  0  0  0  0  0  0  0  0  0
    8.8386   -2.6847    1.7485 H   0  0  0  0  0  0  0  0  0  0  0  0
    0.5361    0.6762   -3.6555 H   0  0  0  0  0  0  0  0  0  0  0  0
    1.4709    0.5639   -2.1681 H   0  0  0  0  0  0  0  0  0  0  0  0
   -1.3798   -0.4344   -2.6982 H   0  0  0  0  0  0  0  0  0  0  0  0
   -0.5178   -0.8510   -1.2246 H   0  0  0  0  0  0  0  0  0  0  0  0
   -0.8979    0.8412   -1.5818 H   0  0  0  0  0  0  0  0  0  0  0  0
    1.3063   -0.4593   -0.3914 H   0  0  0  0  0  0  0  0  0  0  0  0
    2.2085   -0.6028    1.1149 H   0  0  0  0  0  0  0  0  0  0  0  0
    1.9174    1.7890    0.4238 H   0  0  0  0  0  0  0  0  0  0  0  0
    3.6015    1.3079    0.6097 H   0  0  0  0  0  0  0  0  0  0  0  0
    2.9205    1.4860   -1.0027 H   0  0  0  0  0  0  0  0  0  0  0  0
    1.1187    6.2541    9.9544 H   0  0  0  0  0  0  0  0  0  0  0  0
    0.8729    4.9484   11.1064 H   0  0  0  0  0  0  0  0  0  0  0  0
    3.6047    6.0394   10.2725 H   0  0  0  0  0  0  0  0  0  0  0  0
    3.3347    4.7401   11.4346 H   0  0  0  0  0  0  0  0  0  0  0  0
    2.7795    6.3779   11.7964 H   0  0  0  0  0  0  0  0  0  0  0  0
    0.4366    2.6833    6.6176 H   0  0  0  0  0  0  0  0  0  0  0  0
    0.3672    0.2926    7.2516 H   0  0  0  0  0  0  0  0  0  0  0  0
   -2.3124   -0.8239    3.3587 H   0  0  0  0  0  0  0  0  0  0  0  0
   -0.9774   -1.5359    2.4414 H   0  0  0  0  0  0  0  0  0  0  0  0
   -1.8119    1.4042    2.3527 H   0  0  0  0  0  0  0  0  0  0  0  0
   -2.0980    0.2052    1.0900 H   0  0  0  0  0  0  0  0  0  0  0  0
   -0.4453    0.7085    1.4771 H   0  0  0  0  0  0  0  0  0  0  0  0
    7.7284    0.9832    9.4161 H   0  0  0  0  0  0  0  0  0  0  0  0
    5.0106    2.6784   13.6703 H   0  0  0  0  0  0  0  0  0  0  0  0
    2.5792    2.9798   14.1400 H   0  0  0  0  0  0  0  0  0  0  0  0
    0.9061    2.1418   12.5937 H   0  0  0  0  0  0  0  0  0  0  0  0
   -0.4193    0.4450    9.6704 H   0  0  0  0  0  0  0  0  0  0  0  0
   -0.2543    0.4960   11.4359 H   0  0  0  0  0  0  0  0  0  0  0  0
   -0.2530    2.0191   10.4937 H   0  0  0  0  0  0  0  0  0  0  0  0
  1  2  2  0  0  0  0
  2  3  1  0  0  0  0
  3  4  2  0  0  0  0
  3  5  1  0  0  0  0
  5  6  2  0  0  0  0
  6  7  1  0  0  0  0
  7  8  2  0  0  0  0
  8  9  1  0  0  0  0
  9 10  1  0  0  0  0
 10 11  1  0  0  0  0
  9 12  2  0  0  0  0
 12 13  1  0  0  0  0
 13 14  2  0  0  0  0
 14 15  1  0  0  0  0
 15 16  3  0  0  0  0
 14 17  1  0  0  0  0
 17 18  3  0  0  0  0
  1 19  1  0  0  0  0
 19 20  1  0  0  0  0
 20 21  1  0  0  0  0
 21 22  1  0  0  0  0
 22 23  2  0  0  0  0
 23 24  1  0  0  0  0
 24 25  1  0  0  0  0
 25 26  1  0  0  0  0
 24 27  1  0  0  0  0
 27 28  1  0  0  0  0
 23 29  1  0  0  0  0
 29 30  2  0  0  0  0
 30 31  1  0  0  0  0
 30 32  1  0  0  0  0
 32 33  2  0  0  0  0
 33 34  1  0  0  0  0
 34 35  2  0  0  0  0
 35 36  1  0  0  0  0
 36 37  2  0  0  0  0
 37 38  1  0  0  0  0
 38 39  1  0  0  0  0
 39 40  1  0  0  0  0
 38 41  2  0  0  0  0
 33 42  1  0  0  0  0
 42 43  1  0  0  0  0
 43 44  1  0  0  0  0
 44 45  1  0  0  0  0
 45 46  1  0  0  0  0
 46 47  1  0  0  0  0
 47 48  2  0  0  0  0
 48 49  1  0  0  0  0
 49 50  1  0  0  0  0
 47 51  1  0  0  0  0
 51 52  1  0  0  0  0
 52 53  1  0  0  0  0
 53 54  1  0  0  0  0
 54 55  1  0  0  0  0
 55 56  1  0  0  0  0
 56 57  2  0  0  0  0
 57 58  1  0  0  0  0
 58 59  2  0  0  0  0
 59 60  1  0  0  0  0
 60 61  1  0  0  0  0
 61 62  1  0  0  0  0
 60 63  2  0  0  0  0
 55 64  2  0  0  0  0
 64 65  1  0  0  0  0
 65 66  1  0  0  0  0
 66 67  1  0  0  0  0
 67 68  1  0  0  0  0
 68 69  1  0  0  0  0
 69 70  1  0  0  0  0
 70 71  1  0  0  0  0
 71 72  1  0  0  0  0
 72 73  1  0  0  0  0
 73 74  1  0  0  0  0
 71 75  1  0  0  0  0
 75 76  1  0  0  0  0
 68 77  1  0  0  0  0
 77 78  1  0  0  0  0
 64 79  1  0  0  0  0
 79 80  2  0  0  0  0
 80 81  1  0  0  0  0
 80 82  1  0  0  0  0
 82 83  1  0  0  0  0
 82 84  2  0  0  0  0
 84 85  1  0  0  0  0
 85 86  2  0  0  0  0
 86 87  1  0  0  0  0
 87 88  1  0  0  0  0
 88 89  1  0  0  0  0
 89 90  1  0  0  0  0
 90 91  1  0  0  0  0
 91 92  1  0  0  0  0
 90 93  2  0  0  0  0
 93 94  1  0  0  0  0
 93 95  1  0  0  0  0
 87 96  2  0  0  0  0
 96 97  1  0  0  0  0
 97 98  2  0  0  0  0
 96 99  1  0  0  0  0
 99100  2  0  0  0  0
100101  1  0  0  0  0
101102  1  0  0  0  0
101103  2  0  0  0  0
103104  1  0  0  0  0
104105  1  0  0  0  0
103106  1  0  0  0  0
 84107  1  0  0  0  0
107108  2  0  0  0  0
108109  1  0  0  0  0
109110  2  0  0  0  0
109111  1  0  0  0  0
111112  2  0  0  0  0
112113  1  0  0  0  0
113114  2  0  0  0  0
114115  1  0  0  0  0
115116  1  0  0  0  0
116117  1  0  0  0  0
115118  2  0  0  0  0
118119  1  0  0  0  0
119120  2  0  0  0  0
120121  1  0  0  0  0
121122  3  0  0  0  0
120123  1  0  0  0  0
123124  3  0  0  0  0
 13  2  1  0  0  0  0
 28 19  2  0  0  0  0
 74 32  1  0  0  0  0
 98 79  1  0  0  0  0
106 99  1  0  0  0  0
119108  1  0  0  0  0
 12  5  1  0  0  0  0
 27 21  2  0  0  0  0
 41 34  1  0  0  0  0
 73 42  2  0  0  0  0
 98 85  1  0  0  0  0
118111  1  0  0  0  0
 31 22  1  0  0  0  0
 72 44  2  0  0  0  0
 94 88  2  0  0  0  0
 70 45  2  0  0  0  0
 50 46  2  0  0  0  0
 69 51  2  0  0  0  0
 67 52  2  0  0  0  0
 66 54  2  0  0  0  0
 63 56  1  0  0  0  0
  1125  1  0  0  0  0
  6126  1  0  0  0  0
  7127  1  0  0  0  0
  8128  1  0  0  0  0
 11129  1  0  0  0  0
 11130  1  0  0  0  0
 11131  1  0  0  0  0
 25132  1  0  0  0  0
 25133  1  0  0  0  0
 26134  1  0  0  0  0
 26135  1  0  0  0  0
 26136  1  0  0  0  0
 28137  1  0  0  0  0
 29138  1  0  0  0  0
 35139  1  0  0  0  0
 36140  1  0  0  0  0
 37141  1  0  0  0  0
 39142  1  0  0  0  0
 39143  1  0  0  0  0
 40144  1  0  0  0  0
 40145  1  0  0  0  0
 40146  1  0  0  0  0
 41147  1  0  0  0  0
 57148  1  0  0  0  0
 58149  1  0  0  0  0
 59150  1  0  0  0  0
 61151  1  0  0  0  0
 61152  1  0  0  0  0
 62153  1  0  0  0  0
 62154  1  0  0  0  0
 62155  1  0  0  0  0
 63156  1  0  0  0  0
 75157  1  0  0  0  0
 75158  1  0  0  0  0
 76159  1  0  0  0  0
 76160  1  0  0  0  0
 76161  1  0  0  0  0
 77162  1  0  0  0  0
 77163  1  0  0  0  0
 78164  1  0  0  0  0
 78165  1  0  0  0  0
 78166  1  0  0  0  0
 91167  1  0  0  0  0
 91168  1  0  0  0  0
 92169  1  0  0  0  0
 92170  1  0  0  0  0
 92171  1  0  0  0  0
 94172  1  0  0  0  0
100173  1  0  0  0  0
104174  1  0  0  0  0
104175  1  0  0  0  0
105176  1  0  0  0  0
105177  1  0  0  0  0
105178  1  0  0  0  0
107179  1  0  0  0  0
112180  1  0  0  0  0
113181  1  0  0  0  0
114182  1  0  0  0  0
117183  1  0  0  0  0
117184  1  0  0  0  0
117185  1  0  0  0  0
M  END
