166

C          0.92490       -2.98190       10.72080
C          1.33560       -4.18930       10.27800
C          0.80650       -4.85270        9.04590
O         -0.27170       -4.68180        8.52300
C          1.81820       -5.86660        8.69430
C          1.90000       -6.64060        7.55470
C          2.99310       -7.48540        7.42820
C          3.99000       -7.51590        8.38800
C          3.92310       -6.72660        9.54130
O          4.89400       -6.63260       10.46200
C          6.07460       -7.39100       10.31600
C          2.77740       -5.93570        9.71930
C          2.38500       -5.05500       10.81020
C          2.82780       -5.07920       12.10190
C          3.69460       -6.04220       12.66550
N          4.32750       -6.80600       13.24230
C          2.37500       -4.18540       13.09850
N          2.06520       -3.47990       13.94880
C          0.15210       -2.10460        9.87230
C         -0.84890       -1.26590       10.32390
F         -1.13810       -1.22100       11.63180
C         -1.62610       -0.49090        9.45590
F         -2.52790        0.32010       10.03220
C         -1.47250       -0.51800        8.07180
C         -0.29830       -1.19960        7.61150
N          0.11010       -1.03400        6.35200
C          1.18850       -1.64590        5.90940
C          1.69560       -1.27490        4.60900
S          0.62770       -0.80330        3.32730
C          1.94890       -0.45500        2.26820
C          1.75960       -0.01680        0.85700
C          1.37680       -1.19500       -0.04240
C          3.12990       -0.69210        2.91340
C          3.00770       -1.15130        4.23410
F          4.32470       -0.49550        2.33050
C          1.87890       -2.56510        6.75980
N          1.53200       -2.67220        8.02100
C          0.47640       -1.99930        8.49130
C          2.94680       -3.45200        6.34810
C          3.95140       -3.91610        7.15240
C          4.74970       -4.86410        6.49140
F          5.80770       -5.45240        7.08120
C          4.37000       -5.15960        5.21310
C          5.01340       -6.10780        4.26100
C          3.99050       -6.89420        3.44710
S          2.98110       -4.22160        4.79230
C         -2.36590        0.08420        7.12770
C         -3.72910        0.35140        7.20990
C         -4.70670       -0.06100        8.26600
C         -4.72820       -1.57810        8.45850
C         -4.19260        0.95160        6.03050
S         -5.79120        1.48480        5.55000
C         -5.15070        1.91230        4.00230
C         -5.60180        2.37470        2.75780
C         -6.90520        2.67150        2.30450
C         -7.10280        2.97170        0.91690
N         -8.37680        3.17460        0.61860
S         -9.25130        3.00940        1.97130
N         -8.03900        2.66730        2.98800
C         -5.97730        3.04380        0.06820
C         -5.87820        3.34870       -1.29810
S         -6.90760        3.70220       -2.64450
C         -5.49010        3.84190       -3.65630
C         -5.31200        4.09400       -5.03170
O         -6.33720        4.32970       -5.90390
C         -6.75610        3.20060       -6.66550
C         -7.38630        2.10640       -5.81400
C         -3.97240        4.07960       -5.39020
S         -2.92980        3.75340       -4.02270
C         -4.29380        3.63740       -2.96670
C         -4.51840        3.35220       -1.61430
N         -3.77390        3.04820       -0.50660
C         -4.65200        2.83630        0.54760
C         -4.47020        2.41310        1.89150
N         -3.36550        1.98020        2.60700
C         -3.78100        1.66470        3.87290
C         -3.22520        1.12620        5.03890
S         -1.69640        0.50820        5.55410
C         -2.09150        1.47890        2.14630
C         -2.27420        0.27540        1.22510
C         -2.36290        3.36560       -0.50090
C         -2.06380        4.56900        0.38970
C         -3.39900        4.29570       -6.67450
S         -1.72670        3.82570       -6.96150
C         -1.84770        4.37370       -8.59140
C         -1.10110        4.49500       -9.75890
C         -1.95380        5.08080      -10.72660
N         -3.19090        5.30120      -10.17710
C         -4.27810        6.01140      -10.80030
C         -4.13970        7.52000      -10.60830
C         -3.13160        4.89400       -8.87280
C         -4.00540        4.84850       -7.78200
C         -1.34710        5.25010      -11.96670
C         -0.02220        4.84750      -11.95470
S          0.46560        4.18420      -10.39220
C          0.85310        4.86020      -13.06400
C          2.21020        4.76980      -13.07150
C          2.93130        4.32900      -14.29130
O          2.48990        4.26240      -15.41650
C          4.27310        3.92400      -13.81510
C          5.29370        3.31470      -14.51710
C          6.44750        2.98300      -13.82120
C          6.56050        3.22050      -12.46140
C          5.53060        3.83130      -11.73870
O          5.52910        4.02450      -10.40630
C          6.68850        3.74030       -9.65800
C          4.38850        4.22200      -12.44650
C          3.19470        4.93860      -12.01830
C          3.11140        5.87560      -11.02260
C          4.14090        6.23620      -10.12970
N          4.91940        6.63830       -9.38770
C          1.99230        6.72600      -10.88720
N          1.12200        7.46690      -10.77540
H          1.22100       -2.60000       11.68860
H          1.13780       -6.57480        6.79470
H          3.08740       -8.12020        6.55970
H          4.84400       -8.15460        8.22980
H          6.61110       -7.11110        9.40470
H          6.67670       -7.15000       11.18960
H          5.86060       -8.46310       10.31160
H          2.69460        0.42210        0.50290
H          0.98140        0.74830        0.81290
H          0.46770       -1.67100        0.31850
H          1.21440       -0.85190       -1.06050
H          2.17220       -1.93580       -0.04950
H          3.84970       -1.34520        4.87230
H          4.11480       -3.58130        8.15900
H          5.65000       -6.78640        4.83380
H          5.65900       -5.54650        3.57740
H          3.38380       -6.21750        2.84970
H          3.33080       -7.45790        4.10210
H          4.49570       -7.58850        2.78120
H         -5.69540        0.26910        7.93890
H         -4.49860        0.42940        9.21530
H         -5.48490       -1.84420        9.19170
H         -4.96510       -2.07420        7.51970
H         -3.76780       -1.95000        8.80650
H         -5.90510        2.79720       -7.23190
H         -7.48930        3.60860       -7.36490
H         -8.19120        2.51920       -5.21090
H         -7.78680        1.33020       -6.46000
H         -6.64770        1.66160       -5.15060
H         -1.51580        2.27260        1.67100
H         -1.53980        1.16720        3.03640
H         -2.89200        0.52670        0.36590
H         -2.75900       -0.53120        1.76940
H         -1.30890       -0.07830        0.87710
H         -1.77210        2.49470       -0.21610
H         -2.09670        3.60770       -1.53270
H         -0.99770        4.77960        0.38400
H         -2.38390        4.39180        1.41380
H         -2.59090        5.44430        0.01750
H         -5.21350        5.65740      -10.35890
H         -4.28000        5.76490      -11.86550
H         -4.15930        7.76810       -9.54970
H         -3.19800        7.86750      -11.02640
H         -4.95700        8.03610      -11.10420
H         -5.01380        5.21720       -7.76690
H         -1.80950        5.67800      -12.83750
H          0.37790        4.85970      -14.04020
H          5.18630        3.11120      -15.57030
H          7.27150        2.51630      -14.33960
H          7.46330        2.91890      -11.95410
H          6.46220        4.07000       -8.64600
H          6.91010        2.66860       -9.65700
H          7.55100        4.29790      -10.03290
