176

C        -11.01100       -4.98630        3.11980
C        -10.55960       -6.13650        3.71860
C         -9.17300       -6.59880        3.71100
O         -8.21570       -6.07310        3.16550
C         -9.15770       -7.84290        4.50470
C         -8.07780       -8.64760        4.80110
C         -8.30250       -9.78300        5.58230
O         -7.34650      -10.66200        5.95630
C         -6.01710      -10.43360        5.54640
C         -9.59930      -10.06660        6.03220
C        -10.67390       -9.25390        5.72890
C        -10.45930       -8.12070        4.95380
C        -11.35890       -7.07670        4.47520
C        -12.71080       -7.01380        4.71180
C        -13.57410       -5.99930        4.25130
N        -14.33430       -5.20810        3.90730
C        -13.42320       -7.97400        5.45810
N        -14.06140       -8.71410        6.06150
C        -10.31900       -4.01270        2.40150
S         -8.61500       -3.95290        2.00860
C         -8.78450       -2.41810        1.19950
C        -10.10600       -1.96620        1.21260
C        -10.79850       -0.83300        0.69080
C        -12.12650       -0.80820        0.94190
C        -13.10130        0.23950        0.52190
C        -13.86240        0.81080        1.71640
Se       -12.72120       -2.32000        1.94020
C        -10.94690       -2.87520        1.88900
C         -7.62500       -1.79570        0.67800
C         -7.42660       -0.48060        0.30250
C         -6.10830       -0.23950       -0.07620
S         -5.24080        1.19280       -0.55910
C         -3.78310        0.26110       -0.63820
C         -2.41060        0.50100       -0.88650
C         -1.71500       -0.69960       -0.75890
C         -2.65170       -1.83780       -0.43880
C         -3.95520       -1.08570       -0.32830
C         -5.27820       -1.37210       -0.01000
S         -6.15420       -2.75270        0.53430
C         -2.80780       -2.84300       -1.56780
C         -2.31920       -2.60210       -2.84260
C         -2.52380       -3.52410       -3.85360
C         -3.22370       -4.69900       -3.61870
C         -3.48920       -5.67210       -4.73090
C         -4.81000       -5.33730       -5.42720
C         -3.71750       -4.92960       -2.34040
C         -3.51290       -4.01560       -1.32590
C         -2.19730       -2.51490        0.83860
C         -2.72480       -2.17260        2.07440
C         -2.26820       -2.79270        3.22340
C         -1.27170       -3.75710        3.16710
C         -0.74740       -4.39730        4.41990
C          0.44570       -3.60810        4.96270
C         -0.73470       -4.08140        1.92740
C         -1.19080       -3.47060        0.77600
C         -0.34360       -0.51120       -0.88690
S          1.05010       -1.54120       -0.76590
C          2.06610       -0.15970       -1.00880
C          3.45260        0.11870       -0.98390
C          3.64120        1.48990       -1.14190
C          2.32210        2.19500       -1.34920
C          2.33860        2.81140       -2.73710
C          1.69270        2.22470       -3.81430
C          1.76100        2.80460       -5.06870
C          2.47770        3.97430       -5.27740
C          2.58860        4.57540       -6.64880
C          3.81540        4.02200       -7.37680
C          3.13160        4.55020       -4.19480
C          3.06370        3.97930       -2.93960
C          1.98940        3.23460       -0.29650
C          2.64040        3.27060        0.92720
C          2.28680        4.21110        1.87790
C          1.27320        5.12750        1.63450
C          0.85860        6.11580        2.68610
C         -0.26660        5.53700        3.54620
C          0.61450        5.07510        0.41230
C          0.96670        4.14220       -0.54310
C          1.37100        1.03230       -1.20250
C         -0.00390        0.83740       -1.12540
S         -1.39880        1.87250       -1.19910
C          4.98660        1.83370       -1.05510
C          5.81160        0.71800       -0.82090
S          4.91460       -0.77370       -0.73930
C          7.15390        1.03760       -0.64720
C          7.37720        2.39780       -0.74360
S          5.90510        3.29290       -1.07960
C          8.59700        3.11140       -0.55380
C          8.64390        4.51530       -0.71790
N          7.69050        5.38090       -1.08310
N          8.27930        6.54270       -1.05030
C          7.56420        7.75350       -1.33400
C          6.67370        8.12860       -0.15330
N          9.53700        6.55260       -0.70200
C          9.82710        5.26570       -0.47120
C         11.04110        4.65150       -0.08110
C         10.94210        3.26940        0.08700
C          9.78770        2.52590       -0.13430
F         11.98280        2.60090        0.61140
C         12.19320        5.44480        0.20630
C         13.48840        5.07980        0.00260
C         13.91990        3.99040       -0.91270
O         13.22480        3.26190       -1.58240
C         15.39780        4.07750       -0.94860
C         16.27980        3.28230       -1.65010
C         17.63520        3.56570       -1.53050
Cl        18.78270        2.59810       -2.37620
C         18.08410        4.61820       -0.73980
C         17.18960        5.41580       -0.04360
C         15.83170        5.14600       -0.14480
C         14.66930        5.78520        0.46270
C         14.70110        6.81450        1.36670
C         13.57190        7.36890        2.00590
N         12.71000        7.86180        2.58300
C         15.88270        7.45350        1.79670
N         16.80660        8.01650        2.18080
H        -12.06790       -4.75840        3.21270
H         -7.10320       -8.37870        4.42640
H         -5.43640      -11.25390        5.96450
H         -5.63610       -9.48430        5.93500
H         -5.92680      -10.44390        4.45610
H         -9.73690      -10.95150        6.63320
H        -11.65410       -9.50850        6.09690
H        -10.31120       -0.06100        0.12140
H        -12.56300        1.03630        0.00360
H        -13.81830       -0.19550       -0.18140
H        -14.41490        0.01730        2.22100
H        -13.17200        1.25680        2.42900
H        -14.56790        1.57060        1.39030
H         -8.18660        0.27540        0.34530
H         -1.77470       -1.69320       -3.05270
H         -2.13170       -3.32460       -4.84080
H         -2.67770       -5.63300       -5.46020
H         -3.54130       -6.68650       -4.33050
H         -5.63320       -5.38210       -4.71770
H         -5.00560       -6.04210       -6.23200
H         -4.77350       -4.33370       -5.84510
H         -4.26800       -5.83630       -2.13560
H         -3.89810       -4.21290       -0.33600
H         -3.49790       -1.42170        2.14500
H         -2.69700       -2.52290        4.17790
H         -0.43430       -5.42170        4.20850
H         -1.53340       -4.42870        5.17700
H          0.15020       -2.58690        5.19290
H          1.24370       -3.57420        4.22430
H          0.82910       -4.07190        5.86860
H          0.04670       -4.82470        1.86140
H         -0.77040       -3.74260       -0.18150
H          1.13020        1.31270       -3.67900
H          1.24650        2.33900       -5.89720
H          2.67620        5.66100       -6.57090
H          1.69230        4.34550       -7.22830
H          3.89830        4.45870       -8.36930
H          3.73990        2.94170       -7.47750
H          4.72110        4.25010       -6.81930
H          3.69880        5.45900       -4.33620
H          3.57210        4.44260       -2.10660
H          3.42860        2.56460        1.14310
H          2.80900        4.23160        2.82390
H          0.51150        7.03640        2.21250
H          1.71080        6.35900        3.32380
H         -0.57040        6.25180        4.30740
H          0.06450        4.62480        4.03770
H         -1.12960        5.29790        2.92870
H         -0.18210        5.77480        0.20430
H          0.44970        4.12070       -1.49150
H          7.92460        0.31470       -0.45570
H          8.30850        8.52800       -1.52490
H          6.95640        7.58500       -2.22600
H          6.12220        9.03600       -0.38110
H          5.96680        7.32690        0.04740
H          7.27680        8.29960        0.73510
H          9.83990        1.46650        0.05750
H         11.96980        6.43300        0.58830
H         15.92110        2.46930       -2.26120
H         19.14260        4.81390       -0.67070
H         17.56070        6.22910        0.55830
