
  xtb     02092202003D
 energy: -309.430187800534 gnorm: 0.000262599432 xtb: 6.4.1 (unknown)
188210  0     0  0            999 V2000
   11.9644   -9.2371   -1.4124 C   0  0  0  0  0  0  0  0  0  0  0  0
   13.0244   -9.1846   -2.2856 C   0  0  0  0  0  0  0  0  0  0  0  0
   13.1568   -8.2659   -3.4192 C   0  0  0  0  0  0  0  0  0  0  0  0
   12.3507   -7.4388   -3.8077 O   0  0  0  0  0  0  0  0  0  0  0  0
   14.4830   -8.5391   -4.0108 C   0  0  0  0  0  0  0  0  0  0  0  0
   15.0871   -7.9287   -5.0819 C   0  0  0  0  0  0  0  0  0  0  0  0
   16.3682   -8.3550   -5.4619 C   0  0  0  0  0  0  0  0  0  0  0  0
   16.9087   -7.7120   -6.5210 O   0  0  0  0  0  0  0  0  0  0  0  0
   18.1942   -8.0797   -6.9654 C   0  0  0  0  0  0  0  0  0  0  0  0
   16.9907   -9.3809   -4.7500 C   0  0  0  0  0  0  0  0  0  0  0  0
   16.3699   -9.9920   -3.6700 C   0  0  0  0  0  0  0  0  0  0  0  0
   15.1057   -9.5750   -3.2880 C   0  0  0  0  0  0  0  0  0  0  0  0
   14.2158  -10.0065   -2.2167 C   0  0  0  0  0  0  0  0  0  0  0  0
   14.4834  -11.0180   -1.3262 C   0  0  0  0  0  0  0  0  0  0  0  0
   13.6330  -11.4619   -0.2946 C   0  0  0  0  0  0  0  0  0  0  0  0
   13.0062  -11.8904    0.5690 N   0  0  0  0  0  0  0  0  0  0  0  0
   15.6729  -11.7739   -1.3280 C   0  0  0  0  0  0  0  0  0  0  0  0
   16.6160  -12.4275   -1.2721 N   0  0  0  0  0  0  0  0  0  0  0  0
   10.7826   -8.4914   -1.3648 C   0  0  0  0  0  0  0  0  0  0  0  0
   10.2687   -7.2402   -2.4834 S   0  0  0  0  0  0  0  0  0  0  0  0
    8.8363   -7.0052   -1.5720 C   0  0  0  0  0  0  0  0  0  0  0  0
    7.7653   -6.1055   -1.7555 C   0  0  0  0  0  0  0  0  0  0  0  0
    6.7438   -6.1386   -0.8090 C   0  0  0  0  0  0  0  0  0  0  0  0
    7.1320   -7.4723    0.4738 Si  0  0  0  0  0  4  0  0  0  0  0  0
    5.8771   -8.9085    0.4231 C   0  0  0  0  0  0  0  0  0  0  0  0
    6.2724  -10.0612    1.3406 C   0  0  0  0  0  0  0  0  0  0  0  0
    7.4173   -6.7683    2.2233 C   0  0  0  0  0  0  0  0  0  0  0  0
    6.1278   -6.2743    2.8717 C   0  0  0  0  0  0  0  0  0  0  0  0
    8.7387   -7.8432   -0.4476 C   0  0  0  0  0  0  0  0  0  0  0  0
    9.8322   -8.6716   -0.3486 C   0  0  0  0  0  0  0  0  0  0  0  0
    5.7546   -5.2023   -1.0820 C   0  0  0  0  0  0  0  0  0  0  0  0
    5.9964   -4.4608   -2.2260 C   0  0  0  0  0  0  0  0  0  0  0  0
    7.4943   -4.9280   -2.9899 S   0  0  0  0  0  0  0  0  0  0  0  0
    5.1676   -3.4346   -2.7509 C   0  0  0  0  0  0  0  0  0  0  0  0
    5.2518   -2.7750   -3.9613 C   0  0  0  0  0  0  0  0  0  0  0  0
    6.2910   -3.0133   -4.9784 C   0  0  0  0  0  0  0  0  0  0  0  0
    7.3363   -2.1027   -5.0800 C   0  0  0  0  0  0  0  0  0  0  0  0
    8.3314   -2.2803   -6.0218 C   0  0  0  0  0  0  0  0  0  0  0  0
    8.2821   -3.3707   -6.8725 C   0  0  0  0  0  0  0  0  0  0  0  0
    7.2361   -4.2705   -6.7807 C   0  0  0  0  0  0  0  0  0  0  0  0
    6.2292   -4.1110   -5.8390 C   0  0  0  0  0  0  0  0  0  0  0  0
    5.0761   -5.0732   -5.7980 C   0  0  0  0  0  0  0  0  0  0  0  0
    3.9273   -4.5666   -6.6723 C   0  0  0  0  0  0  0  0  0  0  0  0
    4.2302   -1.8196   -4.1003 C   0  0  0  0  0  0  0  0  0  0  0  0
    3.8079   -0.7230   -5.3947 S   0  0  0  0  0  0  0  0  0  0  0  0
    2.4724   -0.1604   -4.4452 C   0  0  0  0  0  0  0  0  0  0  0  0
    1.4387    0.7894   -4.5151 C   0  0  0  0  0  0  0  0  0  0  0  0
    1.1367    1.7656   -5.4889 C   0  0  0  0  0  0  0  0  0  0  0  0
    0.0705    2.6932   -5.2369 C   0  0  0  0  0  0  0  0  0  0  0  0
   -0.0654    3.5832   -6.2077 N   0  0  0  0  0  0  0  0  0  0  0  0
    1.0478    3.2774   -7.3431 S   0  0  0  0  0  0  0  0  0  0  0  0
    1.7480    1.9985   -6.6400 N   0  0  0  0  0  0  0  0  0  0  0  0
   -0.7141    2.5318   -4.0749 C   0  0  0  0  0  0  0  0  0  0  0  0
   -1.8772    3.1896   -3.6423 C   0  0  0  0  0  0  0  0  0  0  0  0
   -2.9150    4.4862   -4.1371 S   0  0  0  0  0  0  0  0  0  0  0  0
   -3.9629    4.1271   -2.7841 C   0  0  0  0  0  0  0  0  0  0  0  0
   -5.1460    4.7276   -2.3171 C   0  0  0  0  0  0  0  0  0  0  0  0
   -5.7853    5.8689   -2.9933 C   0  0  0  0  0  0  0  0  0  0  0  0
   -5.8069    7.1461   -2.4262 C   0  0  0  0  0  0  0  0  0  0  0  0
   -5.1178    7.4400   -1.1239 C   0  0  0  0  0  0  0  0  0  0  0  0
   -3.6125    7.6054   -1.3423 C   0  0  0  0  0  0  0  0  0  0  0  0
   -6.4291    8.1699   -3.1273 C   0  0  0  0  0  0  0  0  0  0  0  0
   -7.0143    7.9467   -4.3611 C   0  0  0  0  0  0  0  0  0  0  0  0
   -6.9719    6.6839   -4.9252 C   0  0  0  0  0  0  0  0  0  0  0  0
   -6.3558    5.6517   -4.2427 C   0  0  0  0  0  0  0  0  0  0  0  0
   -5.6071    4.1035   -1.1728 C   0  0  0  0  0  0  0  0  0  0  0  0
   -4.5696    2.7801   -0.6643 S   0  0  0  0  0  0  0  0  0  0  0  0
   -3.5111    3.0628   -1.9997 C   0  0  0  0  0  0  0  0  0  0  0  0
   -2.3151    2.5278   -2.4927 C   0  0  0  0  0  0  0  0  0  0  0  0
   -1.4635    1.4990   -2.1905 N   0  0  0  0  0  0  0  0  0  0  0  0
   -0.4549    1.4921   -3.1370 C   0  0  0  0  0  0  0  0  0  0  0  0
    0.7013    0.6875   -3.3032 C   0  0  0  0  0  0  0  0  0  0  0  0
    1.2941   -0.2832   -2.5045 N   0  0  0  0  0  0  0  0  0  0  0  0
    2.3642   -0.7859   -3.2020 C   0  0  0  0  0  0  0  0  0  0  0  0
    3.3686   -1.7398   -3.0038 C   0  0  0  0  0  0  0  0  0  0  0  0
    3.8148   -2.8686   -1.7736 S   0  0  0  0  0  0  0  0  0  0  0  0
    1.3347   -0.3647   -1.0593 C   0  0  0  0  0  0  0  0  0  0  0  0
    2.0178    0.8643   -0.4626 C   0  0  0  0  0  0  0  0  0  0  0  0
   -1.8898    0.4691   -1.2711 C   0  0  0  0  0  0  0  0  0  0  0  0
   -1.6933    0.8773    0.1883 C   0  0  0  0  0  0  0  0  0  0  0  0
   -6.7567    4.4132   -0.3935 C   0  0  0  0  0  0  0  0  0  0  0  0
   -6.8623    3.8508    1.2572 S   0  0  0  0  0  0  0  0  0  0  0  0
   -8.3697    4.6612    1.4510 C   0  0  0  0  0  0  0  0  0  0  0  0
   -9.1992    4.7807    2.5846 C   0  0  0  0  0  0  0  0  0  0  0  0
  -10.3587    5.5548    2.4111 C   0  0  0  0  0  0  0  0  0  0  0  0
  -10.4086    6.2142    0.6375 Si  0  0  0  0  0  4  0  0  0  0  0  0
  -11.8772    5.5695   -0.3885 C   0  0  0  0  0  0  0  0  0  0  0  0
  -11.7403    5.8980   -1.8712 C   0  0  0  0  0  0  0  0  0  0  0  0
  -10.1573    8.1039    0.5479 C   0  0  0  0  0  0  0  0  0  0  0  0
   -8.9192    8.5702    1.3086 C   0  0  0  0  0  0  0  0  0  0  0  0
   -8.7784    5.3145    0.2913 C   0  0  0  0  0  0  0  0  0  0  0  0
   -7.8605    5.1699   -0.7447 C   0  0  0  0  0  0  0  0  0  0  0  0
  -11.0793    5.6316    3.5816 C   0  0  0  0  0  0  0  0  0  0  0  0
  -10.5032    4.9404    4.6585 C   0  0  0  0  0  0  0  0  0  0  0  0
   -9.0090    4.1616    4.1701 S   0  0  0  0  0  0  0  0  0  0  0  0
  -11.0816    4.9265    5.9321 C   0  0  0  0  0  0  0  0  0  0  0  0
  -10.6535    4.3453    7.1017 C   0  0  0  0  0  0  0  0  0  0  0  0
   -9.4246    3.5656    7.2726 C   0  0  0  0  0  0  0  0  0  0  0  0
   -8.6019    3.2717    6.4212 O   0  0  0  0  0  0  0  0  0  0  0  0
   -9.3622    3.1944    8.6967 C   0  0  0  0  0  0  0  0  0  0  0  0
   -8.3602    2.4601    9.3265 C   0  0  0  0  0  0  0  0  0  0  0  0
   -8.5644    2.2788   10.6732 C   0  0  0  0  0  0  0  0  0  0  0  0
   -9.6844    2.7883   11.3425 C   0  0  0  0  0  0  0  0  0  0  0  0
  -10.6833    3.5083   10.7302 C   0  0  0  0  0  0  0  0  0  0  0  0
  -10.4943    3.7076    9.3593 C   0  0  0  0  0  0  0  0  0  0  0  0
  -11.3228    4.4178    8.3833 C   0  0  0  0  0  0  0  0  0  0  0  0
  -12.5199    5.0294    8.6634 C   0  0  0  0  0  0  0  0  0  0  0  0
  -13.3386    5.7084    7.7382 C   0  0  0  0  0  0  0  0  0  0  0  0
  -14.0690    6.2783    7.0576 N   0  0  0  0  0  0  0  0  0  0  0  0
  -13.1206    5.0659    9.9384 C   0  0  0  0  0  0  0  0  0  0  0  0
  -13.6729    5.1411   10.9428 N   0  0  0  0  0  0  0  0  0  0  0  0
   -9.2358    2.2419   12.6757 C   0  0  0  0  0  0  0  0  0  0  0  0
   -8.6116    3.2529   13.6608 C   0  0  0  0  0  0  0  0  0  0  0  0
   -7.8497    2.3844   14.6358 C   0  0  0  0  0  0  0  0  0  0  0  0
   -6.7897    1.8999   14.0016 C   0  0  0  0  0  0  0  0  0  0  0  0
   -6.8174    2.4326   12.5873 C   0  0  0  0  0  0  0  0  0  0  0  0
   -7.4439    3.8106   12.8366 C   0  0  0  0  0  0  0  0  0  0  0  0
   -7.9876    1.6721   11.9283 C   0  0  0  0  0  0  0  0  0  0  0  0
   12.0367   -9.9595   -0.6082 H   0  0  0  0  0  0  0  0  0  0  0  0
   14.5991   -7.1366   -5.6266 H   0  0  0  0  0  0  0  0  0  0  0  0
   18.2224   -9.1238   -7.2918 H   0  0  0  0  0  0  0  0  0  0  0  0
   18.4070   -7.4315   -7.8137 H   0  0  0  0  0  0  0  0  0  0  0  0
   18.9482   -7.9186   -6.1889 H   0  0  0  0  0  0  0  0  0  0  0  0
   17.9757   -9.7191   -5.0298 H   0  0  0  0  0  0  0  0  0  0  0  0
   16.8865  -10.7798   -3.1467 H   0  0  0  0  0  0  0  0  0  0  0  0
    4.8922   -8.5415    0.7137 H   0  0  0  0  0  0  0  0  0  0  0  0
    5.7812   -9.2808   -0.5979 H   0  0  0  0  0  0  0  0  0  0  0  0
    7.2414  -10.4624    1.0555 H   0  0  0  0  0  0  0  0  0  0  0  0
    5.5412  -10.8654    1.2849 H   0  0  0  0  0  0  0  0  0  0  0  0
    6.3322   -9.7285    2.3737 H   0  0  0  0  0  0  0  0  0  0  0  0
    8.1342   -5.9472    2.1813 H   0  0  0  0  0  0  0  0  0  0  0  0
    7.8629   -7.5377    2.8540 H   0  0  0  0  0  0  0  0  0  0  0  0
    6.3244   -5.8783    3.8662 H   0  0  0  0  0  0  0  0  0  0  0  0
    5.4089   -7.0842    2.9654 H   0  0  0  0  0  0  0  0  0  0  0  0
    5.6771   -5.4860    2.2741 H   0  0  0  0  0  0  0  0  0  0  0  0
    9.9772   -9.3988    0.4315 H   0  0  0  0  0  0  0  0  0  0  0  0
    4.8734   -5.0561   -0.4816 H   0  0  0  0  0  0  0  0  0  0  0  0
    7.3649   -1.2562   -4.4089 H   0  0  0  0  0  0  0  0  0  0  0  0
    9.1418   -1.5704   -6.0903 H   0  0  0  0  0  0  0  0  0  0  0  0
    9.0576   -3.5193   -7.6088 H   0  0  0  0  0  0  0  0  0  0  0  0
    7.1974   -5.1175   -7.4507 H   0  0  0  0  0  0  0  0  0  0  0  0
    4.7210   -5.1988   -4.7734 H   0  0  0  0  0  0  0  0  0  0  0  0
    5.4044   -6.0481   -6.1636 H   0  0  0  0  0  0  0  0  0  0  0  0
    3.5743   -3.6013   -6.3172 H   0  0  0  0  0  0  0  0  0  0  0  0
    4.2600   -4.4485   -7.7010 H   0  0  0  0  0  0  0  0  0  0  0  0
    3.0969   -5.2687   -6.6529 H   0  0  0  0  0  0  0  0  0  0  0  0
   -5.5226    8.3611   -0.6998 H   0  0  0  0  0  0  0  0  0  0  0  0
   -5.2916    6.6354   -0.4082 H   0  0  0  0  0  0  0  0  0  0  0  0
   -3.1169    7.8371   -0.4024 H   0  0  0  0  0  0  0  0  0  0  0  0
   -3.4193    8.4115   -2.0465 H   0  0  0  0  0  0  0  0  0  0  0  0
   -3.1824    6.6917   -1.7452 H   0  0  0  0  0  0  0  0  0  0  0  0
   -6.4516    9.1610   -2.6968 H   0  0  0  0  0  0  0  0  0  0  0  0
   -7.4959    8.7593   -4.8844 H   0  0  0  0  0  0  0  0  0  0  0  0
   -7.4157    6.5019   -5.8923 H   0  0  0  0  0  0  0  0  0  0  0  0
   -6.3196    4.6609   -4.6719 H   0  0  0  0  0  0  0  0  0  0  0  0
    1.9093   -1.2614   -0.8138 H   0  0  0  0  0  0  0  0  0  0  0  0
    0.3405   -0.4848   -0.6400 H   0  0  0  0  0  0  0  0  0  0  0  0
    2.0589    0.7790    0.6200 H   0  0  0  0  0  0  0  0  0  0  0  0
    1.4749    1.7695   -0.7274 H   0  0  0  0  0  0  0  0  0  0  0  0
    3.0332    0.9517   -0.8427 H   0  0  0  0  0  0  0  0  0  0  0  0
   -2.9592    0.2982   -1.4409 H   0  0  0  0  0  0  0  0  0  0  0  0
   -1.3702   -0.4580   -1.5163 H   0  0  0  0  0  0  0  0  0  0  0  0
   -1.9501    0.0469    0.8405 H   0  0  0  0  0  0  0  0  0  0  0  0
   -0.6687    1.1794    0.3847 H   0  0  0  0  0  0  0  0  0  0  0  0
   -2.3443    1.7131    0.4296 H   0  0  0  0  0  0  0  0  0  0  0  0
  -12.8027    6.0030   -0.0100 H   0  0  0  0  0  0  0  0  0  0  0  0
  -11.9661    4.4895   -0.2674 H   0  0  0  0  0  0  0  0  0  0  0  0
  -12.5864    5.5052   -2.4316 H   0  0  0  0  0  0  0  0  0  0  0  0
  -11.7022    6.9733   -2.0246 H   0  0  0  0  0  0  0  0  0  0  0  0
  -10.8306    5.4634   -2.2780 H   0  0  0  0  0  0  0  0  0  0  0  0
  -11.0368    8.6107    0.9462 H   0  0  0  0  0  0  0  0  0  0  0  0
  -10.0686    8.4073   -0.4956 H   0  0  0  0  0  0  0  0  0  0  0  0
   -8.8083    9.6504    1.2387 H   0  0  0  0  0  0  0  0  0  0  0  0
   -8.0243    8.1057    0.9009 H   0  0  0  0  0  0  0  0  0  0  0  0
   -8.9915    8.3010    2.3597 H   0  0  0  0  0  0  0  0  0  0  0  0
   -7.9845    5.5925   -1.7247 H   0  0  0  0  0  0  0  0  0  0  0  0
  -12.0033    6.1721    3.6929 H   0  0  0  0  0  0  0  0  0  0  0  0
  -12.0101    5.4827    5.9777 H   0  0  0  0  0  0  0  0  0  0  0  0
   -7.5158    2.0849    8.7697 H   0  0  0  0  0  0  0  0  0  0  0  0
  -11.5400    3.8874   11.2614 H   0  0  0  0  0  0  0  0  0  0  0  0
   -9.9183    1.5444   13.1575 H   0  0  0  0  0  0  0  0  0  0  0  0
   -9.3121    3.9670   14.0850 H   0  0  0  0  0  0  0  0  0  0  0  0
   -8.1795    2.1739   15.6363 H   0  0  0  0  0  0  0  0  0  0  0  0
   -6.0573    1.2037   14.3664 H   0  0  0  0  0  0  0  0  0  0  0  0
   -5.8829    2.3997   12.0334 H   0  0  0  0  0  0  0  0  0  0  0  0
   -6.7957    4.4569   13.4262 H   0  0  0  0  0  0  0  0  0  0  0  0
   -7.7487    4.3300   11.9300 H   0  0  0  0  0  0  0  0  0  0  0  0
   -7.8389    0.5939   11.9106 H   0  0  0  0  0  0  0  0  0  0  0  0
  1  2  2  0  0  0  0
  2  3  1  0  0  0  0
  3  4  2  0  0  0  0
  3  5  1  0  0  0  0
  5  6  2  0  0  0  0
  6  7  1  0  0  0  0
  7  8  1  0  0  0  0
  8  9  1  0  0  0  0
  7 10  2  0  0  0  0
 10 11  1  0  0  0  0
 11 12  2  0  0  0  0
 12 13  1  0  0  0  0
 13 14  2  0  0  0  0
 14 15  1  0  0  0  0
 15 16  3  0  0  0  0
 14 17  1  0  0  0  0
 17 18  3  0  0  0  0
  1 19  1  0  0  0  0
 19 20  1  0  0  0  0
 20 21  1  0  0  0  0
 21 22  1  0  0  0  0
 22 23  2  0  0  0  0
 23 24  1  0  0  0  0
 24 25  1  0  0  0  0
 25 26  1  0  0  0  0
 24 27  1  0  0  0  0
 27 28  1  0  0  0  0
 24 29  1  0  0  0  0
 29 30  1  0  0  0  0
 23 31  1  0  0  0  0
 31 32  2  0  0  0  0
 32 33  1  0  0  0  0
 32 34  1  0  0  0  0
 34 35  2  0  0  0  0
 35 36  1  0  0  0  0
 36 37  2  0  0  0  0
 37 38  1  0  0  0  0
 38 39  2  0  0  0  0
 39 40  1  0  0  0  0
 40 41  2  0  0  0  0
 41 42  1  0  0  0  0
 42 43  1  0  0  0  0
 35 44  1  0  0  0  0
 44 45  1  0  0  0  0
 45 46  1  0  0  0  0
 46 47  1  0  0  0  0
 47 48  1  0  0  0  0
 48 49  1  0  0  0  0
 49 50  2  0  0  0  0
 50 51  1  0  0  0  0
 51 52  1  0  0  0  0
 49 53  1  0  0  0  0
 53 54  1  0  0  0  0
 54 55  1  0  0  0  0
 55 56  1  0  0  0  0
 56 57  1  0  0  0  0
 57 58  1  0  0  0  0
 58 59  2  0  0  0  0
 59 60  1  0  0  0  0
 60 61  1  0  0  0  0
 59 62  1  0  0  0  0
 62 63  2  0  0  0  0
 63 64  1  0  0  0  0
 64 65  2  0  0  0  0
 57 66  2  0  0  0  0
 66 67  1  0  0  0  0
 67 68  1  0  0  0  0
 68 69  1  0  0  0  0
 69 70  1  0  0  0  0
 70 71  1  0  0  0  0
 71 72  1  0  0  0  0
 72 73  1  0  0  0  0
 73 74  1  0  0  0  0
 74 75  1  0  0  0  0
 75 76  1  0  0  0  0
 73 77  1  0  0  0  0
 77 78  1  0  0  0  0
 70 79  1  0  0  0  0
 79 80  1  0  0  0  0
 66 81  1  0  0  0  0
 81 82  1  0  0  0  0
 82 83  1  0  0  0  0
 83 84  1  0  0  0  0
 84 85  2  0  0  0  0
 85 86  1  0  0  0  0
 86 87  1  0  0  0  0
 87 88  1  0  0  0  0
 86 89  1  0  0  0  0
 89 90  1  0  0  0  0
 86 91  1  0  0  0  0
 91 92  1  0  0  0  0
 85 93  1  0  0  0  0
 93 94  2  0  0  0  0
 94 95  1  0  0  0  0
 94 96  1  0  0  0  0
 96 97  2  0  0  0  0
 97 98  1  0  0  0  0
 98 99  2  0  0  0  0
 98100  1  0  0  0  0
100101  2  0  0  0  0
101102  1  0  0  0  0
102103  2  0  0  0  0
103104  1  0  0  0  0
104105  2  0  0  0  0
105106  1  0  0  0  0
106107  2  0  0  0  0
107108  1  0  0  0  0
108109  3  0  0  0  0
107110  1  0  0  0  0
110111  3  0  0  0  0
103112  1  0  0  0  0
112113  1  0  0  0  0
113114  1  0  0  0  0
114115  2  0  0  0  0
115116  1  0  0  0  0
116117  1  0  0  0  0
116118  1  0  0  0  0
 13  2  1  0  0  0  0
 30 19  2  0  0  0  0
 76 34  1  0  0  0  0
 92 81  2  0  0  0  0
106 97  1  0  0  0  0
118112  1  0  0  0  0
 12  5  1  0  0  0  0
 29 21  2  0  0  0  0
 41 36  1  0  0  0  0
 75 44  2  0  0  0  0
 91 83  2  0  0  0  0
105100  1  0  0  0  0
117113  1  0  0  0  0
 33 22  1  0  0  0  0
 74 46  2  0  0  0  0
 95 84  1  0  0  0  0
118102  1  0  0  0  0
 72 47  2  0  0  0  0
 52 48  2  0  0  0  0
 71 53  2  0  0  0  0
 69 54  2  0  0  0  0
 68 56  2  0  0  0  0
 65 58  1  0  0  0  0
  1119  1  0  0  0  0
  6120  1  0  0  0  0
  9121  1  0  0  0  0
  9122  1  0  0  0  0
  9123  1  0  0  0  0
 10124  1  0  0  0  0
 11125  1  0  0  0  0
 25126  1  0  0  0  0
 25127  1  0  0  0  0
 26128  1  0  0  0  0
 26129  1  0  0  0  0
 26130  1  0  0  0  0
 27131  1  0  0  0  0
 27132  1  0  0  0  0
 28133  1  0  0  0  0
 28134  1  0  0  0  0
 28135  1  0  0  0  0
 30136  1  0  0  0  0
 31137  1  0  0  0  0
 37138  1  0  0  0  0
 38139  1  0  0  0  0
 39140  1  0  0  0  0
 40141  1  0  0  0  0
 42142  1  0  0  0  0
 42143  1  0  0  0  0
 43144  1  0  0  0  0
 43145  1  0  0  0  0
 43146  1  0  0  0  0
 60147  1  0  0  0  0
 60148  1  0  0  0  0
 61149  1  0  0  0  0
 61150  1  0  0  0  0
 61151  1  0  0  0  0
 62152  1  0  0  0  0
 63153  1  0  0  0  0
 64154  1  0  0  0  0
 65155  1  0  0  0  0
 77156  1  0  0  0  0
 77157  1  0  0  0  0
 78158  1  0  0  0  0
 78159  1  0  0  0  0
 78160  1  0  0  0  0
 79161  1  0  0  0  0
 79162  1  0  0  0  0
 80163  1  0  0  0  0
 80164  1  0  0  0  0
 80165  1  0  0  0  0
 87166  1  0  0  0  0
 87167  1  0  0  0  0
 88168  1  0  0  0  0
 88169  1  0  0  0  0
 88170  1  0  0  0  0
 89171  1  0  0  0  0
 89172  1  0  0  0  0
 90173  1  0  0  0  0
 90174  1  0  0  0  0
 90175  1  0  0  0  0
 92176  1  0  0  0  0
 93177  1  0  0  0  0
 96178  1  0  0  0  0
101179  1  0  0  0  0
104180  1  0  0  0  0
112181  1  0  0  0  0
113182  1  0  0  0  0
114183  1  0  0  0  0
115184  1  0  0  0  0
116185  1  0  0  0  0
117186  1  0  0  0  0
117187  1  0  0  0  0
118188  1  0  0  0  0
M  END
