188

C         11.96440       -9.23710       -1.41240
C         13.02440       -9.18460       -2.28560
C         13.15680       -8.26590       -3.41920
O         12.35070       -7.43880       -3.80770
C         14.48300       -8.53910       -4.01080
C         15.08710       -7.92870       -5.08190
C         16.36820       -8.35500       -5.46190
O         16.90870       -7.71200       -6.52100
C         18.19420       -8.07970       -6.96540
C         16.99070       -9.38090       -4.75000
C         16.36990       -9.99200       -3.67000
C         15.10570       -9.57500       -3.28800
C         14.21580      -10.00650       -2.21670
C         14.48340      -11.01800       -1.32620
C         13.63300      -11.46190       -0.29460
N         13.00620      -11.89040        0.56900
C         15.67290      -11.77390       -1.32800
N         16.61600      -12.42750       -1.27210
C         10.78260       -8.49140       -1.36480
S         10.26870       -7.24020       -2.48340
C          8.83630       -7.00520       -1.57200
C          7.76530       -6.10550       -1.75550
C          6.74380       -6.13860       -0.80900
Si         7.13200       -7.47230        0.47380
C          5.87710       -8.90850        0.42310
C          6.27240      -10.06120        1.34060
C          7.41730       -6.76830        2.22330
C          6.12780       -6.27430        2.87170
C          8.73870       -7.84320       -0.44760
C          9.83220       -8.67160       -0.34860
C          5.75460       -5.20230       -1.08200
C          5.99640       -4.46080       -2.22600
S          7.49430       -4.92800       -2.98990
C          5.16760       -3.43460       -2.75090
C          5.25180       -2.77500       -3.96130
C          6.29100       -3.01330       -4.97840
C          7.33630       -2.10270       -5.08000
C          8.33140       -2.28030       -6.02180
C          8.28210       -3.37070       -6.87250
C          7.23610       -4.27050       -6.78070
C          6.22920       -4.11100       -5.83900
C          5.07610       -5.07320       -5.79800
C          3.92730       -4.56660       -6.67230
C          4.23020       -1.81960       -4.10030
S          3.80790       -0.72300       -5.39470
C          2.47240       -0.16040       -4.44520
C          1.43870        0.78940       -4.51510
C          1.13670        1.76560       -5.48890
C          0.07050        2.69320       -5.23690
N         -0.06540        3.58320       -6.20770
S          1.04780        3.27740       -7.34310
N          1.74800        1.99850       -6.64000
C         -0.71410        2.53180       -4.07490
C         -1.87720        3.18960       -3.64230
S         -2.91500        4.48620       -4.13710
C         -3.96290        4.12710       -2.78410
C         -5.14600        4.72760       -2.31710
C         -5.78530        5.86890       -2.99330
C         -5.80690        7.14610       -2.42620
C         -5.11780        7.44000       -1.12390
C         -3.61250        7.60540       -1.34230
C         -6.42910        8.16990       -3.12730
C         -7.01430        7.94670       -4.36110
C         -6.97190        6.68390       -4.92520
C         -6.35580        5.65170       -4.24270
C         -5.60710        4.10350       -1.17280
S         -4.56960        2.78010       -0.66430
C         -3.51110        3.06280       -1.99970
C         -2.31510        2.52780       -2.49270
N         -1.46350        1.49900       -2.19050
C         -0.45490        1.49210       -3.13700
C          0.70130        0.68750       -3.30320
N          1.29410       -0.28320       -2.50450
C          2.36420       -0.78590       -3.20200
C          3.36860       -1.73980       -3.00380
S          3.81480       -2.86860       -1.77360
C          1.33470       -0.36470       -1.05930
C          2.01780        0.86430       -0.46260
C         -1.88980        0.46910       -1.27110
C         -1.69330        0.87730        0.18830
C         -6.75670        4.41320       -0.39350
S         -6.86230        3.85080        1.25720
C         -8.36970        4.66120        1.45100
C         -9.19920        4.78070        2.58460
C        -10.35870        5.55480        2.41110
Si       -10.40860        6.21420        0.63750
C        -11.87720        5.56950       -0.38850
C        -11.74030        5.89800       -1.87120
C        -10.15730        8.10390        0.54790
C         -8.91920        8.57020        1.30860
C         -8.77840        5.31450        0.29130
C         -7.86050        5.16990       -0.74470
C        -11.07930        5.63160        3.58160
C        -10.50320        4.94040        4.65850
S         -9.00900        4.16160        4.17010
C        -11.08160        4.92650        5.93210
C        -10.65350        4.34530        7.10170
C         -9.42460        3.56560        7.27260
O         -8.60190        3.27170        6.42120
C         -9.36220        3.19440        8.69670
C         -8.36020        2.46010        9.32650
C         -8.56440        2.27880       10.67320
C         -9.68440        2.78830       11.34250
C        -10.68330        3.50830       10.73020
C        -10.49430        3.70760        9.35930
C        -11.32280        4.41780        8.38330
C        -12.51990        5.02940        8.66340
C        -13.33860        5.70840        7.73820
N        -14.06900        6.27830        7.05760
C        -13.12060        5.06590        9.93840
N        -13.67290        5.14110       10.94280
C         -9.23580        2.24190       12.67570
C         -8.61160        3.25290       13.66080
C         -7.84970        2.38440       14.63580
C         -6.78970        1.89990       14.00160
C         -6.81740        2.43260       12.58730
C         -7.44390        3.81060       12.83660
C         -7.98760        1.67210       11.92830
H         12.03670       -9.95950       -0.60820
H         14.59910       -7.13660       -5.62660
H         18.22240       -9.12380       -7.29180
H         18.40700       -7.43150       -7.81370
H         18.94820       -7.91860       -6.18890
H         17.97570       -9.71910       -5.02980
H         16.88650      -10.77980       -3.14670
H          4.89220       -8.54150        0.71370
H          5.78120       -9.28080       -0.59790
H          7.24140      -10.46240        1.05550
H          5.54120      -10.86540        1.28490
H          6.33220       -9.72850        2.37370
H          8.13420       -5.94720        2.18130
H          7.86290       -7.53770        2.85400
H          6.32440       -5.87830        3.86620
H          5.40890       -7.08420        2.96540
H          5.67710       -5.48600        2.27410
H          9.97720       -9.39880        0.43150
H          4.87340       -5.05610       -0.48160
H          7.36490       -1.25620       -4.40890
H          9.14180       -1.57040       -6.09030
H          9.05760       -3.51930       -7.60880
H          7.19740       -5.11750       -7.45070
H          4.72100       -5.19880       -4.77340
H          5.40440       -6.04810       -6.16360
H          3.57430       -3.60130       -6.31720
H          4.26000       -4.44850       -7.70100
H          3.09690       -5.26870       -6.65290
H         -5.52260        8.36110       -0.69980
H         -5.29160        6.63540       -0.40820
H         -3.11690        7.83710       -0.40240
H         -3.41930        8.41150       -2.04650
H         -3.18240        6.69170       -1.74520
H         -6.45160        9.16100       -2.69680
H         -7.49590        8.75930       -4.88440
H         -7.41570        6.50190       -5.89230
H         -6.31960        4.66090       -4.67190
H          1.90930       -1.26140       -0.81380
H          0.34050       -0.48480       -0.64000
H          2.05890        0.77900        0.62000
H          1.47490        1.76950       -0.72740
H          3.03320        0.95170       -0.84270
H         -2.95920        0.29820       -1.44090
H         -1.37020       -0.45800       -1.51630
H         -1.95010        0.04690        0.84050
H         -0.66870        1.17940        0.38470
H         -2.34430        1.71310        0.42960
H        -12.80270        6.00300       -0.01000
H        -11.96610        4.48950       -0.26740
H        -12.58640        5.50520       -2.43160
H        -11.70220        6.97330       -2.02460
H        -10.83060        5.46340       -2.27800
H        -11.03680        8.61070        0.94620
H        -10.06860        8.40730       -0.49560
H         -8.80830        9.65040        1.23870
H         -8.02430        8.10570        0.90090
H         -8.99150        8.30100        2.35970
H         -7.98450        5.59250       -1.72470
H        -12.00330        6.17210        3.69290
H        -12.01010        5.48270        5.97770
H         -7.51580        2.08490        8.76970
H        -11.54000        3.88740       11.26140
H         -9.91830        1.54440       13.15750
H         -9.31210        3.96700       14.08500
H         -8.17950        2.17390       15.63630
H         -6.05730        1.20370       14.36640
H         -5.88290        2.39970       12.03340
H         -6.79570        4.45690       13.42620
H         -7.74870        4.33000       11.93000
H         -7.83890        0.59390       11.91060
