266

C          5.47140        3.93400       11.18560
C          5.42470        4.98800       12.07100
C          4.22990        5.73520       12.46420
O          3.06670        5.48200       12.20270
C          4.71580        6.89710       13.23820
C          3.99020        7.91470       13.80600
C          4.67780        8.92590       14.49290
O          3.90530        9.90140       15.02340
C          4.51860       10.95770       15.72500
C          6.06840        8.87120       14.58600
C          6.79160        7.83500       14.01140
C          6.11980        6.83660       13.32740
C          6.58360        5.63760       12.63920
C          7.89050        5.21460       12.57270
C          8.33120        3.99280       12.03220
N          8.77470        3.00430       11.64550
C          8.98110        5.94990       13.07520
N          9.91670        6.50880       13.43980
C          4.44660        3.25210       10.53420
C          4.68120        2.26010        9.54650
N          5.89490        1.95900        8.98560
C          6.86880        2.93870        8.71540
C          6.49760        4.21680        8.30460
C          7.46400        5.17430        8.07030
C          8.81530        4.88220        8.21620
C          9.86380        5.92890        7.99870
C          9.17560        3.59230        8.58780
C          8.22040        2.62830        8.84110
C          6.12400        0.63870        8.55380
C          5.75570       -0.43200        9.36510
C          5.97300       -1.72700        8.94240
C          6.56620       -1.99020        7.71250
C          6.77910       -3.40230        7.26180
C          6.94020       -0.91530        6.91600
C          6.72300        0.38610        7.32430
C          3.48410        1.62320        9.18630
S          3.05540        0.41590        8.01630
C          1.35460        0.60510        8.41380
C          1.14380        1.54690        9.40190
N         -0.12060        1.97390        9.85580
C         -0.61220        3.10440        9.14020
C         -0.51240        4.38240        9.68390
C         -0.97380        5.47390        8.97710
C         -1.53330        5.32570        7.71200
C         -2.04760        6.51910        6.96570
C         -1.61320        4.04980        7.17260
C         -1.15860        2.94740        7.87450
C         -0.41730        1.86380       11.21480
C         -1.63090        2.35750       11.69490
C         -1.97230        2.20890       13.02150
C         -1.12670        1.56500       13.91760
C         -1.50570        1.42900       15.36200
C          0.06990        1.06110       13.43280
C          0.41960        1.19420       12.10290
C          2.36040        2.12230        9.83420
S          2.72780        3.42450       10.90420
C          0.39450       -0.09490        7.62140
C         -0.87540       -0.52890        7.94480
C         -1.43170       -0.61150        9.29580
C         -2.71970       -0.15540        9.55460
C         -3.26000       -0.30790       10.81660
C         -2.53760       -0.93650       11.81450
C         -1.25350       -1.40540       11.56980
C         -0.50000       -2.15090       12.63280
C         -0.84890       -3.63990       12.58780
C         -0.70660       -1.22880       10.30890
C         -1.56550       -0.97880        6.79820
S         -3.18480       -1.59040        6.55530
C         -2.85060       -1.73680        4.86170
C         -3.51580       -2.05690        3.66470
C         -4.87240       -2.34990        3.40610
C         -5.31540       -2.44260        2.04320
N         -6.62000       -2.64690        1.94850
S         -7.23670       -2.72460        3.44410
N         -5.86370       -2.49550        4.27120
C         -4.35940       -2.36660        1.00760
C         -4.47910       -2.52940       -0.38260
S         -5.70910       -2.75410       -1.58110
C         -4.46840       -2.81420       -2.81140
C         -4.51250       -2.97730       -4.21080
C         -5.75230       -3.20760       -4.95200
C         -5.83530       -4.21480       -5.91110
C         -7.03220       -4.45310       -6.55430
C         -8.14940       -3.69010       -6.25760
C         -8.08410       -2.67760       -5.31070
C         -9.27720       -1.82250       -4.98990
C         -9.03750       -0.36300       -5.37930
C         -6.88070       -2.45350       -4.65810
C         -3.24300       -2.96650       -4.76200
S         -1.98820       -2.78670       -3.54470
C         -3.17850       -2.68610       -2.29790
C         -3.18620       -2.50560       -0.90850
N         -2.27580       -2.31210        0.09500
C         -2.97370       -2.19110        1.28270
C         -2.57060       -1.90360        2.61310
N         -1.36810       -1.47650        3.15970
C         -1.55310       -1.36050        4.51390
C         -0.81820       -0.91890        5.62100
S          0.76640       -0.29700        5.91240
C         -0.31770       -0.68870        2.55230
C         -0.82210        0.70770        2.19330
C         -0.87570       -2.57500       -0.14550
C         -0.17950       -1.40990       -0.84810
C         -2.91720       -2.94160       -6.15430
C         -1.85060       -3.50730       -6.83110
N         -0.86290       -4.33180       -6.28310
C          0.08840       -3.80710       -5.40810
C          0.38330       -2.44470       -5.39870
C          1.32020       -1.94080       -4.51730
C          1.99150       -2.77140       -3.63090
C          3.04860       -2.23210       -2.71460
C          1.68550       -4.12850       -3.63910
C          0.74860       -4.64450       -4.50880
C         -0.63000       -5.53280       -6.97570
C         -1.71830       -6.27950       -7.41880
C         -1.52170       -7.44410       -8.13410
C         -0.24210       -7.89960       -8.42050
C         -0.02320       -9.14870       -9.21840
C          0.83930       -7.15060       -7.97020
C          0.65650       -5.98080       -7.26230
C         -1.90600       -3.23010       -8.21700
S         -0.83610       -3.58810       -9.52240
C         -1.86090       -2.65580      -10.61810
C         -2.95200       -2.05070       -9.94210
N         -3.85820       -1.18710      -10.50220
C         -5.19500       -1.22450      -10.06570
C         -5.82580       -2.44810       -9.85280
C         -7.15810       -2.48650       -9.49910
C         -7.89590       -1.31720       -9.34930
C         -9.35930       -1.38250       -9.03970
C         -7.24840       -0.10150       -9.52730
C         -5.91390       -0.04840       -9.87870
C         -3.47500       -0.21960      -11.44940
C         -4.33920        0.13500      -12.48270
C         -3.94990        1.07530      -13.41520
C         -2.69760        1.67570      -13.35410
C         -2.27910        2.66080      -14.40160
C         -1.85100        1.33010      -12.30740
C         -2.23230        0.40340      -11.35800
C         -2.97230       -2.42380       -8.58870
S         -3.96550       -2.01100       -7.22740
C         -1.68690       -2.57740      -11.99880
C         -0.66200       -3.02660      -12.80020
C          0.58830       -3.64010      -12.34900
O          0.88490       -3.98880      -11.21830
C          1.44970       -3.74630      -13.54140
C          2.74800       -4.24500      -13.59800
C          3.30710       -4.20750      -14.85320
C          2.62180       -3.71580      -15.97090
C          1.33710       -3.22670      -15.92900
C          0.75280       -3.24900      -14.66050
C         -0.58150       -2.83190      -14.22790
C         -1.57340       -2.36390      -15.05690
C         -2.90380       -2.10670      -14.67610
N         -4.01720       -1.90930      -14.46560
C         -1.40940       -2.10160      -16.43090
N         -1.34910       -1.83990      -17.54820
C          3.78580       -3.96910      -16.89630
C          4.64670       -2.75440      -17.32250
C          4.51940       -1.73170      -16.22110
C          5.16870       -2.19500      -15.16150
C          5.74690       -3.53950      -15.52750
C          6.04750       -3.30840      -17.01700
C          4.55060       -4.51570      -15.64980
H          6.46260        3.58130       10.93120
H          2.91510        7.94780       13.73340
H          3.70560       11.60630       16.04680
H          5.20010       11.52360       15.08230
H          5.06110       10.59470       16.60330
H          6.61050        9.64080       15.11210
H          7.86520        7.82920       14.10650
H          5.45180        4.45790        8.18110
H          7.16110        6.16490        7.76240
H         10.28400        6.23780        8.95620
H          9.44660        6.80530        7.50890
H         10.67770        5.53820        7.39100
H         10.21950        3.34360        8.70390
H          8.51490        1.63910        9.15380
H          5.30930       -0.23980       10.32980
H          5.68510       -2.54950        9.58080
H          7.18500       -4.00700        8.07050
H          5.82930       -3.84430        6.95990
H          7.45980       -3.44350        6.41550
H          7.40360       -1.09720        5.95730
H          7.01190        1.21260        6.69220
H         -0.06790        4.51210       10.65990
H         -0.88950        6.46040        9.40960
H         -1.34690        7.34880        7.03770
H         -2.20950        6.28390        5.91670
H         -2.99580        6.84660        7.39280
H         -2.04220        3.91100        6.19010
H         -1.23520        1.96310        7.44250
H         -2.30830        2.85310       11.01610
H         -2.91810        2.59880       13.37020
H         -1.41850        2.39090       15.86800
H         -2.53760        1.09530       15.45940
H         -0.85730        0.71830       15.86920
H          0.74720        0.55220       14.10430
H          1.34970        0.76830       11.75860
H         -3.28510        0.33040        8.77380
H         -4.25520        0.05810       11.02080
H         -2.97120       -1.06320       12.79560
H         -0.75790       -1.74840       13.61370
H          0.57380       -2.02640       12.48280
H         -0.30560       -4.18280       13.35800
H         -0.59110       -4.06020       11.61820
H         -1.91510       -3.78290       12.74820
H          0.28930       -1.59400       10.09860
H         -4.96710       -4.82010       -6.12760
H         -7.09930       -5.24620       -7.28490
H         -9.08520       -3.89870       -6.75690
H        -10.15450       -2.20150       -5.51830
H         -9.48240       -1.87680       -3.91770
H         -8.75570       -0.29060       -6.42680
H         -9.93860        0.22380       -5.21630
H         -8.23590        0.06610       -4.78390
H         -6.81600       -1.67680       -3.91100
H          0.48340       -0.61070        3.29200
H          0.08740       -1.18130        1.67460
H         -0.01920        1.29190        1.75180
H         -1.64720        0.64520        1.48630
H         -1.17360        1.22030        3.08570
H         -0.80980       -3.45610       -0.79440
H         -0.40050       -2.83190        0.80250
H          0.89170       -1.58450       -0.87440
H         -0.37600       -0.46690       -0.34590
H         -0.53290       -1.33010       -1.87230
H         -0.11920       -1.78520       -6.09120
H          1.54050       -0.88290       -4.52850
H          3.06400       -2.77750       -1.77290
H          4.03060       -2.34180       -3.17660
H          2.89000       -1.17480       -2.51440
H          2.19000       -4.79090       -2.94990
H          0.51580       -5.69890       -4.49950
H         -2.72110       -5.93920       -7.20250
H         -2.37890       -8.00830       -8.47330
H          0.78310       -9.74310       -8.79290
H          0.25500       -8.89210      -10.24100
H         -0.92630       -9.75320       -9.25260
H          1.84330       -7.48170       -8.19320
H          1.50900       -5.39990       -6.94430
H         -5.27240       -3.36490       -9.99480
H         -7.64250       -3.44070       -9.35820
H         -9.53690       -2.00340       -8.16460
H         -9.89700       -1.82640       -9.87760
H         -9.76690       -0.39110       -8.85850
H         -7.79640        0.82070       -9.39730
H         -5.42520        0.90390      -10.02160
H         -5.30410       -0.34010      -12.56060
H         -4.62360        1.33080      -14.21900
H         -1.32400        3.11580      -14.15150
H         -2.18320        2.16240      -15.36620
H         -3.02540        3.44640      -14.50820
H         -0.87970        1.79710      -12.22830
H         -1.56470        0.15040      -10.54730
H         -2.48830       -2.06010      -12.51050
H          3.23690       -4.61890      -12.71190
H          0.82340       -2.85430      -16.79950
H          3.59950       -4.65470      -17.72070
H          4.45740       -2.39890      -18.33180
H          3.93840       -0.83190      -16.30410
H          5.23840       -1.75960      -14.18180
H          6.56070       -3.89830      -14.90240
H          6.28000       -4.22360      -17.55980
H          6.83570       -2.57440      -17.17900
H          4.86550       -5.55750      -15.66200
