
  xtb     02082222113D
 energy: -417.592100290213 gnorm: 0.000409804264 xtb: 6.4.1 (unknown)
257282  0     0  0            999 V2000
   -4.9776   -6.8325    8.4363 C   0  0  0  0  0  0  0  0  0  0  0  0
   -3.7819   -7.3313    8.8721 C   0  0  0  0  0  0  0  0  0  0  0  0
   -3.6597   -7.8379   10.2581 C   0  0  0  0  0  0  0  0  0  0  0  0
   -4.5628   -8.0625   11.0344 O   0  0  0  0  0  0  0  0  0  0  0  0
   -2.2032   -7.9680   10.4943 C   0  0  0  0  0  0  0  0  0  0  0  0
   -1.5388   -8.2849   11.6535 C   0  0  0  0  0  0  0  0  0  0  0  0
   -0.1365   -8.3147   11.6383 C   0  0  0  0  0  0  0  0  0  0  0  0
    0.4531   -8.6353   12.8128 O   0  0  0  0  0  0  0  0  0  0  0  0
    1.8587   -8.7018   12.8802 C   0  0  0  0  0  0  0  0  0  0  0  0
    0.5476   -8.0190   10.4588 C   0  0  0  0  0  0  0  0  0  0  0  0
   -0.1321   -7.7122    9.2885 C   0  0  0  0  0  0  0  0  0  0  0  0
   -1.5152   -7.6899    9.2962 C   0  0  0  0  0  0  0  0  0  0  0  0
   -2.4892   -7.4384    8.2406 C   0  0  0  0  0  0  0  0  0  0  0  0
   -2.2405   -7.5774    6.8959 C   0  0  0  0  0  0  0  0  0  0  0  0
   -3.2367   -7.6139    5.9029 C   0  0  0  0  0  0  0  0  0  0  0  0
   -4.0078   -7.7187    5.0568 N   0  0  0  0  0  0  0  0  0  0  0  0
   -0.9668   -7.8478    6.3675 C   0  0  0  0  0  0  0  0  0  0  0  0
    0.0483   -8.0814    5.8811 N   0  0  0  0  0  0  0  0  0  0  0  0
   -5.2171   -5.9468    7.3734 C   0  0  0  0  0  0  0  0  0  0  0  0
   -6.4582   -5.6724    6.7775 C   0  0  0  0  0  0  0  0  0  0  0  0
   -7.6034   -6.3773    7.0361 N   0  0  0  0  0  0  0  0  0  0  0  0
   -8.8602   -5.7573    7.0038 C   0  0  0  0  0  0  0  0  0  0  0  0
   -9.0228   -4.4443    7.4378 C   0  0  0  0  0  0  0  0  0  0  0  0
  -10.2849   -3.8848    7.4997 C   0  0  0  0  0  0  0  0  0  0  0  0
  -11.4116   -4.6146    7.1454 C   0  0  0  0  0  0  0  0  0  0  0  0
  -12.7913   -4.0498    7.2900 C   0  0  0  0  0  0  0  0  0  0  0  0
  -11.2355   -5.9124    6.6744 C   0  0  0  0  0  0  0  0  0  0  0  0
   -9.9814   -6.4790    6.5967 C   0  0  0  0  0  0  0  0  0  0  0  0
   -7.5370   -7.7493    7.3756 C   0  0  0  0  0  0  0  0  0  0  0  0
   -8.2840   -8.2466    8.4387 C   0  0  0  0  0  0  0  0  0  0  0  0
   -8.1973   -9.5824    8.7761 C   0  0  0  0  0  0  0  0  0  0  0  0
   -7.3699  -10.4484    8.0702 C   0  0  0  0  0  0  0  0  0  0  0  0
   -7.2508  -11.8849    8.4755 C   0  0  0  0  0  0  0  0  0  0  0  0
   -6.6437   -9.9425    6.9990 C   0  0  0  0  0  0  0  0  0  0  0  0
   -6.7275   -8.6107    6.6436 C   0  0  0  0  0  0  0  0  0  0  0  0
   -6.3401   -4.6364    5.8243 C   0  0  0  0  0  0  0  0  0  0  0  0
   -7.4312   -3.8657    4.7228 S   0  0  0  0  0  0  0  0  0  0  0  0
   -6.1223   -2.9052    4.0596 C   0  0  0  0  0  0  0  0  0  0  0  0
   -4.9162   -3.1242    4.7149 C   0  0  0  0  0  0  0  0  0  0  0  0
   -3.7314   -2.4416    4.4911 N   0  0  0  0  0  0  0  0  0  0  0  0
   -3.7084   -1.0756    4.1793 C   0  0  0  0  0  0  0  0  0  0  0  0
   -2.7447   -0.5755    3.3034 C   0  0  0  0  0  0  0  0  0  0  0  0
   -2.7490    0.7571    2.9427 C   0  0  0  0  0  0  0  0  0  0  0  0
   -3.7013    1.6350    3.4441 C   0  0  0  0  0  0  0  0  0  0  0  0
   -3.7265    3.0752    3.0335 C   0  0  0  0  0  0  0  0  0  0  0  0
   -4.6331    1.1387    4.3476 C   0  0  0  0  0  0  0  0  0  0  0  0
   -4.6466   -0.1936    4.7115 C   0  0  0  0  0  0  0  0  0  0  0  0
   -2.5184   -3.1488    4.5923 C   0  0  0  0  0  0  0  0  0  0  0  0
   -2.4019   -4.4378    4.0781 C   0  0  0  0  0  0  0  0  0  0  0  0
   -1.1992   -5.1111    4.1635 C   0  0  0  0  0  0  0  0  0  0  0  0
   -0.0844   -4.5218    4.7500 C   0  0  0  0  0  0  0  0  0  0  0  0
    1.2281   -5.2399    4.7856 C   0  0  0  0  0  0  0  0  0  0  0  0
   -0.2169   -3.2416    5.2746 C   0  0  0  0  0  0  0  0  0  0  0  0
   -1.4159   -2.5611    5.2054 C   0  0  0  0  0  0  0  0  0  0  0  0
   -5.0547   -4.1291    5.6990 C   0  0  0  0  0  0  0  0  0  0  0  0
   -3.9351   -4.9055    6.7537 S   0  0  0  0  0  0  0  0  0  0  0  0
   -6.2652   -1.9969    2.9578 C   0  0  0  0  0  0  0  0  0  0  0  0
   -7.0441   -0.8660    2.8362 C   0  0  0  0  0  0  0  0  0  0  0  0
   -8.2183   -0.5564    3.6522 C   0  0  0  0  0  0  0  0  0  0  0  0
   -8.3647    0.6891    4.2552 C   0  0  0  0  0  0  0  0  0  0  0  0
   -9.5041    0.9697    4.9837 C   0  0  0  0  0  0  0  0  0  0  0  0
  -10.5114    0.0265    5.0981 C   0  0  0  0  0  0  0  0  0  0  0  0
  -10.3906   -1.2129    4.4846 C   0  0  0  0  0  0  0  0  0  0  0  0
  -11.5044   -2.2169    4.5308 C   0  0  0  0  0  0  0  0  0  0  0  0
  -12.3012   -2.1968    3.2254 C   0  0  0  0  0  0  0  0  0  0  0  0
   -9.2366   -1.4947    3.7694 C   0  0  0  0  0  0  0  0  0  0  0  0
   -6.5541   -0.0199    1.8174 C   0  0  0  0  0  0  0  0  0  0  0  0
   -6.9294    1.6281    1.3784 S   0  0  0  0  0  0  0  0  0  0  0  0
   -5.5756    1.6273    0.2978 C   0  0  0  0  0  0  0  0  0  0  0  0
   -4.8086    2.5431   -0.4442 C   0  0  0  0  0  0  0  0  0  0  0  0
   -4.8230    3.9550   -0.5069 C   0  0  0  0  0  0  0  0  0  0  0  0
   -3.6922    4.6433   -1.0754 C   0  0  0  0  0  0  0  0  0  0  0  0
   -3.7921    5.9573   -0.9584 N   0  0  0  0  0  0  0  0  0  0  0  0
   -5.1862    6.3052   -0.2106 S   0  0  0  0  0  0  0  0  0  0  0  0
   -5.7153    4.7887    0.0026 N   0  0  0  0  0  0  0  0  0  0  0  0
   -2.6707    3.8912   -1.6982 C   0  0  0  0  0  0  0  0  0  0  0  0
   -1.4762    4.2457   -2.3549 C   0  0  0  0  0  0  0  0  0  0  0  0
   -0.4644    5.6339   -2.5955 S   0  0  0  0  0  0  0  0  0  0  0  0
    0.7226    4.6116   -3.3722 C   0  0  0  0  0  0  0  0  0  0  0  0
    2.0634    4.8266   -3.7516 C   0  0  0  0  0  0  0  0  0  0  0  0
    2.7168    6.1349   -3.6485 C   0  0  0  0  0  0  0  0  0  0  0  0
    3.9380    6.3017   -3.0052 C   0  0  0  0  0  0  0  0  0  0  0  0
    4.5180    7.5541   -2.9492 C   0  0  0  0  0  0  0  0  0  0  0  0
    3.8833    8.6426   -3.5181 C   0  0  0  0  0  0  0  0  0  0  0  0
    2.6459    8.5032   -4.1379 C   0  0  0  0  0  0  0  0  0  0  0  0
    1.9567    9.7222   -4.6920 C   0  0  0  0  0  0  0  0  0  0  0  0
    0.9709    9.4433   -5.8220 C   0  0  0  0  0  0  0  0  0  0  0  0
    2.0747    7.2419   -4.1947 C   0  0  0  0  0  0  0  0  0  0  0  0
    2.6605    3.6492   -4.1624 C   0  0  0  0  0  0  0  0  0  0  0  0
    1.5267    2.3043   -4.2085 S   0  0  0  0  0  0  0  0  0  0  0  0
    0.3097    3.2850   -3.4843 C   0  0  0  0  0  0  0  0  0  0  0  0
   -0.9334    3.0704   -2.8809 C   0  0  0  0  0  0  0  0  0  0  0  0
   -1.7208    1.9982   -2.5537 N   0  0  0  0  0  0  0  0  0  0  0  0
   -2.7664    2.4771   -1.7866 C   0  0  0  0  0  0  0  0  0  0  0  0
   -3.7392    1.8018   -1.0124 C   0  0  0  0  0  0  0  0  0  0  0  0
   -3.8235    0.4919   -0.5847 N   0  0  0  0  0  0  0  0  0  0  0  0
   -4.9218    0.3943    0.2263 C   0  0  0  0  0  0  0  0  0  0  0  0
   -5.4672   -0.5381    1.1174 C   0  0  0  0  0  0  0  0  0  0  0  0
   -5.0396   -2.1053    1.6964 S   0  0  0  0  0  0  0  0  0  0  0  0
   -2.8013   -0.5309   -0.5614 C   0  0  0  0  0  0  0  0  0  0  0  0
   -3.2184   -1.7821   -1.3319 C   0  0  0  0  0  0  0  0  0  0  0  0
   -1.6911    0.7878   -3.3441 C   0  0  0  0  0  0  0  0  0  0  0  0
   -1.9237    1.0864   -4.8246 C   0  0  0  0  0  0  0  0  0  0  0  0
    4.0280    3.4228   -4.5049 C   0  0  0  0  0  0  0  0  0  0  0  0
    4.8193    2.3222   -4.1927 C   0  0  0  0  0  0  0  0  0  0  0  0
    4.4494    1.2167   -3.4415 N   0  0  0  0  0  0  0  0  0  0  0  0
    5.0077   -0.0291   -3.7785 C   0  0  0  0  0  0  0  0  0  0  0  0
    5.4282   -0.9064   -2.7828 C   0  0  0  0  0  0  0  0  0  0  0  0
    5.9863   -2.1216   -3.1228 C   0  0  0  0  0  0  0  0  0  0  0  0
    6.1485   -2.4918   -4.4534 C   0  0  0  0  0  0  0  0  0  0  0  0
    6.7891   -3.7978   -4.8096 C   0  0  0  0  0  0  0  0  0  0  0  0
    5.7237   -1.6111   -5.4396 C   0  0  0  0  0  0  0  0  0  0  0  0
    5.1543   -0.3961   -5.1130 C   0  0  0  0  0  0  0  0  0  0  0  0
    3.5549    1.3174   -2.3717 C   0  0  0  0  0  0  0  0  0  0  0  0
    3.4914    2.4715   -1.5924 C   0  0  0  0  0  0  0  0  0  0  0  0
    2.5046    2.6177   -0.6390 C   0  0  0  0  0  0  0  0  0  0  0  0
    1.5736    1.6116   -0.4077 C   0  0  0  0  0  0  0  0  0  0  0  0
    0.4636    1.8040    0.5803 C   0  0  0  0  0  0  0  0  0  0  0  0
    1.6897    0.4326   -1.1337 C   0  0  0  0  0  0  0  0  0  0  0  0
    2.6591    0.2819   -2.1046 C   0  0  0  0  0  0  0  0  0  0  0  0
    6.1325    2.4944   -4.6945 C   0  0  0  0  0  0  0  0  0  0  0  0
    7.5733    1.5512   -4.5912 S   0  0  0  0  0  0  0  0  0  0  0  0
    8.4873    2.8098   -5.4421 C   0  0  0  0  0  0  0  0  0  0  0  0
    7.6991    3.9572   -5.6809 C   0  0  0  0  0  0  0  0  0  0  0  0
    8.1461    5.1903   -6.0448 N   0  0  0  0  0  0  0  0  0  0  0  0
    7.2224    6.1375   -6.5442 C   0  0  0  0  0  0  0  0  0  0  0  0
    7.1112    7.3801   -5.9297 C   0  0  0  0  0  0  0  0  0  0  0  0
    6.1851    8.2926   -6.3919 C   0  0  0  0  0  0  0  0  0  0  0  0
    5.3633    7.9935   -7.4731 C   0  0  0  0  0  0  0  0  0  0  0  0
    4.3710    8.9990   -7.9691 C   0  0  0  0  0  0  0  0  0  0  0  0
    5.5039    6.7588   -8.0944 C   0  0  0  0  0  0  0  0  0  0  0  0
    6.4225    5.8323   -7.6390 C   0  0  0  0  0  0  0  0  0  0  0  0
    9.4675    5.6197   -5.8515 C   0  0  0  0  0  0  0  0  0  0  0  0
   10.1783    5.2980   -4.6964 C   0  0  0  0  0  0  0  0  0  0  0  0
   11.4903    5.6978   -4.5567 C   0  0  0  0  0  0  0  0  0  0  0  0
   12.1333    6.4260   -5.5550 C   0  0  0  0  0  0  0  0  0  0  0  0
   13.5775    6.7905   -5.4163 C   0  0  0  0  0  0  0  0  0  0  0  0
   11.4027    6.7855   -6.6796 C   0  0  0  0  0  0  0  0  0  0  0  0
   10.0849    6.3954   -6.8297 C   0  0  0  0  0  0  0  0  0  0  0  0
    6.3536    3.7125   -5.3203 C   0  0  0  0  0  0  0  0  0  0  0  0
    4.9131    4.6701   -5.3693 S   0  0  0  0  0  0  0  0  0  0  0  0
    9.8227    2.5372   -5.7333 C   0  0  0  0  0  0  0  0  0  0  0  0
   10.5797    3.1574   -6.7076 C   0  0  0  0  0  0  0  0  0  0  0  0
   10.0191    3.7735   -7.9162 C   0  0  0  0  0  0  0  0  0  0  0  0
    8.8460    3.8700   -8.2322 O   0  0  0  0  0  0  0  0  0  0  0  0
   11.1873    4.1453   -8.7469 C   0  0  0  0  0  0  0  0  0  0  0  0
   11.1901    4.7450   -9.9876 C   0  0  0  0  0  0  0  0  0  0  0  0
   12.4244    5.0156  -10.5821 C   0  0  0  0  0  0  0  0  0  0  0  0
   12.5850    5.6088  -11.7893 O   0  0  0  0  0  0  0  0  0  0  0  0
   11.4380    5.9582  -12.5289 C   0  0  0  0  0  0  0  0  0  0  0  0
   13.6052    4.6688   -9.9148 C   0  0  0  0  0  0  0  0  0  0  0  0
   13.5905    4.0625   -8.6731 C   0  0  0  0  0  0  0  0  0  0  0  0
   12.3674    3.7950   -8.0748 C   0  0  0  0  0  0  0  0  0  0  0  0
   12.0136    3.1990   -6.7924 C   0  0  0  0  0  0  0  0  0  0  0  0
   12.8892    2.8897   -5.7786 C   0  0  0  0  0  0  0  0  0  0  0  0
   12.4954    2.4494   -4.5009 C   0  0  0  0  0  0  0  0  0  0  0  0
   12.2460    2.1163   -3.4295 N   0  0  0  0  0  0  0  0  0  0  0  0
   14.2819    3.0601   -5.8667 C   0  0  0  0  0  0  0  0  0  0  0  0
   15.4233    3.1961   -5.8769 N   0  0  0  0  0  0  0  0  0  0  0  0
   -5.8294   -7.0816    9.0605 H   0  0  0  0  0  0  0  0  0  0  0  0
   -2.0704   -8.5088   12.5642 H   0  0  0  0  0  0  0  0  0  0  0  0
    2.3172   -7.7323   12.6619 H   0  0  0  0  0  0  0  0  0  0  0  0
    2.2577   -9.4574   12.1966 H   0  0  0  0  0  0  0  0  0  0  0  0
    2.0894   -8.9859   13.9055 H   0  0  0  0  0  0  0  0  0  0  0  0
    1.6258   -8.0237   10.4379 H   0  0  0  0  0  0  0  0  0  0  0  0
    0.4278   -7.4807    8.3966 H   0  0  0  0  0  0  0  0  0  0  0  0
   -8.1638   -3.8740    7.7591 H   0  0  0  0  0  0  0  0  0  0  0  0
  -10.3928   -2.8692    7.8516 H   0  0  0  0  0  0  0  0  0  0  0  0
  -13.3375   -4.1204    6.3508 H   0  0  0  0  0  0  0  0  0  0  0  0
  -13.3473   -4.6143    8.0385 H   0  0  0  0  0  0  0  0  0  0  0  0
  -12.7566   -3.0095    7.6025 H   0  0  0  0  0  0  0  0  0  0  0  0
  -12.0980   -6.4886    6.3721 H   0  0  0  0  0  0  0  0  0  0  0  0
   -9.8607   -7.4895    6.2362 H   0  0  0  0  0  0  0  0  0  0  0  0
   -8.9188   -7.5799    9.0042 H   0  0  0  0  0  0  0  0  0  0  0  0
   -8.7719   -9.9565    9.6106 H   0  0  0  0  0  0  0  0  0  0  0  0
   -8.2172  -12.2849    8.7752 H   0  0  0  0  0  0  0  0  0  0  0  0
   -6.5744  -11.9725    9.3263 H   0  0  0  0  0  0  0  0  0  0  0  0
   -6.8540  -12.4877    7.6624 H   0  0  0  0  0  0  0  0  0  0  0  0
   -6.0044  -10.5988    6.4269 H   0  0  0  0  0  0  0  0  0  0  0  0
   -6.1543   -8.2346    5.8097 H   0  0  0  0  0  0  0  0  0  0  0  0
   -2.0032   -1.2489    2.8973 H   0  0  0  0  0  0  0  0  0  0  0  0
   -2.0037    1.1238    2.2511 H   0  0  0  0  0  0  0  0  0  0  0  0
   -3.5106    3.7181    3.8866 H   0  0  0  0  0  0  0  0  0  0  0  0
   -4.7099    3.3483    2.6529 H   0  0  0  0  0  0  0  0  0  0  0  0
   -2.9897    3.2713    2.2576 H   0  0  0  0  0  0  0  0  0  0  0  0
   -5.3616    1.8110    4.7765 H   0  0  0  0  0  0  0  0  0  0  0  0
   -5.3860   -0.5552    5.4115 H   0  0  0  0  0  0  0  0  0  0  0  0
   -3.2527   -4.9065    3.6049 H   0  0  0  0  0  0  0  0  0  0  0  0
   -1.1211   -6.1095    3.7587 H   0  0  0  0  0  0  0  0  0  0  0  0
    1.9097   -4.7706    5.4910 H   0  0  0  0  0  0  0  0  0  0  0  0
    1.0869   -6.2824    5.0646 H   0  0  0  0  0  0  0  0  0  0  0  0
    1.6900   -5.2201    3.7982 H   0  0  0  0  0  0  0  0  0  0  0  0
    0.6317   -2.7687    5.7484 H   0  0  0  0  0  0  0  0  0  0  0  0
   -1.5050   -1.5676    5.6203 H   0  0  0  0  0  0  0  0  0  0  0  0
   -7.5847    1.4269    4.1544 H   0  0  0  0  0  0  0  0  0  0  0  0
   -9.6126    1.9339    5.4585 H   0  0  0  0  0  0  0  0  0  0  0  0
  -11.4046    0.2597    5.6602 H   0  0  0  0  0  0  0  0  0  0  0  0
  -12.1722   -1.9849    5.3608 H   0  0  0  0  0  0  0  0  0  0  0  0
  -11.0911   -3.2154    4.6887 H   0  0  0  0  0  0  0  0  0  0  0  0
  -12.7283   -1.2104    3.0576 H   0  0  0  0  0  0  0  0  0  0  0  0
  -13.1096   -2.9236    3.2622 H   0  0  0  0  0  0  0  0  0  0  0  0
  -11.6576   -2.4376    2.3828 H   0  0  0  0  0  0  0  0  0  0  0  0
   -9.1414   -2.4467    3.2669 H   0  0  0  0  0  0  0  0  0  0  0  0
    4.4255    5.4568   -2.5427 H   0  0  0  0  0  0  0  0  0  0  0  0
    5.4702    7.6830   -2.4557 H   0  0  0  0  0  0  0  0  0  0  0  0
    4.3463    9.6181   -3.4681 H   0  0  0  0  0  0  0  0  0  0  0  0
    2.7199   10.4233   -5.0415 H   0  0  0  0  0  0  0  0  0  0  0  0
    1.4255   10.2160   -3.8715 H   0  0  0  0  0  0  0  0  0  0  0  0
    0.0897    8.9246   -5.4535 H   0  0  0  0  0  0  0  0  0  0  0  0
    0.6451   10.3805   -6.2680 H   0  0  0  0  0  0  0  0  0  0  0  0
    1.4361    8.8357   -6.5951 H   0  0  0  0  0  0  0  0  0  0  0  0
    1.1200    7.0974   -4.6747 H   0  0  0  0  0  0  0  0  0  0  0  0
   -1.8722   -0.1111   -0.9471 H   0  0  0  0  0  0  0  0  0  0  0  0
   -2.6390   -0.8097    0.4859 H   0  0  0  0  0  0  0  0  0  0  0  0
   -3.4892   -1.5533   -2.3602 H   0  0  0  0  0  0  0  0  0  0  0  0
   -4.0761   -2.2460   -0.8524 H   0  0  0  0  0  0  0  0  0  0  0  0
   -2.4008   -2.4973   -1.3373 H   0  0  0  0  0  0  0  0  0  0  0  0
   -0.7175    0.3029   -3.2137 H   0  0  0  0  0  0  0  0  0  0  0  0
   -2.4821    0.1290   -2.9975 H   0  0  0  0  0  0  0  0  0  0  0  0
   -1.1235    1.6998   -5.2285 H   0  0  0  0  0  0  0  0  0  0  0  0
   -1.9568    0.1540   -5.3816 H   0  0  0  0  0  0  0  0  0  0  0  0
   -2.8684    1.6091   -4.9593 H   0  0  0  0  0  0  0  0  0  0  0  0
    5.3185   -0.6260   -1.7456 H   0  0  0  0  0  0  0  0  0  0  0  0
    6.3125   -2.7918   -2.3408 H   0  0  0  0  0  0  0  0  0  0  0  0
    7.8744   -3.6909   -4.8065 H   0  0  0  0  0  0  0  0  0  0  0  0
    6.4850   -4.1233   -5.8016 H   0  0  0  0  0  0  0  0  0  0  0  0
    6.5271   -4.5684   -4.0880 H   0  0  0  0  0  0  0  0  0  0  0  0
    5.8346   -1.8806   -6.4800 H   0  0  0  0  0  0  0  0  0  0  0  0
    4.8170    0.2738   -5.8908 H   0  0  0  0  0  0  0  0  0  0  0  0
    4.2105    3.2607   -1.7508 H   0  0  0  0  0  0  0  0  0  0  0  0
    2.4534    3.5330   -0.0672 H   0  0  0  0  0  0  0  0  0  0  0  0
   -0.3655    2.3382    0.1115 H   0  0  0  0  0  0  0  0  0  0  0  0
    0.7992    2.3935    1.4309 H   0  0  0  0  0  0  0  0  0  0  0  0
    0.0962    0.8446    0.9392 H   0  0  0  0  0  0  0  0  0  0  0  0
    0.9970   -0.3775   -0.9506 H   0  0  0  0  0  0  0  0  0  0  0  0
    2.7081   -0.6256   -2.6876 H   0  0  0  0  0  0  0  0  0  0  0  0
    7.7425    7.6157   -5.0853 H   0  0  0  0  0  0  0  0  0  0  0  0
    6.0914    9.2500   -5.9012 H   0  0  0  0  0  0  0  0  0  0  0  0
    3.9192    9.5318   -7.1361 H   0  0  0  0  0  0  0  0  0  0  0  0
    3.5878    8.5187   -8.5504 H   0  0  0  0  0  0  0  0  0  0  0  0
    4.8668    9.7316   -8.6073 H   0  0  0  0  0  0  0  0  0  0  0  0
    4.8853    6.5170   -8.9464 H   0  0  0  0  0  0  0  0  0  0  0  0
    6.5472    4.8782   -8.1271 H   0  0  0  0  0  0  0  0  0  0  0  0
    9.7032    4.7294   -3.9111 H   0  0  0  0  0  0  0  0  0  0  0  0
   12.0307    5.4315   -3.6600 H   0  0  0  0  0  0  0  0  0  0  0  0
   14.2037    5.9250   -5.6364 H   0  0  0  0  0  0  0  0  0  0  0  0
   13.8000    7.1071   -4.3995 H   0  0  0  0  0  0  0  0  0  0  0  0
   13.8472    7.5871   -6.1046 H   0  0  0  0  0  0  0  0  0  0  0  0
   11.8747    7.3656   -7.4592 H   0  0  0  0  0  0  0  0  0  0  0  0
    9.5281    6.6736   -7.7120 H   0  0  0  0  0  0  0  0  0  0  0  0
   10.2764    1.7402   -5.1564 H   0  0  0  0  0  0  0  0  0  0  0  0
   10.2506    4.9915  -10.4560 H   0  0  0  0  0  0  0  0  0  0  0  0
   10.8267    6.6941  -11.9974 H   0  0  0  0  0  0  0  0  0  0  0  0
   10.8291    5.0796  -12.7625 H   0  0  0  0  0  0  0  0  0  0  0  0
   11.8075    6.3974  -13.4539 H   0  0  0  0  0  0  0  0  0  0  0  0
   14.5403    4.8879  -10.4055 H   0  0  0  0  0  0  0  0  0  0  0  0
   14.5212    3.8008   -8.1965 H   0  0  0  0  0  0  0  0  0  0  0  0
  1  2  2  0  0  0  0
  2  3  1  0  0  0  0
  3  4  2  0  0  0  0
  3  5  1  0  0  0  0
  5  6  2  0  0  0  0
  6  7  1  0  0  0  0
  7  8  1  0  0  0  0
  8  9  1  0  0  0  0
  7 10  2  0  0  0  0
 10 11  1  0  0  0  0
 11 12  2  0  0  0  0
 12 13  1  0  0  0  0
 13 14  2  0  0  0  0
 14 15  1  0  0  0  0
 15 16  3  0  0  0  0
 14 17  1  0  0  0  0
 17 18  3  0  0  0  0
  1 19  1  0  0  0  0
 19 20  2  0  0  0  0
 20 21  1  0  0  0  0
 21 22  1  0  0  0  0
 22 23  2  0  0  0  0
 23 24  1  0  0  0  0
 24 25  2  0  0  0  0
 25 26  1  0  0  0  0
 25 27  1  0  0  0  0
 27 28  2  0  0  0  0
 21 29  1  0  0  0  0
 29 30  2  0  0  0  0
 30 31  1  0  0  0  0
 31 32  2  0  0  0  0
 32 33  1  0  0  0  0
 32 34  1  0  0  0  0
 34 35  2  0  0  0  0
 20 36  1  0  0  0  0
 36 37  1  0  0  0  0
 37 38  1  0  0  0  0
 38 39  2  0  0  0  0
 39 40  1  0  0  0  0
 40 41  1  0  0  0  0
 41 42  2  0  0  0  0
 42 43  1  0  0  0  0
 43 44  2  0  0  0  0
 44 45  1  0  0  0  0
 44 46  1  0  0  0  0
 46 47  2  0  0  0  0
 40 48  1  0  0  0  0
 48 49  2  0  0  0  0
 49 50  1  0  0  0  0
 50 51  2  0  0  0  0
 51 52  1  0  0  0  0
 51 53  1  0  0  0  0
 53 54  2  0  0  0  0
 39 55  1  0  0  0  0
 55 56  1  0  0  0  0
 38 57  1  0  0  0  0
 57 58  2  0  0  0  0
 58 59  1  0  0  0  0
 59 60  2  0  0  0  0
 60 61  1  0  0  0  0
 61 62  2  0  0  0  0
 62 63  1  0  0  0  0
 63 64  1  0  0  0  0
 64 65  1  0  0  0  0
 63 66  2  0  0  0  0
 58 67  1  0  0  0  0
 67 68  1  0  0  0  0
 68 69  1  0  0  0  0
 69 70  1  0  0  0  0
 70 71  1  0  0  0  0
 71 72  1  0  0  0  0
 72 73  2  0  0  0  0
 73 74  1  0  0  0  0
 74 75  1  0  0  0  0
 72 76  1  0  0  0  0
 76 77  1  0  0  0  0
 77 78  1  0  0  0  0
 78 79  1  0  0  0  0
 79 80  1  0  0  0  0
 80 81  1  0  0  0  0
 81 82  2  0  0  0  0
 82 83  1  0  0  0  0
 83 84  2  0  0  0  0
 84 85  1  0  0  0  0
 85 86  1  0  0  0  0
 86 87  1  0  0  0  0
 85 88  2  0  0  0  0
 80 89  2  0  0  0  0
 89 90  1  0  0  0  0
 90 91  1  0  0  0  0
 91 92  1  0  0  0  0
 92 93  1  0  0  0  0
 93 94  1  0  0  0  0
 94 95  1  0  0  0  0
 95 96  1  0  0  0  0
 96 97  1  0  0  0  0
 97 98  1  0  0  0  0
 98 99  1  0  0  0  0
 96100  1  0  0  0  0
100101  1  0  0  0  0
 93102  1  0  0  0  0
102103  1  0  0  0  0
 89104  1  0  0  0  0
104105  2  0  0  0  0
105106  1  0  0  0  0
106107  1  0  0  0  0
107108  2  0  0  0  0
108109  1  0  0  0  0
109110  2  0  0  0  0
110111  1  0  0  0  0
110112  1  0  0  0  0
112113  2  0  0  0  0
106114  1  0  0  0  0
114115  2  0  0  0  0
115116  1  0  0  0  0
116117  2  0  0  0  0
117118  1  0  0  0  0
117119  1  0  0  0  0
119120  2  0  0  0  0
105121  1  0  0  0  0
121122  1  0  0  0  0
122123  1  0  0  0  0
123124  2  0  0  0  0
124125  1  0  0  0  0
125126  1  0  0  0  0
126127  2  0  0  0  0
127128  1  0  0  0  0
128129  2  0  0  0  0
129130  1  0  0  0  0
129131  1  0  0  0  0
131132  2  0  0  0  0
125133  1  0  0  0  0
133134  2  0  0  0  0
134135  1  0  0  0  0
135136  2  0  0  0  0
136137  1  0  0  0  0
136138  1  0  0  0  0
138139  2  0  0  0  0
124140  1  0  0  0  0
140141  1  0  0  0  0
123142  1  0  0  0  0
142143  2  0  0  0  0
143144  1  0  0  0  0
144145  2  0  0  0  0
144146  1  0  0  0  0
146147  2  0  0  0  0
147148  1  0  0  0  0
148149  1  0  0  0  0
149150  1  0  0  0  0
148151  2  0  0  0  0
151152  1  0  0  0  0
152153  2  0  0  0  0
153154  1  0  0  0  0
154155  2  0  0  0  0
155156  1  0  0  0  0
156157  3  0  0  0  0
155158  1  0  0  0  0
158159  3  0  0  0  0
 13  2  1  0  0  0  0
 56 19  1  0  0  0  0
 99 57  1  0  0  0  0
141104  1  0  0  0  0
154143  1  0  0  0  0
 12  5  1  0  0  0  0
 28 22  1  0  0  0  0
 35 29  1  0  0  0  0
 55 36  2  0  0  0  0
 66 59  1  0  0  0  0
 98 67  2  0  0  0  0
113107  1  0  0  0  0
120114  1  0  0  0  0
140121  2  0  0  0  0
153146  1  0  0  0  0
 47 41  1  0  0  0  0
 54 48  1  0  0  0  0
 97 69  2  0  0  0  0
132126  1  0  0  0  0
139133  1  0  0  0  0
 95 70  2  0  0  0  0
 75 71  2  0  0  0  0
 94 76  2  0  0  0  0
 92 77  2  0  0  0  0
 91 79  2  0  0  0  0
 88 81  1  0  0  0  0
  1160  1  0  0  0  0
  6161  1  0  0  0  0
  9162  1  0  0  0  0
  9163  1  0  0  0  0
  9164  1  0  0  0  0
 10165  1  0  0  0  0
 11166  1  0  0  0  0
 23167  1  0  0  0  0
 24168  1  0  0  0  0
 26169  1  0  0  0  0
 26170  1  0  0  0  0
 26171  1  0  0  0  0
 27172  1  0  0  0  0
 28173  1  0  0  0  0
 30174  1  0  0  0  0
 31175  1  0  0  0  0
 33176  1  0  0  0  0
 33177  1  0  0  0  0
 33178  1  0  0  0  0
 34179  1  0  0  0  0
 35180  1  0  0  0  0
 42181  1  0  0  0  0
 43182  1  0  0  0  0
 45183  1  0  0  0  0
 45184  1  0  0  0  0
 45185  1  0  0  0  0
 46186  1  0  0  0  0
 47187  1  0  0  0  0
 49188  1  0  0  0  0
 50189  1  0  0  0  0
 52190  1  0  0  0  0
 52191  1  0  0  0  0
 52192  1  0  0  0  0
 53193  1  0  0  0  0
 54194  1  0  0  0  0
 60195  1  0  0  0  0
 61196  1  0  0  0  0
 62197  1  0  0  0  0
 64198  1  0  0  0  0
 64199  1  0  0  0  0
 65200  1  0  0  0  0
 65201  1  0  0  0  0
 65202  1  0  0  0  0
 66203  1  0  0  0  0
 82204  1  0  0  0  0
 83205  1  0  0  0  0
 84206  1  0  0  0  0
 86207  1  0  0  0  0
 86208  1  0  0  0  0
 87209  1  0  0  0  0
 87210  1  0  0  0  0
 87211  1  0  0  0  0
 88212  1  0  0  0  0
100213  1  0  0  0  0
100214  1  0  0  0  0
101215  1  0  0  0  0
101216  1  0  0  0  0
101217  1  0  0  0  0
102218  1  0  0  0  0
102219  1  0  0  0  0
103220  1  0  0  0  0
103221  1  0  0  0  0
103222  1  0  0  0  0
108223  1  0  0  0  0
109224  1  0  0  0  0
111225  1  0  0  0  0
111226  1  0  0  0  0
111227  1  0  0  0  0
112228  1  0  0  0  0
113229  1  0  0  0  0
115230  1  0  0  0  0
116231  1  0  0  0  0
118232  1  0  0  0  0
118233  1  0  0  0  0
118234  1  0  0  0  0
119235  1  0  0  0  0
120236  1  0  0  0  0
127237  1  0  0  0  0
128238  1  0  0  0  0
130239  1  0  0  0  0
130240  1  0  0  0  0
130241  1  0  0  0  0
131242  1  0  0  0  0
132243  1  0  0  0  0
134244  1  0  0  0  0
135245  1  0  0  0  0
137246  1  0  0  0  0
137247  1  0  0  0  0
137248  1  0  0  0  0
138249  1  0  0  0  0
139250  1  0  0  0  0
142251  1  0  0  0  0
147252  1  0  0  0  0
150253  1  0  0  0  0
150254  1  0  0  0  0
150255  1  0  0  0  0
151256  1  0  0  0  0
152257  1  0  0  0  0
M  END
