
  xtb     02082217083D
 energy: -428.366636548217 gnorm: 0.000271930207 xtb: 6.4.1 (unknown)
266294  0     0  0            999 V2000
    5.4714    3.9340   11.1856 C   0  0  0  0  0  0  0  0  0  0  0  0
    5.4247    4.9880   12.0710 C   0  0  0  0  0  0  0  0  0  0  0  0
    4.2299    5.7352   12.4642 C   0  0  0  0  0  0  0  0  0  0  0  0
    3.0667    5.4820   12.2027 O   0  0  0  0  0  0  0  0  0  0  0  0
    4.7158    6.8971   13.2382 C   0  0  0  0  0  0  0  0  0  0  0  0
    3.9902    7.9147   13.8060 C   0  0  0  0  0  0  0  0  0  0  0  0
    4.6778    8.9259   14.4929 C   0  0  0  0  0  0  0  0  0  0  0  0
    3.9053    9.9014   15.0234 O   0  0  0  0  0  0  0  0  0  0  0  0
    4.5186   10.9577   15.7250 C   0  0  0  0  0  0  0  0  0  0  0  0
    6.0684    8.8712   14.5860 C   0  0  0  0  0  0  0  0  0  0  0  0
    6.7916    7.8350   14.0114 C   0  0  0  0  0  0  0  0  0  0  0  0
    6.1198    6.8366   13.3274 C   0  0  0  0  0  0  0  0  0  0  0  0
    6.5836    5.6376   12.6392 C   0  0  0  0  0  0  0  0  0  0  0  0
    7.8905    5.2146   12.5727 C   0  0  0  0  0  0  0  0  0  0  0  0
    8.3312    3.9928   12.0322 C   0  0  0  0  0  0  0  0  0  0  0  0
    8.7747    3.0043   11.6455 N   0  0  0  0  0  0  0  0  0  0  0  0
    8.9811    5.9499   13.0752 C   0  0  0  0  0  0  0  0  0  0  0  0
    9.9167    6.5088   13.4398 N   0  0  0  0  0  0  0  0  0  0  0  0
    4.4466    3.2521   10.5342 C   0  0  0  0  0  0  0  0  0  0  0  0
    4.6812    2.2601    9.5465 C   0  0  0  0  0  0  0  0  0  0  0  0
    5.8949    1.9590    8.9856 N   0  0  0  0  0  0  0  0  0  0  0  0
    6.8688    2.9387    8.7154 C   0  0  0  0  0  0  0  0  0  0  0  0
    6.4976    4.2168    8.3046 C   0  0  0  0  0  0  0  0  0  0  0  0
    7.4640    5.1743    8.0703 C   0  0  0  0  0  0  0  0  0  0  0  0
    8.8153    4.8822    8.2162 C   0  0  0  0  0  0  0  0  0  0  0  0
    9.8638    5.9289    7.9987 C   0  0  0  0  0  0  0  0  0  0  0  0
    9.1756    3.5923    8.5878 C   0  0  0  0  0  0  0  0  0  0  0  0
    8.2204    2.6283    8.8411 C   0  0  0  0  0  0  0  0  0  0  0  0
    6.1240    0.6387    8.5538 C   0  0  0  0  0  0  0  0  0  0  0  0
    5.7557   -0.4320    9.3651 C   0  0  0  0  0  0  0  0  0  0  0  0
    5.9730   -1.7270    8.9424 C   0  0  0  0  0  0  0  0  0  0  0  0
    6.5662   -1.9902    7.7125 C   0  0  0  0  0  0  0  0  0  0  0  0
    6.7791   -3.4023    7.2618 C   0  0  0  0  0  0  0  0  0  0  0  0
    6.9402   -0.9153    6.9160 C   0  0  0  0  0  0  0  0  0  0  0  0
    6.7230    0.3861    7.3243 C   0  0  0  0  0  0  0  0  0  0  0  0
    3.4841    1.6232    9.1863 C   0  0  0  0  0  0  0  0  0  0  0  0
    3.0554    0.4159    8.0163 S   0  0  0  0  0  0  0  0  0  0  0  0
    1.3546    0.6051    8.4138 C   0  0  0  0  0  0  0  0  0  0  0  0
    1.1438    1.5469    9.4019 C   0  0  0  0  0  0  0  0  0  0  0  0
   -0.1206    1.9739    9.8558 N   0  0  0  0  0  0  0  0  0  0  0  0
   -0.6122    3.1044    9.1402 C   0  0  0  0  0  0  0  0  0  0  0  0
   -0.5124    4.3824    9.6839 C   0  0  0  0  0  0  0  0  0  0  0  0
   -0.9738    5.4739    8.9771 C   0  0  0  0  0  0  0  0  0  0  0  0
   -1.5333    5.3257    7.7120 C   0  0  0  0  0  0  0  0  0  0  0  0
   -2.0476    6.5191    6.9657 C   0  0  0  0  0  0  0  0  0  0  0  0
   -1.6132    4.0498    7.1726 C   0  0  0  0  0  0  0  0  0  0  0  0
   -1.1586    2.9474    7.8745 C   0  0  0  0  0  0  0  0  0  0  0  0
   -0.4173    1.8638   11.2148 C   0  0  0  0  0  0  0  0  0  0  0  0
   -1.6309    2.3575   11.6949 C   0  0  0  0  0  0  0  0  0  0  0  0
   -1.9723    2.2089   13.0215 C   0  0  0  0  0  0  0  0  0  0  0  0
   -1.1267    1.5650   13.9176 C   0  0  0  0  0  0  0  0  0  0  0  0
   -1.5057    1.4290   15.3620 C   0  0  0  0  0  0  0  0  0  0  0  0
    0.0699    1.0611   13.4328 C   0  0  0  0  0  0  0  0  0  0  0  0
    0.4196    1.1942   12.1029 C   0  0  0  0  0  0  0  0  0  0  0  0
    2.3604    2.1223    9.8342 C   0  0  0  0  0  0  0  0  0  0  0  0
    2.7278    3.4245   10.9042 S   0  0  0  0  0  0  0  0  0  0  0  0
    0.3945   -0.0949    7.6214 C   0  0  0  0  0  0  0  0  0  0  0  0
   -0.8754   -0.5289    7.9448 C   0  0  0  0  0  0  0  0  0  0  0  0
   -1.4317   -0.6115    9.2958 C   0  0  0  0  0  0  0  0  0  0  0  0
   -2.7197   -0.1554    9.5546 C   0  0  0  0  0  0  0  0  0  0  0  0
   -3.2600   -0.3079   10.8166 C   0  0  0  0  0  0  0  0  0  0  0  0
   -2.5376   -0.9365   11.8145 C   0  0  0  0  0  0  0  0  0  0  0  0
   -1.2535   -1.4054   11.5698 C   0  0  0  0  0  0  0  0  0  0  0  0
   -0.5000   -2.1509   12.6328 C   0  0  0  0  0  0  0  0  0  0  0  0
   -0.8489   -3.6399   12.5878 C   0  0  0  0  0  0  0  0  0  0  0  0
   -0.7066   -1.2288   10.3089 C   0  0  0  0  0  0  0  0  0  0  0  0
   -1.5655   -0.9788    6.7982 C   0  0  0  0  0  0  0  0  0  0  0  0
   -3.1848   -1.5904    6.5553 S   0  0  0  0  0  0  0  0  0  0  0  0
   -2.8506   -1.7368    4.8617 C   0  0  0  0  0  0  0  0  0  0  0  0
   -3.5158   -2.0569    3.6647 C   0  0  0  0  0  0  0  0  0  0  0  0
   -4.8724   -2.3499    3.4061 C   0  0  0  0  0  0  0  0  0  0  0  0
   -5.3154   -2.4426    2.0432 C   0  0  0  0  0  0  0  0  0  0  0  0
   -6.6200   -2.6469    1.9485 N   0  0  0  0  0  0  0  0  0  0  0  0
   -7.2367   -2.7246    3.4441 S   0  0  0  0  0  0  0  0  0  0  0  0
   -5.8637   -2.4955    4.2712 N   0  0  0  0  0  0  0  0  0  0  0  0
   -4.3594   -2.3666    1.0076 C   0  0  0  0  0  0  0  0  0  0  0  0
   -4.4791   -2.5294   -0.3826 C   0  0  0  0  0  0  0  0  0  0  0  0
   -5.7091   -2.7541   -1.5811 S   0  0  0  0  0  0  0  0  0  0  0  0
   -4.4684   -2.8142   -2.8114 C   0  0  0  0  0  0  0  0  0  0  0  0
   -4.5125   -2.9773   -4.2108 C   0  0  0  0  0  0  0  0  0  0  0  0
   -5.7523   -3.2076   -4.9520 C   0  0  0  0  0  0  0  0  0  0  0  0
   -5.8353   -4.2148   -5.9111 C   0  0  0  0  0  0  0  0  0  0  0  0
   -7.0322   -4.4531   -6.5543 C   0  0  0  0  0  0  0  0  0  0  0  0
   -8.1494   -3.6901   -6.2576 C   0  0  0  0  0  0  0  0  0  0  0  0
   -8.0841   -2.6776   -5.3107 C   0  0  0  0  0  0  0  0  0  0  0  0
   -9.2772   -1.8225   -4.9899 C   0  0  0  0  0  0  0  0  0  0  0  0
   -9.0375   -0.3630   -5.3793 C   0  0  0  0  0  0  0  0  0  0  0  0
   -6.8807   -2.4535   -4.6581 C   0  0  0  0  0  0  0  0  0  0  0  0
   -3.2430   -2.9665   -4.7620 C   0  0  0  0  0  0  0  0  0  0  0  0
   -1.9882   -2.7867   -3.5447 S   0  0  0  0  0  0  0  0  0  0  0  0
   -3.1785   -2.6861   -2.2979 C   0  0  0  0  0  0  0  0  0  0  0  0
   -3.1862   -2.5056   -0.9085 C   0  0  0  0  0  0  0  0  0  0  0  0
   -2.2758   -2.3121    0.0950 N   0  0  0  0  0  0  0  0  0  0  0  0
   -2.9737   -2.1911    1.2827 C   0  0  0  0  0  0  0  0  0  0  0  0
   -2.5706   -1.9036    2.6131 C   0  0  0  0  0  0  0  0  0  0  0  0
   -1.3681   -1.4765    3.1597 N   0  0  0  0  0  0  0  0  0  0  0  0
   -1.5531   -1.3605    4.5139 C   0  0  0  0  0  0  0  0  0  0  0  0
   -0.8182   -0.9189    5.6210 C   0  0  0  0  0  0  0  0  0  0  0  0
    0.7664   -0.2970    5.9124 S   0  0  0  0  0  0  0  0  0  0  0  0
   -0.3177   -0.6887    2.5523 C   0  0  0  0  0  0  0  0  0  0  0  0
   -0.8221    0.7077    2.1933 C   0  0  0  0  0  0  0  0  0  0  0  0
   -0.8757   -2.5750   -0.1455 C   0  0  0  0  0  0  0  0  0  0  0  0
   -0.1795   -1.4099   -0.8481 C   0  0  0  0  0  0  0  0  0  0  0  0
   -2.9172   -2.9416   -6.1543 C   0  0  0  0  0  0  0  0  0  0  0  0
   -1.8506   -3.5073   -6.8311 C   0  0  0  0  0  0  0  0  0  0  0  0
   -0.8629   -4.3318   -6.2831 N   0  0  0  0  0  0  0  0  0  0  0  0
    0.0884   -3.8071   -5.4081 C   0  0  0  0  0  0  0  0  0  0  0  0
    0.3833   -2.4447   -5.3987 C   0  0  0  0  0  0  0  0  0  0  0  0
    1.3202   -1.9408   -4.5173 C   0  0  0  0  0  0  0  0  0  0  0  0
    1.9915   -2.7714   -3.6309 C   0  0  0  0  0  0  0  0  0  0  0  0
    3.0486   -2.2321   -2.7146 C   0  0  0  0  0  0  0  0  0  0  0  0
    1.6855   -4.1285   -3.6391 C   0  0  0  0  0  0  0  0  0  0  0  0
    0.7486   -4.6445   -4.5088 C   0  0  0  0  0  0  0  0  0  0  0  0
   -0.6300   -5.5328   -6.9757 C   0  0  0  0  0  0  0  0  0  0  0  0
   -1.7183   -6.2795   -7.4188 C   0  0  0  0  0  0  0  0  0  0  0  0
   -1.5217   -7.4441   -8.1341 C   0  0  0  0  0  0  0  0  0  0  0  0
   -0.2421   -7.8996   -8.4205 C   0  0  0  0  0  0  0  0  0  0  0  0
   -0.0232   -9.1487   -9.2184 C   0  0  0  0  0  0  0  0  0  0  0  0
    0.8393   -7.1506   -7.9702 C   0  0  0  0  0  0  0  0  0  0  0  0
    0.6565   -5.9808   -7.2623 C   0  0  0  0  0  0  0  0  0  0  0  0
   -1.9060   -3.2301   -8.2170 C   0  0  0  0  0  0  0  0  0  0  0  0
   -0.8361   -3.5881   -9.5224 S   0  0  0  0  0  0  0  0  0  0  0  0
   -1.8609   -2.6558  -10.6181 C   0  0  0  0  0  0  0  0  0  0  0  0
   -2.9520   -2.0507   -9.9421 C   0  0  0  0  0  0  0  0  0  0  0  0
   -3.8582   -1.1871  -10.5022 N   0  0  0  0  0  0  0  0  0  0  0  0
   -5.1950   -1.2245  -10.0657 C   0  0  0  0  0  0  0  0  0  0  0  0
   -5.8258   -2.4481   -9.8528 C   0  0  0  0  0  0  0  0  0  0  0  0
   -7.1581   -2.4865   -9.4991 C   0  0  0  0  0  0  0  0  0  0  0  0
   -7.8959   -1.3172   -9.3493 C   0  0  0  0  0  0  0  0  0  0  0  0
   -9.3593   -1.3825   -9.0397 C   0  0  0  0  0  0  0  0  0  0  0  0
   -7.2484   -0.1015   -9.5273 C   0  0  0  0  0  0  0  0  0  0  0  0
   -5.9139   -0.0484   -9.8787 C   0  0  0  0  0  0  0  0  0  0  0  0
   -3.4750   -0.2196  -11.4494 C   0  0  0  0  0  0  0  0  0  0  0  0
   -4.3392    0.1350  -12.4827 C   0  0  0  0  0  0  0  0  0  0  0  0
   -3.9499    1.0753  -13.4152 C   0  0  0  0  0  0  0  0  0  0  0  0
   -2.6976    1.6757  -13.3541 C   0  0  0  0  0  0  0  0  0  0  0  0
   -2.2791    2.6608  -14.4016 C   0  0  0  0  0  0  0  0  0  0  0  0
   -1.8510    1.3301  -12.3074 C   0  0  0  0  0  0  0  0  0  0  0  0
   -2.2323    0.4034  -11.3580 C   0  0  0  0  0  0  0  0  0  0  0  0
   -2.9723   -2.4238   -8.5887 C   0  0  0  0  0  0  0  0  0  0  0  0
   -3.9655   -2.0110   -7.2274 S   0  0  0  0  0  0  0  0  0  0  0  0
   -1.6869   -2.5774  -11.9988 C   0  0  0  0  0  0  0  0  0  0  0  0
   -0.6620   -3.0266  -12.8002 C   0  0  0  0  0  0  0  0  0  0  0  0
    0.5883   -3.6401  -12.3490 C   0  0  0  0  0  0  0  0  0  0  0  0
    0.8849   -3.9888  -11.2183 O   0  0  0  0  0  0  0  0  0  0  0  0
    1.4497   -3.7463  -13.5414 C   0  0  0  0  0  0  0  0  0  0  0  0
    2.7480   -4.2450  -13.5980 C   0  0  0  0  0  0  0  0  0  0  0  0
    3.3071   -4.2075  -14.8532 C   0  0  0  0  0  0  0  0  0  0  0  0
    2.6218   -3.7158  -15.9709 C   0  0  0  0  0  0  0  0  0  0  0  0
    1.3371   -3.2267  -15.9290 C   0  0  0  0  0  0  0  0  0  0  0  0
    0.7528   -3.2490  -14.6605 C   0  0  0  0  0  0  0  0  0  0  0  0
   -0.5815   -2.8319  -14.2279 C   0  0  0  0  0  0  0  0  0  0  0  0
   -1.5734   -2.3639  -15.0569 C   0  0  0  0  0  0  0  0  0  0  0  0
   -2.9038   -2.1067  -14.6761 C   0  0  0  0  0  0  0  0  0  0  0  0
   -4.0172   -1.9093  -14.4656 N   0  0  0  0  0  0  0  0  0  0  0  0
   -1.4094   -2.1016  -16.4309 C   0  0  0  0  0  0  0  0  0  0  0  0
   -1.3491   -1.8399  -17.5482 N   0  0  0  0  0  0  0  0  0  0  0  0
    3.7858   -3.9691  -16.8963 C   0  0  0  0  0  0  0  0  0  0  0  0
    4.6467   -2.7544  -17.3225 C   0  0  0  0  0  0  0  0  0  0  0  0
    4.5194   -1.7317  -16.2211 C   0  0  0  0  0  0  0  0  0  0  0  0
    5.1687   -2.1950  -15.1615 C   0  0  0  0  0  0  0  0  0  0  0  0
    5.7469   -3.5395  -15.5275 C   0  0  0  0  0  0  0  0  0  0  0  0
    6.0475   -3.3084  -17.0170 C   0  0  0  0  0  0  0  0  0  0  0  0
    4.5506   -4.5157  -15.6498 C   0  0  0  0  0  0  0  0  0  0  0  0
    6.4626    3.5813   10.9312 H   0  0  0  0  0  0  0  0  0  0  0  0
    2.9151    7.9478   13.7334 H   0  0  0  0  0  0  0  0  0  0  0  0
    3.7056   11.6063   16.0468 H   0  0  0  0  0  0  0  0  0  0  0  0
    5.2001   11.5236   15.0823 H   0  0  0  0  0  0  0  0  0  0  0  0
    5.0611   10.5947   16.6033 H   0  0  0  0  0  0  0  0  0  0  0  0
    6.6105    9.6408   15.1121 H   0  0  0  0  0  0  0  0  0  0  0  0
    7.8652    7.8292   14.1065 H   0  0  0  0  0  0  0  0  0  0  0  0
    5.4518    4.4579    8.1811 H   0  0  0  0  0  0  0  0  0  0  0  0
    7.1611    6.1649    7.7624 H   0  0  0  0  0  0  0  0  0  0  0  0
   10.2840    6.2378    8.9562 H   0  0  0  0  0  0  0  0  0  0  0  0
    9.4466    6.8053    7.5089 H   0  0  0  0  0  0  0  0  0  0  0  0
   10.6777    5.5382    7.3910 H   0  0  0  0  0  0  0  0  0  0  0  0
   10.2195    3.3436    8.7039 H   0  0  0  0  0  0  0  0  0  0  0  0
    8.5149    1.6391    9.1538 H   0  0  0  0  0  0  0  0  0  0  0  0
    5.3093   -0.2398   10.3298 H   0  0  0  0  0  0  0  0  0  0  0  0
    5.6851   -2.5495    9.5808 H   0  0  0  0  0  0  0  0  0  0  0  0
    7.1850   -4.0070    8.0705 H   0  0  0  0  0  0  0  0  0  0  0  0
    5.8293   -3.8443    6.9599 H   0  0  0  0  0  0  0  0  0  0  0  0
    7.4598   -3.4435    6.4155 H   0  0  0  0  0  0  0  0  0  0  0  0
    7.4036   -1.0972    5.9573 H   0  0  0  0  0  0  0  0  0  0  0  0
    7.0119    1.2126    6.6922 H   0  0  0  0  0  0  0  0  0  0  0  0
   -0.0679    4.5121   10.6599 H   0  0  0  0  0  0  0  0  0  0  0  0
   -0.8895    6.4604    9.4096 H   0  0  0  0  0  0  0  0  0  0  0  0
   -1.3469    7.3488    7.0377 H   0  0  0  0  0  0  0  0  0  0  0  0
   -2.2095    6.2839    5.9167 H   0  0  0  0  0  0  0  0  0  0  0  0
   -2.9958    6.8466    7.3928 H   0  0  0  0  0  0  0  0  0  0  0  0
   -2.0422    3.9110    6.1901 H   0  0  0  0  0  0  0  0  0  0  0  0
   -1.2352    1.9631    7.4425 H   0  0  0  0  0  0  0  0  0  0  0  0
   -2.3083    2.8531   11.0161 H   0  0  0  0  0  0  0  0  0  0  0  0
   -2.9181    2.5988   13.3702 H   0  0  0  0  0  0  0  0  0  0  0  0
   -1.4185    2.3909   15.8680 H   0  0  0  0  0  0  0  0  0  0  0  0
   -2.5376    1.0953   15.4594 H   0  0  0  0  0  0  0  0  0  0  0  0
   -0.8573    0.7183   15.8692 H   0  0  0  0  0  0  0  0  0  0  0  0
    0.7472    0.5522   14.1043 H   0  0  0  0  0  0  0  0  0  0  0  0
    1.3497    0.7683   11.7586 H   0  0  0  0  0  0  0  0  0  0  0  0
   -3.2851    0.3304    8.7738 H   0  0  0  0  0  0  0  0  0  0  0  0
   -4.2552    0.0581   11.0208 H   0  0  0  0  0  0  0  0  0  0  0  0
   -2.9712   -1.0632   12.7956 H   0  0  0  0  0  0  0  0  0  0  0  0
   -0.7579   -1.7484   13.6137 H   0  0  0  0  0  0  0  0  0  0  0  0
    0.5738   -2.0264   12.4828 H   0  0  0  0  0  0  0  0  0  0  0  0
   -0.3056   -4.1828   13.3580 H   0  0  0  0  0  0  0  0  0  0  0  0
   -0.5911   -4.0602   11.6182 H   0  0  0  0  0  0  0  0  0  0  0  0
   -1.9151   -3.7829   12.7482 H   0  0  0  0  0  0  0  0  0  0  0  0
    0.2893   -1.5940   10.0986 H   0  0  0  0  0  0  0  0  0  0  0  0
   -4.9671   -4.8201   -6.1276 H   0  0  0  0  0  0  0  0  0  0  0  0
   -7.0993   -5.2462   -7.2849 H   0  0  0  0  0  0  0  0  0  0  0  0
   -9.0852   -3.8987   -6.7569 H   0  0  0  0  0  0  0  0  0  0  0  0
  -10.1545   -2.2015   -5.5183 H   0  0  0  0  0  0  0  0  0  0  0  0
   -9.4824   -1.8768   -3.9177 H   0  0  0  0  0  0  0  0  0  0  0  0
   -8.7557   -0.2906   -6.4268 H   0  0  0  0  0  0  0  0  0  0  0  0
   -9.9386    0.2238   -5.2163 H   0  0  0  0  0  0  0  0  0  0  0  0
   -8.2359    0.0661   -4.7839 H   0  0  0  0  0  0  0  0  0  0  0  0
   -6.8160   -1.6768   -3.9110 H   0  0  0  0  0  0  0  0  0  0  0  0
    0.4834   -0.6107    3.2920 H   0  0  0  0  0  0  0  0  0  0  0  0
    0.0874   -1.1813    1.6746 H   0  0  0  0  0  0  0  0  0  0  0  0
   -0.0192    1.2919    1.7518 H   0  0  0  0  0  0  0  0  0  0  0  0
   -1.6472    0.6452    1.4863 H   0  0  0  0  0  0  0  0  0  0  0  0
   -1.1736    1.2203    3.0857 H   0  0  0  0  0  0  0  0  0  0  0  0
   -0.8098   -3.4561   -0.7944 H   0  0  0  0  0  0  0  0  0  0  0  0
   -0.4005   -2.8319    0.8025 H   0  0  0  0  0  0  0  0  0  0  0  0
    0.8917   -1.5845   -0.8744 H   0  0  0  0  0  0  0  0  0  0  0  0
   -0.3760   -0.4669   -0.3459 H   0  0  0  0  0  0  0  0  0  0  0  0
   -0.5329   -1.3301   -1.8723 H   0  0  0  0  0  0  0  0  0  0  0  0
   -0.1192   -1.7852   -6.0912 H   0  0  0  0  0  0  0  0  0  0  0  0
    1.5405   -0.8829   -4.5285 H   0  0  0  0  0  0  0  0  0  0  0  0
    3.0640   -2.7775   -1.7729 H   0  0  0  0  0  0  0  0  0  0  0  0
    4.0306   -2.3418   -3.1766 H   0  0  0  0  0  0  0  0  0  0  0  0
    2.8900   -1.1748   -2.5144 H   0  0  0  0  0  0  0  0  0  0  0  0
    2.1900   -4.7909   -2.9499 H   0  0  0  0  0  0  0  0  0  0  0  0
    0.5158   -5.6989   -4.4995 H   0  0  0  0  0  0  0  0  0  0  0  0
   -2.7211   -5.9392   -7.2025 H   0  0  0  0  0  0  0  0  0  0  0  0
   -2.3789   -8.0083   -8.4733 H   0  0  0  0  0  0  0  0  0  0  0  0
    0.7831   -9.7431   -8.7929 H   0  0  0  0  0  0  0  0  0  0  0  0
    0.2550   -8.8921  -10.2410 H   0  0  0  0  0  0  0  0  0  0  0  0
   -0.9263   -9.7532   -9.2526 H   0  0  0  0  0  0  0  0  0  0  0  0
    1.8433   -7.4817   -8.1932 H   0  0  0  0  0  0  0  0  0  0  0  0
    1.5090   -5.3999   -6.9443 H   0  0  0  0  0  0  0  0  0  0  0  0
   -5.2724   -3.3649   -9.9948 H   0  0  0  0  0  0  0  0  0  0  0  0
   -7.6425   -3.4407   -9.3582 H   0  0  0  0  0  0  0  0  0  0  0  0
   -9.5369   -2.0034   -8.1646 H   0  0  0  0  0  0  0  0  0  0  0  0
   -9.8970   -1.8264   -9.8776 H   0  0  0  0  0  0  0  0  0  0  0  0
   -9.7669   -0.3911   -8.8585 H   0  0  0  0  0  0  0  0  0  0  0  0
   -7.7964    0.8207   -9.3973 H   0  0  0  0  0  0  0  0  0  0  0  0
   -5.4252    0.9039  -10.0216 H   0  0  0  0  0  0  0  0  0  0  0  0
   -5.3041   -0.3401  -12.5606 H   0  0  0  0  0  0  0  0  0  0  0  0
   -4.6236    1.3308  -14.2190 H   0  0  0  0  0  0  0  0  0  0  0  0
   -1.3240    3.1158  -14.1515 H   0  0  0  0  0  0  0  0  0  0  0  0
   -2.1832    2.1624  -15.3662 H   0  0  0  0  0  0  0  0  0  0  0  0
   -3.0254    3.4464  -14.5082 H   0  0  0  0  0  0  0  0  0  0  0  0
   -0.8797    1.7971  -12.2283 H   0  0  0  0  0  0  0  0  0  0  0  0
   -1.5647    0.1504  -10.5473 H   0  0  0  0  0  0  0  0  0  0  0  0
   -2.4883   -2.0601  -12.5105 H   0  0  0  0  0  0  0  0  0  0  0  0
    3.2369   -4.6189  -12.7119 H   0  0  0  0  0  0  0  0  0  0  0  0
    0.8234   -2.8543  -16.7995 H   0  0  0  0  0  0  0  0  0  0  0  0
    3.5995   -4.6547  -17.7207 H   0  0  0  0  0  0  0  0  0  0  0  0
    4.4574   -2.3989  -18.3318 H   0  0  0  0  0  0  0  0  0  0  0  0
    3.9384   -0.8319  -16.3041 H   0  0  0  0  0  0  0  0  0  0  0  0
    5.2384   -1.7596  -14.1818 H   0  0  0  0  0  0  0  0  0  0  0  0
    6.5607   -3.8983  -14.9024 H   0  0  0  0  0  0  0  0  0  0  0  0
    6.2800   -4.2236  -17.5598 H   0  0  0  0  0  0  0  0  0  0  0  0
    6.8357   -2.5744  -17.1790 H   0  0  0  0  0  0  0  0  0  0  0  0
    4.8655   -5.5575  -15.6620 H   0  0  0  0  0  0  0  0  0  0  0  0
  1  2  2  0  0  0  0
  2  3  1  0  0  0  0
  3  4  2  0  0  0  0
  3  5  1  0  0  0  0
  5  6  2  0  0  0  0
  6  7  1  0  0  0  0
  7  8  1  0  0  0  0
  8  9  1  0  0  0  0
  7 10  2  0  0  0  0
 10 11  1  0  0  0  0
 11 12  2  0  0  0  0
 12 13  1  0  0  0  0
 13 14  2  0  0  0  0
 14 15  1  0  0  0  0
 15 16  3  0  0  0  0
 14 17  1  0  0  0  0
 17 18  3  0  0  0  0
  1 19  1  0  0  0  0
 19 20  2  0  0  0  0
 20 21  1  0  0  0  0
 21 22  1  0  0  0  0
 22 23  2  0  0  0  0
 23 24  1  0  0  0  0
 24 25  2  0  0  0  0
 25 26  1  0  0  0  0
 25 27  1  0  0  0  0
 27 28  2  0  0  0  0
 21 29  1  0  0  0  0
 29 30  2  0  0  0  0
 30 31  1  0  0  0  0
 31 32  2  0  0  0  0
 32 33  1  0  0  0  0
 32 34  1  0  0  0  0
 34 35  2  0  0  0  0
 20 36  1  0  0  0  0
 36 37  1  0  0  0  0
 37 38  1  0  0  0  0
 38 39  2  0  0  0  0
 39 40  1  0  0  0  0
 40 41  1  0  0  0  0
 41 42  2  0  0  0  0
 42 43  1  0  0  0  0
 43 44  2  0  0  0  0
 44 45  1  0  0  0  0
 44 46  1  0  0  0  0
 46 47  2  0  0  0  0
 40 48  1  0  0  0  0
 48 49  2  0  0  0  0
 49 50  1  0  0  0  0
 50 51  2  0  0  0  0
 51 52  1  0  0  0  0
 51 53  1  0  0  0  0
 53 54  2  0  0  0  0
 39 55  1  0  0  0  0
 55 56  1  0  0  0  0
 38 57  1  0  0  0  0
 57 58  2  0  0  0  0
 58 59  1  0  0  0  0
 59 60  2  0  0  0  0
 60 61  1  0  0  0  0
 61 62  2  0  0  0  0
 62 63  1  0  0  0  0
 63 64  1  0  0  0  0
 64 65  1  0  0  0  0
 63 66  2  0  0  0  0
 58 67  1  0  0  0  0
 67 68  1  0  0  0  0
 68 69  1  0  0  0  0
 69 70  1  0  0  0  0
 70 71  1  0  0  0  0
 71 72  1  0  0  0  0
 72 73  2  0  0  0  0
 73 74  1  0  0  0  0
 74 75  1  0  0  0  0
 72 76  1  0  0  0  0
 76 77  1  0  0  0  0
 77 78  1  0  0  0  0
 78 79  1  0  0  0  0
 79 80  1  0  0  0  0
 80 81  1  0  0  0  0
 81 82  2  0  0  0  0
 82 83  1  0  0  0  0
 83 84  2  0  0  0  0
 84 85  1  0  0  0  0
 85 86  1  0  0  0  0
 86 87  1  0  0  0  0
 85 88  2  0  0  0  0
 80 89  2  0  0  0  0
 89 90  1  0  0  0  0
 90 91  1  0  0  0  0
 91 92  1  0  0  0  0
 92 93  1  0  0  0  0
 93 94  1  0  0  0  0
 94 95  1  0  0  0  0
 95 96  1  0  0  0  0
 96 97  1  0  0  0  0
 97 98  1  0  0  0  0
 98 99  1  0  0  0  0
 96100  1  0  0  0  0
100101  1  0  0  0  0
 93102  1  0  0  0  0
102103  1  0  0  0  0
 89104  1  0  0  0  0
104105  2  0  0  0  0
105106  1  0  0  0  0
106107  1  0  0  0  0
107108  2  0  0  0  0
108109  1  0  0  0  0
109110  2  0  0  0  0
110111  1  0  0  0  0
110112  1  0  0  0  0
112113  2  0  0  0  0
106114  1  0  0  0  0
114115  2  0  0  0  0
115116  1  0  0  0  0
116117  2  0  0  0  0
117118  1  0  0  0  0
117119  1  0  0  0  0
119120  2  0  0  0  0
105121  1  0  0  0  0
121122  1  0  0  0  0
122123  1  0  0  0  0
123124  2  0  0  0  0
124125  1  0  0  0  0
125126  1  0  0  0  0
126127  2  0  0  0  0
127128  1  0  0  0  0
128129  2  0  0  0  0
129130  1  0  0  0  0
129131  1  0  0  0  0
131132  2  0  0  0  0
125133  1  0  0  0  0
133134  2  0  0  0  0
134135  1  0  0  0  0
135136  2  0  0  0  0
136137  1  0  0  0  0
136138  1  0  0  0  0
138139  2  0  0  0  0
124140  1  0  0  0  0
140141  1  0  0  0  0
123142  1  0  0  0  0
142143  2  0  0  0  0
143144  1  0  0  0  0
144145  2  0  0  0  0
144146  1  0  0  0  0
146147  2  0  0  0  0
147148  1  0  0  0  0
148149  2  0  0  0  0
149150  1  0  0  0  0
150151  2  0  0  0  0
151152  1  0  0  0  0
152153  2  0  0  0  0
153154  1  0  0  0  0
154155  3  0  0  0  0
153156  1  0  0  0  0
156157  3  0  0  0  0
149158  1  0  0  0  0
158159  1  0  0  0  0
159160  1  0  0  0  0
160161  2  0  0  0  0
161162  1  0  0  0  0
162163  1  0  0  0  0
162164  1  0  0  0  0
 13  2  1  0  0  0  0
 56 19  1  0  0  0  0
 99 57  1  0  0  0  0
141104  1  0  0  0  0
152143  1  0  0  0  0
164158  1  0  0  0  0
 12  5  1  0  0  0  0
 28 22  1  0  0  0  0
 35 29  1  0  0  0  0
 55 36  2  0  0  0  0
 66 59  1  0  0  0  0
 98 67  2  0  0  0  0
113107  1  0  0  0  0
120114  1  0  0  0  0
140121  2  0  0  0  0
151146  1  0  0  0  0
163159  1  0  0  0  0
 47 41  1  0  0  0  0
 54 48  1  0  0  0  0
 97 69  2  0  0  0  0
132126  1  0  0  0  0
139133  1  0  0  0  0
164148  1  0  0  0  0
 95 70  2  0  0  0  0
 75 71  2  0  0  0  0
 94 76  2  0  0  0  0
 92 77  2  0  0  0  0
 91 79  2  0  0  0  0
 88 81  1  0  0  0  0
  1165  1  0  0  0  0
  6166  1  0  0  0  0
  9167  1  0  0  0  0
  9168  1  0  0  0  0
  9169  1  0  0  0  0
 10170  1  0  0  0  0
 11171  1  0  0  0  0
 23172  1  0  0  0  0
 24173  1  0  0  0  0
 26174  1  0  0  0  0
 26175  1  0  0  0  0
 26176  1  0  0  0  0
 27177  1  0  0  0  0
 28178  1  0  0  0  0
 30179  1  0  0  0  0
 31180  1  0  0  0  0
 33181  1  0  0  0  0
 33182  1  0  0  0  0
 33183  1  0  0  0  0
 34184  1  0  0  0  0
 35185  1  0  0  0  0
 42186  1  0  0  0  0
 43187  1  0  0  0  0
 45188  1  0  0  0  0
 45189  1  0  0  0  0
 45190  1  0  0  0  0
 46191  1  0  0  0  0
 47192  1  0  0  0  0
 49193  1  0  0  0  0
 50194  1  0  0  0  0
 52195  1  0  0  0  0
 52196  1  0  0  0  0
 52197  1  0  0  0  0
 53198  1  0  0  0  0
 54199  1  0  0  0  0
 60200  1  0  0  0  0
 61201  1  0  0  0  0
 62202  1  0  0  0  0
 64203  1  0  0  0  0
 64204  1  0  0  0  0
 65205  1  0  0  0  0
 65206  1  0  0  0  0
 65207  1  0  0  0  0
 66208  1  0  0  0  0
 82209  1  0  0  0  0
 83210  1  0  0  0  0
 84211  1  0  0  0  0
 86212  1  0  0  0  0
 86213  1  0  0  0  0
 87214  1  0  0  0  0
 87215  1  0  0  0  0
 87216  1  0  0  0  0
 88217  1  0  0  0  0
100218  1  0  0  0  0
100219  1  0  0  0  0
101220  1  0  0  0  0
101221  1  0  0  0  0
101222  1  0  0  0  0
102223  1  0  0  0  0
102224  1  0  0  0  0
103225  1  0  0  0  0
103226  1  0  0  0  0
103227  1  0  0  0  0
108228  1  0  0  0  0
109229  1  0  0  0  0
111230  1  0  0  0  0
111231  1  0  0  0  0
111232  1  0  0  0  0
112233  1  0  0  0  0
113234  1  0  0  0  0
115235  1  0  0  0  0
116236  1  0  0  0  0
118237  1  0  0  0  0
118238  1  0  0  0  0
118239  1  0  0  0  0
119240  1  0  0  0  0
120241  1  0  0  0  0
127242  1  0  0  0  0
128243  1  0  0  0  0
130244  1  0  0  0  0
130245  1  0  0  0  0
130246  1  0  0  0  0
131247  1  0  0  0  0
132248  1  0  0  0  0
134249  1  0  0  0  0
135250  1  0  0  0  0
137251  1  0  0  0  0
137252  1  0  0  0  0
137253  1  0  0  0  0
138254  1  0  0  0  0
139255  1  0  0  0  0
142256  1  0  0  0  0
147257  1  0  0  0  0
150258  1  0  0  0  0
158259  1  0  0  0  0
159260  1  0  0  0  0
160261  1  0  0  0  0
161262  1  0  0  0  0
162263  1  0  0  0  0
163264  1  0  0  0  0
163265  1  0  0  0  0
164266  1  0  0  0  0
M  END
