215

C         -4.37010        8.61260       10.08600
C         -4.80090        9.82840        9.65200
C         -4.99200       10.21750        8.23230
O         -4.66090        9.60100        7.24200
C         -5.76260       11.47600        8.27280
C         -6.20240       12.22740        7.20220
C         -6.91910       13.39510        7.47110
O         -7.39990       14.23660        6.53280
C         -7.17630       13.93920        5.17240
C         -7.17700       13.75790        8.80210
C         -6.73350       13.00010        9.86610
C         -6.01000       11.84070        9.60670
C         -5.39030       10.86410       10.48630
C         -5.27690       10.95410       11.84880
C         -4.51590       10.07250       12.64530
N         -3.87060        9.42740       13.34240
C         -5.85540       11.98350       12.61960
N         -6.30930       12.79310       13.29490
C         -3.70300        7.57920        9.36790
C         -3.96490        6.22600        9.54610
C         -3.09380        5.48590        8.70860
C         -2.23050        6.42090        8.02450
O         -1.30670        6.26080        7.25430
N         -2.67400        7.68750        8.46340
C         -1.88880        8.86280        8.17370
C         -1.16500        9.37870        9.41460
C         -3.29740        4.13610        8.95640
N         -4.30410        4.01960        9.88400
C         -5.00040        2.80420       10.24980
C         -5.01860        2.57470       11.75650
C         -4.80460        5.29020       10.26050
O         -5.74510        5.45220       11.00610
C         -2.57900        3.05860        8.35410
C         -1.99000        1.94890        8.93690
C         -1.88400        1.70300       10.37420
C         -1.57800        2.74400       11.24790
C         -1.40620        2.48160       12.59430
C         -1.54080        1.19090       13.07800
C         -1.85030        0.14270       12.22020
C         -1.94440       -1.26880       12.72130
C         -0.61080       -1.99010       12.51460
C         -2.01470        0.41010       10.86980
C         -1.34820        1.15330        7.97090
S         -0.38280       -0.29810        8.09560
C         -0.11590       -0.23240        6.38850
C          0.60600       -0.91980        5.40340
C          1.54060       -1.97090        5.52120
C          2.26000       -2.38630        4.35380
N          3.14740       -3.33310        4.61550
S          3.07870       -3.67560        6.19680
N          1.91380       -2.62710        6.60850
C          1.91200       -1.82370        3.10690
C          2.31290       -2.17660        1.80970
S          3.41170       -3.25930        1.02600
C          2.77200       -2.75360       -0.51680
C          3.04440       -3.16000       -1.84120
C          4.00020       -4.20250       -2.21270
C          3.70710       -5.11440       -3.22460
C          4.62520       -6.08870       -3.56550
C          5.84010       -6.16490       -2.90560
C          6.14050       -5.27890       -1.87990
C          7.42680       -5.38510       -1.11260
C          7.20550       -6.14920        0.19420
C          5.20940       -4.31080       -1.53530
C          2.24710       -2.48550       -2.73970
S          1.11710       -1.39150       -1.96240
C          1.76770       -1.79330       -0.41190
C          1.52080       -1.44440        0.92520
N          0.68130       -0.62320        1.62550
C          0.90690       -0.82150        2.97670
C          0.33520       -0.27490        4.16080
N         -0.48410        0.81020        4.41460
C         -0.75580        0.83590        5.75620
C         -1.44230        1.65090        6.66640
S         -2.31180        3.14280        6.62360
C         -0.87100        1.93640        3.59740
C         -2.36290        1.91640        3.26430
C         -0.31550        0.13450        0.90850
C          0.29350        1.35860        0.22510
C          2.35730       -2.54970       -4.17040
C          3.50910       -2.33120       -4.90970
N          4.70040       -1.85670       -4.39810
C          5.92330       -2.27950       -4.94430
C          6.08640       -3.57360       -5.42880
C          7.29790       -3.96450       -5.96470
C          8.37380       -3.08930       -6.02690
C          9.68080       -3.51020       -6.62640
C          8.20220       -1.79920       -5.53720
C          6.99540       -1.39250       -5.00660
C          4.69230       -1.01210       -3.27690
C          3.75510        0.01100       -3.16850
C          3.69430        0.78130       -2.02330
C          4.55660        0.55480       -0.95950
C          4.43210        1.32570        0.31900
C          5.53110       -0.42740       -1.10210
C          5.61050       -1.19490       -2.24550
C          3.28760       -2.63840       -6.27450
S          4.26760       -2.56280       -7.68520
C          2.96910       -3.26380       -8.65930
C          1.78600       -3.43180       -7.91430
N          0.56110       -3.82760       -8.39110
C          0.11350       -3.56640       -9.69520
C          0.54080       -2.45320      -10.41500
C          0.09200       -2.24300      -11.70330
C         -0.80800       -3.11500      -12.30560
C         -1.25140       -2.90250      -13.71850
C         -1.26660       -4.19740      -11.56500
C         -0.81080       -4.43000      -10.28370
C         -0.39630       -4.34040       -7.47770
C         -0.08100       -5.40490       -6.63860
C         -1.03460       -5.91170       -5.77940
C         -2.31660       -5.37560       -5.73090
C         -3.33580       -5.94450       -4.79350
C         -2.61840       -4.30870       -6.56700
C         -1.67330       -3.79240       -7.43220
C          2.00290       -3.07910       -6.56230
S          0.99390       -3.04570       -5.15520
C          3.30000       -3.54150       -9.99390
C          2.72570       -4.41040      -10.88650
C          2.87580       -4.18120      -12.34030
O          3.59070       -3.37000      -12.88630
C          1.91570       -5.11320      -12.97700
C          1.59430       -5.24460      -14.30540
C          0.64380       -6.20710      -14.67550
O          0.36040       -6.26980      -15.99800
C         -0.56070       -7.23160      -16.45720
C          0.06380       -7.01500      -13.69780
C          0.40290       -6.88210      -12.35900
C          1.32380       -5.91970      -11.98660
C          1.87770       -5.55310      -10.68940
C          1.79640       -6.30230       -9.53520
C          0.90870       -7.37720       -9.36020
N          0.16430       -8.22670       -9.14700
C          2.65040       -6.11790       -8.43610
N          3.35530       -6.04500       -7.53000
H         -4.62890        8.31480       11.09680
H         -5.97770       11.89720        6.20070
H         -7.64190       14.74990        4.61490
H         -7.64060       12.99010        4.88910
H         -6.10750       13.90700        4.94100
H         -7.73980       14.66210        8.97180
H         -6.95520       13.31100       10.87380
H         -1.16050        8.54400        7.42220
H         -2.51810        9.63810        7.73740
H         -0.50710        8.61000        9.81390
H         -1.87200        9.66440       10.19140
H         -0.56560       10.24680        9.15460
H         -6.03380        2.89210        9.89290
H         -4.52030        1.96870        9.73740
H         -5.52990        3.39790       12.24680
H         -4.00930        2.49970       12.14940
H         -5.54880        1.65140       11.97310
H         -1.45370        3.74660       10.86630
H         -1.16380        3.28830       13.26990
H         -1.40280        0.99540       14.13140
H         -2.19870       -1.27150       13.78270
H         -2.72820       -1.80190       12.17930
H          0.18100       -1.48380       13.06210
H         -0.67550       -3.01660       12.86720
H         -0.34470       -1.99940       11.46000
H         -2.25830       -0.39610       10.19310
H          2.75500       -5.07120       -3.73180
H          4.39300       -6.78740       -4.35560
H          6.55800       -6.92220       -3.18530
H          7.80360       -4.38570       -0.88360
H          8.17630       -5.90220       -1.71460
H          6.84010       -7.15250       -0.01300
H          8.13560       -6.22640        0.75250
H          6.46980       -5.63830        0.81130
H          5.43310       -3.61920       -0.73680
H         -0.25800        1.95650        2.70060
H         -0.65660        2.84680        4.16840
H         -2.94940        2.07150        4.16550
H         -2.59280        2.71450        2.56430
H         -2.66410        0.96620        2.82780
H         -0.73170       -0.52160        0.13570
H         -1.12200        0.40580        1.58340
H          0.83260        1.98460        0.93340
H         -0.48960        1.94890       -0.24230
H          0.99310        1.03980       -0.54260
H          5.27100       -4.27740       -5.37510
H          7.40510       -4.97300       -6.33600
H          9.73110       -3.19410       -7.66890
H          9.79160       -4.59130       -6.59590
H         10.51490       -3.05330       -6.09790
H          9.02490       -1.09970       -5.57920
H          6.87460       -0.38460       -4.63700
H          3.06470        0.19120       -3.97990
H          2.95640        1.56870       -1.95730
H          3.82200        2.21520        0.18020
H          5.41090        1.62420        0.68860
H          3.96420        0.70290        1.08320
H          6.22820       -0.60250       -0.29530
H          6.36720       -1.95810       -2.34450
H          1.22150       -1.74770       -9.96340
H          0.44790       -1.38290      -12.25060
H         -2.20490       -3.39080      -13.90490
H         -1.34490       -1.84200      -13.94110
H         -0.51340       -3.32480      -14.40150
H         -1.97840       -4.88170      -12.00250
H         -1.16270       -5.29060       -9.73360
H          0.90840       -5.83430       -6.65990
H         -0.78000       -6.74350       -5.13980
H         -3.47330       -7.00760       -4.98520
H         -4.29340       -5.44270       -4.90520
H         -3.00240       -5.83400       -3.76240
H         -3.60560       -3.87060       -6.54180
H         -1.92000       -2.96190       -8.07750
H          4.11310       -2.94670      -10.40050
H          2.05930       -4.63060      -15.06010
H         -1.55430       -7.07380      -16.02640
H         -0.22320       -8.24850      -16.23500
H         -0.61120       -7.09690      -17.53630
H         -0.66400       -7.76290      -13.96990
H         -0.06750       -7.52090      -11.62860
