
  xtb     02102219363D
 energy: -222.950781729623 gnorm: 0.000437072161 xtb: 6.4.1 (unknown)
117130  0     0  0            999 V2000
   -6.3081   -6.5792   -6.6123 C   0  0  0  0  0  0  0  0  0  0  0  0
   -6.9106   -5.6500   -7.3887 C   0  0  0  0  0  0  0  0  0  0  0  0
   -6.8064   -4.1750   -7.1488 C   0  0  0  0  0  0  0  0  0  0  0  0
   -6.1617   -3.6293   -6.2827 O   0  0  0  0  0  0  0  0  0  0  0  0
   -7.7569   -3.5659   -8.0874 C   0  0  0  0  0  0  0  0  0  0  0  0
   -8.0586   -2.2100   -8.2597 C   0  0  0  0  0  0  0  0  0  0  0  0
   -7.3918   -1.3250   -7.5068 O   0  0  0  0  0  0  0  0  0  0  0  0
   -7.6630    0.0497   -7.6524 C   0  0  0  0  0  0  0  0  0  0  0  0
   -9.0331   -1.8884   -9.2128 C   0  0  0  0  0  0  0  0  0  0  0  0
   -9.6713   -2.8789   -9.9378 C   0  0  0  0  0  0  0  0  0  0  0  0
   -9.3777   -4.2245   -9.7644 C   0  0  0  0  0  0  0  0  0  0  0  0
   -8.4101   -4.5636   -8.8332 C   0  0  0  0  0  0  0  0  0  0  0  0
   -7.8893   -5.8690   -8.4385 C   0  0  0  0  0  0  0  0  0  0  0  0
   -8.2057   -7.0697   -9.0108 C   0  0  0  0  0  0  0  0  0  0  0  0
   -7.6252   -8.3074   -8.6555 C   0  0  0  0  0  0  0  0  0  0  0  0
   -7.1856   -9.3444   -8.4356 N   0  0  0  0  0  0  0  0  0  0  0  0
   -9.1413   -7.2369  -10.0548 C   0  0  0  0  0  0  0  0  0  0  0  0
   -9.8936   -7.4459  -10.8957 N   0  0  0  0  0  0  0  0  0  0  0  0
   -5.2408   -6.2683   -5.6959 C   0  0  0  0  0  0  0  0  0  0  0  0
   -5.1648   -6.7861   -4.4204 C   0  0  0  0  0  0  0  0  0  0  0  0
   -6.1311   -7.6116   -3.9936 F   0  0  0  0  0  0  0  0  0  0  0  0
   -4.1662   -6.4388   -3.4828 C   0  0  0  0  0  0  0  0  0  0  0  0
   -4.3293   -6.9755   -2.2601 F   0  0  0  0  0  0  0  0  0  0  0  0
   -3.1199   -5.5723   -3.7461 C   0  0  0  0  0  0  0  0  0  0  0  0
   -3.1243   -5.0824   -5.0870 C   0  0  0  0  0  0  0  0  0  0  0  0
   -4.1546   -5.4222   -6.0376 C   0  0  0  0  0  0  0  0  0  0  0  0
   -3.8323   -4.8671   -7.1868 N   0  0  0  0  0  0  0  0  0  0  0  0
   -2.6948   -4.2146   -6.9754 O   0  0  0  0  0  0  0  0  0  0  0  0
   -2.2528   -4.3276   -5.7272 N   0  0  0  0  0  0  0  0  0  0  0  0
   -2.1174   -5.1479   -2.7841 C   0  0  0  0  0  0  0  0  0  0  0  0
   -1.7805   -5.9394   -1.6676 C   0  0  0  0  0  0  0  0  0  0  0  0
   -0.8749   -5.5197   -0.7206 C   0  0  0  0  0  0  0  0  0  0  0  0
   -0.2804   -4.2716   -0.8779 C   0  0  0  0  0  0  0  0  0  0  0  0
    0.6122   -3.6126   -0.0843 N   0  0  0  0  0  0  0  0  0  0  0  0
    1.1084   -4.0726    1.1858 C   0  0  0  0  0  0  0  0  0  0  0  0
    0.1999   -3.6401    2.3355 C   0  0  0  0  0  0  0  0  0  0  0  0
    0.8943   -2.3867   -0.6530 C   0  0  0  0  0  0  0  0  0  0  0  0
    0.1911   -2.2729   -1.8834 C   0  0  0  0  0  0  0  0  0  0  0  0
   -0.5784   -3.4784   -2.0167 C   0  0  0  0  0  0  0  0  0  0  0  0
   -1.4853   -3.9133   -2.9606 C   0  0  0  0  0  0  0  0  0  0  0  0
    0.3228   -1.1580   -2.6974 C   0  0  0  0  0  0  0  0  0  0  0  0
    1.1560   -0.1546   -2.2355 C   0  0  0  0  0  0  0  0  0  0  0  0
    1.8157   -0.2444   -0.9792 C   0  0  0  0  0  0  0  0  0  0  0  0
    1.7025   -1.3685   -0.1766 C   0  0  0  0  0  0  0  0  0  0  0  0
    2.5333    0.9904   -0.8153 C   0  0  0  0  0  0  0  0  0  0  0  0
    3.2936    1.5009    0.2144 C   0  0  0  0  0  0  0  0  0  0  0  0
    3.8422    2.7849    0.0979 C   0  0  0  0  0  0  0  0  0  0  0  0
    3.6240    3.5078   -1.0958 C   0  0  0  0  0  0  0  0  0  0  0  0
    2.8667    3.0126   -2.1300 C   0  0  0  0  0  0  0  0  0  0  0  0
    2.2959    1.7499   -1.9908 C   0  0  0  0  0  0  0  0  0  0  0  0
    1.4864    1.0466   -2.8326 N   0  0  0  0  0  0  0  0  0  0  0  0
    0.9731    1.5123   -4.0934 C   0  0  0  0  0  0  0  0  0  0  0  0
   -0.3553    2.2480   -3.9225 C   0  0  0  0  0  0  0  0  0  0  0  0
    4.5808    3.3677    1.1961 C   0  0  0  0  0  0  0  0  0  0  0  0
    5.1410    2.5983    2.2432 C   0  0  0  0  0  0  0  0  0  0  0  0
    5.7950    3.1825    3.4002 C   0  0  0  0  0  0  0  0  0  0  0  0
    6.2486    2.2476    4.2330 N   0  0  0  0  0  0  0  0  0  0  0  0
    5.9138    0.7918    3.6461 S   0  0  0  0  0  4  0  0  0  0  0  0
    5.1709    1.2605    2.3104 N   0  0  0  0  0  0  0  0  0  0  0  0
    5.9299    4.5717    3.5868 C   0  0  0  0  0  0  0  0  0  0  0  0
    5.4264    5.3399    2.5125 C   0  0  0  0  0  0  0  0  0  0  0  0
    5.4636    6.6712    2.4528 N   0  0  0  0  0  0  0  0  0  0  0  0
    4.7586    7.1566    1.0989 S   0  0  0  0  0  0  0  0  0  0  0  0
    4.3642    5.7201    0.5133 N   0  0  0  0  0  0  0  0  0  0  0  0
    4.7744    4.7606    1.3532 C   0  0  0  0  0  0  0  0  0  0  0  0
    6.4789    5.2249    4.7146 C   0  0  0  0  0  0  0  0  0  0  0  0
    6.9049    4.7372    5.9097 C   0  0  0  0  0  0  0  0  0  0  0  0
    6.9413    3.0954    6.5009 S   0  0  0  0  0  0  0  0  0  0  0  0
    7.5065    3.6422    8.0719 C   0  0  0  0  0  0  0  0  0  0  0  0
    7.7410    2.7275    9.0682 C   0  0  0  0  0  0  0  0  0  0  0  0
    7.4735    1.3661    8.8191 C   0  0  0  0  0  0  0  0  0  0  0  0
    7.2527    0.2566    8.6260 N   0  0  0  0  0  0  0  0  0  0  0  0
    8.2645    2.9921   10.3436 C   0  0  0  0  0  0  0  0  0  0  0  0
    8.7161    3.1317   11.3907 N   0  0  0  0  0  0  0  0  0  0  0  0
    7.6751    4.9867    8.1141 N   0  0  0  0  0  0  0  0  0  0  0  0
    8.0114    5.7379    9.3050 C   0  0  0  0  0  0  0  0  0  0  0  0
    6.9090    5.7135   10.3365 C   0  0  0  0  0  0  0  0  0  0  0  0
    5.5779    5.5945    9.9609 C   0  0  0  0  0  0  0  0  0  0  0  0
    4.5792    5.5813   10.9189 C   0  0  0  0  0  0  0  0  0  0  0  0
    4.9012    5.6962   12.2594 C   0  0  0  0  0  0  0  0  0  0  0  0
    6.2265    5.8289   12.6385 C   0  0  0  0  0  0  0  0  0  0  0  0
    7.2254    5.8356   11.6829 C   0  0  0  0  0  0  0  0  0  0  0  0
    7.3648    5.6661    6.9431 C   0  0  0  0  0  0  0  0  0  0  0  0
    7.4672    6.8677    6.8318 O   0  0  0  0  0  0  0  0  0  0  0  0
   -6.6399   -7.6097   -6.6241 H   0  0  0  0  0  0  0  0  0  0  0  0
   -8.7049    0.2812   -7.4104 H   0  0  0  0  0  0  0  0  0  0  0  0
   -7.4349    0.3988   -8.6642 H   0  0  0  0  0  0  0  0  0  0  0  0
   -7.0086    0.5512   -6.9418 H   0  0  0  0  0  0  0  0  0  0  0  0
   -9.3002   -0.8589   -9.3913 H   0  0  0  0  0  0  0  0  0  0  0  0
  -10.4219   -2.5942  -10.6597 H   0  0  0  0  0  0  0  0  0  0  0  0
   -9.8991   -4.9699  -10.3400 H   0  0  0  0  0  0  0  0  0  0  0  0
   -2.2227   -6.9142   -1.5501 H   0  0  0  0  0  0  0  0  0  0  0  0
   -0.6437   -6.1524    0.1224 H   0  0  0  0  0  0  0  0  0  0  0  0
    1.1801   -5.1629    1.1545 H   0  0  0  0  0  0  0  0  0  0  0  0
    2.1146   -3.6704    1.3291 H   0  0  0  0  0  0  0  0  0  0  0  0
   -0.7993   -4.0474    2.2001 H   0  0  0  0  0  0  0  0  0  0  0  0
    0.1280   -2.5557    2.3725 H   0  0  0  0  0  0  0  0  0  0  0  0
    0.5983   -3.9972    3.2811 H   0  0  0  0  0  0  0  0  0  0  0  0
   -1.7221   -3.2996   -3.8129 H   0  0  0  0  0  0  0  0  0  0  0  0
   -0.2045   -1.0958   -3.6355 H   0  0  0  0  0  0  0  0  0  0  0  0
    2.2228   -1.4276    0.7658 H   0  0  0  0  0  0  0  0  0  0  0  0
    3.4438    0.9271    1.1126 H   0  0  0  0  0  0  0  0  0  0  0  0
    4.0685    4.4835   -1.1936 H   0  0  0  0  0  0  0  0  0  0  0  0
    2.7210    3.6007   -3.0234 H   0  0  0  0  0  0  0  0  0  0  0  0
    1.7145    2.1771   -4.5438 H   0  0  0  0  0  0  0  0  0  0  0  0
    0.8431    0.6504   -4.7532 H   0  0  0  0  0  0  0  0  0  0  0  0
   -0.2271    3.1112   -3.2733 H   0  0  0  0  0  0  0  0  0  0  0  0
   -1.0973    1.5890   -3.4781 H   0  0  0  0  0  0  0  0  0  0  0  0
   -0.7213    2.5865   -4.8878 H   0  0  0  0  0  0  0  0  0  0  0  0
    6.5398    6.3047    4.6235 H   0  0  0  0  0  0  0  0  0  0  0  0
    8.9434    5.3595    9.7334 H   0  0  0  0  0  0  0  0  0  0  0  0
    8.1726    6.7676    8.9613 H   0  0  0  0  0  0  0  0  0  0  0  0
    5.3109    5.5158    8.9157 H   0  0  0  0  0  0  0  0  0  0  0  0
    3.5478    5.4815   10.6142 H   0  0  0  0  0  0  0  0  0  0  0  0
    4.1215    5.6824   13.0063 H   0  0  0  0  0  0  0  0  0  0  0  0
    6.4847    5.9192   13.6826 H   0  0  0  0  0  0  0  0  0  0  0  0
    8.2587    5.9235   11.9819 H   0  0  0  0  0  0  0  0  0  0  0  0
  1  2  2  0  0  0  0
  2  3  1  0  0  0  0
  3  4  2  0  0  0  0
  3  5  1  0  0  0  0
  5  6  2  0  0  0  0
  6  7  1  0  0  0  0
  7  8  1  0  0  0  0
  6  9  1  0  0  0  0
  9 10  2  0  0  0  0
 10 11  1  0  0  0  0
 11 12  2  0  0  0  0
 12 13  1  0  0  0  0
 13 14  2  0  0  0  0
 14 15  1  0  0  0  0
 15 16  3  0  0  0  0
 14 17  1  0  0  0  0
 17 18  3  0  0  0  0
  1 19  1  0  0  0  0
 19 20  2  0  0  0  0
 20 21  1  0  0  0  0
 20 22  1  0  0  0  0
 22 23  1  0  0  0  0
 22 24  2  0  0  0  0
 24 25  1  0  0  0  0
 25 26  1  0  0  0  0
 26 27  2  0  0  0  0
 27 28  1  0  0  0  0
 28 29  1  0  0  0  0
 24 30  1  0  0  0  0
 30 31  2  0  0  0  0
 31 32  1  0  0  0  0
 32 33  2  0  0  0  0
 33 34  1  0  0  0  0
 34 35  1  0  0  0  0
 35 36  1  0  0  0  0
 34 37  1  0  0  0  0
 37 38  2  0  0  0  0
 38 39  1  0  0  0  0
 39 40  2  0  0  0  0
 38 41  1  0  0  0  0
 41 42  2  0  0  0  0
 42 43  1  0  0  0  0
 43 44  2  0  0  0  0
 43 45  1  0  0  0  0
 45 46  2  0  0  0  0
 46 47  1  0  0  0  0
 47 48  2  0  0  0  0
 48 49  1  0  0  0  0
 49 50  2  0  0  0  0
 50 51  1  0  0  0  0
 51 52  1  0  0  0  0
 52 53  1  0  0  0  0
 47 54  1  0  0  0  0
 54 55  2  0  0  0  0
 55 56  1  0  0  0  0
 56 57  1  0  0  0  0
 57 58  2  0  0  0  0
 58 59  2  0  0  0  0
 56 60  2  0  0  0  0
 60 61  1  0  0  0  0
 61 62  2  0  0  0  0
 62 63  1  0  0  0  0
 63 64  1  0  0  0  0
 64 65  2  0  0  0  0
 60 66  1  0  0  0  0
 66 67  2  0  0  0  0
 67 68  1  0  0  0  0
 68 69  1  0  0  0  0
 69 70  2  0  0  0  0
 70 71  1  0  0  0  0
 71 72  3  0  0  0  0
 70 73  1  0  0  0  0
 73 74  3  0  0  0  0
 69 75  1  0  0  0  0
 75 76  1  0  0  0  0
 76 77  1  0  0  0  0
 77 78  2  0  0  0  0
 78 79  1  0  0  0  0
 79 80  2  0  0  0  0
 80 81  1  0  0  0  0
 81 82  2  0  0  0  0
 75 83  1  0  0  0  0
 83 84  2  0  0  0  0
 13  2  1  0  0  0  0
 26 19  1  0  0  0  0
 40 30  1  0  0  0  0
 51 42  1  0  0  0  0
 65 54  1  0  0  0  0
 83 67  1  0  0  0  0
 12  5  1  0  0  0  0
 29 25  2  0  0  0  0
 39 33  1  0  0  0  0
 50 45  1  0  0  0  0
 59 55  1  0  0  0  0
 65 61  1  0  0  0  0
 82 77  1  0  0  0  0
 44 37  1  0  0  0  0
  1 85  1  0  0  0  0
  8 86  1  0  0  0  0
  8 87  1  0  0  0  0
  8 88  1  0  0  0  0
  9 89  1  0  0  0  0
 10 90  1  0  0  0  0
 11 91  1  0  0  0  0
 31 92  1  0  0  0  0
 32 93  1  0  0  0  0
 35 94  1  0  0  0  0
 35 95  1  0  0  0  0
 36 96  1  0  0  0  0
 36 97  1  0  0  0  0
 36 98  1  0  0  0  0
 40 99  1  0  0  0  0
 41100  1  0  0  0  0
 44101  1  0  0  0  0
 46102  1  0  0  0  0
 48103  1  0  0  0  0
 49104  1  0  0  0  0
 52105  1  0  0  0  0
 52106  1  0  0  0  0
 53107  1  0  0  0  0
 53108  1  0  0  0  0
 53109  1  0  0  0  0
 66110  1  0  0  0  0
 76111  1  0  0  0  0
 76112  1  0  0  0  0
 78113  1  0  0  0  0
 79114  1  0  0  0  0
 80115  1  0  0  0  0
 81116  1  0  0  0  0
 82117  1  0  0  0  0
M  END
