
  xtb     02082210393D
 energy: -426.524303847826 gnorm: 0.000930676135 xtb: 6.4.1 (unknown)
253278  0     0  0            999 V2000
    6.5796   -5.4434    1.5256 C   0  0  0  0  0  0  0  0  0  0  0  0
    5.9558   -6.1913    0.5519 C   0  0  0  0  0  0  0  0  0  0  0  0
    4.6989   -5.8574   -0.1321 C   0  0  0  0  0  0  0  0  0  0  0  0
    4.0779   -4.8115   -0.0676 O   0  0  0  0  0  0  0  0  0  0  0  0
    4.3330   -7.0526   -0.9086 C   0  0  0  0  0  0  0  0  0  0  0  0
    3.2179   -7.2607   -1.7235 C   0  0  0  0  0  0  0  0  0  0  0  0
    2.3232   -6.2619   -1.8279 O   0  0  0  0  0  0  0  0  0  0  0  0
    1.2140   -6.4188   -2.6806 C   0  0  0  0  0  0  0  0  0  0  0  0
    3.1208   -8.5001   -2.3678 C   0  0  0  0  0  0  0  0  0  0  0  0
    4.0945   -9.4665   -2.1933 C   0  0  0  0  0  0  0  0  0  0  0  0
    5.2027   -9.2596   -1.3819 C   0  0  0  0  0  0  0  0  0  0  0  0
    5.3161   -8.0410   -0.7363 C   0  0  0  0  0  0  0  0  0  0  0  0
    6.3554   -7.5158    0.1524 C   0  0  0  0  0  0  0  0  0  0  0  0
    7.5002   -8.1867    0.5131 C   0  0  0  0  0  0  0  0  0  0  0  0
    8.5695   -7.6443    1.2501 C   0  0  0  0  0  0  0  0  0  0  0  0
    9.5031   -7.2771    1.8131 N   0  0  0  0  0  0  0  0  0  0  0  0
    7.7800   -9.5245    0.1737 C   0  0  0  0  0  0  0  0  0  0  0  0
    8.0679  -10.6167   -0.0370 N   0  0  0  0  0  0  0  0  0  0  0  0
    6.2632   -4.1889    2.0443 C   0  0  0  0  0  0  0  0  0  0  0  0
    6.9205   -3.6141    3.1639 C   0  0  0  0  0  0  0  0  0  0  0  0
    7.7888   -4.2694    3.9944 N   0  0  0  0  0  0  0  0  0  0  0  0
    7.6578   -5.6372    4.3042 C   0  0  0  0  0  0  0  0  0  0  0  0
    6.4009   -6.2188    4.4525 C   0  0  0  0  0  0  0  0  0  0  0  0
    6.2927   -7.5671    4.7269 C   0  0  0  0  0  0  0  0  0  0  0  0
    7.4227   -8.3619    4.8832 C   0  0  0  0  0  0  0  0  0  0  0  0
    7.3074   -9.8323    5.1415 C   0  0  0  0  0  0  0  0  0  0  0  0
    8.6716   -7.7619    4.7767 C   0  0  0  0  0  0  0  0  0  0  0  0
    8.7960   -6.4179    4.4856 C   0  0  0  0  0  0  0  0  0  0  0  0
    8.7766   -3.5267    4.6689 C   0  0  0  0  0  0  0  0  0  0  0  0
    9.5429   -2.5953    3.9769 C   0  0  0  0  0  0  0  0  0  0  0  0
   10.5259   -1.8837    4.6362 C   0  0  0  0  0  0  0  0  0  0  0  0
   10.7621   -2.0725    5.9913 C   0  0  0  0  0  0  0  0  0  0  0  0
   11.8141   -1.2888    6.7137 C   0  0  0  0  0  0  0  0  0  0  0  0
    9.9893   -3.0068    6.6739 C   0  0  0  0  0  0  0  0  0  0  0  0
    9.0099   -3.7304    6.0264 C   0  0  0  0  0  0  0  0  0  0  0  0
    6.4989   -2.2872    3.3642 C   0  0  0  0  0  0  0  0  0  0  0  0
    6.8488   -1.0574    4.5427 S   0  0  0  0  0  0  0  0  0  0  0  0
    5.5858   -0.0344    3.8789 C   0  0  0  0  0  0  0  0  0  0  0  0
    4.9838   -0.6006    2.7639 C   0  0  0  0  0  0  0  0  0  0  0  0
    3.9671   -0.0160    2.0246 N   0  0  0  0  0  0  0  0  0  0  0  0
    3.9360    1.3614    1.7733 C   0  0  0  0  0  0  0  0  0  0  0  0
    5.1077    2.0776    1.5511 C   0  0  0  0  0  0  0  0  0  0  0  0
    5.0589    3.4382    1.3151 C   0  0  0  0  0  0  0  0  0  0  0  0
    3.8522    4.1242    1.3022 C   0  0  0  0  0  0  0  0  0  0  0  0
    3.7917    5.6030    1.0718 C   0  0  0  0  0  0  0  0  0  0  0  0
    2.6840    3.3998    1.5152 C   0  0  0  0  0  0  0  0  0  0  0  0
    2.7179    2.0410    1.7471 C   0  0  0  0  0  0  0  0  0  0  0  0
    2.9294   -0.8352    1.5475 C   0  0  0  0  0  0  0  0  0  0  0  0
    2.4169   -1.8569    2.3426 C   0  0  0  0  0  0  0  0  0  0  0  0
    1.4208   -2.6802    1.8580 C   0  0  0  0  0  0  0  0  0  0  0  0
    0.8987   -2.5010    0.5834 C   0  0  0  0  0  0  0  0  0  0  0  0
   -0.1452   -3.4325    0.0493 C   0  0  0  0  0  0  0  0  0  0  0  0
    1.3962   -1.4614   -0.1921 C   0  0  0  0  0  0  0  0  0  0  0  0
    2.4018   -0.6392    0.2750 C   0  0  0  0  0  0  0  0  0  0  0  0
    5.5146   -1.8791    2.4739 C   0  0  0  0  0  0  0  0  0  0  0  0
    5.0639   -3.1004    1.3447 S   0  0  0  0  0  0  0  0  0  0  0  0
    4.9910    1.1241    4.5055 C   0  0  0  0  0  0  0  0  0  0  0  0
    5.3279    2.4610    4.5873 C   0  0  0  0  0  0  0  0  0  0  0  0
    6.6738    2.9987    4.4014 C   0  0  0  0  0  0  0  0  0  0  0  0
    6.8599    4.2891    3.9090 C   0  0  0  0  0  0  0  0  0  0  0  0
    8.1329    4.8064    3.7698 C   0  0  0  0  0  0  0  0  0  0  0  0
    9.2368    4.0471    4.1081 C   0  0  0  0  0  0  0  0  0  0  0  0
    9.0777    2.7509    4.5859 C   0  0  0  0  0  0  0  0  0  0  0  0
   10.2875    1.9199    4.9086 C   0  0  0  0  0  0  0  0  0  0  0  0
   11.0842    1.6091    3.6408 C   0  0  0  0  0  0  0  0  0  0  0  0
    7.7974    2.2439    4.7370 C   0  0  0  0  0  0  0  0  0  0  0  0
    4.1659    3.2580    4.7955 C   0  0  0  0  0  0  0  0  0  0  0  0
    3.8260    4.9764    4.6655 S   0  0  0  0  0  0  0  0  0  0  0  0
    2.1239    4.6451    4.5737 C   0  0  0  0  0  0  0  0  0  0  0  0
    0.9225    5.2579    4.1514 C   0  0  0  0  0  0  0  0  0  0  0  0
    0.5404    6.5787    3.8228 C   0  0  0  0  0  0  0  0  0  0  0  0
   -0.7976    6.8354    3.3383 C   0  0  0  0  0  0  0  0  0  0  0  0
   -1.0095    8.1214    3.1128 N   0  0  0  0  0  0  0  0  0  0  0  0
    0.3416    8.9419    3.4653 S   0  0  0  0  0  0  0  0  0  0  0  0
    1.2584    7.6860    3.9178 N   0  0  0  0  0  0  0  0  0  0  0  0
   -1.6539    5.7457    3.0497 C   0  0  0  0  0  0  0  0  0  0  0  0
   -2.8434    5.6155    2.3036 C   0  0  0  0  0  0  0  0  0  0  0  0
   -4.0022    6.5931    1.4571 S   0  0  0  0  0  0  0  0  0  0  0  0
   -4.7351    5.1428    0.7957 C   0  0  0  0  0  0  0  0  0  0  0  0
   -5.7687    4.9087   -0.1322 C   0  0  0  0  0  0  0  0  0  0  0  0
   -6.5966    5.9691   -0.7013 C   0  0  0  0  0  0  0  0  0  0  0  0
   -7.9793    5.8211   -0.7994 C   0  0  0  0  0  0  0  0  0  0  0  0
   -8.7483    6.8530   -1.2999 C   0  0  0  0  0  0  0  0  0  0  0  0
   -8.1575    8.0464   -1.6780 C   0  0  0  0  0  0  0  0  0  0  0  0
   -6.7845    8.2205   -1.5658 C   0  0  0  0  0  0  0  0  0  0  0  0
   -6.1366    9.5391   -1.8761 C   0  0  0  0  0  0  0  0  0  0  0  0
   -5.9004   10.3238   -0.5837 C   0  0  0  0  0  0  0  0  0  0  0  0
   -6.0146    7.1715   -1.0880 C   0  0  0  0  0  0  0  0  0  0  0  0
   -5.8983    3.5501   -0.4080 C   0  0  0  0  0  0  0  0  0  0  0  0
   -4.8063    2.5620    0.5619 S   0  0  0  0  0  0  0  0  0  0  0  0
   -4.1220    3.9783    1.2590 C   0  0  0  0  0  0  0  0  0  0  0  0
   -3.0577    4.2459    2.1209 C   0  0  0  0  0  0  0  0  0  0  0  0
   -2.0900    3.5148    2.7586 N   0  0  0  0  0  0  0  0  0  0  0  0
   -1.2272    4.4237    3.3394 C   0  0  0  0  0  0  0  0  0  0  0  0
   -0.0294    4.2114    4.0490 C   0  0  0  0  0  0  0  0  0  0  0  0
    0.5238    3.0299    4.5004 N   0  0  0  0  0  0  0  0  0  0  0  0
    1.8411    3.2934    4.7693 C   0  0  0  0  0  0  0  0  0  0  0  0
    2.9942    2.5188    4.9108 C   0  0  0  0  0  0  0  0  0  0  0  0
    3.2837    0.8290    4.8544 S   0  0  0  0  0  0  0  0  0  0  0  0
   -0.1715    1.9384    5.1498 C   0  0  0  0  0  0  0  0  0  0  0  0
    0.0556    1.9654    6.6610 C   0  0  0  0  0  0  0  0  0  0  0  0
   -1.7865    2.1796    2.2840 C   0  0  0  0  0  0  0  0  0  0  0  0
   -1.2125    2.2033    0.8676 C   0  0  0  0  0  0  0  0  0  0  0  0
   -6.5367    2.9089   -1.4965 C   0  0  0  0  0  0  0  0  0  0  0  0
   -6.5008    1.5370   -1.7535 C   0  0  0  0  0  0  0  0  0  0  0  0
   -6.1192    0.5705   -0.8299 N   0  0  0  0  0  0  0  0  0  0  0  0
   -5.3315   -0.4909   -1.3183 C   0  0  0  0  0  0  0  0  0  0  0  0
   -5.6765   -1.8202   -1.0941 C   0  0  0  0  0  0  0  0  0  0  0  0
   -4.8951   -2.8316   -1.6124 C   0  0  0  0  0  0  0  0  0  0  0  0
   -3.7604   -2.5515   -2.3663 C   0  0  0  0  0  0  0  0  0  0  0  0
   -2.9452   -3.6679   -2.9445 C   0  0  0  0  0  0  0  0  0  0  0  0
   -3.4239   -1.2225   -2.5837 C   0  0  0  0  0  0  0  0  0  0  0  0
   -4.1963   -0.2002   -2.0672 C   0  0  0  0  0  0  0  0  0  0  0  0
   -6.7956    0.4551    0.3909 C   0  0  0  0  0  0  0  0  0  0  0  0
   -8.0599    1.0101    0.5755 C   0  0  0  0  0  0  0  0  0  0  0  0
   -8.6923    0.9096    1.7977 C   0  0  0  0  0  0  0  0  0  0  0  0
   -8.0948    0.2527    2.8676 C   0  0  0  0  0  0  0  0  0  0  0  0
   -8.8059    0.1439    4.1818 C   0  0  0  0  0  0  0  0  0  0  0  0
   -6.8344   -0.2983    2.6766 C   0  0  0  0  0  0  0  0  0  0  0  0
   -6.1861   -0.1964    1.4620 C   0  0  0  0  0  0  0  0  0  0  0  0
   -6.8859    1.2434   -3.0733 C   0  0  0  0  0  0  0  0  0  0  0  0
   -6.9656   -0.2277   -3.9713 S   0  0  0  0  0  0  0  0  0  0  0  0
   -7.5475    0.6691   -5.3810 C   0  0  0  0  0  0  0  0  0  0  0  0
   -7.7761    2.0489   -5.0802 C   0  0  0  0  0  0  0  0  0  0  0  0
   -8.3856    2.9487   -5.9030 N   0  0  0  0  0  0  0  0  0  0  0  0
   -9.3763    2.5903   -6.8395 C   0  0  0  0  0  0  0  0  0  0  0  0
   -9.4527    3.2637   -8.0551 C   0  0  0  0  0  0  0  0  0  0  0  0
  -10.3944    2.8893   -8.9950 C   0  0  0  0  0  0  0  0  0  0  0  0
  -11.2643    1.8327   -8.7600 C   0  0  0  0  0  0  0  0  0  0  0  0
  -12.2107    1.3646   -9.8190 C   0  0  0  0  0  0  0  0  0  0  0  0
  -11.2102    1.1983   -7.5215 C   0  0  0  0  0  0  0  0  0  0  0  0
  -10.2926    1.5765   -6.5640 C   0  0  0  0  0  0  0  0  0  0  0  0
   -8.1089    4.3230   -5.7324 C   0  0  0  0  0  0  0  0  0  0  0  0
   -9.1484    5.2417   -5.6374 C   0  0  0  0  0  0  0  0  0  0  0  0
   -8.8685    6.5838   -5.4772 C   0  0  0  0  0  0  0  0  0  0  0  0
   -7.5575    7.0403   -5.4102 C   0  0  0  0  0  0  0  0  0  0  0  0
   -7.2592    8.5004   -5.2798 C   0  0  0  0  0  0  0  0  0  0  0  0
   -6.5269    6.1133   -5.5067 C   0  0  0  0  0  0  0  0  0  0  0  0
   -6.7923    4.7683   -5.6687 C   0  0  0  0  0  0  0  0  0  0  0  0
   -7.3139    2.3551   -3.7931 C   0  0  0  0  0  0  0  0  0  0  0  0
   -7.2086    3.8131   -2.8458 S   0  0  0  0  0  0  0  0  0  0  0  0
   -7.6653    0.1463   -6.6555 C   0  0  0  0  0  0  0  0  0  0  0  0
   -7.5449   -1.1558   -7.1197 C   0  0  0  0  0  0  0  0  0  0  0  0
   -7.3415   -2.3367   -6.2964 C   0  0  0  0  0  0  0  0  0  0  0  0
   -7.1286   -2.3966   -5.0982 O   0  0  0  0  0  0  0  0  0  0  0  0
   -7.4564   -3.4947   -7.2149 C   0  0  0  0  0  0  0  0  0  0  0  0
   -7.2580   -4.8327   -6.9364 C   0  0  0  0  0  0  0  0  0  0  0  0
   -6.9214   -5.3710   -5.3517 Cl  0  0  0  0  0  0  0  0  0  0  0  0
   -7.3225   -5.7482   -7.9959 C   0  0  0  0  0  0  0  0  0  0  0  0
   -7.1184   -7.4202   -7.6960 Cl  0  0  0  0  0  0  0  0  0  0  0  0
   -7.5146   -5.2909   -9.2964 C   0  0  0  0  0  0  0  0  0  0  0  0
   -7.5156   -6.4184  -10.5850 Cl  0  0  0  0  0  0  0  0  0  0  0  0
   -7.6888   -3.9248   -9.5755 C   0  0  0  0  0  0  0  0  0  0  0  0
   -7.7582   -3.4456  -11.2221 Cl  0  0  0  0  0  0  0  0  0  0  0  0
   -7.7223   -3.0245   -8.5174 C   0  0  0  0  0  0  0  0  0  0  0  0
   -7.8377   -1.5676   -8.4658 C   0  0  0  0  0  0  0  0  0  0  0  0
   -8.2420   -0.7332   -9.4922 C   0  0  0  0  0  0  0  0  0  0  0  0
   -7.9601    0.6429   -9.5467 C   0  0  0  0  0  0  0  0  0  0  0  0
   -7.6908    1.7489   -9.7182 N   0  0  0  0  0  0  0  0  0  0  0  0
   -9.0970   -1.0840  -10.5513 C   0  0  0  0  0  0  0  0  0  0  0  0
   -9.9184   -1.2157  -11.3451 N   0  0  0  0  0  0  0  0  0  0  0  0
    7.4445   -5.9042    1.9850 H   0  0  0  0  0  0  0  0  0  0  0  0
    0.5584   -7.2286   -2.3440 H   0  0  0  0  0  0  0  0  0  0  0  0
    0.6739   -5.4745   -2.6337 H   0  0  0  0  0  0  0  0  0  0  0  0
    1.5230   -6.6053   -3.7137 H   0  0  0  0  0  0  0  0  0  0  0  0
    2.2819   -8.7160   -3.0104 H   0  0  0  0  0  0  0  0  0  0  0  0
    3.9885  -10.4111   -2.7054 H   0  0  0  0  0  0  0  0  0  0  0  0
    5.9416  -10.0346   -1.2701 H   0  0  0  0  0  0  0  0  0  0  0  0
    5.5130   -5.6140    4.3394 H   0  0  0  0  0  0  0  0  0  0  0  0
    5.3112   -8.0079    4.8272 H   0  0  0  0  0  0  0  0  0  0  0  0
    6.2903  -10.1037    5.4130 H   0  0  0  0  0  0  0  0  0  0  0  0
    7.5840  -10.3892    4.2457 H   0  0  0  0  0  0  0  0  0  0  0  0
    7.9799  -10.1368    5.9410 H   0  0  0  0  0  0  0  0  0  0  0  0
    9.5619   -8.3596    4.8992 H   0  0  0  0  0  0  0  0  0  0  0  0
    9.7725   -5.9722    4.3797 H   0  0  0  0  0  0  0  0  0  0  0  0
    9.3759   -2.4464    2.9202 H   0  0  0  0  0  0  0  0  0  0  0  0
   11.1264   -1.1800    4.0816 H   0  0  0  0  0  0  0  0  0  0  0  0
   11.3492   -0.5683    7.3869 H   0  0  0  0  0  0  0  0  0  0  0  0
   12.4388   -1.9478    7.3139 H   0  0  0  0  0  0  0  0  0  0  0  0
   12.4459   -0.7466    6.0154 H   0  0  0  0  0  0  0  0  0  0  0  0
   10.1585   -3.1672    7.7287 H   0  0  0  0  0  0  0  0  0  0  0  0
    8.4171   -4.4546    6.5653 H   0  0  0  0  0  0  0  0  0  0  0  0
    6.0586    1.5654    1.5650 H   0  0  0  0  0  0  0  0  0  0  0  0
    5.9815    3.9722    1.1406 H   0  0  0  0  0  0  0  0  0  0  0  0
    3.2976    6.0990    1.9070 H   0  0  0  0  0  0  0  0  0  0  0  0
    3.2211    5.8246    0.1702 H   0  0  0  0  0  0  0  0  0  0  0  0
    4.7894    6.0198    0.9620 H   0  0  0  0  0  0  0  0  0  0  0  0
    1.7356    3.9196    1.5145 H   0  0  0  0  0  0  0  0  0  0  0  0
    1.8031    1.4933    1.9220 H   0  0  0  0  0  0  0  0  0  0  0  0
    2.8056   -2.0006    3.3408 H   0  0  0  0  0  0  0  0  0  0  0  0
    1.0422   -3.4779    2.4809 H   0  0  0  0  0  0  0  0  0  0  0  0
   -0.7011   -2.9744   -0.7649 H   0  0  0  0  0  0  0  0  0  0  0  0
   -0.8437   -3.7264    0.8306 H   0  0  0  0  0  0  0  0  0  0  0  0
    0.3416   -4.3332   -0.3241 H   0  0  0  0  0  0  0  0  0  0  0  0
    1.0028   -1.3022   -1.1860 H   0  0  0  0  0  0  0  0  0  0  0  0
    2.7921    0.1538   -0.3460 H   0  0  0  0  0  0  0  0  0  0  0  0
    6.0116    4.8886    3.6246 H   0  0  0  0  0  0  0  0  0  0  0  0
    8.2623    5.8118    3.3967 H   0  0  0  0  0  0  0  0  0  0  0  0
   10.2286    4.4639    4.0089 H   0  0  0  0  0  0  0  0  0  0  0  0
   10.9273    2.4658    5.6071 H   0  0  0  0  0  0  0  0  0  0  0  0
    9.9796    0.9864    5.3829 H   0  0  0  0  0  0  0  0  0  0  0  0
   10.4788    1.0257    2.9504 H   0  0  0  0  0  0  0  0  0  0  0  0
   11.9841    1.0478    3.8827 H   0  0  0  0  0  0  0  0  0  0  0  0
   11.3827    2.5262    3.1387 H   0  0  0  0  0  0  0  0  0  0  0  0
    7.6693    1.2537    5.1480 H   0  0  0  0  0  0  0  0  0  0  0  0
   -8.4452    4.9078   -0.4600 H   0  0  0  0  0  0  0  0  0  0  0  0
   -9.8187    6.7330   -1.3800 H   0  0  0  0  0  0  0  0  0  0  0  0
   -8.7706    8.8549   -2.0494 H   0  0  0  0  0  0  0  0  0  0  0  0
   -5.1774    9.3745   -2.3718 H   0  0  0  0  0  0  0  0  0  0  0  0
   -6.7739   10.1241   -2.5416 H   0  0  0  0  0  0  0  0  0  0  0  0
   -5.2584    9.7607    0.0896 H   0  0  0  0  0  0  0  0  0  0  0  0
   -6.8452   10.5109   -0.0783 H   0  0  0  0  0  0  0  0  0  0  0  0
   -5.4269   11.2785   -0.8000 H   0  0  0  0  0  0  0  0  0  0  0  0
   -4.9434    7.2899   -1.0161 H   0  0  0  0  0  0  0  0  0  0  0  0
   -1.2400    2.0402    4.9557 H   0  0  0  0  0  0  0  0  0  0  0  0
    0.1937    0.9868    4.7460 H   0  0  0  0  0  0  0  0  0  0  0  0
   -0.5216    1.1734    7.1301 H   0  0  0  0  0  0  0  0  0  0  0  0
   -0.2607    2.9212    7.0733 H   0  0  0  0  0  0  0  0  0  0  0  0
    1.1057    1.8135    6.8955 H   0  0  0  0  0  0  0  0  0  0  0  0
   -2.7168    1.6034    2.2970 H   0  0  0  0  0  0  0  0  0  0  0  0
   -1.0634    1.7058    2.9400 H   0  0  0  0  0  0  0  0  0  0  0  0
   -1.9255    2.6268    0.1658 H   0  0  0  0  0  0  0  0  0  0  0  0
   -0.3004    2.7948    0.8394 H   0  0  0  0  0  0  0  0  0  0  0  0
   -0.9789    1.1890    0.5546 H   0  0  0  0  0  0  0  0  0  0  0  0
   -6.5655   -2.0535   -0.5276 H   0  0  0  0  0  0  0  0  0  0  0  0
   -5.1788   -3.8602   -1.4443 H   0  0  0  0  0  0  0  0  0  0  0  0
   -3.5056   -4.1597   -3.7393 H   0  0  0  0  0  0  0  0  0  0  0  0
   -2.0125   -3.2965   -3.3626 H   0  0  0  0  0  0  0  0  0  0  0  0
   -2.7201   -4.4148   -2.1846 H   0  0  0  0  0  0  0  0  0  0  0  0
   -2.5466   -0.9801   -3.1666 H   0  0  0  0  0  0  0  0  0  0  0  0
   -3.9271    0.8316   -2.2422 H   0  0  0  0  0  0  0  0  0  0  0  0
   -8.5512    1.5125   -0.2449 H   0  0  0  0  0  0  0  0  0  0  0  0
   -9.6745    1.3425    1.9226 H   0  0  0  0  0  0  0  0  0  0  0  0
   -9.0811    1.1312    4.5504 H   0  0  0  0  0  0  0  0  0  0  0  0
   -9.7224   -0.4348    4.0690 H   0  0  0  0  0  0  0  0  0  0  0  0
   -8.1795   -0.3434    4.9245 H   0  0  0  0  0  0  0  0  0  0  0  0
   -6.3459   -0.8096    3.4938 H   0  0  0  0  0  0  0  0  0  0  0  0
   -5.2002   -0.6171    1.3326 H   0  0  0  0  0  0  0  0  0  0  0  0
   -8.7594    4.0621   -8.2685 H   0  0  0  0  0  0  0  0  0  0  0  0
  -10.4279    3.4077   -9.9409 H   0  0  0  0  0  0  0  0  0  0  0  0
  -12.4939    2.1818  -10.4776 H   0  0  0  0  0  0  0  0  0  0  0  0
  -11.7277    0.5966  -10.4264 H   0  0  0  0  0  0  0  0  0  0  0  0
  -13.1065    0.9313   -9.3804 H   0  0  0  0  0  0  0  0  0  0  0  0
  -11.9007    0.3961   -7.3044 H   0  0  0  0  0  0  0  0  0  0  0  0
  -10.2679    1.0757   -5.6073 H   0  0  0  0  0  0  0  0  0  0  0  0
  -10.1703    4.8959   -5.6870 H   0  0  0  0  0  0  0  0  0  0  0  0
   -9.6828    7.2892   -5.4007 H   0  0  0  0  0  0  0  0  0  0  0  0
   -8.0731    9.0185   -4.7798 H   0  0  0  0  0  0  0  0  0  0  0  0
   -6.3405    8.6573   -4.7211 H   0  0  0  0  0  0  0  0  0  0  0  0
   -7.1340    8.9426   -6.2690 H   0  0  0  0  0  0  0  0  0  0  0  0
   -5.5018    6.4500   -5.4624 H   0  0  0  0  0  0  0  0  0  0  0  0
   -5.9849    4.0565   -5.7582 H   0  0  0  0  0  0  0  0  0  0  0  0
   -7.9033    0.8814   -7.4123 H   0  0  0  0  0  0  0  0  0  0  0  0
  1  2  2  0  0  0  0
  2  3  1  0  0  0  0
  3  4  2  0  0  0  0
  3  5  1  0  0  0  0
  5  6  2  0  0  0  0
  6  7  1  0  0  0  0
  7  8  1  0  0  0  0
  6  9  1  0  0  0  0
  9 10  2  0  0  0  0
 10 11  1  0  0  0  0
 11 12  2  0  0  0  0
 12 13  1  0  0  0  0
 13 14  2  0  0  0  0
 14 15  1  0  0  0  0
 15 16  3  0  0  0  0
 14 17  1  0  0  0  0
 17 18  3  0  0  0  0
  1 19  1  0  0  0  0
 19 20  2  0  0  0  0
 20 21  1  0  0  0  0
 21 22  1  0  0  0  0
 22 23  2  0  0  0  0
 23 24  1  0  0  0  0
 24 25  2  0  0  0  0
 25 26  1  0  0  0  0
 25 27  1  0  0  0  0
 27 28  2  0  0  0  0
 21 29  1  0  0  0  0
 29 30  2  0  0  0  0
 30 31  1  0  0  0  0
 31 32  2  0  0  0  0
 32 33  1  0  0  0  0
 32 34  1  0  0  0  0
 34 35  2  0  0  0  0
 20 36  1  0  0  0  0
 36 37  1  0  0  0  0
 37 38  1  0  0  0  0
 38 39  2  0  0  0  0
 39 40  1  0  0  0  0
 40 41  1  0  0  0  0
 41 42  2  0  0  0  0
 42 43  1  0  0  0  0
 43 44  2  0  0  0  0
 44 45  1  0  0  0  0
 44 46  1  0  0  0  0
 46 47  2  0  0  0  0
 40 48  1  0  0  0  0
 48 49  2  0  0  0  0
 49 50  1  0  0  0  0
 50 51  2  0  0  0  0
 51 52  1  0  0  0  0
 51 53  1  0  0  0  0
 53 54  2  0  0  0  0
 39 55  1  0  0  0  0
 55 56  1  0  0  0  0
 38 57  1  0  0  0  0
 57 58  2  0  0  0  0
 58 59  1  0  0  0  0
 59 60  2  0  0  0  0
 60 61  1  0  0  0  0
 61 62  2  0  0  0  0
 62 63  1  0  0  0  0
 63 64  1  0  0  0  0
 64 65  1  0  0  0  0
 63 66  2  0  0  0  0
 58 67  1  0  0  0  0
 67 68  1  0  0  0  0
 68 69  1  0  0  0  0
 69 70  1  0  0  0  0
 70 71  1  0  0  0  0
 71 72  1  0  0  0  0
 72 73  2  0  0  0  0
 73 74  1  0  0  0  0
 74 75  1  0  0  0  0
 72 76  1  0  0  0  0
 76 77  1  0  0  0  0
 77 78  1  0  0  0  0
 78 79  1  0  0  0  0
 79 80  1  0  0  0  0
 80 81  1  0  0  0  0
 81 82  2  0  0  0  0
 82 83  1  0  0  0  0
 83 84  2  0  0  0  0
 84 85  1  0  0  0  0
 85 86  1  0  0  0  0
 86 87  1  0  0  0  0
 85 88  2  0  0  0  0
 80 89  2  0  0  0  0
 89 90  1  0  0  0  0
 90 91  1  0  0  0  0
 91 92  1  0  0  0  0
 92 93  1  0  0  0  0
 93 94  1  0  0  0  0
 94 95  1  0  0  0  0
 95 96  1  0  0  0  0
 96 97  1  0  0  0  0
 97 98  1  0  0  0  0
 98 99  1  0  0  0  0
 96100  1  0  0  0  0
100101  1  0  0  0  0
 93102  1  0  0  0  0
102103  1  0  0  0  0
 89104  1  0  0  0  0
104105  2  0  0  0  0
105106  1  0  0  0  0
106107  1  0  0  0  0
107108  2  0  0  0  0
108109  1  0  0  0  0
109110  2  0  0  0  0
110111  1  0  0  0  0
110112  1  0  0  0  0
112113  2  0  0  0  0
106114  1  0  0  0  0
114115  2  0  0  0  0
115116  1  0  0  0  0
116117  2  0  0  0  0
117118  1  0  0  0  0
117119  1  0  0  0  0
119120  2  0  0  0  0
105121  1  0  0  0  0
121122  1  0  0  0  0
122123  1  0  0  0  0
123124  2  0  0  0  0
124125  1  0  0  0  0
125126  1  0  0  0  0
126127  2  0  0  0  0
127128  1  0  0  0  0
128129  2  0  0  0  0
129130  1  0  0  0  0
129131  1  0  0  0  0
131132  2  0  0  0  0
125133  1  0  0  0  0
133134  2  0  0  0  0
134135  1  0  0  0  0
135136  2  0  0  0  0
136137  1  0  0  0  0
136138  1  0  0  0  0
138139  2  0  0  0  0
124140  1  0  0  0  0
140141  1  0  0  0  0
123142  1  0  0  0  0
142143  2  0  0  0  0
143144  1  0  0  0  0
144145  2  0  0  0  0
144146  1  0  0  0  0
146147  2  0  0  0  0
147148  1  0  0  0  0
147149  1  0  0  0  0
149150  1  0  0  0  0
149151  2  0  0  0  0
151152  1  0  0  0  0
151153  1  0  0  0  0
153154  1  0  0  0  0
153155  2  0  0  0  0
155156  1  0  0  0  0
156157  2  0  0  0  0
157158  1  0  0  0  0
158159  3  0  0  0  0
157160  1  0  0  0  0
160161  3  0  0  0  0
 13  2  1  0  0  0  0
 56 19  1  0  0  0  0
 99 57  1  0  0  0  0
141104  1  0  0  0  0
156143  1  0  0  0  0
 12  5  1  0  0  0  0
 28 22  1  0  0  0  0
 35 29  1  0  0  0  0
 55 36  2  0  0  0  0
 66 59  1  0  0  0  0
 98 67  2  0  0  0  0
113107  1  0  0  0  0
120114  1  0  0  0  0
140121  2  0  0  0  0
155146  1  0  0  0  0
 47 41  1  0  0  0  0
 54 48  1  0  0  0  0
 97 69  2  0  0  0  0
132126  1  0  0  0  0
139133  1  0  0  0  0
 95 70  2  0  0  0  0
 75 71  2  0  0  0  0
 94 76  2  0  0  0  0
 92 77  2  0  0  0  0
 91 79  2  0  0  0  0
 88 81  1  0  0  0  0
  1162  1  0  0  0  0
  8163  1  0  0  0  0
  8164  1  0  0  0  0
  8165  1  0  0  0  0
  9166  1  0  0  0  0
 10167  1  0  0  0  0
 11168  1  0  0  0  0
 23169  1  0  0  0  0
 24170  1  0  0  0  0
 26171  1  0  0  0  0
 26172  1  0  0  0  0
 26173  1  0  0  0  0
 27174  1  0  0  0  0
 28175  1  0  0  0  0
 30176  1  0  0  0  0
 31177  1  0  0  0  0
 33178  1  0  0  0  0
 33179  1  0  0  0  0
 33180  1  0  0  0  0
 34181  1  0  0  0  0
 35182  1  0  0  0  0
 42183  1  0  0  0  0
 43184  1  0  0  0  0
 45185  1  0  0  0  0
 45186  1  0  0  0  0
 45187  1  0  0  0  0
 46188  1  0  0  0  0
 47189  1  0  0  0  0
 49190  1  0  0  0  0
 50191  1  0  0  0  0
 52192  1  0  0  0  0
 52193  1  0  0  0  0
 52194  1  0  0  0  0
 53195  1  0  0  0  0
 54196  1  0  0  0  0
 60197  1  0  0  0  0
 61198  1  0  0  0  0
 62199  1  0  0  0  0
 64200  1  0  0  0  0
 64201  1  0  0  0  0
 65202  1  0  0  0  0
 65203  1  0  0  0  0
 65204  1  0  0  0  0
 66205  1  0  0  0  0
 82206  1  0  0  0  0
 83207  1  0  0  0  0
 84208  1  0  0  0  0
 86209  1  0  0  0  0
 86210  1  0  0  0  0
 87211  1  0  0  0  0
 87212  1  0  0  0  0
 87213  1  0  0  0  0
 88214  1  0  0  0  0
100215  1  0  0  0  0
100216  1  0  0  0  0
101217  1  0  0  0  0
101218  1  0  0  0  0
101219  1  0  0  0  0
102220  1  0  0  0  0
102221  1  0  0  0  0
103222  1  0  0  0  0
103223  1  0  0  0  0
103224  1  0  0  0  0
108225  1  0  0  0  0
109226  1  0  0  0  0
111227  1  0  0  0  0
111228  1  0  0  0  0
111229  1  0  0  0  0
112230  1  0  0  0  0
113231  1  0  0  0  0
115232  1  0  0  0  0
116233  1  0  0  0  0
118234  1  0  0  0  0
118235  1  0  0  0  0
118236  1  0  0  0  0
119237  1  0  0  0  0
120238  1  0  0  0  0
127239  1  0  0  0  0
128240  1  0  0  0  0
130241  1  0  0  0  0
130242  1  0  0  0  0
130243  1  0  0  0  0
131244  1  0  0  0  0
132245  1  0  0  0  0
134246  1  0  0  0  0
135247  1  0  0  0  0
137248  1  0  0  0  0
137249  1  0  0  0  0
137250  1  0  0  0  0
138251  1  0  0  0  0
139252  1  0  0  0  0
142253  1  0  0  0  0
M  END
