253

C          6.57960       -5.44340        1.52560
C          5.95580       -6.19130        0.55190
C          4.69890       -5.85740       -0.13210
O          4.07790       -4.81150       -0.06760
C          4.33300       -7.05260       -0.90860
C          3.21790       -7.26070       -1.72350
O          2.32320       -6.26190       -1.82790
C          1.21400       -6.41880       -2.68060
C          3.12080       -8.50010       -2.36780
C          4.09450       -9.46650       -2.19330
C          5.20270       -9.25960       -1.38190
C          5.31610       -8.04100       -0.73630
C          6.35540       -7.51580        0.15240
C          7.50020       -8.18670        0.51310
C          8.56950       -7.64430        1.25010
N          9.50310       -7.27710        1.81310
C          7.78000       -9.52450        0.17370
N          8.06790      -10.61670       -0.03700
C          6.26320       -4.18890        2.04430
C          6.92050       -3.61410        3.16390
N          7.78880       -4.26940        3.99440
C          7.65780       -5.63720        4.30420
C          6.40090       -6.21880        4.45250
C          6.29270       -7.56710        4.72690
C          7.42270       -8.36190        4.88320
C          7.30740       -9.83230        5.14150
C          8.67160       -7.76190        4.77670
C          8.79600       -6.41790        4.48560
C          8.77660       -3.52670        4.66890
C          9.54290       -2.59530        3.97690
C         10.52590       -1.88370        4.63620
C         10.76210       -2.07250        5.99130
C         11.81410       -1.28880        6.71370
C          9.98930       -3.00680        6.67390
C          9.00990       -3.73040        6.02640
C          6.49890       -2.28720        3.36420
S          6.84880       -1.05740        4.54270
C          5.58580       -0.03440        3.87890
C          4.98380       -0.60060        2.76390
N          3.96710       -0.01600        2.02460
C          3.93600        1.36140        1.77330
C          5.10770        2.07760        1.55110
C          5.05890        3.43820        1.31510
C          3.85220        4.12420        1.30220
C          3.79170        5.60300        1.07180
C          2.68400        3.39980        1.51520
C          2.71790        2.04100        1.74710
C          2.92940       -0.83520        1.54750
C          2.41690       -1.85690        2.34260
C          1.42080       -2.68020        1.85800
C          0.89870       -2.50100        0.58340
C         -0.14520       -3.43250        0.04930
C          1.39620       -1.46140       -0.19210
C          2.40180       -0.63920        0.27500
C          5.51460       -1.87910        2.47390
S          5.06390       -3.10040        1.34470
C          4.99100        1.12410        4.50550
C          5.32790        2.46100        4.58730
C          6.67380        2.99870        4.40140
C          6.85990        4.28910        3.90900
C          8.13290        4.80640        3.76980
C          9.23680        4.04710        4.10810
C          9.07770        2.75090        4.58590
C         10.28750        1.91990        4.90860
C         11.08420        1.60910        3.64080
C          7.79740        2.24390        4.73700
C          4.16590        3.25800        4.79550
S          3.82600        4.97640        4.66550
C          2.12390        4.64510        4.57370
C          0.92250        5.25790        4.15140
C          0.54040        6.57870        3.82280
C         -0.79760        6.83540        3.33830
N         -1.00950        8.12140        3.11280
S          0.34160        8.94190        3.46530
N          1.25840        7.68600        3.91780
C         -1.65390        5.74570        3.04970
C         -2.84340        5.61550        2.30360
S         -4.00220        6.59310        1.45710
C         -4.73510        5.14280        0.79570
C         -5.76870        4.90870       -0.13220
C         -6.59660        5.96910       -0.70130
C         -7.97930        5.82110       -0.79940
C         -8.74830        6.85300       -1.29990
C         -8.15750        8.04640       -1.67800
C         -6.78450        8.22050       -1.56580
C         -6.13660        9.53910       -1.87610
C         -5.90040       10.32380       -0.58370
C         -6.01460        7.17150       -1.08800
C         -5.89830        3.55010       -0.40800
S         -4.80630        2.56200        0.56190
C         -4.12200        3.97830        1.25900
C         -3.05770        4.24590        2.12090
N         -2.09000        3.51480        2.75860
C         -1.22720        4.42370        3.33940
C         -0.02940        4.21140        4.04900
N          0.52380        3.02990        4.50040
C          1.84110        3.29340        4.76930
C          2.99420        2.51880        4.91080
S          3.28370        0.82900        4.85440
C         -0.17150        1.93840        5.14980
C          0.05560        1.96540        6.66100
C         -1.78650        2.17960        2.28400
C         -1.21250        2.20330        0.86760
C         -6.53670        2.90890       -1.49650
C         -6.50080        1.53700       -1.75350
N         -6.11920        0.57050       -0.82990
C         -5.33150       -0.49090       -1.31830
C         -5.67650       -1.82020       -1.09410
C         -4.89510       -2.83160       -1.61240
C         -3.76040       -2.55150       -2.36630
C         -2.94520       -3.66790       -2.94450
C         -3.42390       -1.22250       -2.58370
C         -4.19630       -0.20020       -2.06720
C         -6.79560        0.45510        0.39090
C         -8.05990        1.01010        0.57550
C         -8.69230        0.90960        1.79770
C         -8.09480        0.25270        2.86760
C         -8.80590        0.14390        4.18180
C         -6.83440       -0.29830        2.67660
C         -6.18610       -0.19640        1.46200
C         -6.88590        1.24340       -3.07330
S         -6.96560       -0.22770       -3.97130
C         -7.54750        0.66910       -5.38100
C         -7.77610        2.04890       -5.08020
N         -8.38560        2.94870       -5.90300
C         -9.37630        2.59030       -6.83950
C         -9.45270        3.26370       -8.05510
C        -10.39440        2.88930       -8.99500
C        -11.26430        1.83270       -8.76000
C        -12.21070        1.36460       -9.81900
C        -11.21020        1.19830       -7.52150
C        -10.29260        1.57650       -6.56400
C         -8.10890        4.32300       -5.73240
C         -9.14840        5.24170       -5.63740
C         -8.86850        6.58380       -5.47720
C         -7.55750        7.04030       -5.41020
C         -7.25920        8.50040       -5.27980
C         -6.52690        6.11330       -5.50670
C         -6.79230        4.76830       -5.66870
C         -7.31390        2.35510       -3.79310
S         -7.20860        3.81310       -2.84580
C         -7.66530        0.14630       -6.65550
C         -7.54490       -1.15580       -7.11970
C         -7.34150       -2.33670       -6.29640
O         -7.12860       -2.39660       -5.09820
C         -7.45640       -3.49470       -7.21490
C         -7.25800       -4.83270       -6.93640
Cl        -6.92140       -5.37100       -5.35170
C         -7.32250       -5.74820       -7.99590
Cl        -7.11840       -7.42020       -7.69600
C         -7.51460       -5.29090       -9.29640
Cl        -7.51560       -6.41840      -10.58500
C         -7.68880       -3.92480       -9.57550
Cl        -7.75820       -3.44560      -11.22210
C         -7.72230       -3.02450       -8.51740
C         -7.83770       -1.56760       -8.46580
C         -8.24200       -0.73320       -9.49220
C         -7.96010        0.64290       -9.54670
N         -7.69080        1.74890       -9.71820
C         -9.09700       -1.08400      -10.55130
N         -9.91840       -1.21570      -11.34510
H          7.44450       -5.90420        1.98500
H          0.55840       -7.22860       -2.34400
H          0.67390       -5.47450       -2.63370
H          1.52300       -6.60530       -3.71370
H          2.28190       -8.71600       -3.01040
H          3.98850      -10.41110       -2.70540
H          5.94160      -10.03460       -1.27010
H          5.51300       -5.61400        4.33940
H          5.31120       -8.00790        4.82720
H          6.29030      -10.10370        5.41300
H          7.58400      -10.38920        4.24570
H          7.97990      -10.13680        5.94100
H          9.56190       -8.35960        4.89920
H          9.77250       -5.97220        4.37970
H          9.37590       -2.44640        2.92020
H         11.12640       -1.18000        4.08160
H         11.34920       -0.56830        7.38690
H         12.43880       -1.94780        7.31390
H         12.44590       -0.74660        6.01540
H         10.15850       -3.16720        7.72870
H          8.41710       -4.45460        6.56530
H          6.05860        1.56540        1.56500
H          5.98150        3.97220        1.14060
H          3.29760        6.09900        1.90700
H          3.22110        5.82460        0.17020
H          4.78940        6.01980        0.96200
H          1.73560        3.91960        1.51450
H          1.80310        1.49330        1.92200
H          2.80560       -2.00060        3.34080
H          1.04220       -3.47790        2.48090
H         -0.70110       -2.97440       -0.76490
H         -0.84370       -3.72640        0.83060
H          0.34160       -4.33320       -0.32410
H          1.00280       -1.30220       -1.18600
H          2.79210        0.15380       -0.34600
H          6.01160        4.88860        3.62460
H          8.26230        5.81180        3.39670
H         10.22860        4.46390        4.00890
H         10.92730        2.46580        5.60710
H          9.97960        0.98640        5.38290
H         10.47880        1.02570        2.95040
H         11.98410        1.04780        3.88270
H         11.38270        2.52620        3.13870
H          7.66930        1.25370        5.14800
H         -8.44520        4.90780       -0.46000
H         -9.81870        6.73300       -1.38000
H         -8.77060        8.85490       -2.04940
H         -5.17740        9.37450       -2.37180
H         -6.77390       10.12410       -2.54160
H         -5.25840        9.76070        0.08960
H         -6.84520       10.51090       -0.07830
H         -5.42690       11.27850       -0.80000
H         -4.94340        7.28990       -1.01610
H         -1.24000        2.04020        4.95570
H          0.19370        0.98680        4.74600
H         -0.52160        1.17340        7.13010
H         -0.26070        2.92120        7.07330
H          1.10570        1.81350        6.89550
H         -2.71680        1.60340        2.29700
H         -1.06340        1.70580        2.94000
H         -1.92550        2.62680        0.16580
H         -0.30040        2.79480        0.83940
H         -0.97890        1.18900        0.55460
H         -6.56550       -2.05350       -0.52760
H         -5.17880       -3.86020       -1.44430
H         -3.50560       -4.15970       -3.73930
H         -2.01250       -3.29650       -3.36260
H         -2.72010       -4.41480       -2.18460
H         -2.54660       -0.98010       -3.16660
H         -3.92710        0.83160       -2.24220
H         -8.55120        1.51250       -0.24490
H         -9.67450        1.34250        1.92260
H         -9.08110        1.13120        4.55040
H         -9.72240       -0.43480        4.06900
H         -8.17950       -0.34340        4.92450
H         -6.34590       -0.80960        3.49380
H         -5.20020       -0.61710        1.33260
H         -8.75940        4.06210       -8.26850
H        -10.42790        3.40770       -9.94090
H        -12.49390        2.18180      -10.47760
H        -11.72770        0.59660      -10.42640
H        -13.10650        0.93130       -9.38040
H        -11.90070        0.39610       -7.30440
H        -10.26790        1.07570       -5.60730
H        -10.17030        4.89590       -5.68700
H         -9.68280        7.28920       -5.40070
H         -8.07310        9.01850       -4.77980
H         -6.34050        8.65730       -4.72110
H         -7.13400        8.94260       -6.26900
H         -5.50180        6.45000       -5.46240
H         -5.98490        4.05650       -5.75820
H         -7.90330        0.88140       -7.41230
