117

C         -6.30810       -6.57920       -6.61230
C         -6.91060       -5.65000       -7.38870
C         -6.80640       -4.17500       -7.14880
O         -6.16170       -3.62930       -6.28270
C         -7.75690       -3.56590       -8.08740
C         -8.05860       -2.21000       -8.25970
O         -7.39180       -1.32500       -7.50680
C         -7.66300        0.04970       -7.65240
C         -9.03310       -1.88840       -9.21280
C         -9.67130       -2.87890       -9.93780
C         -9.37770       -4.22450       -9.76440
C         -8.41010       -4.56360       -8.83320
C         -7.88930       -5.86900       -8.43850
C         -8.20570       -7.06970       -9.01080
C         -7.62520       -8.30740       -8.65550
N         -7.18560       -9.34440       -8.43560
C         -9.14130       -7.23690      -10.05480
N         -9.89360       -7.44590      -10.89570
C         -5.24080       -6.26830       -5.69590
C         -5.16480       -6.78610       -4.42040
F         -6.13110       -7.61160       -3.99360
C         -4.16620       -6.43880       -3.48280
F         -4.32930       -6.97550       -2.26010
C         -3.11990       -5.57230       -3.74610
C         -3.12430       -5.08240       -5.08700
C         -4.15460       -5.42220       -6.03760
N         -3.83230       -4.86710       -7.18680
O         -2.69480       -4.21460       -6.97540
N         -2.25280       -4.32760       -5.72720
C         -2.11740       -5.14790       -2.78410
C         -1.78050       -5.93940       -1.66760
C         -0.87490       -5.51970       -0.72060
C         -0.28040       -4.27160       -0.87790
N          0.61220       -3.61260       -0.08430
C          1.10840       -4.07260        1.18580
C          0.19990       -3.64010        2.33550
C          0.89430       -2.38670       -0.65300
C          0.19110       -2.27290       -1.88340
C         -0.57840       -3.47840       -2.01670
C         -1.48530       -3.91330       -2.96060
C          0.32280       -1.15800       -2.69740
C          1.15600       -0.15460       -2.23550
C          1.81570       -0.24440       -0.97920
C          1.70250       -1.36850       -0.17660
C          2.53330        0.99040       -0.81530
C          3.29360        1.50090        0.21440
C          3.84220        2.78490        0.09790
C          3.62400        3.50780       -1.09580
C          2.86670        3.01260       -2.13000
C          2.29590        1.74990       -1.99080
N          1.48640        1.04660       -2.83260
C          0.97310        1.51230       -4.09340
C         -0.35530        2.24800       -3.92250
C          4.58080        3.36770        1.19610
C          5.14100        2.59830        2.24320
C          5.79500        3.18250        3.40020
N          6.24860        2.24760        4.23300
S          5.91380        0.79180        3.64610
N          5.17090        1.26050        2.31040
C          5.92990        4.57170        3.58680
C          5.42640        5.33990        2.51250
N          5.46360        6.67120        2.45280
S          4.75860        7.15660        1.09890
N          4.36420        5.72010        0.51330
C          4.77440        4.76060        1.35320
C          6.47890        5.22490        4.71460
C          6.90490        4.73720        5.90970
S          6.94130        3.09540        6.50090
C          7.50650        3.64220        8.07190
C          7.74100        2.72750        9.06820
C          7.47350        1.36610        8.81910
N          7.25270        0.25660        8.62600
C          8.26450        2.99210       10.34360
N          8.71610        3.13170       11.39070
N          7.67510        4.98670        8.11410
C          8.01140        5.73790        9.30500
C          6.90900        5.71350       10.33650
C          5.57790        5.59450        9.96090
C          4.57920        5.58130       10.91890
C          4.90120        5.69620       12.25940
C          6.22650        5.82890       12.63850
C          7.22540        5.83560       11.68290
C          7.36480        5.66610        6.94310
O          7.46720        6.86770        6.83180
H         -6.63990       -7.60970       -6.62410
H         -8.70490        0.28120       -7.41040
H         -7.43490        0.39880       -8.66420
H         -7.00860        0.55120       -6.94180
H         -9.30020       -0.85890       -9.39130
H        -10.42190       -2.59420      -10.65970
H         -9.89910       -4.96990      -10.34000
H         -2.22270       -6.91420       -1.55010
H         -0.64370       -6.15240        0.12240
H          1.18010       -5.16290        1.15450
H          2.11460       -3.67040        1.32910
H         -0.79930       -4.04740        2.20010
H          0.12800       -2.55570        2.37250
H          0.59830       -3.99720        3.28110
H         -1.72210       -3.29960       -3.81290
H         -0.20450       -1.09580       -3.63550
H          2.22280       -1.42760        0.76580
H          3.44380        0.92710        1.11260
H          4.06850        4.48350       -1.19360
H          2.72100        3.60070       -3.02340
H          1.71450        2.17710       -4.54380
H          0.84310        0.65040       -4.75320
H         -0.22710        3.11120       -3.27330
H         -1.09730        1.58900       -3.47810
H         -0.72130        2.58650       -4.88780
H          6.53980        6.30470        4.62350
H          8.94340        5.35950        9.73340
H          8.17260        6.76760        8.96130
H          5.31090        5.51580        8.91570
H          3.54780        5.48150       10.61420
H          4.12150        5.68240       13.00630
H          6.48470        5.91920       13.68260
H          8.25870        5.92350       11.98190
