165

C          8.06580        4.94360        6.46270
C          8.25630        4.68290        7.77960
C          7.22500        4.28740        8.78860
O          6.02390        4.42550        8.72170
C          7.98160        3.65140        9.87700
C          7.48370        3.01420       11.01940
O          6.15300        2.96500       11.17380
C          5.61170        2.32380       12.30560
C          8.42160        2.47800       11.91030
C          9.77860        2.57530       11.65770
C         10.27430        3.20860       10.52640
C          9.36280        3.75080        9.63630
C          9.56410        4.47130        8.38500
C         10.75370        4.95250        7.91480
C         11.99860        4.74630        8.54730
N         13.03880        4.61310        9.01320
C         10.89060        5.77300        6.77250
N         11.07690        6.47070        5.88060
C          6.82910        5.15700        5.75680
C          5.71440        5.78090        6.32170
C          4.52520        5.93300        5.62480
O          3.38550        6.42120        6.16240
C          3.33720        6.73590        7.54560
C          3.86660        8.13540        7.84360
C          4.45080        5.50700        4.27920
C          5.56500        4.90030        3.70290
C          6.72490        4.74280        4.42310
F          7.77560        4.13430        3.83490
C          3.22910        5.61410        3.50030
C          2.38530        6.67480        3.28750
C          2.57820        8.07090        3.78710
C          1.44000        8.49940        4.71190
C          1.31760        6.31170        2.43610
S         -0.05300        7.19500        1.80410
C         -0.57000        5.77010        0.96810
C         -1.60280        5.34600        0.10960
C         -2.66170        6.01440       -0.54750
C         -3.47490        5.29230       -1.49470
N         -4.37080        6.06950       -2.08180
S         -4.21890        7.57020       -1.49470
N         -2.99950        7.29150       -0.46860
C         -3.29320        3.89780       -1.64110
C         -3.97870        2.89630       -2.35290
S         -5.25040        2.73020       -3.51150
C         -5.03110        0.97970       -3.49730
C         -5.61500       -0.10600       -4.18010
O         -6.54070       -0.09500       -5.14200
C         -7.01650        1.13260       -5.66630
C         -6.06330        1.71560       -6.70260
C         -5.05300       -1.33010       -3.77980
S         -3.74520       -1.11980       -2.63380
C         -4.03020        0.58160       -2.60680
C         -3.42980        1.66730       -1.96920
N         -2.41950        1.86210       -1.06270
C         -2.29990        3.22430       -0.88130
C         -1.36080        3.97220       -0.14330
N         -0.18780        3.58210        0.47930
C          0.27920        4.67660        1.16350
C          1.35850        4.98930        1.99890
S          2.73440        4.16530        2.63400
C          0.73440        2.56730        0.00830
C          1.84140        3.17940       -0.84970
C         -2.06490        0.82420       -0.11670
C         -3.28620        0.34690        0.66840
C         -5.36820       -2.65130       -4.20120
C         -6.57280       -3.08150       -4.76430
F         -7.63440       -2.26550       -4.84930
C         -6.77180       -4.39540       -5.17950
F         -7.98210       -4.70140       -5.67240
C         -5.80510       -5.40190       -5.08950
C         -4.56420       -4.99600       -4.52390
N         -3.50890       -5.80920       -4.52960
C         -2.37900       -5.48900       -3.91970
C         -1.25440       -6.32710       -4.24360
S          0.15550       -6.57240       -3.26070
C          0.84280       -7.68120       -4.38110
C          2.12030       -8.39330       -4.11540
C          3.15580       -7.50310       -3.43590
C          0.01390       -7.81260       -5.46360
C         -1.16510       -7.06420       -5.40260
F          0.31140       -8.60160       -6.50950
C         -2.35570       -4.30490       -3.11200
N         -3.31940       -3.42440       -3.26620
C         -4.39670       -3.68380       -4.00450
C         -1.33410       -3.98780       -2.13590
C         -0.82020       -4.78300       -1.14950
C          0.10920       -4.09080       -0.35230
F          0.75020       -4.67740        0.67180
C          0.31850       -2.78630       -0.69960
C          1.22900       -1.79550       -0.05470
C          0.75940       -1.44050        1.35800
S         -0.68630       -2.38000       -2.04520
C         -6.12270       -6.72410       -5.51750
C         -5.45420       -7.89070       -5.34930
S         -3.93320       -8.19910       -4.55610
C         -4.11760       -9.92830       -4.80620
C         -3.14710      -10.78340       -4.34600
C         -3.17240      -12.18640       -4.39710
N         -3.15660      -13.33450       -4.36860
C         -2.00620      -10.24130       -3.72460
N         -1.06460       -9.80280       -3.23420
N         -5.24960      -10.22920       -5.48870
C         -5.57230      -11.54410       -6.00310
C         -4.59910      -12.00200       -7.06300
C         -3.94620      -11.08940       -7.88020
C         -3.05820      -11.52620       -8.84760
C         -2.82360      -12.87930       -9.01380
C         -3.48370      -13.79490       -8.21140
C         -4.36470      -13.35910       -7.23930
C         -6.04260       -9.14480       -5.83600
O         -7.07940       -9.25310       -6.45010
H          8.93970        4.92140        5.82030
H          5.92480        2.81390       13.23260
H          4.53200        2.41020       12.19920
H          5.88880        1.26570       12.33810
H          8.09400        1.97870       12.80820
H         10.47160        2.14440       12.36450
H         11.33600        3.26140       10.35540
H          5.80130        6.13720        7.33130
H          3.86680        5.97640        8.13040
H          2.27330        6.68580        7.79610
H          3.76220        8.34350        8.90460
H          3.30010        8.87390        7.28190
H          4.91490        8.22720        7.57020
H          5.52390        4.55270        2.68200
H          2.60500        8.74020        2.92210
H          3.53260        8.14560        4.30700
H          1.37910        7.82570        5.56130
H          0.49080        8.48230        4.18250
H          1.61400        9.51040        5.07240
H         -7.96800        0.86820       -6.13440
H         -7.20550        1.85090       -4.86220
H         -6.49620        2.61700       -7.12540
H         -5.10690        1.96730       -6.25140
H         -5.89580        0.99430       -7.49870
H          0.19180        1.84530       -0.59870
H          1.17310        2.06520        0.87650
H          1.40980        3.71140       -1.69480
H          2.48760        2.39110       -1.22590
H          2.44490        3.87320       -0.27170
H         -1.34090        1.22600        0.59000
H         -1.62960       -0.01580       -0.66830
H         -2.97700       -0.38210        1.41250
H         -4.01280       -0.12130        0.01160
H         -3.75820        1.18500        1.17660
H          1.90120       -9.25190       -3.47250
H          2.50530       -8.77880       -5.06240
H          3.38850       -6.64210       -4.05880
H          4.07130       -8.06150       -3.26040
H          2.77820       -7.14610       -2.48040
H         -1.90790       -7.04760       -6.17720
H         -1.10780       -5.80220       -0.97120
H          1.27240       -0.89720       -0.67230
H          2.23410       -2.22100        0.00390
H         -0.24850       -1.03390        1.33560
H          0.76110       -2.32650        1.98700
H          1.42660       -0.70430        1.79860
H         -7.07640       -6.83520       -6.02410
H         -6.57630      -11.44900       -6.43510
H         -5.60920      -12.26540       -5.18210
H         -4.12950      -10.02920       -7.77010
H         -2.54920      -10.80550       -9.47020
H         -2.12800      -13.21910       -9.76640
H         -3.30590      -14.85220       -8.33650
H         -4.86570      -14.07370       -6.60410
