142

C         -6.24560        7.62210        2.18880
C         -7.20390        6.95990        2.86860
C         -7.03990        5.56280        3.39850
O         -6.07760        4.84750        3.24980
C         -8.23370        5.32300        4.21600
C         -8.56900        4.17220        4.94020
O         -7.71960        3.14040        4.89070
C         -8.02750        1.95350        5.58530
C         -9.77440        4.19660        5.65360
C        -10.58200        5.31990        5.64530
C        -10.24860        6.46340        4.93220
C         -9.06640        6.45720        4.21000
C         -8.46800        7.48330        3.36320
C         -9.03250        8.68090        3.02510
C         -8.46150        9.61810        2.13530
N         -8.07020       10.41600        1.40930
C        -10.28100        9.13950        3.50000
N        -11.28360        9.57510        3.84860
C         -5.07490        6.97970        1.61950
C         -3.80280        7.53890        1.77030
F         -3.67620        8.66160        2.49100
C         -2.67340        6.93700        1.24590
F         -1.47440        7.47950        1.49640
C         -2.75800        5.75650        0.49560
C         -4.03780        5.21070        0.32710
F         -4.18190        4.10490       -0.41820
C         -5.16360        5.80250        0.86860
F         -6.36420        5.28350        0.59420
C         -1.58530        5.12400       -0.06870
C         -0.51980        5.72510       -0.71050
C         -0.44160        7.13780       -1.07930
C         -1.55400        7.80950       -1.58160
C         -1.44910        9.13860       -1.94240
C         -0.24240        9.80500       -1.81410
C          0.87790        9.14850       -1.32200
C          2.20690        9.84010       -1.22900
C          3.07330        9.48720       -2.43990
C          0.76650        7.81480       -0.95960
C          0.45840        4.77160       -1.06100
S          1.97260        4.89270       -1.92490
C          2.16260        3.17850       -1.78240
C          3.04150        2.16690       -2.19540
C          4.18030        2.22900       -3.02710
C          4.81950        1.00650       -3.41300
N          5.83920        1.20360       -4.23360
S          5.98320        2.79620       -4.49560
N          4.74930        3.29270       -3.57180
C          4.35270       -0.20770       -2.86470
C          4.85980       -1.50880       -2.97930
S          6.12110       -2.36650       -3.79950
C          5.64820       -3.82800       -2.95520
C          6.10770       -5.15330       -2.99730
C          7.16500       -5.59940       -3.90050
C          7.03480       -6.77400       -4.64040
C          8.03340       -7.14820       -5.51920
C          9.15980       -6.35930       -5.67700
C          9.30260       -5.18070       -4.95530
C         10.48500       -4.28020       -5.16460
C         10.12670       -3.16230       -6.14620
C          8.30020       -4.81230       -4.07180
C          5.39860       -5.97780       -2.11610
S          4.14030       -5.07970       -1.27140
C          4.57010       -3.62710       -2.08590
C          4.10620       -2.31010       -2.11740
N          3.14120       -1.56340       -1.50100
C          3.25160       -0.26330       -1.95610
C          2.52400        0.93330       -1.69980
N          1.33730        1.20490       -1.04370
C          1.12280        2.55350       -1.09140
C          0.13510        3.46440       -0.69140
S         -1.40040        3.38970        0.09050
C          0.29680        0.34790       -0.52540
C          0.26980        0.34050        1.00300
C          2.36850       -2.17970       -0.44310
C          1.27200       -3.09470       -0.98380
C          5.71020       -7.32320       -1.81990
C          5.04020       -8.21650       -1.02850
C          3.79580       -8.00430       -0.40790
C          3.21300       -8.82870        0.51470
C          2.00570       -8.44530        1.12200
C          1.33300       -9.12990        2.10110
C          1.70270      -10.46680        2.61560
O          2.66650      -11.14240        2.31800
C          0.63600      -10.82630        3.57510
C          0.49350      -11.98380        4.31010
C         -0.60560      -12.11650        5.15670
C         -0.78080      -13.34800        5.98710
C         -1.52750      -11.07520        5.23360
C         -1.38950       -9.90700        4.49870
C         -0.29510       -9.77590        3.65800
C          0.13220       -8.69350        2.77580
C         -0.48310       -7.46900        2.66480
C         -0.04570       -6.38620        1.87870
N          0.23340       -5.43830        1.28940
C         -1.65110       -7.10550        3.36550
N         -2.60030       -6.73820        3.89810
H         -6.29760        8.69550        2.05880
H         -7.19870        1.27730        5.38460
H         -8.10090        2.12730        6.66320
H         -8.95700        1.50570        5.22100
H        -10.08670        3.33470        6.22170
H        -11.50090        5.30460        6.21180
H        -10.89800        7.32180        4.95290
H         -2.49040        7.28470       -1.70670
H         -2.31310        9.65750       -2.33090
H         -0.17060       10.84460       -2.09960
H          2.72050        9.52890       -0.31710
H          2.06210       10.92120       -1.18850
H          4.03960        9.98150       -2.37280
H          3.23410        8.41280       -2.49070
H          2.58460        9.80310       -3.35890
H          1.62610        7.29920       -0.55780
H          6.13880       -7.37010       -4.55030
H          7.92760       -8.05710       -6.09310
H          9.93230       -6.65770       -6.37100
H         11.32590       -4.85410       -5.55860
H         10.78690       -3.83850       -4.21280
H          9.29510       -2.57490       -5.76390
H          9.83580       -3.58200       -7.10660
H         10.97800       -2.50320       -6.29850
H          8.40840       -3.90530       -3.49520
H          0.41810       -0.65190       -0.93110
H         -0.66010        0.73960       -0.88820
H          1.25000        0.11650        1.41880
H         -0.43920       -0.40420        1.35320
H         -0.03830        1.31260        1.37850
H          1.96890       -1.41320        0.21370
H          3.06200       -2.78990        0.14610
H          0.75750       -3.57470       -0.15670
H          0.54800       -2.55240       -1.58820
H          1.70800       -3.87130       -1.60610
H          6.63950       -7.65940       -2.26420
H          5.51160       -9.17540       -0.85730
H          3.24360       -7.11220       -0.66860
H          3.68760       -9.74870        0.82120
H          1.58780       -7.50320        0.78790
H          1.22860      -12.77010        4.22200
H         -0.30510      -14.20470        5.51590
H         -0.31960      -13.20170        6.96470
H         -1.83470      -13.56550        6.14370
H         -2.38050      -11.18050        5.88840
H         -2.13010       -9.12900        4.58750
