
  xtb     02102222333D
 energy: -287.437759315556 gnorm: 0.001267150502 xtb: 6.4.1 (unknown)
165184  0     0  0            999 V2000
    4.3463   12.3385   -4.8559 C   0  0  0  0  0  0  0  0  0  0  0  0
    5.4597   13.1317   -4.7264 C   0  0  0  0  0  0  0  0  0  0  0  0
    6.3654   13.1558   -3.5672 C   0  0  0  0  0  0  0  0  0  0  0  0
    6.2415   12.5317   -2.5296 O   0  0  0  0  0  0  0  0  0  0  0  0
    7.4476   14.0866   -3.9215 C   0  0  0  0  0  0  0  0  0  0  0  0
    8.5740   14.4430   -3.1754 C   0  0  0  0  0  0  0  0  0  0  0  0
    8.7180   13.8864   -1.9627 O   0  0  0  0  0  0  0  0  0  0  0  0
    9.8403   14.2174   -1.1802 C   0  0  0  0  0  0  0  0  0  0  0  0
    9.4641   15.3535   -3.7588 C   0  0  0  0  0  0  0  0  0  0  0  0
    9.2236   15.8688   -5.0194 C   0  0  0  0  0  0  0  0  0  0  0  0
    8.1025   15.5163   -5.7597 C   0  0  0  0  0  0  0  0  0  0  0  0
    7.2104   14.6176   -5.2003 C   0  0  0  0  0  0  0  0  0  0  0  0
    5.9615   14.0533   -5.7184 C   0  0  0  0  0  0  0  0  0  0  0  0
    5.3919   14.3776   -6.9253 C   0  0  0  0  0  0  0  0  0  0  0  0
    4.1821   13.8616   -7.4322 C   0  0  0  0  0  0  0  0  0  0  0  0
    3.2061   13.4966   -7.9184 N   0  0  0  0  0  0  0  0  0  0  0  0
    5.9365   15.2998   -7.8423 C   0  0  0  0  0  0  0  0  0  0  0  0
    6.3167   16.0372   -8.6369 N   0  0  0  0  0  0  0  0  0  0  0  0
    3.7806   11.4024   -3.9817 C   0  0  0  0  0  0  0  0  0  0  0  0
    4.3467   11.0072   -2.3570 S   0  0  0  0  0  0  0  0  0  0  0  0
    3.0745    9.8587   -2.1973 C   0  0  0  0  0  0  0  0  0  0  0  0
    2.5552    8.9253   -1.3024 C   0  0  0  0  0  0  0  0  0  0  0  0
    1.4516    8.3106   -1.9352 C   0  0  0  0  0  0  0  0  0  0  0  0
    1.2868    8.8273   -3.1913 N   0  0  0  0  0  0  0  0  0  0  0  0
    0.2123    8.5297   -4.1019 C   0  0  0  0  0  0  0  0  0  0  0  0
   -0.9933    9.4370   -3.8624 C   0  0  0  0  0  0  0  0  0  0  0  0
    2.2585    9.7836   -3.3605 C   0  0  0  0  0  0  0  0  0  0  0  0
    2.6543   10.6567   -4.3529 C   0  0  0  0  0  0  0  0  0  0  0  0
    0.8361    7.3327   -1.1530 C   0  0  0  0  0  0  0  0  0  0  0  0
    1.4496    7.2016    0.0771 C   0  0  0  0  0  0  0  0  0  0  0  0
    2.8145    8.2915    0.2843 S   0  0  0  0  0  0  0  0  0  0  0  0
    1.1242    6.2240    1.0585 C   0  0  0  0  0  0  0  0  0  0  0  0
    1.4973    6.1288    2.3861 C   0  0  0  0  0  0  0  0  0  0  0  0
    2.1675    7.1791    3.1552 C   0  0  0  0  0  0  0  0  0  0  0  0
    3.2585    6.8726    3.9618 C   0  0  0  0  0  0  0  0  0  0  0  0
    3.8626    7.8681    4.7059 C   0  0  0  0  0  0  0  0  0  0  0  0
    3.3831    9.1653    4.6588 C   0  0  0  0  0  0  0  0  0  0  0  0
    2.2871    9.4858    3.8678 C   0  0  0  0  0  0  0  0  0  0  0  0
    1.7250   10.8782    3.8487 C   0  0  0  0  0  0  0  0  0  0  0  0
    0.5411   10.9908    4.8107 C   0  0  0  0  0  0  0  0  0  0  0  0
    1.6840    8.4831    3.1254 C   0  0  0  0  0  0  0  0  0  0  0  0
    1.0904    4.9012    2.9477 C   0  0  0  0  0  0  0  0  0  0  0  0
    1.2859    4.2093    4.5406 S   0  0  0  0  0  0  0  0  0  0  0  0
    0.4414    2.7963    4.0035 C   0  0  0  0  0  0  0  0  0  0  0  0
    0.0311    1.5469    4.4960 C   0  0  0  0  0  0  0  0  0  0  0  0
    0.1155    0.9905    5.7902 C   0  0  0  0  0  0  0  0  0  0  0  0
   -0.4563   -0.3032    6.0276 C   0  0  0  0  0  0  0  0  0  0  0  0
   -0.3438   -0.6824    7.2911 N   0  0  0  0  0  0  0  0  0  0  0  0
    0.4211    0.4863    8.1102 S   0  0  0  0  0  0  0  0  0  0  0  0
    0.6374    1.5223    6.8845 N   0  0  0  0  0  0  0  0  0  0  0  0
   -0.9941   -1.0202    4.9372 C   0  0  0  0  0  0  0  0  0  0  0  0
   -1.4655   -2.3399    4.8495 C   0  0  0  0  0  0  0  0  0  0  0  0
   -1.7248   -3.7157    5.8700 S   0  0  0  0  0  0  0  0  0  0  0  0
   -2.2027   -4.6388    4.4641 C   0  0  0  0  0  0  0  0  0  0  0  0
   -2.5583   -5.9913    4.2859 C   0  0  0  0  0  0  0  0  0  0  0  0
   -2.5374   -6.9800    5.3668 C   0  0  0  0  0  0  0  0  0  0  0  0
   -3.1593   -6.7135    6.5824 C   0  0  0  0  0  0  0  0  0  0  0  0
   -3.1190   -7.6541    7.5952 C   0  0  0  0  0  0  0  0  0  0  0  0
   -2.4587   -8.8562    7.4089 C   0  0  0  0  0  0  0  0  0  0  0  0
   -1.8118   -9.1281    6.2092 C   0  0  0  0  0  0  0  0  0  0  0  0
   -1.1148  -10.4386    5.9779 C   0  0  0  0  0  0  0  0  0  0  0  0
   -2.0057  -11.3852    5.1704 C   0  0  0  0  0  0  0  0  0  0  0  0
   -1.8553   -8.1810    5.1981 C   0  0  0  0  0  0  0  0  0  0  0  0
   -2.8266   -6.2669    2.9567 C   0  0  0  0  0  0  0  0  0  0  0  0
   -2.6110   -4.8645    1.9214 S   0  0  0  0  0  0  0  0  0  0  0  0
   -2.1655   -3.8983    3.2814 C   0  0  0  0  0  0  0  0  0  0  0  0
   -1.7442   -2.5813    3.5036 C   0  0  0  0  0  0  0  0  0  0  0  0
   -1.4978   -1.4583    2.7613 N   0  0  0  0  0  0  0  0  0  0  0  0
   -1.0295   -0.4770    3.6213 C   0  0  0  0  0  0  0  0  0  0  0  0
   -0.6035    0.8632    3.4206 C   0  0  0  0  0  0  0  0  0  0  0  0
   -0.6119    1.7045    2.3173 N   0  0  0  0  0  0  0  0  0  0  0  0
    0.0220    2.8647    2.6741 C   0  0  0  0  0  0  0  0  0  0  0  0
    0.3900    4.0730    2.0702 C   0  0  0  0  0  0  0  0  0  0  0  0
    0.2253    4.8073    0.5150 S   0  0  0  0  0  0  0  0  0  0  0  0
   -1.4487    1.6915    1.1381 C   0  0  0  0  0  0  0  0  0  0  0  0
   -2.9304    1.6258    1.5005 C   0  0  0  0  0  0  0  0  0  0  0  0
   -1.3940   -1.5679    1.3239 C   0  0  0  0  0  0  0  0  0  0  0  0
    0.0588   -1.5013    0.8593 C   0  0  0  0  0  0  0  0  0  0  0  0
   -3.2747   -7.4780    2.3548 C   0  0  0  0  0  0  0  0  0  0  0  0
   -2.9860   -7.7155    0.6337 S   0  0  0  0  0  0  0  0  0  0  0  0
   -3.7547   -9.2553    0.7101 C   0  0  0  0  0  0  0  0  0  0  0  0
   -4.0862  -10.3474   -0.0838 C   0  0  0  0  0  0  0  0  0  0  0  0
   -4.7457  -11.2767    0.7579 C   0  0  0  0  0  0  0  0  0  0  0  0
   -4.8013  -10.7799    2.0356 N   0  0  0  0  0  0  0  0  0  0  0  0
   -5.4601  -11.3995    3.1561 C   0  0  0  0  0  0  0  0  0  0  0  0
   -6.9615  -11.1188    3.1489 C   0  0  0  0  0  0  0  0  0  0  0  0
   -4.2123   -9.5455    2.0158 C   0  0  0  0  0  0  0  0  0  0  0  0
   -3.9421   -8.5318    2.9410 C   0  0  0  0  0  0  0  0  0  0  0  0
   -5.1573  -12.4267    0.0932 C   0  0  0  0  0  0  0  0  0  0  0  0
   -4.7779  -12.4197   -1.2393 C   0  0  0  0  0  0  0  0  0  0  0  0
   -3.9542  -10.9253   -1.6960 S   0  0  0  0  0  0  0  0  0  0  0  0
   -5.0758  -13.4207   -2.1902 C   0  0  0  0  0  0  0  0  0  0  0  0
   -4.4889  -13.6448   -3.3982 C   0  0  0  0  0  0  0  0  0  0  0  0
   -5.2244  -14.3879   -4.4614 C   0  0  0  0  0  0  0  0  0  0  0  0
   -6.2261  -15.0480   -4.3076 O   0  0  0  0  0  0  0  0  0  0  0  0
   -4.4951  -14.0819   -5.7057 C   0  0  0  0  0  0  0  0  0  0  0  0
   -4.8266  -14.4089   -7.0242 C   0  0  0  0  0  0  0  0  0  0  0  0
   -5.9434  -15.1260   -7.2252 O   0  0  0  0  0  0  0  0  0  0  0  0
   -6.3078  -15.4819   -8.5376 C   0  0  0  0  0  0  0  0  0  0  0  0
   -3.9641  -13.9579   -8.0314 C   0  0  0  0  0  0  0  0  0  0  0  0
   -2.8356  -13.2185   -7.7247 C   0  0  0  0  0  0  0  0  0  0  0  0
   -2.4976  -12.9017   -6.4161 C   0  0  0  0  0  0  0  0  0  0  0  0
   -3.3360  -13.3428   -5.4083 C   0  0  0  0  0  0  0  0  0  0  0  0
   -3.2352  -13.2005   -3.9568 C   0  0  0  0  0  0  0  0  0  0  0  0
   -2.0755  -12.9773   -3.2601 C   0  0  0  0  0  0  0  0  0  0  0  0
   -1.9714  -13.1534   -1.8646 C   0  0  0  0  0  0  0  0  0  0  0  0
   -1.8365  -13.3443   -0.7402 N   0  0  0  0  0  0  0  0  0  0  0  0
   -0.8435  -12.6511   -3.8588 C   0  0  0  0  0  0  0  0  0  0  0  0
    0.1821  -12.3699   -4.2921 N   0  0  0  0  0  0  0  0  0  0  0  0
    3.8045   12.4189   -5.7907 H   0  0  0  0  0  0  0  0  0  0  0  0
    9.7300   13.6467   -0.2599 H   0  0  0  0  0  0  0  0  0  0  0  0
   10.7741   13.9308   -1.6746 H   0  0  0  0  0  0  0  0  0  0  0  0
    9.8644   15.2859   -0.9434 H   0  0  0  0  0  0  0  0  0  0  0  0
   10.3512   15.6632   -3.2293 H   0  0  0  0  0  0  0  0  0  0  0  0
    9.9316   16.5665   -5.4408 H   0  0  0  0  0  0  0  0  0  0  0  0
    7.9503   15.9371   -6.7386 H   0  0  0  0  0  0  0  0  0  0  0  0
   -0.0710    7.4825   -3.9642 H   0  0  0  0  0  0  0  0  0  0  0  0
    0.5830    8.6585   -5.1222 H   0  0  0  0  0  0  0  0  0  0  0  0
   -1.3693    9.3046   -2.8505 H   0  0  0  0  0  0  0  0  0  0  0  0
   -0.7110   10.4789   -3.9933 H   0  0  0  0  0  0  0  0  0  0  0  0
   -1.7865    9.1983   -4.5653 H   0  0  0  0  0  0  0  0  0  0  0  0
    2.1823   10.7767   -5.3119 H   0  0  0  0  0  0  0  0  0  0  0  0
   -0.0138    6.7407   -1.4430 H   0  0  0  0  0  0  0  0  0  0  0  0
    3.6373    5.8622    3.9917 H   0  0  0  0  0  0  0  0  0  0  0  0
    4.7131    7.6302    5.3277 H   0  0  0  0  0  0  0  0  0  0  0  0
    3.8621    9.9377    5.2433 H   0  0  0  0  0  0  0  0  0  0  0  0
    1.3936   11.1266    2.8384 H   0  0  0  0  0  0  0  0  0  0  0  0
    2.4966   11.5927    4.1391 H   0  0  0  0  0  0  0  0  0  0  0  0
    0.8552   10.7567    5.8254 H   0  0  0  0  0  0  0  0  0  0  0  0
    0.1328   11.9986    4.7968 H   0  0  0  0  0  0  0  0  0  0  0  0
   -0.2444   10.2939    4.5286 H   0  0  0  0  0  0  0  0  0  0  0  0
    0.8196    8.7140    2.5183 H   0  0  0  0  0  0  0  0  0  0  0  0
   -3.6795   -5.7784    6.7252 H   0  0  0  0  0  0  0  0  0  0  0  0
   -3.6066   -7.4481    8.5366 H   0  0  0  0  0  0  0  0  0  0  0  0
   -2.4358   -9.5869    8.2048 H   0  0  0  0  0  0  0  0  0  0  0  0
   -0.8671  -10.9021    6.9344 H   0  0  0  0  0  0  0  0  0  0  0  0
   -0.1863  -10.2688    5.4292 H   0  0  0  0  0  0  0  0  0  0  0  0
   -2.9342  -11.5775    5.7053 H   0  0  0  0  0  0  0  0  0  0  0  0
   -2.2452  -10.9482    4.2031 H   0  0  0  0  0  0  0  0  0  0  0  0
   -1.5003  -12.3334    5.0040 H   0  0  0  0  0  0  0  0  0  0  0  0
   -1.3451   -8.3727    4.2650 H   0  0  0  0  0  0  0  0  0  0  0  0
   -1.2500    2.6272    0.6093 H   0  0  0  0  0  0  0  0  0  0  0  0
   -1.1619    0.8806    0.4673 H   0  0  0  0  0  0  0  0  0  0  0  0
   -3.1538    0.7404    2.0909 H   0  0  0  0  0  0  0  0  0  0  0  0
   -3.2082    2.5000    2.0850 H   0  0  0  0  0  0  0  0  0  0  0  0
   -3.5329    1.6079    0.5961 H   0  0  0  0  0  0  0  0  0  0  0  0
   -2.0080   -0.8112    0.8357 H   0  0  0  0  0  0  0  0  0  0  0  0
   -1.8125   -2.5411    1.0556 H   0  0  0  0  0  0  0  0  0  0  0  0
    0.6204   -2.3317    1.2806 H   0  0  0  0  0  0  0  0  0  0  0  0
    0.5320   -0.5757    1.1784 H   0  0  0  0  0  0  0  0  0  0  0  0
    0.1055   -1.5672   -0.2244 H   0  0  0  0  0  0  0  0  0  0  0  0
   -5.2772  -12.4768    3.1086 H   0  0  0  0  0  0  0  0  0  0  0  0
   -5.0088  -11.0094    4.0713 H   0  0  0  0  0  0  0  0  0  0  0  0
   -7.4339  -11.5959    4.0029 H   0  0  0  0  0  0  0  0  0  0  0  0
   -7.1449  -10.0480    3.2003 H   0  0  0  0  0  0  0  0  0  0  0  0
   -7.4141  -11.5038    2.2382 H   0  0  0  0  0  0  0  0  0  0  0  0
   -4.2210   -8.5434    3.9780 H   0  0  0  0  0  0  0  0  0  0  0  0
   -5.6726  -13.2580    0.5392 H   0  0  0  0  0  0  0  0  0  0  0  0
   -5.9385  -14.0421   -1.9688 H   0  0  0  0  0  0  0  0  0  0  0  0
   -7.2308  -16.0505   -8.4382 H   0  0  0  0  0  0  0  0  0  0  0  0
   -6.4914  -14.5985   -9.1577 H   0  0  0  0  0  0  0  0  0  0  0  0
   -5.5451  -16.1091   -9.0101 H   0  0  0  0  0  0  0  0  0  0  0  0
   -4.1734  -14.1819   -9.0655 H   0  0  0  0  0  0  0  0  0  0  0  0
   -2.1996  -12.8806   -8.5294 H   0  0  0  0  0  0  0  0  0  0  0  0
   -1.6153  -12.3207   -6.2044 H   0  0  0  0  0  0  0  0  0  0  0  0
  1  2  2  0  0  0  0
  2  3  1  0  0  0  0
  3  4  2  0  0  0  0
  3  5  1  0  0  0  0
  5  6  2  0  0  0  0
  6  7  1  0  0  0  0
  7  8  1  0  0  0  0
  6  9  1  0  0  0  0
  9 10  2  0  0  0  0
 10 11  1  0  0  0  0
 11 12  2  0  0  0  0
 12 13  1  0  0  0  0
 13 14  2  0  0  0  0
 14 15  1  0  0  0  0
 15 16  3  0  0  0  0
 14 17  1  0  0  0  0
 17 18  3  0  0  0  0
  1 19  1  0  0  0  0
 19 20  1  0  0  0  0
 20 21  1  0  0  0  0
 21 22  1  0  0  0  0
 22 23  2  0  0  0  0
 23 24  1  0  0  0  0
 24 25  1  0  0  0  0
 25 26  1  0  0  0  0
 24 27  1  0  0  0  0
 27 28  1  0  0  0  0
 23 29  1  0  0  0  0
 29 30  2  0  0  0  0
 30 31  1  0  0  0  0
 30 32  1  0  0  0  0
 32 33  2  0  0  0  0
 33 34  1  0  0  0  0
 34 35  2  0  0  0  0
 35 36  1  0  0  0  0
 36 37  2  0  0  0  0
 37 38  1  0  0  0  0
 38 39  1  0  0  0  0
 39 40  1  0  0  0  0
 38 41  2  0  0  0  0
 33 42  1  0  0  0  0
 42 43  1  0  0  0  0
 43 44  1  0  0  0  0
 44 45  1  0  0  0  0
 45 46  1  0  0  0  0
 46 47  1  0  0  0  0
 47 48  2  0  0  0  0
 48 49  1  0  0  0  0
 49 50  1  0  0  0  0
 47 51  1  0  0  0  0
 51 52  1  0  0  0  0
 52 53  1  0  0  0  0
 53 54  1  0  0  0  0
 54 55  1  0  0  0  0
 55 56  1  0  0  0  0
 56 57  2  0  0  0  0
 57 58  1  0  0  0  0
 58 59  2  0  0  0  0
 59 60  1  0  0  0  0
 60 61  1  0  0  0  0
 61 62  1  0  0  0  0
 60 63  2  0  0  0  0
 55 64  2  0  0  0  0
 64 65  1  0  0  0  0
 65 66  1  0  0  0  0
 66 67  1  0  0  0  0
 67 68  1  0  0  0  0
 68 69  1  0  0  0  0
 69 70  1  0  0  0  0
 70 71  1  0  0  0  0
 71 72  1  0  0  0  0
 72 73  1  0  0  0  0
 73 74  1  0  0  0  0
 71 75  1  0  0  0  0
 75 76  1  0  0  0  0
 68 77  1  0  0  0  0
 77 78  1  0  0  0  0
 64 79  1  0  0  0  0
 79 80  1  0  0  0  0
 80 81  1  0  0  0  0
 81 82  1  0  0  0  0
 82 83  2  0  0  0  0
 83 84  1  0  0  0  0
 84 85  1  0  0  0  0
 85 86  1  0  0  0  0
 84 87  1  0  0  0  0
 87 88  1  0  0  0  0
 83 89  1  0  0  0  0
 89 90  2  0  0  0  0
 90 91  1  0  0  0  0
 90 92  1  0  0  0  0
 92 93  2  0  0  0  0
 93 94  1  0  0  0  0
 94 95  2  0  0  0  0
 94 96  1  0  0  0  0
 96 97  2  0  0  0  0
 97 98  1  0  0  0  0
 98 99  1  0  0  0  0
 97100  1  0  0  0  0
100101  2  0  0  0  0
101102  1  0  0  0  0
102103  2  0  0  0  0
103104  1  0  0  0  0
104105  2  0  0  0  0
105106  1  0  0  0  0
106107  3  0  0  0  0
105108  1  0  0  0  0
108109  3  0  0  0  0
 13  2  1  0  0  0  0
 28 19  2  0  0  0  0
 74 32  1  0  0  0  0
 88 79  2  0  0  0  0
104 93  1  0  0  0  0
 12  5  1  0  0  0  0
 27 21  2  0  0  0  0
 41 34  1  0  0  0  0
 73 42  2  0  0  0  0
 87 81  2  0  0  0  0
103 96  1  0  0  0  0
 31 22  1  0  0  0  0
 72 44  2  0  0  0  0
 91 82  1  0  0  0  0
 70 45  2  0  0  0  0
 50 46  2  0  0  0  0
 69 51  2  0  0  0  0
 67 52  2  0  0  0  0
 66 54  2  0  0  0  0
 63 56  1  0  0  0  0
  1110  1  0  0  0  0
  8111  1  0  0  0  0
  8112  1  0  0  0  0
  8113  1  0  0  0  0
  9114  1  0  0  0  0
 10115  1  0  0  0  0
 11116  1  0  0  0  0
 25117  1  0  0  0  0
 25118  1  0  0  0  0
 26119  1  0  0  0  0
 26120  1  0  0  0  0
 26121  1  0  0  0  0
 28122  1  0  0  0  0
 29123  1  0  0  0  0
 35124  1  0  0  0  0
 36125  1  0  0  0  0
 37126  1  0  0  0  0
 39127  1  0  0  0  0
 39128  1  0  0  0  0
 40129  1  0  0  0  0
 40130  1  0  0  0  0
 40131  1  0  0  0  0
 41132  1  0  0  0  0
 57133  1  0  0  0  0
 58134  1  0  0  0  0
 59135  1  0  0  0  0
 61136  1  0  0  0  0
 61137  1  0  0  0  0
 62138  1  0  0  0  0
 62139  1  0  0  0  0
 62140  1  0  0  0  0
 63141  1  0  0  0  0
 75142  1  0  0  0  0
 75143  1  0  0  0  0
 76144  1  0  0  0  0
 76145  1  0  0  0  0
 76146  1  0  0  0  0
 77147  1  0  0  0  0
 77148  1  0  0  0  0
 78149  1  0  0  0  0
 78150  1  0  0  0  0
 78151  1  0  0  0  0
 85152  1  0  0  0  0
 85153  1  0  0  0  0
 86154  1  0  0  0  0
 86155  1  0  0  0  0
 86156  1  0  0  0  0
 88157  1  0  0  0  0
 89158  1  0  0  0  0
 92159  1  0  0  0  0
 99160  1  0  0  0  0
 99161  1  0  0  0  0
 99162  1  0  0  0  0
100163  1  0  0  0  0
101164  1  0  0  0  0
102165  1  0  0  0  0
M  END
