168

C          4.67790      -11.55910        4.15360
C          5.82330      -10.92410        4.52300
C          7.14070      -11.60870        4.37590
O          7.31200      -12.78970        4.18070
C          8.13750      -10.52680        4.46680
C          9.52000      -10.58410        4.26450
O         10.05510      -11.77720        3.96330
C         11.44390      -11.87820        3.75460
C         10.23510       -9.38660        4.39140
C          9.59080       -8.20110        4.69740
C          8.21950       -8.14190        4.90550
C          7.49840       -9.31670        4.79160
C          6.07400       -9.58090        4.98650
C          5.22010       -8.81650        5.73890
C          3.95090       -9.26970        6.15460
N          2.93940       -9.63220        6.55990
C          5.54590       -7.55180        6.26540
N          5.75160       -6.51200        6.70700
C          3.42780      -10.99440        3.81230
S          3.28860       -9.33190        3.23250
C          1.59430       -9.53370        3.02720
C          0.45540       -8.84090        2.63030
C         -0.63270       -9.73000        2.77290
N         -0.18870      -10.93400        3.24680
C         -0.98150      -12.11730        3.45650
C         -1.05710      -12.97340        2.19360
C          1.17130      -10.83530        3.39220
C          2.21380      -11.66020        3.80200
C         -1.86720       -9.16820        2.42970
C         -1.73690       -7.85730        2.02270
S         -0.06230       -7.30090        2.05950
C         -2.72880       -6.91970        1.61030
C         -4.10840       -6.94460        1.71630
C         -4.95470       -8.01210        2.33550
C         -4.83180       -8.00210        3.85990
C         -4.67450       -5.75760        1.21880
S         -6.32950       -5.19600        1.12020
C         -5.76440       -3.71790        0.41780
C         -6.27410       -2.50390       -0.07450
C         -7.59480       -2.03630       -0.25450
C         -7.80280       -0.74350       -0.84660
N         -9.08680       -0.45950       -0.99690
S         -9.95880       -1.70370       -0.44060
N         -8.73190       -2.65680        0.01700
C         -6.68370        0.07490       -1.11860
C         -6.58340        1.42300       -1.49790
S         -7.61090        2.75050       -1.92090
C         -6.19730        3.77600       -2.00300
C         -6.03750        5.14720       -2.27060
O         -7.11120        5.93160       -2.51320
C         -7.30590        7.05410       -1.66460
C         -7.75480        6.62370       -0.27290
C         -4.69340        5.52750       -2.22010
S         -3.65860        4.20090       -1.71950
C         -5.00100        3.11060       -1.72620
C         -5.22580        1.76230       -1.43760
N         -4.48660        0.67270       -1.06140
C         -5.35620       -0.38290       -0.87660
C         -5.15360       -1.72710       -0.47910
N         -3.99980       -2.47310       -0.28950
C         -4.37680       -3.66900        0.26620
C         -3.75300       -4.83490        0.72270
S         -2.14220       -5.43130        0.87190
C         -2.76510       -2.42790       -1.04420
C         -2.81200       -3.38220       -2.23780
C         -3.11680        0.84790       -0.63500
C         -2.17270        1.03570       -1.82190
C         -4.05520        6.75780       -2.56870
C         -4.57600        7.69840       -3.45970
F         -5.74780        7.48410       -4.07840
C         -3.88330        8.85540       -3.81370
F         -4.45550        9.68470       -4.70120
C         -2.61540        9.15660       -3.33520
C         -2.06420        8.24230       -2.39660
N         -0.95190        8.55230       -1.72670
C         -0.38850        7.68010       -0.92420
C          0.68610        8.18100       -0.10630
S          1.51890        9.61510       -0.63700
C          2.50060        9.65490        0.78130
C          3.57490       10.66370        0.99240
C          4.92890       10.14740        0.49620
C          2.15860        8.61360        1.60120
C          1.13960        7.77500        1.12100
F          2.74910        8.40810        2.78930
C         -0.90470        6.33890       -0.86970
N         -2.09900        6.10710       -1.36700
C         -2.74040        7.03440       -2.07990
C         -0.17240        5.22680       -0.32270
C          1.18510        5.04030       -0.27060
C          1.52200        3.80130        0.29560
F          2.79940        3.41940        0.45640
C          0.46040        3.02810        0.68240
C          0.48200        1.68870        1.33980
C          1.24770        0.65130        0.51640
S         -1.01490        3.84530        0.30960
C         -1.92390       10.36140       -3.69200
C         -0.57720       10.45410       -3.76770
S          0.27120       11.98790       -3.80640
C          1.81460       11.17400       -3.68450
C          2.96760       11.88130       -3.46530
C          4.22530       11.32730       -3.18070
N          5.26120       10.93310       -2.87840
C          2.93150       13.29020       -3.41390
N          2.91970       14.43610       -3.37130
N          1.67580        9.82780       -3.80350
C          2.78280        8.91620       -4.01320
C          3.51620        9.20900       -5.29970
C          2.81490        9.61060       -6.42980
C          3.48430        9.87840       -7.61020
C          4.85980        9.73820       -7.67430
C          5.56170        9.32340       -6.55550
C          4.89410        9.06140       -5.37240
C          0.37700        9.34720       -3.88760
O          0.12970        8.18310       -4.10960
H          4.76030      -12.63520        4.03200
H         12.00640      -11.59790        4.65070
H         11.62740      -12.92680        3.52760
H         11.76920      -11.26240        2.91010
H         11.30420       -9.37540        4.24910
H         10.17490       -7.29660        4.77810
H          7.74120       -7.20470        5.13620
H         -0.53170      -12.68830        4.27270
H         -1.98420      -11.80700        3.76200
H         -1.66120      -13.85730        2.37800
H         -0.06120      -13.28710        1.89020
H         -1.50380      -12.40730        1.37940
H          2.11660      -12.68190        4.12130
H         -2.79930       -9.69690        2.46210
H         -4.68110       -8.99110        1.93860
H         -5.99330       -7.82000        2.05870
H         -3.80030       -8.15890        4.16620
H         -5.44960       -8.78530        4.29210
H         -5.16400       -7.04430        4.25250
H         -8.08350        7.63670       -2.16180
H         -6.39660        7.66270       -1.59180
H         -6.96630        6.06020        0.22330
H         -8.63780        5.99390       -0.34630
H         -7.99050        7.49940        0.32510
H         -1.94780       -2.71290       -0.37400
H         -2.59670       -1.42390       -1.41320
H         -2.93040       -4.41100       -1.90960
H         -3.64410       -3.12690       -2.89080
H         -1.88670       -3.30520       -2.80210
H         -2.82750        0.00420       -0.00750
H         -3.07420        1.75380       -0.01910
H         -1.14540        1.06700       -1.47250
H         -2.27420        0.23520       -2.55130
H         -2.39070        1.97480       -2.32160
H          3.32200       11.58610        0.46720
H          3.64340       10.87680        2.06190
H          5.70230       10.87700        0.71750
H          5.18190        9.21200        0.98960
H          4.91150        9.98830       -0.57920
H          0.75840        6.93590        1.67220
H          1.91440        5.74010       -0.63310
H         -0.54580        1.35880        1.49860
H          0.96290        1.78160        2.31810
H          2.28580        0.94850        0.39970
H          0.80900        0.54050       -0.47270
H          1.21980       -0.31200        1.01830
H         -2.52470       11.24720       -3.85200
H          2.32700        7.91950       -4.06240
H          3.46380        8.95110       -3.15940
H          1.73850        9.70820       -6.39380
H          2.92890       10.19520       -8.48020
H          5.38230        9.95030       -8.59490
H          6.63410        9.20950       -6.59980
H          5.44660        8.75180       -4.49830
