
  xtb     02112203503D
 energy: -275.971638290490 gnorm: 0.000755353007 xtb: 6.4.1 (unknown)
156174  0     0  0            999 V2000
   -4.1106    5.6436  -11.1701 C   0  0  0  0  0  0  0  0  0  0  0  0
   -5.1130    6.5727  -11.1242 C   0  0  0  0  0  0  0  0  0  0  0  0
   -5.5368    7.2029  -12.4101 C   0  0  0  0  0  0  0  0  0  0  0  0
   -4.9458    7.1323  -13.4627 O   0  0  0  0  0  0  0  0  0  0  0  0
   -6.8165    7.8673  -12.1105 C   0  0  0  0  0  0  0  0  0  0  0  0
   -7.6978    8.5145  -12.9812 C   0  0  0  0  0  0  0  0  0  0  0  0
   -7.3532    8.5842  -14.2759 O   0  0  0  0  0  0  0  0  0  0  0  0
   -8.2045    9.2440  -15.1825 C   0  0  0  0  0  0  0  0  0  0  0  0
   -8.8734    9.0379  -12.4281 C   0  0  0  0  0  0  0  0  0  0  0  0
   -9.1426    8.9057  -11.0780 C   0  0  0  0  0  0  0  0  0  0  0  0
   -8.2637    8.2708  -10.2105 C   0  0  0  0  0  0  0  0  0  0  0  0
   -7.0915    7.7581  -10.7371 C   0  0  0  0  0  0  0  0  0  0  0  0
   -5.9655    7.0825  -10.0849 C   0  0  0  0  0  0  0  0  0  0  0  0
   -5.6901    7.1702   -8.7412 C   0  0  0  0  0  0  0  0  0  0  0  0
   -6.5494    7.7520   -7.7884 C   0  0  0  0  0  0  0  0  0  0  0  0
   -7.2122    8.1750   -6.9508 N   0  0  0  0  0  0  0  0  0  0  0  0
   -4.4872    6.7600   -8.1384 C   0  0  0  0  0  0  0  0  0  0  0  0
   -3.5345    6.4624   -7.5690 N   0  0  0  0  0  0  0  0  0  0  0  0
   -3.7319    4.6582  -10.2439 C   0  0  0  0  0  0  0  0  0  0  0  0
   -2.1705    3.8616  -10.4824 S   0  0  0  0  0  0  0  0  0  0  0  0
   -2.4114    2.9264   -9.0641 C   0  0  0  0  0  0  0  0  0  0  0  0
   -1.7739    2.0051   -8.2378 C   0  0  0  0  0  0  0  0  0  0  0  0
   -2.6572    1.7422   -7.1661 C   0  0  0  0  0  0  0  0  0  0  0  0
   -3.8217    2.4401   -7.3355 N   0  0  0  0  0  0  0  0  0  0  0  0
   -4.8562    2.6156   -6.3479 C   0  0  0  0  0  0  0  0  0  0  0  0
   -4.4961    3.7264   -5.3634 C   0  0  0  0  0  0  0  0  0  0  0  0
   -3.6734    3.1944   -8.4712 C   0  0  0  0  0  0  0  0  0  0  0  0
   -4.4129    4.1567   -9.1418 C   0  0  0  0  0  0  0  0  0  0  0  0
   -2.1289    0.8669   -6.2159 C   0  0  0  0  0  0  0  0  0  0  0  0
   -0.8573    0.4501   -6.5539 C   0  0  0  0  0  0  0  0  0  0  0  0
   -0.2913    1.1333   -8.0736 S   0  0  0  0  0  0  0  0  0  0  0  0
   -0.0035   -0.3374   -5.7326 C   0  0  0  0  0  0  0  0  0  0  0  0
    1.2081   -0.9381   -6.0191 C   0  0  0  0  0  0  0  0  0  0  0  0
    1.7922   -1.0898   -7.3533 C   0  0  0  0  0  0  0  0  0  0  0  0
    1.0393   -1.6181   -8.3987 C   0  0  0  0  0  0  0  0  0  0  0  0
    1.6196   -1.8008   -9.6388 C   0  0  0  0  0  0  0  0  0  0  0  0
    2.9466   -1.4656   -9.8445 C   0  0  0  0  0  0  0  0  0  0  0  0
    3.7154   -0.9510   -8.8085 C   0  0  0  0  0  0  0  0  0  0  0  0
    5.1459   -0.5552   -9.0337 C   0  0  0  0  0  0  0  0  0  0  0  0
    5.2316    0.9118   -9.4595 C   0  0  0  0  0  0  0  0  0  0  0  0
    3.1273   -0.7678   -7.5662 C   0  0  0  0  0  0  0  0  0  0  0  0
    1.8149   -1.4508   -4.8547 C   0  0  0  0  0  0  0  0  0  0  0  0
    3.3447   -2.2483   -4.5796 S   0  0  0  0  0  0  0  0  0  0  0  0
    2.9757   -2.3207   -2.8896 C   0  0  0  0  0  0  0  0  0  0  0  0
    3.6018   -2.6671   -1.6808 C   0  0  0  0  0  0  0  0  0  0  0  0
    4.9296   -3.0508   -1.3867 C   0  0  0  0  0  0  0  0  0  0  0  0
    5.3616   -3.0743   -0.0154 C   0  0  0  0  0  0  0  0  0  0  0  0
    6.6487   -3.3590    0.1031 N   0  0  0  0  0  0  0  0  0  0  0  0
    7.2637   -3.5871   -1.3772 S   0  0  0  0  0  0  0  0  0  0  0  0
    5.9123   -3.3254   -2.2296 N   0  0  0  0  0  0  0  0  0  0  0  0
    4.4129   -2.8483    1.0062 C   0  0  0  0  0  0  0  0  0  0  0  0
    4.5126   -2.8492    2.4091 C   0  0  0  0  0  0  0  0  0  0  0  0
    5.7212   -2.9813    3.6415 S   0  0  0  0  0  0  0  0  0  0  0  0
    4.4741   -2.8069    4.8539 C   0  0  0  0  0  0  0  0  0  0  0  0
    4.5132   -2.7343    6.2598 C   0  0  0  0  0  0  0  0  0  0  0  0
    5.7644   -2.7022    7.0164 C   0  0  0  0  0  0  0  0  0  0  0  0
    5.9814   -1.7245    7.9847 C   0  0  0  0  0  0  0  0  0  0  0  0
    7.1809   -1.6878    8.6675 C   0  0  0  0  0  0  0  0  0  0  0  0
    8.1734   -2.6116    8.3861 C   0  0  0  0  0  0  0  0  0  0  0  0
    7.9793   -3.5817    7.4121 C   0  0  0  0  0  0  0  0  0  0  0  0
    9.0688   -4.5507    7.0540 C   0  0  0  0  0  0  0  0  0  0  0  0
    9.8330   -4.0569    5.8238 C   0  0  0  0  0  0  0  0  0  0  0  0
    6.7726   -3.6136    6.7296 C   0  0  0  0  0  0  0  0  0  0  0  0
    3.2449   -2.5698    6.7887 C   0  0  0  0  0  0  0  0  0  0  0  0
    2.0074   -2.4527    5.5434 S   0  0  0  0  0  0  0  0  0  0  0  0
    3.1952   -2.6649    4.3100 C   0  0  0  0  0  0  0  0  0  0  0  0
    3.2194   -2.6812    2.9117 C   0  0  0  0  0  0  0  0  0  0  0  0
    2.3218   -2.5574    1.8805 N   0  0  0  0  0  0  0  0  0  0  0  0
    3.0441   -2.6204    0.6999 C   0  0  0  0  0  0  0  0  0  0  0  0
    2.6699   -2.3841   -0.6451 C   0  0  0  0  0  0  0  0  0  0  0  0
    1.5312   -1.8409   -1.2096 N   0  0  0  0  0  0  0  0  0  0  0  0
    1.7219   -1.7928   -2.5652 C   0  0  0  0  0  0  0  0  0  0  0  0
    1.0640   -1.2814   -3.6906 C   0  0  0  0  0  0  0  0  0  0  0  0
   -0.4189   -0.4590   -4.0239 S   0  0  0  0  0  0  0  0  0  0  0  0
    0.4708   -1.0748   -0.5942 C   0  0  0  0  0  0  0  0  0  0  0  0
   -0.8940   -1.7425   -0.7624 C   0  0  0  0  0  0  0  0  0  0  0  0
    0.9446   -2.9492    2.0919 C   0  0  0  0  0  0  0  0  0  0  0  0
    0.8457   -4.4059    2.5454 C   0  0  0  0  0  0  0  0  0  0  0  0
    2.8367   -2.5065    8.1611 C   0  0  0  0  0  0  0  0  0  0  0  0
    1.7215   -1.7821    8.5646 C   0  0  0  0  0  0  0  0  0  0  0  0
    1.3350   -1.6513    9.8939 C   0  0  0  0  0  0  0  0  0  0  0  0
    2.0307   -2.2539   10.9378 C   0  0  0  0  0  0  0  0  0  0  0  0
    3.1487   -3.0533   10.5590 C   0  0  0  0  0  0  0  0  0  0  0  0
    3.9171   -3.7764   11.3697 N   0  0  0  0  0  0  0  0  0  0  0  0
    5.0069   -4.5671   10.4889 S   0  0  0  0  0  0  0  0  0  0  0  0
    4.5580   -4.0407    9.0412 N   0  0  0  0  0  0  0  0  0  0  0  0
    3.5382   -3.1969    9.1848 C   0  0  0  0  0  0  0  0  0  0  0  0
    1.7866   -2.1065   12.3355 C   0  0  0  0  0  0  0  0  0  0  0  0
    0.7189   -1.6361   13.0408 C   0  0  0  0  0  0  0  0  0  0  0  0
   -0.6705   -1.3578   12.5783 C   0  0  0  0  0  0  0  0  0  0  0  0
   -1.0746   -1.2416   11.4420 O   0  0  0  0  0  0  0  0  0  0  0  0
   -1.4788   -1.2755   13.8066 C   0  0  0  0  0  0  0  0  0  0  0  0
   -2.8637   -1.1168   13.9238 C   0  0  0  0  0  0  0  0  0  0  0  0
   -3.5781   -1.0206   12.7922 O   0  0  0  0  0  0  0  0  0  0  0  0
   -4.9750   -0.8627   12.8694 C   0  0  0  0  0  0  0  0  0  0  0  0
   -3.3937   -1.0731   15.2190 C   0  0  0  0  0  0  0  0  0  0  0  0
   -2.5725   -1.1897   16.3264 C   0  0  0  0  0  0  0  0  0  0  0  0
   -1.1981   -1.3452   16.2114 C   0  0  0  0  0  0  0  0  0  0  0  0
   -0.6547   -1.3834   14.9384 C   0  0  0  0  0  0  0  0  0  0  0  0
    0.7276   -1.5196   14.4902 C   0  0  0  0  0  0  0  0  0  0  0  0
    1.8348   -1.4368   15.2913 C   0  0  0  0  0  0  0  0  0  0  0  0
    3.1729   -1.4099   14.8388 C   0  0  0  0  0  0  0  0  0  0  0  0
    4.2857   -1.3345   14.5657 N   0  0  0  0  0  0  0  0  0  0  0  0
    1.7884   -1.2959   16.6944 C   0  0  0  0  0  0  0  0  0  0  0  0
    1.8222   -1.1865   17.8369 N   0  0  0  0  0  0  0  0  0  0  0  0
   -3.5606    5.6384  -12.1073 H   0  0  0  0  0  0  0  0  0  0  0  0
   -7.7112    9.1697  -16.1499 H   0  0  0  0  0  0  0  0  0  0  0  0
   -8.3300   10.2992  -14.9201 H   0  0  0  0  0  0  0  0  0  0  0  0
   -9.1853    8.7611  -15.2380 H   0  0  0  0  0  0  0  0  0  0  0  0
   -9.5869    9.5508  -13.0534 H   0  0  0  0  0  0  0  0  0  0  0  0
  -10.0638    9.3119  -10.6878 H   0  0  0  0  0  0  0  0  0  0  0  0
   -8.5060    8.1802   -9.1651 H   0  0  0  0  0  0  0  0  0  0  0  0
   -5.7849    2.8594   -6.8701 H   0  0  0  0  0  0  0  0  0  0  0  0
   -4.9919    1.6668   -5.8215 H   0  0  0  0  0  0  0  0  0  0  0  0
   -3.6012    3.4593   -4.8065 H   0  0  0  0  0  0  0  0  0  0  0  0
   -5.3115    3.8863   -4.6637 H   0  0  0  0  0  0  0  0  0  0  0  0
   -4.3028    4.6542   -5.8980 H   0  0  0  0  0  0  0  0  0  0  0  0
   -5.4096    4.4619   -8.8803 H   0  0  0  0  0  0  0  0  0  0  0  0
   -2.6248    0.5479   -5.3167 H   0  0  0  0  0  0  0  0  0  0  0  0
    0.0097   -1.8979   -8.2297 H   0  0  0  0  0  0  0  0  0  0  0  0
    1.0355   -2.2128  -10.4484 H   0  0  0  0  0  0  0  0  0  0  0  0
    3.3935   -1.6131  -10.8171 H   0  0  0  0  0  0  0  0  0  0  0  0
    5.5856   -1.1827   -9.8114 H   0  0  0  0  0  0  0  0  0  0  0  0
    5.7169   -0.6985   -8.1144 H   0  0  0  0  0  0  0  0  0  0  0  0
    4.8059    1.5538   -8.6917 H   0  0  0  0  0  0  0  0  0  0  0  0
    6.2674    1.2012   -9.6204 H   0  0  0  0  0  0  0  0  0  0  0  0
    4.6781    1.0713  -10.3822 H   0  0  0  0  0  0  0  0  0  0  0  0
    3.7118   -0.3617   -6.7533 H   0  0  0  0  0  0  0  0  0  0  0  0
    5.2110   -0.9960    8.1945 H   0  0  0  0  0  0  0  0  0  0  0  0
    7.3450   -0.9328    9.4226 H   0  0  0  0  0  0  0  0  0  0  0  0
    9.1082   -2.5761    8.9270 H   0  0  0  0  0  0  0  0  0  0  0  0
    9.7607   -4.6594    7.8913 H   0  0  0  0  0  0  0  0  0  0  0  0
    8.6355   -5.5295    6.8381 H   0  0  0  0  0  0  0  0  0  0  0  0
   10.2829   -3.0869    6.0236 H   0  0  0  0  0  0  0  0  0  0  0  0
   10.6213   -4.7575    5.5586 H   0  0  0  0  0  0  0  0  0  0  0  0
    9.1595   -3.9525    4.9762 H   0  0  0  0  0  0  0  0  0  0  0  0
    6.6040   -4.3731    5.9803 H   0  0  0  0  0  0  0  0  0  0  0  0
    0.7148   -0.9097    0.4554 H   0  0  0  0  0  0  0  0  0  0  0  0
    0.4385   -0.0955   -1.0860 H   0  0  0  0  0  0  0  0  0  0  0  0
   -1.1809   -1.7452   -1.8103 H   0  0  0  0  0  0  0  0  0  0  0  0
   -1.6433   -1.1910   -0.2017 H   0  0  0  0  0  0  0  0  0  0  0  0
   -0.8846   -2.7737   -0.4162 H   0  0  0  0  0  0  0  0  0  0  0  0
    0.3964   -2.8414    1.1627 H   0  0  0  0  0  0  0  0  0  0  0  0
    0.5101   -2.2934    2.8532 H   0  0  0  0  0  0  0  0  0  0  0  0
    1.3344   -4.5506    3.5047 H   0  0  0  0  0  0  0  0  0  0  0  0
   -0.1994   -4.6853    2.6462 H   0  0  0  0  0  0  0  0  0  0  0  0
    1.3149   -5.0597    1.8130 H   0  0  0  0  0  0  0  0  0  0  0  0
    1.1464   -1.2651    7.8094 H   0  0  0  0  0  0  0  0  0  0  0  0
    0.4726   -1.0472   10.1203 H   0  0  0  0  0  0  0  0  0  0  0  0
    2.6195   -2.4772   12.9242 H   0  0  0  0  0  0  0  0  0  0  0  0
   -5.3193   -0.8180   11.8378 H   0  0  0  0  0  0  0  0  0  0  0  0
   -5.4484   -1.7116   13.3727 H   0  0  0  0  0  0  0  0  0  0  0  0
   -5.2468    0.0653   13.3823 H   0  0  0  0  0  0  0  0  0  0  0  0
   -4.4545   -0.9487   15.3686 H   0  0  0  0  0  0  0  0  0  0  0  0
   -3.0170   -1.1577   17.3098 H   0  0  0  0  0  0  0  0  0  0  0  0
   -0.5882   -1.4387   17.0936 H   0  0  0  0  0  0  0  0  0  0  0  0
  1  2  2  0  0  0  0
  2  3  1  0  0  0  0
  3  4  2  0  0  0  0
  3  5  1  0  0  0  0
  5  6  2  0  0  0  0
  6  7  1  0  0  0  0
  7  8  1  0  0  0  0
  6  9  1  0  0  0  0
  9 10  2  0  0  0  0
 10 11  1  0  0  0  0
 11 12  2  0  0  0  0
 12 13  1  0  0  0  0
 13 14  2  0  0  0  0
 14 15  1  0  0  0  0
 15 16  3  0  0  0  0
 14 17  1  0  0  0  0
 17 18  3  0  0  0  0
  1 19  1  0  0  0  0
 19 20  1  0  0  0  0
 20 21  1  0  0  0  0
 21 22  1  0  0  0  0
 22 23  2  0  0  0  0
 23 24  1  0  0  0  0
 24 25  1  0  0  0  0
 25 26  1  0  0  0  0
 24 27  1  0  0  0  0
 27 28  1  0  0  0  0
 23 29  1  0  0  0  0
 29 30  2  0  0  0  0
 30 31  1  0  0  0  0
 30 32  1  0  0  0  0
 32 33  2  0  0  0  0
 33 34  1  0  0  0  0
 34 35  2  0  0  0  0
 35 36  1  0  0  0  0
 36 37  2  0  0  0  0
 37 38  1  0  0  0  0
 38 39  1  0  0  0  0
 39 40  1  0  0  0  0
 38 41  2  0  0  0  0
 33 42  1  0  0  0  0
 42 43  1  0  0  0  0
 43 44  1  0  0  0  0
 44 45  1  0  0  0  0
 45 46  1  0  0  0  0
 46 47  1  0  0  0  0
 47 48  2  0  0  0  0
 48 49  1  0  0  0  0
 49 50  1  0  0  0  0
 47 51  1  0  0  0  0
 51 52  1  0  0  0  0
 52 53  1  0  0  0  0
 53 54  1  0  0  0  0
 54 55  1  0  0  0  0
 55 56  1  0  0  0  0
 56 57  2  0  0  0  0
 57 58  1  0  0  0  0
 58 59  2  0  0  0  0
 59 60  1  0  0  0  0
 60 61  1  0  0  0  0
 61 62  1  0  0  0  0
 60 63  2  0  0  0  0
 55 64  2  0  0  0  0
 64 65  1  0  0  0  0
 65 66  1  0  0  0  0
 66 67  1  0  0  0  0
 67 68  1  0  0  0  0
 68 69  1  0  0  0  0
 69 70  1  0  0  0  0
 70 71  1  0  0  0  0
 71 72  1  0  0  0  0
 72 73  1  0  0  0  0
 73 74  1  0  0  0  0
 71 75  1  0  0  0  0
 75 76  1  0  0  0  0
 68 77  1  0  0  0  0
 77 78  1  0  0  0  0
 64 79  1  0  0  0  0
 79 80  2  0  0  0  0
 80 81  1  0  0  0  0
 81 82  2  0  0  0  0
 82 83  1  0  0  0  0
 83 84  2  0  0  0  0
 84 85  1  0  0  0  0
 85 86  1  0  0  0  0
 86 87  2  0  0  0  0
 82 88  1  0  0  0  0
 88 89  2  0  0  0  0
 89 90  1  0  0  0  0
 90 91  2  0  0  0  0
 90 92  1  0  0  0  0
 92 93  2  0  0  0  0
 93 94  1  0  0  0  0
 94 95  1  0  0  0  0
 93 96  1  0  0  0  0
 96 97  2  0  0  0  0
 97 98  1  0  0  0  0
 98 99  2  0  0  0  0
 99100  1  0  0  0  0
100101  2  0  0  0  0
101102  1  0  0  0  0
102103  3  0  0  0  0
101104  1  0  0  0  0
104105  3  0  0  0  0
 13  2  1  0  0  0  0
 28 19  2  0  0  0  0
 74 32  1  0  0  0  0
 87 79  1  0  0  0  0
100 89  1  0  0  0  0
 12  5  1  0  0  0  0
 27 21  2  0  0  0  0
 41 34  1  0  0  0  0
 73 42  2  0  0  0  0
 87 83  1  0  0  0  0
 99 92  1  0  0  0  0
 31 22  1  0  0  0  0
 72 44  2  0  0  0  0
 70 45  2  0  0  0  0
 50 46  2  0  0  0  0
 69 51  2  0  0  0  0
 67 52  2  0  0  0  0
 66 54  2  0  0  0  0
 63 56  1  0  0  0  0
  1106  1  0  0  0  0
  8107  1  0  0  0  0
  8108  1  0  0  0  0
  8109  1  0  0  0  0
  9110  1  0  0  0  0
 10111  1  0  0  0  0
 11112  1  0  0  0  0
 25113  1  0  0  0  0
 25114  1  0  0  0  0
 26115  1  0  0  0  0
 26116  1  0  0  0  0
 26117  1  0  0  0  0
 28118  1  0  0  0  0
 29119  1  0  0  0  0
 35120  1  0  0  0  0
 36121  1  0  0  0  0
 37122  1  0  0  0  0
 39123  1  0  0  0  0
 39124  1  0  0  0  0
 40125  1  0  0  0  0
 40126  1  0  0  0  0
 40127  1  0  0  0  0
 41128  1  0  0  0  0
 57129  1  0  0  0  0
 58130  1  0  0  0  0
 59131  1  0  0  0  0
 61132  1  0  0  0  0
 61133  1  0  0  0  0
 62134  1  0  0  0  0
 62135  1  0  0  0  0
 62136  1  0  0  0  0
 63137  1  0  0  0  0
 75138  1  0  0  0  0
 75139  1  0  0  0  0
 76140  1  0  0  0  0
 76141  1  0  0  0  0
 76142  1  0  0  0  0
 77143  1  0  0  0  0
 77144  1  0  0  0  0
 78145  1  0  0  0  0
 78146  1  0  0  0  0
 78147  1  0  0  0  0
 80148  1  0  0  0  0
 81149  1  0  0  0  0
 88150  1  0  0  0  0
 95151  1  0  0  0  0
 95152  1  0  0  0  0
 95153  1  0  0  0  0
 96154  1  0  0  0  0
 97155  1  0  0  0  0
 98156  1  0  0  0  0
M  END
