246

C        -14.06660       -1.80740       -5.36580
C        -15.09310       -1.44220       -6.19060
C        -14.99380       -0.56480       -7.37680
O        -14.02680        0.07440       -7.73600
C        -16.30720       -0.64510       -8.03650
C        -16.72450       -0.04270       -9.22690
O        -15.83760        0.72340       -9.88000
C        -16.21740        1.34600      -11.08390
C        -18.03870       -0.29090       -9.64180
C        -18.87560       -1.10300       -8.89760
C        -18.46220       -1.70100       -7.71480
C        -17.16750       -1.46380       -7.28540
C        -16.45260       -1.92830       -6.09730
C        -17.01060       -2.62460       -5.05500
C        -18.35090       -3.06070       -5.01550
N        -19.42550       -3.45330       -4.91510
C        -16.35270       -2.96290       -3.85400
N        -15.90390       -3.25150       -2.83590
C        -12.73090       -1.36380       -5.30480
C        -11.85210       -1.87000       -4.36200
C        -10.59150       -1.25680       -4.36250
C         -9.48790       -1.53390       -3.52120
C         -9.57730       -2.53770       -2.45260
C         -8.59540       -3.50340       -2.31870
C         -8.68490       -4.45890       -1.30430
O         -7.67640       -5.36600       -1.26230
C         -7.69860       -6.36830       -0.26500
C         -6.46270       -7.23400       -0.45360
C         -9.76350       -4.43510       -0.43620
C        -10.75550       -3.45860       -0.56690
O        -11.76940       -3.56090        0.33090
C        -12.86030       -2.66070        0.27570
C        -12.55080       -1.31980        0.93510
C        -10.65760       -2.50560       -1.56890
C         -8.34130       -0.80190       -3.75980
C         -8.27000        0.21140       -4.75290
C         -9.36240        0.48300       -5.58980
C         -9.23150        1.49000       -6.65510
C         -9.44220        1.12840       -7.97660
C         -9.22280        2.05200       -8.99420
C         -8.80460        3.34360       -8.69020
C         -8.61210        3.71120       -7.36200
O         -8.18600        4.93370       -6.94110
C         -8.00880        5.98370       -7.86780
C         -9.32840        6.61110       -8.30950
C         -8.82740        2.78230       -6.34960
O         -9.42210        1.59040      -10.25760
C         -9.23300        2.45950      -11.35380
C         -9.53100        1.67280      -12.62060
C        -10.50640       -0.26810       -5.38350
S        -11.98880       -0.11320       -6.28380
C         -7.00520        0.83400       -4.79220
C         -6.11040        0.33020       -3.89250
S         -6.82160       -0.93930       -2.90550
C         -4.75730        0.73980       -3.71140
C         -4.00500        1.58280       -4.51350
C         -4.40970        2.14220       -5.80980
C         -4.37510        3.51690       -6.01220
C         -4.77840        4.04420       -7.22580
C         -5.21580        3.20990       -8.23730
C         -5.24180        1.83140       -8.05860
C         -5.68760        0.92370       -9.16810
C         -4.53130        0.62820      -10.12480
C         -4.82060        1.30900       -6.84670
C         -2.75070        1.84760       -3.93450
S         -1.41360        2.84540       -4.45120
C         -0.55690        2.38590       -3.01950
C          0.64170        2.69580       -2.35860
C          1.63300        3.65990       -2.64180
C          2.66610        3.89290       -1.67320
N          3.48410        4.87060       -2.03040
S          2.99930        5.44470       -3.46520
N          1.72510        4.46930       -3.68510
C          2.73550        3.05760       -0.53760
C          3.69700        2.96730        0.48170
S          5.13180        3.78330        0.99840
C          5.31380        2.59760        2.26730
C          6.27120        2.44590        3.28920
C          7.31970        3.43750        3.54100
C          7.49420        3.97050        4.81640
C          8.43150        4.96270        5.02380
C          9.19640        5.43370        3.97020
C          9.03970        4.90920        2.69530
C          9.82220        5.44560        1.53170
C          8.98960        6.47540        0.76540
C          8.09430        3.91390        2.49130
C          6.01010        1.32420        4.05360
S          4.55240        0.48620        3.54790
C          4.30640        1.63100        2.27530
C          3.36890        1.85370        1.25660
N          2.21420        1.27690        0.78980
C          1.79950        2.01090       -0.31400
C          0.66470        1.92350       -1.16310
N         -0.51770        1.21090       -1.08460
C         -1.25480        1.49090       -2.20470
C         -2.52240        1.19100       -2.72270
S         -3.89320        0.24170       -2.26680
C         -1.14810        0.57310        0.04770
C         -1.24650       -0.94170       -0.12570
C          1.97000       -0.11690        1.09390
C          2.55770       -1.02330        0.01420
C          6.82260        0.77160        5.08770
C          8.16770        0.94520        5.25360
C          8.69020        0.26430        6.37540
C         10.01780        0.25600        6.83090
C         11.11050        0.96910        6.15320
C         12.26520        0.25940        5.85350
C         13.36450        0.90060        5.29120
O         14.44860        0.10850        5.10690
C         15.66930        0.64600        4.63840
C         15.70740        0.78270        3.11900
C         13.29060        2.25820        4.99180
C         12.12080        2.96310        5.26070
O         11.92770        4.28230        4.98440
C         12.97080        5.05300        4.42650
C         14.00910        5.48240        5.45980
C         11.03420        2.32070        5.85060
C         10.27660       -0.51360        7.95040
C          9.29580       -1.29210        8.61710
C          7.95920       -1.26660        8.17090
C          6.90500       -2.00530        8.87890
C          6.77310       -1.84260       10.25940
C          5.77380       -2.52340       10.93640
C          4.90830       -3.37070       10.23980
C          5.03970       -3.53040        8.86990
O          4.25540       -4.32860        8.10540
C          3.21810       -5.06570        8.72290
C          2.51480       -5.86790        7.63940
C          6.04410       -2.83840        8.18850
O          5.54680       -2.44350       12.27340
C          6.38180       -1.61960       13.06360
C          5.91000       -1.73080       14.50480
C          7.69700       -0.48950        7.05630
S          6.13500       -0.28600        6.30590
C          9.85680       -2.05260        9.66540
C         11.20910       -1.86860        9.82410
S         11.83100       -0.65440        8.71860
C         12.02960       -2.49590       10.79410
C         13.38550       -2.56920       10.85340
C         14.04290       -2.85560       12.16450
O         13.51420       -3.28870       13.16140
C         15.44200       -2.43630       11.97390
C         16.61080       -2.34360       12.74640
C         17.65500       -1.89040       11.98910
Cl        19.25250       -1.63010       12.52110
S         17.23600       -1.58290       10.32000
C         15.62100       -2.05400       10.65210
C         14.42220       -2.25090        9.88140
C         14.38650       -2.36280        8.51410
C         15.50670       -2.01940        7.73120
N         16.41630       -1.72020        7.09830
C         13.31560       -2.93120        7.79550
N         12.51080       -3.47690        7.18500
H        -14.29160       -2.55710       -4.61580
H        -16.49020        0.61130      -11.84810
H        -17.04850        2.04210      -10.93230
H        -15.33970        1.89930      -11.41300
H        -18.41470        0.14980      -10.55150
H        -19.88160       -1.27590       -9.24930
H        -19.13880       -2.33090       -7.16290
H        -12.12650       -2.67080       -3.69820
H         -7.76400       -3.55550       -3.00200
H         -7.69130       -5.90710        0.73230
H         -8.60770       -6.97760       -0.36300
H         -6.44050       -8.01670        0.29920
H         -6.47520       -7.68750       -1.44090
H         -5.56730       -6.62510       -0.36440
H         -9.88390       -5.15470        0.35620
H        -13.65710       -3.16710        0.82750
H        -13.19750       -2.52210       -0.75810
H        -13.43500       -0.68890        0.90830
H        -12.25960       -1.47720        1.97060
H        -11.73710       -0.81010        0.42490
H        -11.38640       -1.71880       -1.67190
H         -9.75410        0.13170       -8.24080
H         -8.62850        4.05130       -9.48260
H         -7.41230        6.72340       -7.32610
H         -7.42690        5.64440       -8.73380
H         -9.86500        6.98510       -7.44140
H         -9.13450        7.43690       -8.98890
H         -9.95870        5.87970       -8.80940
H         -8.68330        3.09340       -5.32750
H         -9.90970        3.32250      -11.27650
H         -8.19630        2.82750      -11.37540
H         -9.40430        2.30890      -13.49220
H        -10.55150        1.30190      -12.59110
H         -8.85730        0.82370      -12.69560
H         -6.77970        1.63350       -5.46900
H         -4.05240        4.16860       -5.21460
H         -4.75750        5.11340       -7.37650
H         -5.54040        3.62740       -9.17990
H         -6.50420        1.39330       -9.71920
H         -6.06210       -0.01200       -8.74920
H         -3.71510        0.14470       -9.59240
H         -4.85980       -0.02820      -10.92730
H         -4.15340        1.55010      -10.56150
H         -4.83040        0.23940       -6.69180
H          6.88390        3.61290        5.63270
H          8.56270        5.38000        6.01140
H          9.91920        6.21620        4.14370
H         10.09070        4.62850        0.85890
H         10.74300        5.91290        1.88630
H          8.07040        6.02280        0.40070
H          8.72520        7.30610        1.41620
H          9.54830        6.86270       -0.08350
H          7.96360        3.49640        1.50320
H         -2.16310        0.97850        0.13170
H         -0.60920        0.85210        0.95400
H         -1.90790       -1.17570       -0.95560
H         -1.65800       -1.38960        0.77470
H         -0.27520       -1.38350       -0.32990
H          2.45860       -0.31860        2.05050
H          0.90870       -0.31500        1.21500
H          3.62980       -0.86130       -0.06980
H          2.38350       -2.06540        0.26830
H          2.10250       -0.81220       -0.95140
H          8.77460        1.52520        4.58400
H         12.33410       -0.80100        6.03430
H         16.42090       -0.07670        4.96790
H         15.87920        1.60680        5.12500
H         16.67930        1.15720        2.80900
H         14.93590        1.46330        2.76590
H         15.54010       -0.18840        2.66080
H         14.13660        2.75780        4.55150
H         12.46930        5.93790        4.02390
H         13.44350        4.52240        3.59050
H         14.49060        4.61910        5.91210
H         14.76530        6.10220        4.98540
H         13.52660        6.05400        6.24860
H         10.15430        2.90020        6.07820
H          7.43700       -1.16380       10.76970
H          4.15010       -3.87910       10.81150
H          3.63600       -5.73940        9.48360
H          2.50940       -4.38200        9.21040
H          3.22020       -6.54110        7.16030
H          1.70570       -6.44770        8.07420
H          2.11070       -5.19740        6.88610
H          6.14430       -2.99100        7.12660
H          7.42660       -1.95020       12.98040
H          6.31570       -0.57720       12.72190
H          6.53000       -1.11020       15.14530
H          4.87640       -1.40530       14.58260
H          5.97390       -2.76320       14.83710
H          9.29500       -2.76100       10.24830
H         11.50950       -2.91260       11.65150
H         16.68350       -2.59740       13.78700
