
  xtb     02112203393D
 energy: -416.015363350834 gnorm: 0.000662069759 xtb: 6.4.1 (unknown)
246269  0     0  0            999 V2000
  -14.0666   -1.8074   -5.3658 C   0  0  0  0  0  0  0  0  0  0  0  0
  -15.0931   -1.4422   -6.1906 C   0  0  0  0  0  0  0  0  0  0  0  0
  -14.9938   -0.5648   -7.3768 C   0  0  0  0  0  0  0  0  0  0  0  0
  -14.0268    0.0744   -7.7360 O   0  0  0  0  0  0  0  0  0  0  0  0
  -16.3072   -0.6451   -8.0365 C   0  0  0  0  0  0  0  0  0  0  0  0
  -16.7245   -0.0427   -9.2269 C   0  0  0  0  0  0  0  0  0  0  0  0
  -15.8376    0.7234   -9.8800 O   0  0  0  0  0  0  0  0  0  0  0  0
  -16.2174    1.3460  -11.0839 C   0  0  0  0  0  0  0  0  0  0  0  0
  -18.0387   -0.2909   -9.6418 C   0  0  0  0  0  0  0  0  0  0  0  0
  -18.8756   -1.1030   -8.8976 C   0  0  0  0  0  0  0  0  0  0  0  0
  -18.4622   -1.7010   -7.7148 C   0  0  0  0  0  0  0  0  0  0  0  0
  -17.1675   -1.4638   -7.2854 C   0  0  0  0  0  0  0  0  0  0  0  0
  -16.4526   -1.9283   -6.0973 C   0  0  0  0  0  0  0  0  0  0  0  0
  -17.0106   -2.6246   -5.0550 C   0  0  0  0  0  0  0  0  0  0  0  0
  -18.3509   -3.0607   -5.0155 C   0  0  0  0  0  0  0  0  0  0  0  0
  -19.4255   -3.4533   -4.9151 N   0  0  0  0  0  0  0  0  0  0  0  0
  -16.3527   -2.9629   -3.8540 C   0  0  0  0  0  0  0  0  0  0  0  0
  -15.9039   -3.2515   -2.8359 N   0  0  0  0  0  0  0  0  0  0  0  0
  -12.7309   -1.3638   -5.3048 C   0  0  0  0  0  0  0  0  0  0  0  0
  -11.8521   -1.8700   -4.3620 C   0  0  0  0  0  0  0  0  0  0  0  0
  -10.5915   -1.2568   -4.3625 C   0  0  0  0  0  0  0  0  0  0  0  0
   -9.4879   -1.5339   -3.5212 C   0  0  0  0  0  0  0  0  0  0  0  0
   -9.5773   -2.5377   -2.4526 C   0  0  0  0  0  0  0  0  0  0  0  0
   -8.5954   -3.5034   -2.3187 C   0  0  0  0  0  0  0  0  0  0  0  0
   -8.6849   -4.4589   -1.3043 C   0  0  0  0  0  0  0  0  0  0  0  0
   -7.6764   -5.3660   -1.2623 O   0  0  0  0  0  0  0  0  0  0  0  0
   -7.6986   -6.3683   -0.2650 C   0  0  0  0  0  0  0  0  0  0  0  0
   -6.4627   -7.2340   -0.4536 C   0  0  0  0  0  0  0  0  0  0  0  0
   -9.7635   -4.4351   -0.4362 C   0  0  0  0  0  0  0  0  0  0  0  0
  -10.7555   -3.4586   -0.5669 C   0  0  0  0  0  0  0  0  0  0  0  0
  -11.7694   -3.5609    0.3309 O   0  0  0  0  0  0  0  0  0  0  0  0
  -12.8603   -2.6607    0.2757 C   0  0  0  0  0  0  0  0  0  0  0  0
  -12.5508   -1.3198    0.9351 C   0  0  0  0  0  0  0  0  0  0  0  0
  -10.6576   -2.5056   -1.5689 C   0  0  0  0  0  0  0  0  0  0  0  0
   -8.3413   -0.8019   -3.7598 C   0  0  0  0  0  0  0  0  0  0  0  0
   -8.2700    0.2114   -4.7529 C   0  0  0  0  0  0  0  0  0  0  0  0
   -9.3624    0.4830   -5.5898 C   0  0  0  0  0  0  0  0  0  0  0  0
   -9.2315    1.4900   -6.6551 C   0  0  0  0  0  0  0  0  0  0  0  0
   -9.4422    1.1284   -7.9766 C   0  0  0  0  0  0  0  0  0  0  0  0
   -9.2228    2.0520   -8.9942 C   0  0  0  0  0  0  0  0  0  0  0  0
   -8.8046    3.3436   -8.6902 C   0  0  0  0  0  0  0  0  0  0  0  0
   -8.6121    3.7112   -7.3620 C   0  0  0  0  0  0  0  0  0  0  0  0
   -8.1860    4.9337   -6.9411 O   0  0  0  0  0  0  0  0  0  0  0  0
   -8.0088    5.9837   -7.8678 C   0  0  0  0  0  0  0  0  0  0  0  0
   -9.3284    6.6111   -8.3095 C   0  0  0  0  0  0  0  0  0  0  0  0
   -8.8274    2.7823   -6.3496 C   0  0  0  0  0  0  0  0  0  0  0  0
   -9.4221    1.5904  -10.2576 O   0  0  0  0  0  0  0  0  0  0  0  0
   -9.2330    2.4595  -11.3538 C   0  0  0  0  0  0  0  0  0  0  0  0
   -9.5310    1.6728  -12.6206 C   0  0  0  0  0  0  0  0  0  0  0  0
  -10.5064   -0.2681   -5.3835 C   0  0  0  0  0  0  0  0  0  0  0  0
  -11.9888   -0.1132   -6.2838 S   0  0  0  0  0  0  0  0  0  0  0  0
   -7.0052    0.8340   -4.7922 C   0  0  0  0  0  0  0  0  0  0  0  0
   -6.1104    0.3302   -3.8925 C   0  0  0  0  0  0  0  0  0  0  0  0
   -6.8216   -0.9393   -2.9055 S   0  0  0  0  0  0  0  0  0  0  0  0
   -4.7573    0.7398   -3.7114 C   0  0  0  0  0  0  0  0  0  0  0  0
   -4.0050    1.5828   -4.5135 C   0  0  0  0  0  0  0  0  0  0  0  0
   -4.4097    2.1422   -5.8098 C   0  0  0  0  0  0  0  0  0  0  0  0
   -4.3751    3.5169   -6.0122 C   0  0  0  0  0  0  0  0  0  0  0  0
   -4.7784    4.0442   -7.2258 C   0  0  0  0  0  0  0  0  0  0  0  0
   -5.2158    3.2099   -8.2373 C   0  0  0  0  0  0  0  0  0  0  0  0
   -5.2418    1.8314   -8.0586 C   0  0  0  0  0  0  0  0  0  0  0  0
   -5.6876    0.9237   -9.1681 C   0  0  0  0  0  0  0  0  0  0  0  0
   -4.5313    0.6282  -10.1248 C   0  0  0  0  0  0  0  0  0  0  0  0
   -4.8206    1.3090   -6.8467 C   0  0  0  0  0  0  0  0  0  0  0  0
   -2.7507    1.8476   -3.9345 C   0  0  0  0  0  0  0  0  0  0  0  0
   -1.4136    2.8454   -4.4512 S   0  0  0  0  0  0  0  0  0  0  0  0
   -0.5569    2.3859   -3.0195 C   0  0  0  0  0  0  0  0  0  0  0  0
    0.6417    2.6958   -2.3586 C   0  0  0  0  0  0  0  0  0  0  0  0
    1.6330    3.6599   -2.6418 C   0  0  0  0  0  0  0  0  0  0  0  0
    2.6661    3.8929   -1.6732 C   0  0  0  0  0  0  0  0  0  0  0  0
    3.4841    4.8706   -2.0304 N   0  0  0  0  0  0  0  0  0  0  0  0
    2.9993    5.4447   -3.4652 S   0  0  0  0  0  0  0  0  0  0  0  0
    1.7251    4.4693   -3.6851 N   0  0  0  0  0  0  0  0  0  0  0  0
    2.7355    3.0576   -0.5376 C   0  0  0  0  0  0  0  0  0  0  0  0
    3.6970    2.9673    0.4817 C   0  0  0  0  0  0  0  0  0  0  0  0
    5.1318    3.7833    0.9984 S   0  0  0  0  0  0  0  0  0  0  0  0
    5.3138    2.5976    2.2673 C   0  0  0  0  0  0  0  0  0  0  0  0
    6.2712    2.4459    3.2892 C   0  0  0  0  0  0  0  0  0  0  0  0
    7.3197    3.4375    3.5410 C   0  0  0  0  0  0  0  0  0  0  0  0
    7.4942    3.9705    4.8164 C   0  0  0  0  0  0  0  0  0  0  0  0
    8.4315    4.9627    5.0238 C   0  0  0  0  0  0  0  0  0  0  0  0
    9.1964    5.4337    3.9702 C   0  0  0  0  0  0  0  0  0  0  0  0
    9.0397    4.9092    2.6953 C   0  0  0  0  0  0  0  0  0  0  0  0
    9.8222    5.4456    1.5317 C   0  0  0  0  0  0  0  0  0  0  0  0
    8.9896    6.4754    0.7654 C   0  0  0  0  0  0  0  0  0  0  0  0
    8.0943    3.9139    2.4913 C   0  0  0  0  0  0  0  0  0  0  0  0
    6.0101    1.3242    4.0536 C   0  0  0  0  0  0  0  0  0  0  0  0
    4.5524    0.4862    3.5479 S   0  0  0  0  0  0  0  0  0  0  0  0
    4.3064    1.6310    2.2753 C   0  0  0  0  0  0  0  0  0  0  0  0
    3.3689    1.8537    1.2566 C   0  0  0  0  0  0  0  0  0  0  0  0
    2.2142    1.2769    0.7898 N   0  0  0  0  0  0  0  0  0  0  0  0
    1.7995    2.0109   -0.3140 C   0  0  0  0  0  0  0  0  0  0  0  0
    0.6647    1.9235   -1.1631 C   0  0  0  0  0  0  0  0  0  0  0  0
   -0.5177    1.2109   -1.0846 N   0  0  0  0  0  0  0  0  0  0  0  0
   -1.2548    1.4909   -2.2047 C   0  0  0  0  0  0  0  0  0  0  0  0
   -2.5224    1.1910   -2.7227 C   0  0  0  0  0  0  0  0  0  0  0  0
   -3.8932    0.2417   -2.2668 S   0  0  0  0  0  0  0  0  0  0  0  0
   -1.1481    0.5731    0.0477 C   0  0  0  0  0  0  0  0  0  0  0  0
   -1.2465   -0.9417   -0.1257 C   0  0  0  0  0  0  0  0  0  0  0  0
    1.9700   -0.1169    1.0939 C   0  0  0  0  0  0  0  0  0  0  0  0
    2.5577   -1.0233    0.0142 C   0  0  0  0  0  0  0  0  0  0  0  0
    6.8226    0.7716    5.0877 C   0  0  0  0  0  0  0  0  0  0  0  0
    8.1677    0.9452    5.2536 C   0  0  0  0  0  0  0  0  0  0  0  0
    8.6902    0.2643    6.3754 C   0  0  0  0  0  0  0  0  0  0  0  0
   10.0178    0.2560    6.8309 C   0  0  0  0  0  0  0  0  0  0  0  0
   11.1105    0.9691    6.1532 C   0  0  0  0  0  0  0  0  0  0  0  0
   12.2652    0.2594    5.8535 C   0  0  0  0  0  0  0  0  0  0  0  0
   13.3645    0.9006    5.2912 C   0  0  0  0  0  0  0  0  0  0  0  0
   14.4486    0.1085    5.1069 O   0  0  0  0  0  0  0  0  0  0  0  0
   15.6693    0.6460    4.6384 C   0  0  0  0  0  0  0  0  0  0  0  0
   15.7074    0.7827    3.1190 C   0  0  0  0  0  0  0  0  0  0  0  0
   13.2906    2.2582    4.9918 C   0  0  0  0  0  0  0  0  0  0  0  0
   12.1208    2.9631    5.2607 C   0  0  0  0  0  0  0  0  0  0  0  0
   11.9277    4.2823    4.9844 O   0  0  0  0  0  0  0  0  0  0  0  0
   12.9708    5.0530    4.4265 C   0  0  0  0  0  0  0  0  0  0  0  0
   14.0091    5.4824    5.4598 C   0  0  0  0  0  0  0  0  0  0  0  0
   11.0342    2.3207    5.8506 C   0  0  0  0  0  0  0  0  0  0  0  0
   10.2766   -0.5136    7.9504 C   0  0  0  0  0  0  0  0  0  0  0  0
    9.2958   -1.2921    8.6171 C   0  0  0  0  0  0  0  0  0  0  0  0
    7.9592   -1.2666    8.1709 C   0  0  0  0  0  0  0  0  0  0  0  0
    6.9050   -2.0053    8.8789 C   0  0  0  0  0  0  0  0  0  0  0  0
    6.7731   -1.8426   10.2594 C   0  0  0  0  0  0  0  0  0  0  0  0
    5.7738   -2.5234   10.9364 C   0  0  0  0  0  0  0  0  0  0  0  0
    4.9083   -3.3707   10.2398 C   0  0  0  0  0  0  0  0  0  0  0  0
    5.0397   -3.5304    8.8699 C   0  0  0  0  0  0  0  0  0  0  0  0
    4.2554   -4.3286    8.1054 O   0  0  0  0  0  0  0  0  0  0  0  0
    3.2181   -5.0657    8.7229 C   0  0  0  0  0  0  0  0  0  0  0  0
    2.5148   -5.8679    7.6394 C   0  0  0  0  0  0  0  0  0  0  0  0
    6.0441   -2.8384    8.1885 C   0  0  0  0  0  0  0  0  0  0  0  0
    5.5468   -2.4435   12.2734 O   0  0  0  0  0  0  0  0  0  0  0  0
    6.3818   -1.6196   13.0636 C   0  0  0  0  0  0  0  0  0  0  0  0
    5.9100   -1.7308   14.5048 C   0  0  0  0  0  0  0  0  0  0  0  0
    7.6970   -0.4895    7.0563 C   0  0  0  0  0  0  0  0  0  0  0  0
    6.1350   -0.2860    6.3059 S   0  0  0  0  0  0  0  0  0  0  0  0
    9.8568   -2.0526    9.6654 C   0  0  0  0  0  0  0  0  0  0  0  0
   11.2091   -1.8686    9.8241 C   0  0  0  0  0  0  0  0  0  0  0  0
   11.8310   -0.6544    8.7186 S   0  0  0  0  0  0  0  0  0  0  0  0
   12.0296   -2.4959   10.7941 C   0  0  0  0  0  0  0  0  0  0  0  0
   13.3855   -2.5692   10.8534 C   0  0  0  0  0  0  0  0  0  0  0  0
   14.0429   -2.8556   12.1645 C   0  0  0  0  0  0  0  0  0  0  0  0
   13.5142   -3.2887   13.1614 O   0  0  0  0  0  0  0  0  0  0  0  0
   15.4420   -2.4363   11.9739 C   0  0  0  0  0  0  0  0  0  0  0  0
   16.6108   -2.3436   12.7464 C   0  0  0  0  0  0  0  0  0  0  0  0
   17.6550   -1.8904   11.9891 C   0  0  0  0  0  0  0  0  0  0  0  0
   19.2525   -1.6301   12.5211 Cl  0  0  0  0  0  0  0  0  0  0  0  0
   17.2360   -1.5829   10.3200 S   0  0  0  0  0  0  0  0  0  0  0  0
   15.6210   -2.0540   10.6521 C   0  0  0  0  0  0  0  0  0  0  0  0
   14.4222   -2.2509    9.8814 C   0  0  0  0  0  0  0  0  0  0  0  0
   14.3865   -2.3628    8.5141 C   0  0  0  0  0  0  0  0  0  0  0  0
   15.5067   -2.0194    7.7312 C   0  0  0  0  0  0  0  0  0  0  0  0
   16.4163   -1.7202    7.0983 N   0  0  0  0  0  0  0  0  0  0  0  0
   13.3156   -2.9312    7.7955 C   0  0  0  0  0  0  0  0  0  0  0  0
   12.5108   -3.4769    7.1850 N   0  0  0  0  0  0  0  0  0  0  0  0
  -14.2916   -2.5571   -4.6158 H   0  0  0  0  0  0  0  0  0  0  0  0
  -16.4902    0.6113  -11.8481 H   0  0  0  0  0  0  0  0  0  0  0  0
  -17.0485    2.0421  -10.9323 H   0  0  0  0  0  0  0  0  0  0  0  0
  -15.3397    1.8993  -11.4130 H   0  0  0  0  0  0  0  0  0  0  0  0
  -18.4147    0.1498  -10.5515 H   0  0  0  0  0  0  0  0  0  0  0  0
  -19.8816   -1.2759   -9.2493 H   0  0  0  0  0  0  0  0  0  0  0  0
  -19.1388   -2.3309   -7.1629 H   0  0  0  0  0  0  0  0  0  0  0  0
  -12.1265   -2.6708   -3.6982 H   0  0  0  0  0  0  0  0  0  0  0  0
   -7.7640   -3.5555   -3.0020 H   0  0  0  0  0  0  0  0  0  0  0  0
   -7.6913   -5.9071    0.7323 H   0  0  0  0  0  0  0  0  0  0  0  0
   -8.6077   -6.9776   -0.3630 H   0  0  0  0  0  0  0  0  0  0  0  0
   -6.4405   -8.0167    0.2992 H   0  0  0  0  0  0  0  0  0  0  0  0
   -6.4752   -7.6875   -1.4409 H   0  0  0  0  0  0  0  0  0  0  0  0
   -5.5673   -6.6251   -0.3644 H   0  0  0  0  0  0  0  0  0  0  0  0
   -9.8839   -5.1547    0.3562 H   0  0  0  0  0  0  0  0  0  0  0  0
  -13.6571   -3.1671    0.8275 H   0  0  0  0  0  0  0  0  0  0  0  0
  -13.1975   -2.5221   -0.7581 H   0  0  0  0  0  0  0  0  0  0  0  0
  -13.4350   -0.6889    0.9083 H   0  0  0  0  0  0  0  0  0  0  0  0
  -12.2596   -1.4772    1.9706 H   0  0  0  0  0  0  0  0  0  0  0  0
  -11.7371   -0.8101    0.4249 H   0  0  0  0  0  0  0  0  0  0  0  0
  -11.3864   -1.7188   -1.6719 H   0  0  0  0  0  0  0  0  0  0  0  0
   -9.7541    0.1317   -8.2408 H   0  0  0  0  0  0  0  0  0  0  0  0
   -8.6285    4.0513   -9.4826 H   0  0  0  0  0  0  0  0  0  0  0  0
   -7.4123    6.7234   -7.3261 H   0  0  0  0  0  0  0  0  0  0  0  0
   -7.4269    5.6444   -8.7338 H   0  0  0  0  0  0  0  0  0  0  0  0
   -9.8650    6.9851   -7.4414 H   0  0  0  0  0  0  0  0  0  0  0  0
   -9.1345    7.4369   -8.9889 H   0  0  0  0  0  0  0  0  0  0  0  0
   -9.9587    5.8797   -8.8094 H   0  0  0  0  0  0  0  0  0  0  0  0
   -8.6833    3.0934   -5.3275 H   0  0  0  0  0  0  0  0  0  0  0  0
   -9.9097    3.3225  -11.2765 H   0  0  0  0  0  0  0  0  0  0  0  0
   -8.1963    2.8275  -11.3754 H   0  0  0  0  0  0  0  0  0  0  0  0
   -9.4043    2.3089  -13.4922 H   0  0  0  0  0  0  0  0  0  0  0  0
  -10.5515    1.3019  -12.5911 H   0  0  0  0  0  0  0  0  0  0  0  0
   -8.8573    0.8237  -12.6956 H   0  0  0  0  0  0  0  0  0  0  0  0
   -6.7797    1.6335   -5.4690 H   0  0  0  0  0  0  0  0  0  0  0  0
   -4.0524    4.1686   -5.2146 H   0  0  0  0  0  0  0  0  0  0  0  0
   -4.7575    5.1134   -7.3765 H   0  0  0  0  0  0  0  0  0  0  0  0
   -5.5404    3.6274   -9.1799 H   0  0  0  0  0  0  0  0  0  0  0  0
   -6.5042    1.3933   -9.7192 H   0  0  0  0  0  0  0  0  0  0  0  0
   -6.0621   -0.0120   -8.7492 H   0  0  0  0  0  0  0  0  0  0  0  0
   -3.7151    0.1447   -9.5924 H   0  0  0  0  0  0  0  0  0  0  0  0
   -4.8598   -0.0282  -10.9273 H   0  0  0  0  0  0  0  0  0  0  0  0
   -4.1534    1.5501  -10.5615 H   0  0  0  0  0  0  0  0  0  0  0  0
   -4.8304    0.2394   -6.6918 H   0  0  0  0  0  0  0  0  0  0  0  0
    6.8839    3.6129    5.6327 H   0  0  0  0  0  0  0  0  0  0  0  0
    8.5627    5.3800    6.0114 H   0  0  0  0  0  0  0  0  0  0  0  0
    9.9192    6.2162    4.1437 H   0  0  0  0  0  0  0  0  0  0  0  0
   10.0907    4.6285    0.8589 H   0  0  0  0  0  0  0  0  0  0  0  0
   10.7430    5.9129    1.8863 H   0  0  0  0  0  0  0  0  0  0  0  0
    8.0704    6.0228    0.4007 H   0  0  0  0  0  0  0  0  0  0  0  0
    8.7252    7.3061    1.4162 H   0  0  0  0  0  0  0  0  0  0  0  0
    9.5483    6.8627   -0.0835 H   0  0  0  0  0  0  0  0  0  0  0  0
    7.9636    3.4964    1.5032 H   0  0  0  0  0  0  0  0  0  0  0  0
   -2.1631    0.9785    0.1317 H   0  0  0  0  0  0  0  0  0  0  0  0
   -0.6092    0.8521    0.9540 H   0  0  0  0  0  0  0  0  0  0  0  0
   -1.9079   -1.1757   -0.9556 H   0  0  0  0  0  0  0  0  0  0  0  0
   -1.6580   -1.3896    0.7747 H   0  0  0  0  0  0  0  0  0  0  0  0
   -0.2752   -1.3835   -0.3299 H   0  0  0  0  0  0  0  0  0  0  0  0
    2.4586   -0.3186    2.0505 H   0  0  0  0  0  0  0  0  0  0  0  0
    0.9087   -0.3150    1.2150 H   0  0  0  0  0  0  0  0  0  0  0  0
    3.6298   -0.8613   -0.0698 H   0  0  0  0  0  0  0  0  0  0  0  0
    2.3835   -2.0654    0.2683 H   0  0  0  0  0  0  0  0  0  0  0  0
    2.1025   -0.8122   -0.9514 H   0  0  0  0  0  0  0  0  0  0  0  0
    8.7746    1.5252    4.5840 H   0  0  0  0  0  0  0  0  0  0  0  0
   12.3341   -0.8010    6.0343 H   0  0  0  0  0  0  0  0  0  0  0  0
   16.4209   -0.0767    4.9679 H   0  0  0  0  0  0  0  0  0  0  0  0
   15.8792    1.6068    5.1250 H   0  0  0  0  0  0  0  0  0  0  0  0
   16.6793    1.1572    2.8090 H   0  0  0  0  0  0  0  0  0  0  0  0
   14.9359    1.4633    2.7659 H   0  0  0  0  0  0  0  0  0  0  0  0
   15.5401   -0.1884    2.6608 H   0  0  0  0  0  0  0  0  0  0  0  0
   14.1366    2.7578    4.5515 H   0  0  0  0  0  0  0  0  0  0  0  0
   12.4693    5.9379    4.0239 H   0  0  0  0  0  0  0  0  0  0  0  0
   13.4435    4.5224    3.5905 H   0  0  0  0  0  0  0  0  0  0  0  0
   14.4906    4.6191    5.9121 H   0  0  0  0  0  0  0  0  0  0  0  0
   14.7653    6.1022    4.9854 H   0  0  0  0  0  0  0  0  0  0  0  0
   13.5266    6.0540    6.2486 H   0  0  0  0  0  0  0  0  0  0  0  0
   10.1543    2.9002    6.0782 H   0  0  0  0  0  0  0  0  0  0  0  0
    7.4370   -1.1638   10.7697 H   0  0  0  0  0  0  0  0  0  0  0  0
    4.1501   -3.8791   10.8115 H   0  0  0  0  0  0  0  0  0  0  0  0
    3.6360   -5.7394    9.4836 H   0  0  0  0  0  0  0  0  0  0  0  0
    2.5094   -4.3820    9.2104 H   0  0  0  0  0  0  0  0  0  0  0  0
    3.2202   -6.5411    7.1603 H   0  0  0  0  0  0  0  0  0  0  0  0
    1.7057   -6.4477    8.0742 H   0  0  0  0  0  0  0  0  0  0  0  0
    2.1107   -5.1974    6.8861 H   0  0  0  0  0  0  0  0  0  0  0  0
    6.1443   -2.9910    7.1266 H   0  0  0  0  0  0  0  0  0  0  0  0
    7.4266   -1.9502   12.9804 H   0  0  0  0  0  0  0  0  0  0  0  0
    6.3157   -0.5772   12.7219 H   0  0  0  0  0  0  0  0  0  0  0  0
    6.5300   -1.1102   15.1453 H   0  0  0  0  0  0  0  0  0  0  0  0
    4.8764   -1.4053   14.5826 H   0  0  0  0  0  0  0  0  0  0  0  0
    5.9739   -2.7632   14.8371 H   0  0  0  0  0  0  0  0  0  0  0  0
    9.2950   -2.7610   10.2483 H   0  0  0  0  0  0  0  0  0  0  0  0
   11.5095   -2.9126   11.6515 H   0  0  0  0  0  0  0  0  0  0  0  0
   16.6835   -2.5974   13.7870 H   0  0  0  0  0  0  0  0  0  0  0  0
  1  2  2  0  0  0  0
  2  3  1  0  0  0  0
  3  4  2  0  0  0  0
  3  5  1  0  0  0  0
  5  6  2  0  0  0  0
  6  7  1  0  0  0  0
  7  8  1  0  0  0  0
  6  9  1  0  0  0  0
  9 10  2  0  0  0  0
 10 11  1  0  0  0  0
 11 12  2  0  0  0  0
 12 13  1  0  0  0  0
 13 14  2  0  0  0  0
 14 15  1  0  0  0  0
 15 16  3  0  0  0  0
 14 17  1  0  0  0  0
 17 18  3  0  0  0  0
  1 19  1  0  0  0  0
 19 20  2  0  0  0  0
 20 21  1  0  0  0  0
 21 22  2  0  0  0  0
 22 23  1  0  0  0  0
 23 24  2  0  0  0  0
 24 25  1  0  0  0  0
 25 26  1  0  0  0  0
 26 27  1  0  0  0  0
 27 28  1  0  0  0  0
 25 29  2  0  0  0  0
 29 30  1  0  0  0  0
 30 31  1  0  0  0  0
 31 32  1  0  0  0  0
 32 33  1  0  0  0  0
 30 34  2  0  0  0  0
 22 35  1  0  0  0  0
 35 36  2  0  0  0  0
 36 37  1  0  0  0  0
 37 38  1  0  0  0  0
 38 39  2  0  0  0  0
 39 40  1  0  0  0  0
 40 41  2  0  0  0  0
 41 42  1  0  0  0  0
 42 43  1  0  0  0  0
 43 44  1  0  0  0  0
 44 45  1  0  0  0  0
 42 46  2  0  0  0  0
 40 47  1  0  0  0  0
 47 48  1  0  0  0  0
 48 49  1  0  0  0  0
 37 50  2  0  0  0  0
 50 51  1  0  0  0  0
 36 52  1  0  0  0  0
 52 53  2  0  0  0  0
 53 54  1  0  0  0  0
 53 55  1  0  0  0  0
 55 56  2  0  0  0  0
 56 57  1  0  0  0  0
 57 58  2  0  0  0  0
 58 59  1  0  0  0  0
 59 60  2  0  0  0  0
 60 61  1  0  0  0  0
 61 62  1  0  0  0  0
 62 63  1  0  0  0  0
 61 64  2  0  0  0  0
 56 65  1  0  0  0  0
 65 66  1  0  0  0  0
 66 67  1  0  0  0  0
 67 68  1  0  0  0  0
 68 69  1  0  0  0  0
 69 70  1  0  0  0  0
 70 71  2  0  0  0  0
 71 72  1  0  0  0  0
 72 73  1  0  0  0  0
 70 74  1  0  0  0  0
 74 75  1  0  0  0  0
 75 76  1  0  0  0  0
 76 77  1  0  0  0  0
 77 78  1  0  0  0  0
 78 79  1  0  0  0  0
 79 80  2  0  0  0  0
 80 81  1  0  0  0  0
 81 82  2  0  0  0  0
 82 83  1  0  0  0  0
 83 84  1  0  0  0  0
 84 85  1  0  0  0  0
 83 86  2  0  0  0  0
 78 87  2  0  0  0  0
 87 88  1  0  0  0  0
 88 89  1  0  0  0  0
 89 90  1  0  0  0  0
 90 91  1  0  0  0  0
 91 92  1  0  0  0  0
 92 93  1  0  0  0  0
 93 94  1  0  0  0  0
 94 95  1  0  0  0  0
 95 96  1  0  0  0  0
 96 97  1  0  0  0  0
 94 98  1  0  0  0  0
 98 99  1  0  0  0  0
 91100  1  0  0  0  0
100101  1  0  0  0  0
 87102  1  0  0  0  0
102103  2  0  0  0  0
103104  1  0  0  0  0
104105  2  0  0  0  0
105106  1  0  0  0  0
106107  2  0  0  0  0
107108  1  0  0  0  0
108109  1  0  0  0  0
109110  1  0  0  0  0
110111  1  0  0  0  0
108112  2  0  0  0  0
112113  1  0  0  0  0
113114  1  0  0  0  0
114115  1  0  0  0  0
115116  1  0  0  0  0
113117  2  0  0  0  0
105118  1  0  0  0  0
118119  2  0  0  0  0
119120  1  0  0  0  0
120121  1  0  0  0  0
121122  2  0  0  0  0
122123  1  0  0  0  0
123124  2  0  0  0  0
124125  1  0  0  0  0
125126  1  0  0  0  0
126127  1  0  0  0  0
127128  1  0  0  0  0
125129  2  0  0  0  0
123130  1  0  0  0  0
130131  1  0  0  0  0
131132  1  0  0  0  0
120133  2  0  0  0  0
133134  1  0  0  0  0
119135  1  0  0  0  0
135136  2  0  0  0  0
136137  1  0  0  0  0
136138  1  0  0  0  0
138139  2  0  0  0  0
139140  1  0  0  0  0
140141  2  0  0  0  0
140142  1  0  0  0  0
142143  1  0  0  0  0
143144  2  0  0  0  0
144145  1  0  0  0  0
144146  1  0  0  0  0
146147  1  0  0  0  0
147148  1  0  0  0  0
148149  2  0  0  0  0
149150  1  0  0  0  0
150151  3  0  0  0  0
149152  1  0  0  0  0
152153  3  0  0  0  0
 13  2  1  0  0  0  0
 51 19  1  0  0  0  0
 97 55  1  0  0  0  0
134102  1  0  0  0  0
148139  1  0  0  0  0
 12  5  1  0  0  0  0
 50 21  1  0  0  0  0
 64 57  1  0  0  0  0
 96 65  2  0  0  0  0
133104  1  0  0  0  0
147142  2  0  0  0  0
 34 23  1  0  0  0  0
 54 35  1  0  0  0  0
 95 67  2  0  0  0  0
117106  1  0  0  0  0
137118  1  0  0  0  0
 46 38  1  0  0  0  0
 93 68  2  0  0  0  0
129121  1  0  0  0  0
 73 69  2  0  0  0  0
 92 74  2  0  0  0  0
 90 75  2  0  0  0  0
 89 77  2  0  0  0  0
 86 79  1  0  0  0  0
  1154  1  0  0  0  0
  8155  1  0  0  0  0
  8156  1  0  0  0  0
  8157  1  0  0  0  0
  9158  1  0  0  0  0
 10159  1  0  0  0  0
 11160  1  0  0  0  0
 20161  1  0  0  0  0
 24162  1  0  0  0  0
 27163  1  0  0  0  0
 27164  1  0  0  0  0
 28165  1  0  0  0  0
 28166  1  0  0  0  0
 28167  1  0  0  0  0
 29168  1  0  0  0  0
 32169  1  0  0  0  0
 32170  1  0  0  0  0
 33171  1  0  0  0  0
 33172  1  0  0  0  0
 33173  1  0  0  0  0
 34174  1  0  0  0  0
 39175  1  0  0  0  0
 41176  1  0  0  0  0
 44177  1  0  0  0  0
 44178  1  0  0  0  0
 45179  1  0  0  0  0
 45180  1  0  0  0  0
 45181  1  0  0  0  0
 46182  1  0  0  0  0
 48183  1  0  0  0  0
 48184  1  0  0  0  0
 49185  1  0  0  0  0
 49186  1  0  0  0  0
 49187  1  0  0  0  0
 52188  1  0  0  0  0
 58189  1  0  0  0  0
 59190  1  0  0  0  0
 60191  1  0  0  0  0
 62192  1  0  0  0  0
 62193  1  0  0  0  0
 63194  1  0  0  0  0
 63195  1  0  0  0  0
 63196  1  0  0  0  0
 64197  1  0  0  0  0
 80198  1  0  0  0  0
 81199  1  0  0  0  0
 82200  1  0  0  0  0
 84201  1  0  0  0  0
 84202  1  0  0  0  0
 85203  1  0  0  0  0
 85204  1  0  0  0  0
 85205  1  0  0  0  0
 86206  1  0  0  0  0
 98207  1  0  0  0  0
 98208  1  0  0  0  0
 99209  1  0  0  0  0
 99210  1  0  0  0  0
 99211  1  0  0  0  0
100212  1  0  0  0  0
100213  1  0  0  0  0
101214  1  0  0  0  0
101215  1  0  0  0  0
101216  1  0  0  0  0
103217  1  0  0  0  0
107218  1  0  0  0  0
110219  1  0  0  0  0
110220  1  0  0  0  0
111221  1  0  0  0  0
111222  1  0  0  0  0
111223  1  0  0  0  0
112224  1  0  0  0  0
115225  1  0  0  0  0
115226  1  0  0  0  0
116227  1  0  0  0  0
116228  1  0  0  0  0
116229  1  0  0  0  0
117230  1  0  0  0  0
122231  1  0  0  0  0
124232  1  0  0  0  0
127233  1  0  0  0  0
127234  1  0  0  0  0
128235  1  0  0  0  0
128236  1  0  0  0  0
128237  1  0  0  0  0
129238  1  0  0  0  0
131239  1  0  0  0  0
131240  1  0  0  0  0
132241  1  0  0  0  0
132242  1  0  0  0  0
132243  1  0  0  0  0
135244  1  0  0  0  0
138245  1  0  0  0  0
143246  1  0  0  0  0
M  END
