
  xtb     02192203063D
 energy: -344.382955068888 gnorm: 0.000518171943 xtb: 6.4.1 (unknown)
203229  0     0  0            999 V2000
   -7.9357    3.6664    8.4633 C   0  0  0  0  0  0  0  0  0  0  0  0
   -8.5715    4.7646    7.9790 C   0  0  0  0  0  0  0  0  0  0  0  0
   -8.9971    5.8673    8.8827 C   0  0  0  0  0  0  0  0  0  0  0  0
   -9.1305    5.8151   10.0840 O   0  0  0  0  0  0  0  0  0  0  0  0
   -9.1466    7.0444    8.0016 C   0  0  0  0  0  0  0  0  0  0  0  0
   -9.3753    8.3644    8.3870 C   0  0  0  0  0  0  0  0  0  0  0  0
   -9.4355    9.2521    7.3395 C   0  0  0  0  0  0  0  0  0  0  0  0
   -9.2910    8.8608    6.0011 C   0  0  0  0  0  0  0  0  0  0  0  0
   -9.0768    7.5633    5.6028 C   0  0  0  0  0  0  0  0  0  0  0  0
   -8.9994    6.6473    6.6552 C   0  0  0  0  0  0  0  0  0  0  0  0
   -8.7986    5.2039    6.6176 C   0  0  0  0  0  0  0  0  0  0  0  0
   -9.0345    4.3835    5.5457 C   0  0  0  0  0  0  0  0  0  0  0  0
   -9.1137    2.9795    5.6666 C   0  0  0  0  0  0  0  0  0  0  0  0
   -9.2435    1.8419    5.7501 N   0  0  0  0  0  0  0  0  0  0  0  0
   -9.2916    4.8400    4.2391 C   0  0  0  0  0  0  0  0  0  0  0  0
   -9.4717    5.1616    3.1516 N   0  0  0  0  0  0  0  0  0  0  0  0
   -9.4462   10.2701    5.4872 C   0  0  0  0  0  0  0  0  0  0  0  0
   -8.1512   10.9893    5.0540 C   0  0  0  0  0  0  0  0  0  0  0  0
   -8.5280   12.4532    5.0667 C   0  0  0  0  0  0  0  0  0  0  0  0
   -8.6617   12.8242    6.3336 C   0  0  0  0  0  0  0  0  0  0  0  0
   -8.3770   11.6175    7.1985 C   0  0  0  0  0  0  0  0  0  0  0  0
   -7.3143   10.9214    6.3381 C   0  0  0  0  0  0  0  0  0  0  0  0
   -9.6048   10.7077    6.9786 C   0  0  0  0  0  0  0  0  0  0  0  0
   -7.0762    2.7930    7.7457 C   0  0  0  0  0  0  0  0  0  0  0  0
   -6.7004    1.5223    8.0923 C   0  0  0  0  0  0  0  0  0  0  0  0
   -5.7956    0.9236    7.1889 C   0  0  0  0  0  0  0  0  0  0  0  0
   -5.2621   -0.3844    7.2200 C   0  0  0  0  0  0  0  0  0  0  0  0
   -5.7074   -1.3676    8.1792 C   0  0  0  0  0  0  0  0  0  0  0  0
   -6.9807   -1.5914    8.6317 C   0  0  0  0  0  0  0  0  0  0  0  0
   -7.0853   -2.6734    9.5217 C   0  0  0  0  0  0  0  0  0  0  0  0
   -5.8812   -3.2734    9.7632 C   0  0  0  0  0  0  0  0  0  0  0  0
   -5.4810   -4.6571   10.7502 S   0  0  0  0  0  0  0  0  0  0  0  0
   -6.8656   -4.6892   11.9459 C   0  0  0  0  0  0  0  0  0  0  0  0
   -6.8512   -3.4889   12.8711 C   0  0  0  0  0  0  0  0  0  0  0  0
   -4.5940   -2.5129    8.8862 S   0  0  0  0  0  0  0  0  0  0  0  0
   -4.3030   -0.6785    6.2569 C   0  0  0  0  0  0  0  0  0  0  0  0
   -3.9011    0.2239    5.2428 C   0  0  0  0  0  0  0  0  0  0  0  0
   -4.5026    1.4979    5.1541 C   0  0  0  0  0  0  0  0  0  0  0  0
   -4.2299    2.3930    4.0536 C   0  0  0  0  0  0  0  0  0  0  0  0
   -4.0598    2.0903    2.7290 C   0  0  0  0  0  0  0  0  0  0  0  0
   -3.9152    3.2175    1.9036 C   0  0  0  0  0  0  0  0  0  0  0  0
   -3.9671    4.3938    2.5970 C   0  0  0  0  0  0  0  0  0  0  0  0
   -3.7842    5.9863    1.9105 S   0  0  0  0  0  0  0  0  0  0  0  0
   -4.4939    7.0487    3.2190 C   0  0  0  0  0  0  0  0  0  0  0  0
   -5.9978    6.9036    3.3414 C   0  0  0  0  0  0  0  0  0  0  0  0
   -4.1755    4.1181    4.2989 S   0  0  0  0  0  0  0  0  0  0  0  0
   -5.4078    1.8175    6.1591 C   0  0  0  0  0  0  0  0  0  0  0  0
   -6.2426    3.3353    6.2988 S   0  0  0  0  0  0  0  0  0  0  0  0
   -2.8843   -0.3223    4.4284 C   0  0  0  0  0  0  0  0  0  0  0  0
   -2.5313   -1.6001    4.7684 C   0  0  0  0  0  0  0  0  0  0  0  0
   -3.4635   -2.1984    6.1217 S   0  0  0  0  0  0  0  0  0  0  0  0
   -1.5656   -2.4191    4.1213 C   0  0  0  0  0  0  0  0  0  0  0  0
   -1.1365   -3.6903    4.4509 C   0  0  0  0  0  0  0  0  0  0  0  0
   -1.5339   -4.4195    5.6630 C   0  0  0  0  0  0  0  0  0  0  0  0
   -1.1899   -3.9295    6.9198 C   0  0  0  0  0  0  0  0  0  0  0  0
   -1.5919   -4.6078    8.0543 C   0  0  0  0  0  0  0  0  0  0  0  0
   -2.3269   -5.7747    7.9440 C   0  0  0  0  0  0  0  0  0  0  0  0
   -2.6524   -6.2911    6.6965 C   0  0  0  0  0  0  0  0  0  0  0  0
   -3.3860   -7.5949    6.5733 C   0  0  0  0  0  0  0  0  0  0  0  0
   -2.3896   -8.7523    6.4797 C   0  0  0  0  0  0  0  0  0  0  0  0
   -2.2448   -5.6074    5.5601 C   0  0  0  0  0  0  0  0  0  0  0  0
   -0.2430   -4.1969    3.4900 C   0  0  0  0  0  0  0  0  0  0  0  0
    0.6092   -5.7161    3.3576 S   0  0  0  0  0  0  0  0  0  0  0  0
    1.3477   -5.1439    1.8985 C   0  0  0  0  0  0  0  0  0  0  0  0
    2.2384   -5.5884    0.9079 C   0  0  0  0  0  0  0  0  0  0  0  0
    2.8446   -6.8465    0.7006 C   0  0  0  0  0  0  0  0  0  0  0  0
    3.6319   -7.0514   -0.4817 C   0  0  0  0  0  0  0  0  0  0  0  0
    4.0932   -8.2887   -0.5742 N   0  0  0  0  0  0  0  0  0  0  0  0
    3.5844   -9.1232    0.7173 S   0  0  0  0  0  0  0  0  0  0  0  0
    2.7547   -7.9378    1.4444 N   0  0  0  0  0  0  0  0  0  0  0  0
    3.8690   -5.9573   -1.3420 C   0  0  0  0  0  0  0  0  0  0  0  0
    4.6900   -5.8337   -2.4741 C   0  0  0  0  0  0  0  0  0  0  0  0
    5.7089   -6.8116   -3.4761 S   0  0  0  0  0  0  0  0  0  0  0  0
    6.1276   -5.3886   -4.4029 C   0  0  0  0  0  0  0  0  0  0  0  0
    6.9429   -5.1962   -5.5370 C   0  0  0  0  0  0  0  0  0  0  0  0
    7.5524   -6.3046   -6.2683 C   0  0  0  0  0  0  0  0  0  0  0  0
    7.4497   -6.3817   -7.6552 C   0  0  0  0  0  0  0  0  0  0  0  0
    8.0015   -7.4543   -8.3269 C   0  0  0  0  0  0  0  0  0  0  0  0
    8.6491   -8.4596   -7.6286 C   0  0  0  0  0  0  0  0  0  0  0  0
    8.7487   -8.4049   -6.2447 C   0  0  0  0  0  0  0  0  0  0  0  0
    9.3920   -9.5181   -5.4685 C   0  0  0  0  0  0  0  0  0  0  0  0
    8.3256  -10.4932   -4.9653 C   0  0  0  0  0  0  0  0  0  0  0  0
    8.1936   -7.3247   -5.5757 C   0  0  0  0  0  0  0  0  0  0  0  0
    6.9718   -3.8619   -5.9095 C   0  0  0  0  0  0  0  0  0  0  0  0
    5.9376   -2.8586   -4.9002 S   0  0  0  0  0  0  0  0  0  0  0  0
    5.4994   -4.2294   -3.9441 C   0  0  0  0  0  0  0  0  0  0  0  0
    4.6683   -4.4880   -2.8464 C   0  0  0  0  0  0  0  0  0  0  0  0
    3.8389   -3.7830   -2.0174 N   0  0  0  0  0  0  0  0  0  0  0  0
    3.3229   -4.6677   -1.0842 C   0  0  0  0  0  0  0  0  0  0  0  0
    2.4038   -4.5152   -0.0126 C   0  0  0  0  0  0  0  0  0  0  0  0
    1.5937   -3.4656    0.3923 N   0  0  0  0  0  0  0  0  0  0  0  0
    0.9576   -3.8511    1.5415 C   0  0  0  0  0  0  0  0  0  0  0  0
    0.0369   -3.3110    2.4473 C   0  0  0  0  0  0  0  0  0  0  0  0
   -0.8366   -1.8311    2.6303 S   0  0  0  0  0  0  0  0  0  0  0  0
    1.0776   -2.3467   -0.3650 C   0  0  0  0  0  0  0  0  0  0  0  0
    0.4060   -2.8050   -1.6568 C   0  0  0  0  0  0  0  0  0  0  0  0
    3.9169   -2.3398   -1.9905 C   0  0  0  0  0  0  0  0  0  0  0  0
    4.5728   -1.8373   -0.7070 C   0  0  0  0  0  0  0  0  0  0  0  0
    7.7115   -3.1936   -6.9235 C   0  0  0  0  0  0  0  0  0  0  0  0
    7.0788   -1.7372   -7.6132 S   0  0  0  0  0  0  0  0  0  0  0  0
    8.4734   -1.5795   -8.6389 C   0  0  0  0  0  0  0  0  0  0  0  0
    9.3699   -2.6566   -8.4494 C   0  0  0  0  0  0  0  0  0  0  0  0
    8.9536   -3.5539   -7.4554 C   0  0  0  0  0  0  0  0  0  0  0  0
    9.5550   -4.6810   -6.9816 O   0  0  0  0  0  0  0  0  0  0  0  0
   10.9584   -4.7935   -7.0020 C   0  0  0  0  0  0  0  0  0  0  0  0
   11.5708   -4.7090   -8.3971 C   0  0  0  0  0  0  0  0  0  0  0  0
   11.6629   -3.2650   -8.8783 C   0  0  0  0  0  0  0  0  0  0  0  0
   10.4331   -2.7084   -9.2884 O   0  0  0  0  0  0  0  0  0  0  0  0
    8.7626   -0.5511   -9.5383 C   0  0  0  0  0  0  0  0  0  0  0  0
    8.0413    0.5757   -9.8478 C   0  0  0  0  0  0  0  0  0  0  0  0
    6.7181    0.9049   -9.3192 C   0  0  0  0  0  0  0  0  0  0  0  0
    6.0689    0.2767   -8.4976 O   0  0  0  0  0  0  0  0  0  0  0  0
    6.3078    2.1570   -9.9782 C   0  0  0  0  0  0  0  0  0  0  0  0
    5.1114    2.8475   -9.7993 C   0  0  0  0  0  0  0  0  0  0  0  0
    5.0099    3.9931  -10.5517 C   0  0  0  0  0  0  0  0  0  0  0  0
    6.0218    4.4171  -11.4223 C   0  0  0  0  0  0  0  0  0  0  0  0
    7.2055    3.7428  -11.6104 C   0  0  0  0  0  0  0  0  0  0  0  0
    7.3330    2.5772  -10.8494 C   0  0  0  0  0  0  0  0  0  0  0  0
    8.4363    1.6182  -10.7686 C   0  0  0  0  0  0  0  0  0  0  0  0
    9.6344    1.7299  -11.4295 C   0  0  0  0  0  0  0  0  0  0  0  0
    9.9627    2.7761  -12.3156 C   0  0  0  0  0  0  0  0  0  0  0  0
   10.3020    3.5940  -13.0473 N   0  0  0  0  0  0  0  0  0  0  0  0
   10.7265    0.8449  -11.3147 C   0  0  0  0  0  0  0  0  0  0  0  0
   11.6744    0.1960  -11.2736 N   0  0  0  0  0  0  0  0  0  0  0  0
    5.2543    5.6452  -11.8453 C   0  0  0  0  0  0  0  0  0  0  0  0
    5.7023    6.9847  -11.2232 C   0  0  0  0  0  0  0  0  0  0  0  0
    4.5118    7.8939  -11.4262 C   0  0  0  0  0  0  0  0  0  0  0  0
    3.5527    7.4929  -10.6016 C   0  0  0  0  0  0  0  0  0  0  0  0
    4.0789    6.3059   -9.8274 C   0  0  0  0  0  0  0  0  0  0  0  0
    5.5594    6.6944   -9.7235 C   0  0  0  0  0  0  0  0  0  0  0  0
    4.1255    5.1724  -10.8739 C   0  0  0  0  0  0  0  0  0  0  0  0
   -8.0179    3.4922    9.5311 H   0  0  0  0  0  0  0  0  0  0  0  0
   -9.4909    8.6268    9.4270 H   0  0  0  0  0  0  0  0  0  0  0  0
   -8.9663    7.2678    4.5724 H   0  0  0  0  0  0  0  0  0  0  0  0
  -10.2760   10.4375    4.8034 H   0  0  0  0  0  0  0  0  0  0  0  0
   -7.7023   10.6077    4.1407 H   0  0  0  0  0  0  0  0  0  0  0  0
   -8.7077   13.0339    4.1811 H   0  0  0  0  0  0  0  0  0  0  0  0
   -8.9752   13.7771    6.7177 H   0  0  0  0  0  0  0  0  0  0  0  0
   -8.1319   11.8087    8.2398 H   0  0  0  0  0  0  0  0  0  0  0  0
   -6.3983   11.5053    6.2641 H   0  0  0  0  0  0  0  0  0  0  0  0
   -7.0757    9.9094    6.6608 H   0  0  0  0  0  0  0  0  0  0  0  0
  -10.5392   11.1711    7.2892 H   0  0  0  0  0  0  0  0  0  0  0  0
   -7.0764    1.0309    8.9712 H   0  0  0  0  0  0  0  0  0  0  0  0
   -7.8329   -1.0341    8.2860 H   0  0  0  0  0  0  0  0  0  0  0  0
   -8.0188   -2.9956    9.9455 H   0  0  0  0  0  0  0  0  0  0  0  0
   -7.7950   -4.7665   11.3839 H   0  0  0  0  0  0  0  0  0  0  0  0
   -6.7104   -5.6145   12.4999 H   0  0  0  0  0  0  0  0  0  0  0  0
   -6.9672   -2.5655   12.3077 H   0  0  0  0  0  0  0  0  0  0  0  0
   -7.6678   -3.5648   13.5862 H   0  0  0  0  0  0  0  0  0  0  0  0
   -5.9120   -3.4442   13.4173 H   0  0  0  0  0  0  0  0  0  0  0  0
   -4.1025    1.0857    2.3486 H   0  0  0  0  0  0  0  0  0  0  0  0
   -3.7972    3.1745    0.8366 H   0  0  0  0  0  0  0  0  0  0  0  0
   -3.9857    6.8015    4.1512 H   0  0  0  0  0  0  0  0  0  0  0  0
   -4.2189    8.0590    2.9168 H   0  0  0  0  0  0  0  0  0  0  0  0
   -6.4830    7.1259    2.3940 H   0  0  0  0  0  0  0  0  0  0  0  0
   -6.2690    5.8926    3.6377 H   0  0  0  0  0  0  0  0  0  0  0  0
   -6.3677    7.5933    4.0980 H   0  0  0  0  0  0  0  0  0  0  0  0
   -2.4003    0.2190    3.6353 H   0  0  0  0  0  0  0  0  0  0  0  0
   -0.6158   -3.0178    6.9996 H   0  0  0  0  0  0  0  0  0  0  0  0
   -1.3370   -4.2213    9.0297 H   0  0  0  0  0  0  0  0  0  0  0  0
   -2.6534   -6.2890    8.8362 H   0  0  0  0  0  0  0  0  0  0  0  0
   -4.0300   -7.7402    7.4428 H   0  0  0  0  0  0  0  0  0  0  0  0
   -4.0128   -7.5861    5.6794 H   0  0  0  0  0  0  0  0  0  0  0  0
   -1.7416   -8.6242    5.6155 H   0  0  0  0  0  0  0  0  0  0  0  0
   -2.9139   -9.7004    6.3850 H   0  0  0  0  0  0  0  0  0  0  0  0
   -1.7667   -8.7866    7.3707 H   0  0  0  0  0  0  0  0  0  0  0  0
   -2.4983   -5.9904    4.5816 H   0  0  0  0  0  0  0  0  0  0  0  0
    6.9314   -5.6046   -8.1972 H   0  0  0  0  0  0  0  0  0  0  0  0
    7.9237   -7.5111   -9.4032 H   0  0  0  0  0  0  0  0  0  0  0  0
    9.0784   -9.2955   -8.1627 H   0  0  0  0  0  0  0  0  0  0  0  0
    9.9342   -9.1085   -4.6136 H   0  0  0  0  0  0  0  0  0  0  0  0
   10.1031  -10.0529   -6.1014 H   0  0  0  0  0  0  0  0  0  0  0  0
    7.6127   -9.9766   -4.3268 H   0  0  0  0  0  0  0  0  0  0  0  0
    7.7833  -10.9243   -5.8038 H   0  0  0  0  0  0  0  0  0  0  0  0
    8.7840  -11.2987   -4.3965 H   0  0  0  0  0  0  0  0  0  0  0  0
    8.2786   -7.2650   -4.5003 H   0  0  0  0  0  0  0  0  0  0  0  0
    1.8629   -1.6150   -0.5584 H   0  0  0  0  0  0  0  0  0  0  0  0
    0.3361   -1.8584    0.2723 H   0  0  0  0  0  0  0  0  0  0  0  0
    1.1017   -3.3460   -2.2937 H   0  0  0  0  0  0  0  0  0  0  0  0
    0.0258   -1.9451   -2.2016 H   0  0  0  0  0  0  0  0  0  0  0  0
   -0.4268   -3.4658   -1.4272 H   0  0  0  0  0  0  0  0  0  0  0  0
    4.5302   -2.0475   -2.8465 H   0  0  0  0  0  0  0  0  0  0  0  0
    2.9313   -1.8973   -2.1382 H   0  0  0  0  0  0  0  0  0  0  0  0
    4.6118   -0.7514   -0.7119 H   0  0  0  0  0  0  0  0  0  0  0  0
    4.0244   -2.1667    0.1724 H   0  0  0  0  0  0  0  0  0  0  0  0
    5.5882   -2.2201   -0.6359 H   0  0  0  0  0  0  0  0  0  0  0  0
   11.4092   -4.0267   -6.3527 H   0  0  0  0  0  0  0  0  0  0  0  0
   11.1396   -5.7781   -6.5637 H   0  0  0  0  0  0  0  0  0  0  0  0
   10.9651   -5.2939   -9.0924 H   0  0  0  0  0  0  0  0  0  0  0  0
   12.5750   -5.1317   -8.3685 H   0  0  0  0  0  0  0  0  0  0  0  0
   12.2868   -3.1923   -9.7720 H   0  0  0  0  0  0  0  0  0  0  0  0
   12.1063   -2.6398   -8.0886 H   0  0  0  0  0  0  0  0  0  0  0  0
    9.7074   -0.6964  -10.0474 H   0  0  0  0  0  0  0  0  0  0  0  0
    4.3569    2.4808   -9.1211 H   0  0  0  0  0  0  0  0  0  0  0  0
    7.9700    4.0814  -12.2891 H   0  0  0  0  0  0  0  0  0  0  0  0
    5.0292    5.7232  -12.9072 H   0  0  0  0  0  0  0  0  0  0  0  0
    6.6635    7.3503  -11.5738 H   0  0  0  0  0  0  0  0  0  0  0  0
    4.4714    8.6737  -12.1639 H   0  0  0  0  0  0  0  0  0  0  0  0
    2.5509    7.8708  -10.5130 H   0  0  0  0  0  0  0  0  0  0  0  0
    3.5607    6.0544   -8.9058 H   0  0  0  0  0  0  0  0  0  0  0  0
    6.2036    5.8947   -9.3630 H   0  0  0  0  0  0  0  0  0  0  0  0
    5.7096    7.5852   -9.1157 H   0  0  0  0  0  0  0  0  0  0  0  0
    3.1475    4.9348  -11.2885 H   0  0  0  0  0  0  0  0  0  0  0  0
  1  2  2  0  0  0  0
  2  3  1  0  0  0  0
  3  4  2  0  0  0  0
  3  5  1  0  0  0  0
  5  6  2  0  0  0  0
  6  7  1  0  0  0  0
  7  8  2  0  0  0  0
  8  9  1  0  0  0  0
  9 10  2  0  0  0  0
 10 11  1  0  0  0  0
 11 12  2  0  0  0  0
 12 13  1  0  0  0  0
 13 14  3  0  0  0  0
 12 15  1  0  0  0  0
 15 16  3  0  0  0  0
  8 17  1  0  0  0  0
 17 18  1  0  0  0  0
 18 19  1  0  0  0  0
 19 20  2  0  0  0  0
 20 21  1  0  0  0  0
 21 22  1  0  0  0  0
 21 23  1  0  0  0  0
  1 24  1  0  0  0  0
 24 25  2  0  0  0  0
 25 26  1  0  0  0  0
 26 27  2  0  0  0  0
 27 28  1  0  0  0  0
 28 29  2  0  0  0  0
 29 30  1  0  0  0  0
 30 31  2  0  0  0  0
 31 32  1  0  0  0  0
 32 33  1  0  0  0  0
 33 34  1  0  0  0  0
 31 35  1  0  0  0  0
 27 36  1  0  0  0  0
 36 37  2  0  0  0  0
 37 38  1  0  0  0  0
 38 39  1  0  0  0  0
 39 40  2  0  0  0  0
 40 41  1  0  0  0  0
 41 42  2  0  0  0  0
 42 43  1  0  0  0  0
 43 44  1  0  0  0  0
 44 45  1  0  0  0  0
 42 46  1  0  0  0  0
 38 47  2  0  0  0  0
 47 48  1  0  0  0  0
 37 49  1  0  0  0  0
 49 50  2  0  0  0  0
 50 51  1  0  0  0  0
 50 52  1  0  0  0  0
 52 53  2  0  0  0  0
 53 54  1  0  0  0  0
 54 55  2  0  0  0  0
 55 56  1  0  0  0  0
 56 57  2  0  0  0  0
 57 58  1  0  0  0  0
 58 59  1  0  0  0  0
 59 60  1  0  0  0  0
 58 61  2  0  0  0  0
 53 62  1  0  0  0  0
 62 63  1  0  0  0  0
 63 64  1  0  0  0  0
 64 65  1  0  0  0  0
 65 66  1  0  0  0  0
 66 67  1  0  0  0  0
 67 68  2  0  0  0  0
 68 69  1  0  0  0  0
 69 70  1  0  0  0  0
 67 71  1  0  0  0  0
 71 72  1  0  0  0  0
 72 73  1  0  0  0  0
 73 74  1  0  0  0  0
 74 75  1  0  0  0  0
 75 76  1  0  0  0  0
 76 77  2  0  0  0  0
 77 78  1  0  0  0  0
 78 79  2  0  0  0  0
 79 80  1  0  0  0  0
 80 81  1  0  0  0  0
 81 82  1  0  0  0  0
 80 83  2  0  0  0  0
 75 84  2  0  0  0  0
 84 85  1  0  0  0  0
 85 86  1  0  0  0  0
 86 87  1  0  0  0  0
 87 88  1  0  0  0  0
 88 89  1  0  0  0  0
 89 90  1  0  0  0  0
 90 91  1  0  0  0  0
 91 92  1  0  0  0  0
 92 93  1  0  0  0  0
 93 94  1  0  0  0  0
 91 95  1  0  0  0  0
 95 96  1  0  0  0  0
 88 97  1  0  0  0  0
 97 98  1  0  0  0  0
 84 99  1  0  0  0  0
 99100  1  0  0  0  0
100101  1  0  0  0  0
101102  2  0  0  0  0
102103  1  0  0  0  0
103104  1  0  0  0  0
104105  1  0  0  0  0
105106  1  0  0  0  0
106107  1  0  0  0  0
107108  1  0  0  0  0
101109  1  0  0  0  0
109110  2  0  0  0  0
110111  1  0  0  0  0
111112  2  0  0  0  0
111113  1  0  0  0  0
113114  2  0  0  0  0
114115  1  0  0  0  0
115116  2  0  0  0  0
116117  1  0  0  0  0
117118  2  0  0  0  0
118119  1  0  0  0  0
119120  2  0  0  0  0
120121  1  0  0  0  0
121122  3  0  0  0  0
120123  1  0  0  0  0
123124  3  0  0  0  0
116125  1  0  0  0  0
125126  1  0  0  0  0
126127  1  0  0  0  0
127128  2  0  0  0  0
128129  1  0  0  0  0
129130  1  0  0  0  0
129131  1  0  0  0  0
 11  2  1  0  0  0  0
 23 17  1  0  0  0  0
 48 24  1  0  0  0  0
 94 52  1  0  0  0  0
103 99  2  0  0  0  0
119110  1  0  0  0  0
131125  1  0  0  0  0
 10  5  1  0  0  0  0
 22 18  1  0  0  0  0
 47 26  1  0  0  0  0
 61 54  1  0  0  0  0
 93 62  2  0  0  0  0
108102  1  0  0  0  0
118113  1  0  0  0  0
130126  1  0  0  0  0
 23  7  1  0  0  0  0
 35 28  1  0  0  0  0
 51 36  1  0  0  0  0
 92 64  2  0  0  0  0
131115  1  0  0  0  0
 46 39  1  0  0  0  0
 90 65  2  0  0  0  0
 70 66  2  0  0  0  0
 89 71  2  0  0  0  0
 87 72  2  0  0  0  0
 86 74  2  0  0  0  0
 83 76  1  0  0  0  0
  1132  1  0  0  0  0
  6133  1  0  0  0  0
  9134  1  0  0  0  0
 17135  1  0  0  0  0
 18136  1  0  0  0  0
 19137  1  0  0  0  0
 20138  1  0  0  0  0
 21139  1  0  0  0  0
 22140  1  0  0  0  0
 22141  1  0  0  0  0
 23142  1  0  0  0  0
 25143  1  0  0  0  0
 29144  1  0  0  0  0
 30145  1  0  0  0  0
 33146  1  0  0  0  0
 33147  1  0  0  0  0
 34148  1  0  0  0  0
 34149  1  0  0  0  0
 34150  1  0  0  0  0
 40151  1  0  0  0  0
 41152  1  0  0  0  0
 44153  1  0  0  0  0
 44154  1  0  0  0  0
 45155  1  0  0  0  0
 45156  1  0  0  0  0
 45157  1  0  0  0  0
 49158  1  0  0  0  0
 55159  1  0  0  0  0
 56160  1  0  0  0  0
 57161  1  0  0  0  0
 59162  1  0  0  0  0
 59163  1  0  0  0  0
 60164  1  0  0  0  0
 60165  1  0  0  0  0
 60166  1  0  0  0  0
 61167  1  0  0  0  0
 77168  1  0  0  0  0
 78169  1  0  0  0  0
 79170  1  0  0  0  0
 81171  1  0  0  0  0
 81172  1  0  0  0  0
 82173  1  0  0  0  0
 82174  1  0  0  0  0
 82175  1  0  0  0  0
 83176  1  0  0  0  0
 95177  1  0  0  0  0
 95178  1  0  0  0  0
 96179  1  0  0  0  0
 96180  1  0  0  0  0
 96181  1  0  0  0  0
 97182  1  0  0  0  0
 97183  1  0  0  0  0
 98184  1  0  0  0  0
 98185  1  0  0  0  0
 98186  1  0  0  0  0
105187  1  0  0  0  0
105188  1  0  0  0  0
106189  1  0  0  0  0
106190  1  0  0  0  0
107191  1  0  0  0  0
107192  1  0  0  0  0
109193  1  0  0  0  0
114194  1  0  0  0  0
117195  1  0  0  0  0
125196  1  0  0  0  0
126197  1  0  0  0  0
127198  1  0  0  0  0
128199  1  0  0  0  0
129200  1  0  0  0  0
130201  1  0  0  0  0
130202  1  0  0  0  0
131203  1  0  0  0  0
M  END
