183

C         -9.83770       -4.81300       -6.40470
C        -10.49470       -3.62390       -6.54150
C        -10.32930       -2.45390       -5.64450
O         -9.61930       -2.35640       -4.66480
C        -11.33170       -1.46600       -6.08940
C        -11.53760       -0.19350       -5.56260
C        -12.55500        0.50540       -6.16610
C        -13.32160       -0.02670       -7.21130
C        -13.13260       -1.28250       -7.73710
C        -12.09670       -2.00790       -7.14110
C        -11.59360       -3.34610       -7.44120
C        -12.02750       -4.15600       -8.46000
C        -13.09870       -3.85050       -9.32370
N        -13.96660       -3.67270      -10.05490
C        -11.45160       -5.39500       -8.81120
N        -11.02770       -6.39400       -9.18780
C        -14.17270        1.21330       -7.32500
C        -15.59570        1.17140       -6.71540
C        -15.55670        0.15280       -5.60350
C        -14.82960        0.65850       -4.61620
C        -14.36340        2.02840       -5.04320
C        -15.56480        2.47020       -5.89390
C        -13.31630        1.80780       -6.16280
C         -8.62140       -5.00610       -5.70000
C         -7.59740       -4.04200       -5.59710
C         -6.38390       -4.28280       -4.84880
N         -5.55630       -3.23540       -4.89540
S         -6.22020       -2.09030       -5.80200
N         -7.57180       -2.84900       -6.19380
C         -6.09290       -5.51140       -4.21600
C         -7.11530       -6.47950       -4.32530
N         -7.13050       -7.68020       -3.74240
S         -8.48700       -8.43590       -4.12490
N         -9.15460       -7.28740       -5.02510
C         -8.32980       -6.23860       -5.07640
C         -4.87520       -5.69980       -3.50950
C         -4.18310       -6.87670       -3.22830
C         -4.47160       -8.17870       -3.82520
C         -4.42860       -9.33690       -3.05590
C         -4.70810      -10.55860       -3.63810
C         -5.02560      -10.63760       -4.98250
C         -5.04520       -9.49410       -5.77230
C         -5.43030       -9.56040       -7.22290
C         -6.91170       -9.21860       -7.39800
C         -4.75700       -8.27330       -5.18460
C         -3.08160       -6.62650       -2.39720
S         -1.84060       -7.66170       -1.72360
C         -1.10660       -6.27180       -0.99720
C          0.01650       -5.93670       -0.22560
C          1.12590       -6.70360        0.19710
C          2.22710       -6.04120        0.83840
N          3.22330       -6.86830        1.11230
S          2.81050       -8.35290        0.61540
N          1.34470       -7.99760        0.02710
C          2.11110       -4.66880        1.15400
C          2.93620       -3.80850        1.89300
S          4.47710       -3.82250        2.68430
C          4.17790       -2.18350        3.22520
C          4.92460       -1.29300        4.00030
C          6.20060       -1.66740        4.61620
C          6.36700       -1.56910        5.99680
C          7.55250       -1.97590        6.57610
C          8.57400       -2.48260        5.79100
C          8.41810       -2.60260        4.41610
C          9.53880       -3.11370        3.55830
C         10.42810       -1.95410        3.10490
C          7.22410       -2.19590        3.83920
C          4.25860       -0.07550        4.17390
S          2.65510       -0.09330        3.45240
C          2.94250       -1.67020        2.81180
C          2.24040       -2.60250        2.04110
N          1.03310       -2.67730        1.40050
C          0.93920       -3.92750        0.82220
C         -0.04840       -4.53250        0.00640
N         -1.16110       -4.02540       -0.64670
C         -1.78990       -5.07840       -1.25890
C         -2.91140       -5.27450       -2.06730
S         -4.10710       -4.28130       -2.81740
C         -1.37450       -2.69480       -1.17610
C         -0.32130       -2.35100       -2.22700
C         -0.00530       -1.71890        1.70610
C          0.18010       -0.40040        0.95680
C          4.83850        1.11090        4.68950
S          6.57780        1.20810        4.77850
C          6.52890        2.86150        5.33160
C          5.22510        3.28040        5.50640
C          4.86350        4.51820        6.22970
O          5.62330        5.07850        6.99650
C          3.47180        4.91060        6.01120
C          2.94440        6.13990        6.30030
C          3.64810        7.36100        6.76870
C          4.03380        8.23060        5.56850
S          1.25970        6.19630        5.89700
C          1.25470        4.55080        5.36650
C         -0.01080        3.92250        4.90650
C         -0.66680        3.12930        6.04070
C          2.50650        3.99540        5.48010
C          2.84150        2.63400        5.07380
O          1.98710        1.83800        4.69360
C          4.26450        2.32380        5.09500
C          7.75250        3.55460        5.51490
C          7.96310        4.88270        5.30330
C          7.04690        5.80430        4.58490
O          5.90590        5.60290        4.21660
C          7.82690        7.02760        4.33620
C          7.40310        8.15830        3.63970
C          8.33720        9.16330        3.58020
C          9.60640        9.05200        4.16470
C         10.03910        7.94230        4.85070
C          9.10210        6.90750        4.92530
C          9.20050        5.59670        5.55910
C         10.24810        5.15060        6.32000
C         11.42310        5.88970        6.57250
N         12.40720        6.43020        6.81230
C         10.30490        3.90220        6.97660
N         10.43710        2.91260        7.54380
C         10.02640       10.42490        3.70380
C         10.97300       10.51760        2.48140
C         10.73160        9.27840        1.65560
C          9.52990        9.38640        1.10470
C          8.93660       10.70060        1.54860
C         10.21080       11.55520        1.64160
C          8.61150       10.55050        3.05560
H        -10.26770       -5.71390       -6.82450
H        -10.92550        0.17670       -4.75500
H        -13.73340       -1.67920       -8.53850
H        -14.14920        1.72130       -8.28710
H        -16.39500        1.05740       -7.44280
H        -15.99900       -0.82380       -5.67050
H        -14.54270        0.18850       -3.69380
H        -14.04100        2.69560       -4.24780
H        -15.36880        3.35830       -6.49350
H        -16.46800        2.61700       -5.30340
H        -12.73250        2.70340       -6.36750
H         -4.20260       -9.27300       -2.00270
H         -4.68390      -11.45580       -3.03750
H         -5.25370      -11.59550       -5.42750
H         -4.82920       -8.85350       -7.79870
H         -5.24420      -10.56330       -7.61120
H         -7.11510       -8.20860       -7.04780
H         -7.19710       -9.27870       -8.44510
H         -7.53090       -9.91030       -6.83030
H         -4.75410       -7.37720       -5.79050
H          5.56250       -1.18300        6.60610
H          7.68050       -1.90090        7.64560
H          9.49970       -2.79550        6.25150
H         10.14010       -3.82950        4.12180
H          9.13200       -3.62210        2.68220
H         10.85030       -1.44180        3.96650
H         11.24270       -2.31950        2.48390
H          9.84820       -1.23470        2.53080
H          7.08780       -2.28030        2.77060
H         -1.37740       -1.95080       -0.38500
H         -2.36550       -2.69800       -1.63640
H         -0.50990       -1.36000       -2.63090
H         -0.35620       -3.06950       -3.04260
H          0.67630       -2.37330       -1.79270
H         -0.97370       -2.17850        1.50370
H          0.04300       -1.51190        2.78120
H         -0.68320        0.23850        1.12140
H          0.30580       -0.56020       -0.11020
H          1.06020        0.11510        1.33040
H          3.00320        7.92800        7.44350
H          4.54830        7.05830        7.30440
H          3.14450        8.57700        5.04510
H          4.64010        7.64700        4.88050
H          4.60610        9.09350        5.89920
H          0.21230        3.23740        4.08610
H         -0.69530        4.69750        4.55630
H         -1.60970        2.70960        5.70110
H         -0.01470        2.31550        6.34590
H         -0.85730        3.77220        6.89730
H          8.59640        2.92930        5.78030
H          6.41930        8.20540        3.19920
H         11.01970        7.87050        5.29040
H         10.29300       11.12980        4.48850
H         12.00840       10.73540        2.72840
H         11.41470        8.45090        1.60400
H          9.00810        8.66690        0.50110
H          8.11820       11.08610        0.94610
H         10.67120       11.73140        0.67070
H         10.06080       12.50380        2.15530
H          7.95280       11.33700        3.41870
