225

C          7.41050        0.78090      -12.50480
C          7.69960        1.28980      -13.74300
C          8.11500        2.67910      -14.02750
O          8.19050        3.60750      -13.24680
C          8.55620        2.68500      -15.43690
C          9.03160        3.77670      -16.15880
C          9.38030        3.48260      -17.45540
C          9.28320        2.19140      -17.99050
C          8.82310        1.10370      -17.28780
C          8.44700        1.38590      -15.97160
C          7.89570        0.50650      -14.94550
C          7.53400       -0.80480      -15.12150
C          7.73050       -1.53610      -16.31060
N          7.86600       -2.19520      -17.24130
C          6.87990       -1.59810      -14.15550
N          6.31830       -2.29890      -13.43910
C          9.79650        2.62490      -19.34050
C          8.76230        2.79290      -20.48080
C          7.44380        3.10900      -19.81950
C          7.52730        4.33280      -19.31500
C          8.90390        4.86620      -19.62600
C          9.15510        4.19110      -20.98390
C          9.89720        4.06550      -18.74710
C          7.00790        1.47210      -11.34540
C          6.22100        2.61180      -11.17790
C          5.58630        3.36770      -12.29440
C          4.17980        3.86450      -11.97670
C          6.01260        2.86560       -9.81560
C          6.60500        1.94340       -8.94460
S          7.42530        0.70490       -9.80850
C          6.38300        2.20060       -7.59180
C          5.62110        3.33360       -7.40240
S          5.17460        4.09170       -8.91840
C          5.11060        3.80650       -6.16320
C          4.44000        4.98190       -5.87920
C          4.31270        6.12380       -6.78850
C          5.44660        6.70320       -7.35140
C          5.31680        7.79950       -8.18170
C          4.06470        8.32120       -8.45590
C          2.92470        7.76160       -7.89280
C          1.56270        8.29870       -8.22480
C          1.00790        7.60150       -9.46880
C          3.06100        6.66460       -7.05570
C          3.91620        4.97140       -4.57360
S          2.96020        6.13220       -3.68700
C          2.91990        5.03500       -2.35020
C          2.38600        4.96790       -1.05240
C          1.70360        5.91980       -0.26400
C          1.36240        5.58520        1.09120
N          0.76920        6.58560        1.72380
S          0.65000        7.83920        0.70590
N          1.34740        7.15360       -0.58490
C          1.59860        4.27130        1.55150
C          1.18680        3.60570        2.72000
S          0.32610        3.93140        4.18720
C          0.33420        2.22410        4.55810
C         -0.24740        1.45370        5.59240
C         -0.91670        1.98630        6.77630
C         -0.84830        1.30830        7.99300
C         -1.48870        1.81480        9.10650
C         -2.20270        2.99800        9.02670
C         -2.26270        3.70010        7.83080
C         -2.98050        5.01570        7.73670
C         -1.98740        6.17320        7.85370
C         -1.60860        3.19150        6.71920
C         -0.05790        0.10490        5.36550
S          0.93530       -0.21880        3.95300
C          1.00110        1.46750        3.59600
C          1.49960        2.25680        2.55090
N          2.14120        2.06430        1.35570
C          2.21340        3.29480        0.72100
C          2.73390        3.69050       -0.53680
N          3.51320        3.02910       -1.47160
C          3.61390        3.84200       -2.57400
C          4.19530        3.81000       -3.84780
S          5.13800        2.70680       -4.78770
C          4.49610        1.99160       -1.23910
C          4.23350        0.72380       -2.04830
C          2.14050        0.74770        0.75580
C          1.05200        0.63320       -0.30810
C         -0.73010       -1.00100        5.98030
C         -2.09980       -1.14170        6.15090
N         -3.05610       -0.20680        5.79450
C         -4.21530       -0.10730        6.58100
C         -4.13090       -0.21360        7.96670
C         -5.27430       -0.16650        8.73660
C         -6.52560       -0.00490        8.15420
C         -7.76060       -0.00020        9.00140
C         -6.59790        0.12360        6.77360
C         -5.46200        0.07020        5.99030
C         -2.91490        0.55840        4.63190
C         -2.30950        0.02720        3.49570
C         -2.09570        0.81900        2.38460
C         -2.48660        2.15080        2.36240
C         -2.19670        3.03410        1.18730
C         -3.14890        2.65480        3.47670
C         -3.36740        1.87580        4.59410
C         -2.41670       -2.41570        6.68330
S         -3.90400       -3.18290        7.10860
C         -3.03100       -4.67040        7.49350
C         -1.62500       -4.50470        7.39010
N         -0.68620       -5.44320        7.72200
C          0.53210       -5.45320        7.01340
C          0.52630       -5.38460        5.62290
C          1.71770       -5.37960        4.92630
C          2.93650       -5.45020        5.59100
C          4.22370       -5.41520        4.82650
C          2.93030       -5.53270        6.97820
C          1.74590       -5.53310        7.68770
C         -0.82920       -6.30480        8.82500
C         -1.47820       -5.88190        9.98210
C         -1.60300       -6.73990       11.05640
C         -1.07570       -8.02510       11.01480
C         -1.22110       -8.96450       12.17200
C         -0.40990       -8.42870        9.86330
C         -0.28750       -7.58710        8.77650
C         -1.31090       -3.23240        6.88310
S          0.16520       -2.44620        6.42240
C         -3.62880       -5.91010        7.70460
C         -4.96010       -6.25960        7.76290
C         -6.09730       -5.33890        7.80120
O         -6.07370       -4.11970        7.75390
C         -7.30340       -6.17710        7.93840
C         -8.62620       -5.74640        7.98640
C         -9.54360       -6.76550        8.08580
C         -9.17090       -8.11460        8.12650
C         -7.86820       -8.55250        8.08290
C         -6.91950       -7.53160        7.99100
C         -5.46180       -7.60620        7.88230
C         -4.72980       -8.77050        7.86600
C         -3.35100       -8.87280        7.60300
N         -2.24450       -9.06400        7.35300
C         -5.26690      -10.05350        8.08770
N         -5.62450      -11.12790        8.28440
C        -10.59970       -8.59060        8.21130
C        -11.12540       -9.06120        9.58920
C        -10.30570       -8.33690       10.62790
C        -10.65540       -7.05780       10.59920
C        -11.71830       -6.89430        9.54130
C        -12.42990       -8.25160        9.66030
C        -11.01520       -7.08610        8.17440
H          7.53700       -0.28690      -12.36380
H          9.09910        4.75350      -15.70570
H          8.76020        0.11500      -17.71070
H         10.71410        2.14780      -19.67870
H          8.75360        1.98300      -21.20530
H          6.63190        2.41000      -19.73850
H          6.79880        4.86090      -18.72790
H          9.02370        5.94530      -19.57390
H         10.18990        4.25760      -21.31690
H          8.49240        4.55870      -21.76600
H         10.87970        4.53180      -18.70260
H          6.23000        4.21840      -12.54230
H          5.55820        2.72350      -13.17720
H          4.19660        4.63860      -11.21390
H          3.55250        3.04660      -11.62880
H          3.73200        4.28380      -12.87440
H          6.74930        1.59100       -6.78580
H          6.42280        6.29940       -7.12550
H          6.19680        8.25070       -8.61530
H          3.97050        9.17730       -9.10830
H          1.62310        9.37270       -8.41040
H          0.88500        8.13370       -7.38530
H          0.92660        6.53040       -9.29770
H          1.66800        7.76150      -10.31830
H          0.02280        7.99030       -9.71570
H          2.18380        6.21590       -6.61200
H         -0.27800        0.39430        8.06710
H         -1.42920        1.28500       10.04640
H         -2.70970        3.38170        9.90030
H         -3.72340        5.09130        8.53300
H         -3.49830        5.08470        6.77760
H         -1.24790        6.11760        7.05820
H         -1.46770        6.12960        8.80840
H         -2.50440        7.12720        7.78280
H         -1.65730        3.73300        5.78720
H          5.47530        2.38990       -1.53140
H          4.53410        1.78900       -0.16790
H          4.31630        0.93410       -3.11070
H          4.97480       -0.02840       -1.79140
H          3.24350        0.32190       -1.85930
H          1.94010        0.03820        1.56220
H          3.11650        0.50400        0.34010
H          1.03070       -0.37460       -0.71490
H          0.08290        0.85060        0.13410
H          1.22240        1.34100       -1.11620
H         -3.16410       -0.33220        8.43240
H         -5.19540       -0.25940        9.81010
H         -7.97360       -1.01330        9.34190
H         -7.62510        0.62580        9.88130
H         -8.61890        0.36040        8.44050
H         -7.56010        0.25070        6.29860
H         -5.53640        0.15150        4.91580
H         -2.00370       -1.00890        3.48710
H         -1.61920        0.38320        1.51770
H         -1.95100        2.44850        0.30440
H         -1.35210        3.68770        1.40970
H         -3.05180        3.66700        0.96050
H         -3.48390        3.68210        3.47190
H         -3.87220        2.28400        5.45670
H         -0.41620       -5.34240        5.09670
H          1.70150       -5.32540        3.84750
H          4.48260       -4.38360        4.58560
H          4.13400       -5.96460        3.89190
H          5.03560       -5.84090        5.41070
H          3.86700       -5.59000        7.51330
H          1.75370       -5.58970        8.76610
H         -1.88590       -4.88290       10.03440
H         -2.11220       -6.39920       11.94650
H         -0.25520       -9.38450       12.44720
H         -1.87680       -9.79200       11.90150
H         -1.64310       -8.45830       13.03650
H          0.00470       -9.42390        9.80920
H          0.21630       -7.92100        7.88360
H         -2.92380       -6.72600        7.80080
H         -8.86860       -4.69610        7.93650
H         -7.60020       -9.59540        8.11130
H        -10.93600       -9.23070        7.39780
H        -11.19770      -10.13970        9.70080
H         -9.53740       -8.80360       11.21610
H        -10.23730       -6.24190       11.15920
H        -12.33220       -5.99990        9.61170
H        -13.11300       -8.45700        8.83710
H        -12.95040       -8.37320       10.60920
H        -11.62970       -6.74730        7.34230
