201

C        -10.75700       -8.07990       -1.22390
C        -10.50990       -9.42530       -1.18160
C         -9.29580      -10.09350       -1.67220
O         -8.44310       -9.63420       -2.41260
C         -9.29420      -11.43470       -1.06680
C         -8.28890      -12.39510       -1.15720
C         -8.54980      -13.54420       -0.45060
C         -9.72170      -13.72490        0.29660
C        -10.72430      -12.78850        0.38900
C        -10.48260      -11.61410       -0.32840
C        -11.30030      -10.41140       -0.46730
C        -12.60340      -10.27610       -0.07010
C        -13.41460       -9.15330       -0.34520
N        -14.14220       -8.29410       -0.56790
C        -13.33410      -11.27550        0.60600
N        -13.97840      -12.04690        1.16050
C         -9.31110      -15.10120        0.75650
C         -9.97790      -16.32000        0.07260
C        -10.38640      -15.86530       -1.30660
C         -9.28160      -15.69500       -2.02020
C         -8.10580      -16.03170       -1.13670
C         -8.72530      -17.14150       -0.27250
C         -8.00850      -14.90230       -0.08120
C         -9.99780       -7.05790       -1.82010
C        -10.25530       -5.69280       -1.59730
C        -11.27480       -5.22950       -0.74710
N        -12.08650       -4.83050       -0.04200
C         -9.36930       -4.84060       -2.25430
C         -8.44270       -5.52710       -3.01880
S         -8.64180       -7.25000       -2.89610
C         -7.34750       -4.95820       -3.72010
C         -6.50740       -5.57250       -4.63250
C         -6.75370       -6.90460       -5.19670
C         -7.90180       -7.13860       -5.94710
C         -8.13240       -8.39560       -6.47160
C         -7.23370       -9.42120       -6.23990
C         -6.08250       -9.20170       -5.49430
C         -5.14620      -10.33370       -5.18750
C         -5.68530      -11.14540       -4.00790
C         -5.84570       -7.93370       -4.98590
C         -5.41340       -4.75510       -4.95630
S         -4.01210       -5.00700       -5.96860
C         -3.41590       -3.45550       -5.48260
C         -2.24320       -2.69070       -5.59140
C         -0.97990       -2.98600       -6.15220
C          0.14000       -2.14270       -5.83160
N          1.27390       -2.59530       -6.34250
S          0.96220       -3.95390       -7.16560
N         -0.63220       -4.02550       -6.89360
C         -0.07790       -0.97220       -5.07160
C          0.79170        0.01910       -4.58090
S          2.49080        0.33260       -4.45810
C          2.13840        1.75460       -3.50450
C          2.95650        2.68270       -2.82990
C          4.41990        2.69190       -2.88990
C          5.10600        3.87730       -3.14540
C          6.48610        3.88000       -3.18440
C          7.19190        2.70810       -2.97190
C          6.52370        1.51370       -2.73680
C          7.28710        0.25060       -2.46250
C          7.54520        0.10900       -0.96120
C          5.13660        1.51600       -2.70140
C          2.19330        3.59860       -2.12730
S          0.46790        3.36490       -2.35480
C          0.77010        1.98060       -3.34140
C          0.00070        0.98400       -3.95220
N         -1.32450        0.63660       -4.03210
C         -1.38670       -0.59140       -4.67150
C         -2.44680       -1.51990       -4.81000
N         -3.69580       -1.58950       -4.22460
C         -4.27610       -2.76550       -4.62040
C         -5.41870       -3.51220       -4.31280
S         -6.80760       -3.33500       -3.30060
C         -4.24180       -0.84710       -3.11050
C         -5.47240       -0.03410       -3.50980
C         -2.34160        1.66710       -4.01370
C         -2.05890        2.74620       -5.05890
C          2.63410        4.53270       -1.14260
C          3.77120        4.46230       -0.39130
C          3.86520        5.47090        0.59500
C          4.87080        5.63250        1.55710
C          6.00250        4.69960        1.65290
C          5.78620        3.32980        1.77750
C          6.85600        2.46120        1.89400
C          8.15200        2.94420        1.88820
C          8.36980        4.30910        1.77850
S         10.03090        4.95690        1.79370
C         10.48030        4.53660        3.51770
C          9.71160        5.37350        4.51970
C          7.30580        5.18420        1.65420
C          4.73370        6.69530        2.43700
C          3.62880        7.58830        2.39630
C          2.60480        7.41680        1.43820
C          1.42130        8.28560        1.40520
C          0.68580        8.53010        2.56150
C         -0.43120        9.34580        2.50990
C         -0.83140        9.90920        1.31480
C         -0.10920        9.65820        0.15050
S         -0.68840       10.45140       -1.31940
C          0.02540        9.47440       -2.68790
C         -0.56010        8.07800       -2.76010
C          1.01870        8.85520        0.20050
C          2.76060        6.36320        0.55830
S          1.62160        5.88730       -0.67880
C          3.73500        8.57000        3.39470
C          4.83440        8.42030        4.22050
S          5.81870        7.04850        3.75070
C          5.07620        9.29990        5.29790
C          6.02650        9.26260        6.27740
C          7.04080        8.21020        6.47120
O          7.29040        7.27230        5.73850
C          7.70070        8.50730        7.75260
C          8.68730        7.74830        8.37780
C          9.10560        8.25860        9.58260
C          8.57810        9.43750       10.12730
C          7.60630       10.19610        9.51980
C          7.16800        9.69650        8.28950
C          6.15520       10.21170        7.37100
C          5.48070       11.39570        7.51790
C          4.52170       11.91810        6.62420
N          3.73450       12.42170        5.95570
C          5.66400       12.29050        8.59360
N          5.76120       13.06300        9.43750
C          9.45240        9.35620       11.35360
C         10.68590       10.28970       11.42380
C         11.07980       10.58560        9.99780
C         11.58100        9.47330        9.47740
C         11.53600        8.40530       10.54230
C         11.76770        9.26320       11.79640
C         10.04300        8.04560       10.74420
H        -11.61970       -7.71430       -0.67600
H         -7.39700      -12.21240       -1.73590
H        -11.61630      -12.93830        0.97410
H         -9.21000      -15.23220        1.83200
H        -10.74800      -16.80500        0.66610
H        -11.40200      -15.66550       -1.59410
H         -9.18930      -15.32390       -3.02420
H         -7.17150      -16.25560       -1.64510
H         -8.12340      -17.40110        0.59730
H         -8.95520      -18.04030       -0.84240
H         -7.05650      -14.90880        0.44620
H         -9.40490       -3.76720       -2.18050
H         -8.60270       -6.33420       -6.11850
H         -9.02030       -8.57700       -7.05930
H         -7.42680      -10.40500       -6.64280
H         -4.15840       -9.94160       -4.93860
H         -5.04700      -10.98360       -6.05970
H         -4.98850      -11.93700       -3.73840
H         -5.83840      -10.49630       -3.14860
H         -6.64310      -11.59160       -4.26640
H         -4.95650       -7.74420       -4.40160
H          4.55200        4.78880       -3.31400
H          7.01610        4.80030       -3.37970
H          8.27180        2.72000       -2.99450
H          8.24150        0.27300       -2.99170
H          6.71840       -0.61140       -2.81620
H          8.11050       -0.79700       -0.75510
H          6.60210        0.06200       -0.42080
H          8.10700        0.96470       -0.59280
H          4.60530        0.59510       -2.50850
H         -4.54010       -1.57110       -2.34340
H         -3.46120       -0.21680       -2.68540
H         -6.28090       -0.69910       -3.80100
H         -5.80580        0.56360       -2.66640
H         -5.26430        0.62770       -4.34760
H         -3.30170        1.21450       -4.24110
H         -2.37220        2.11900       -3.01650
H         -1.13540        3.27350       -4.83780
H         -2.87230        3.46650       -5.06510
H         -1.97790        2.30000       -6.04800
H          4.51410        3.69790       -0.52140
H          4.77530        2.95040        1.80710
H          6.68030        1.40010        1.99160
H          8.98950        2.26720        1.96900
H         11.55120        4.72890        3.57680
H         10.29840        3.47130        3.65890
H          9.89690        6.43220        4.35640
H         10.02410        5.11700        5.53030
H          8.64030        5.20390        4.43560
H          7.49620        6.24140        1.55250
H          0.97580        8.06130        3.48990
H         -0.99890        9.53700        3.40820
H         -1.70230       10.54430        1.26600
H         -0.23080       10.05290       -3.57570
H          1.10930        9.46440       -2.58260
H         -1.63770        8.12910       -2.89580
H         -0.35330        7.52250       -1.84820
H         -0.12660        7.53730       -3.59930
H          1.61670        8.68190       -0.68020
H          3.03190        9.37530        3.51660
H          4.35500       10.10720        5.34510
H          9.05870        6.84330        7.92320
H          7.20970       11.09670        9.95700
H          8.93000        9.28530       12.30550
H         10.56430       11.14960       12.07690
H         10.90570       11.52780        9.51220
H         11.90910        9.30030        8.46920
H         12.19000        7.55010       10.39270
H         12.76570        9.69730       11.83100
H         11.56330        8.73560       12.72710
H          9.91150        7.11970       11.30090
