
  xtb     02142205203D
 energy: -374.336737527489 gnorm: 0.000968598138 xtb: 6.4.1 (unknown)
222249  0     0  0            999 V2000
   -0.2661   -9.9025   -7.7284 C   0  0  0  0  0  0  0  0  0  0  0  0
   -0.6646  -11.1606   -8.0206 C   0  0  0  0  0  0  0  0  0  0  0  0
    0.1801  -12.0178   -8.9025 C   0  0  0  0  0  0  0  0  0  0  0  0
    1.0022  -11.6441   -9.7046 O   0  0  0  0  0  0  0  0  0  0  0  0
   -0.1652  -13.4001   -8.5216 C   0  0  0  0  0  0  0  0  0  0  0  0
    0.4863  -14.5675   -8.9139 C   0  0  0  0  0  0  0  0  0  0  0  0
   -0.0259  -15.7115   -8.3510 C   0  0  0  0  0  0  0  0  0  0  0  0
   -1.1061  -15.7016   -7.4565 C   0  0  0  0  0  0  0  0  0  0  0  0
   -1.7642  -14.5609   -7.0655 C   0  0  0  0  0  0  0  0  0  0  0  0
   -1.2599  -13.3856   -7.6290 C   0  0  0  0  0  0  0  0  0  0  0  0
   -1.6927  -12.0077   -7.4436 C   0  0  0  0  0  0  0  0  0  0  0  0
   -2.9135  -11.5955   -6.9839 C   0  0  0  0  0  0  0  0  0  0  0  0
   -3.8858  -12.4543   -6.4371 C   0  0  0  0  0  0  0  0  0  0  0  0
   -4.6906  -13.1022   -5.9355 N   0  0  0  0  0  0  0  0  0  0  0  0
   -3.3441  -10.2533   -7.0089 C   0  0  0  0  0  0  0  0  0  0  0  0
   -3.7646   -9.1855   -7.0401 N   0  0  0  0  0  0  0  0  0  0  0  0
   -1.0773  -17.1991   -7.2814 C   0  0  0  0  0  0  0  0  0  0  0  0
   -2.1517  -18.0320   -8.0229 C   0  0  0  0  0  0  0  0  0  0  0  0
   -2.5557  -17.2278   -9.2339 C   0  0  0  0  0  0  0  0  0  0  0  0
   -1.5378  -17.2377  -10.0842 C   0  0  0  0  0  0  0  0  0  0  0  0
   -0.4268  -18.0480   -9.4633 C   0  0  0  0  0  0  0  0  0  0  0  0
   -1.2509  -19.0865   -8.6855 C   0  0  0  0  0  0  0  0  0  0  0  0
    0.1219  -17.2107   -8.2813 C   0  0  0  0  0  0  0  0  0  0  0  0
   -0.6919   -9.0554   -6.6630 C   0  0  0  0  0  0  0  0  0  0  0  0
   -0.6894   -7.3431   -6.9485 S   0  0  0  0  0  0  0  0  0  0  0  0
   -1.3399   -7.0100   -5.3761 C   0  0  0  0  0  0  0  0  0  0  0  0
   -1.5221   -8.1826   -4.6516 C   0  0  0  0  0  0  0  0  0  0  0  0
   -1.9935   -8.2540   -3.2598 C   0  0  0  0  0  0  0  0  0  0  0  0
   -2.1548   -7.2797   -2.5444 O   0  0  0  0  0  0  0  0  0  0  0  0
   -2.2620   -9.6193   -2.8034 C   0  0  0  0  0  0  0  0  0  0  0  0
   -2.9661   -9.9340   -1.6702 C   0  0  0  0  0  0  0  0  0  0  0  0
   -3.5600   -9.0270   -0.6554 C   0  0  0  0  0  0  0  0  0  0  0  0
   -2.5236   -8.6625    0.4118 C   0  0  0  0  0  0  0  0  0  0  0  0
   -3.0891  -11.6506   -1.4753 S   0  0  0  0  0  0  0  0  0  0  0  0
   -2.1532  -11.9559   -2.8994 C   0  0  0  0  0  0  0  0  0  0  0  0
   -1.8308  -13.3472   -3.3082 C   0  0  0  0  0  0  0  0  0  0  0  0
   -3.0215  -14.2925   -3.1738 C   0  0  0  0  0  0  0  0  0  0  0  0
   -1.8014  -10.7760   -3.5090 C   0  0  0  0  0  0  0  0  0  0  0  0
   -1.0511  -10.6731   -4.7533 C   0  0  0  0  0  0  0  0  0  0  0  0
   -0.4136  -11.6009   -5.2314 O   0  0  0  0  0  0  0  0  0  0  0  0
   -1.1322   -9.3417   -5.3790 C   0  0  0  0  0  0  0  0  0  0  0  0
   -1.5731   -5.6481   -5.0231 C   0  0  0  0  0  0  0  0  0  0  0  0
   -2.5322   -5.1040   -4.2007 C   0  0  0  0  0  0  0  0  0  0  0  0
   -2.3851   -3.7228   -4.0780 C   0  0  0  0  0  0  0  0  0  0  0  0
   -3.1825   -2.5139   -3.1286 S   0  0  0  0  0  0  0  0  0  0  0  0
   -2.0583   -1.3171   -3.7062 C   0  0  0  0  0  0  0  0  0  0  0  0
   -1.9176    0.0258   -3.2872 C   0  0  0  0  0  0  0  0  0  0  0  0
   -0.7661    0.7128   -3.6264 C   0  0  0  0  0  0  0  0  0  0  0  0
    0.3193    0.0679   -4.4519 C   0  0  0  0  0  0  0  0  0  0  0  0
   -0.1861   -1.0649   -5.2002 O   0  0  0  0  0  0  0  0  0  0  0  0
   -1.1228   -1.8226   -4.6000 C   0  0  0  0  0  0  0  0  0  0  0  0
   -1.3179   -3.1936   -4.8136 C   0  0  0  0  0  0  0  0  0  0  0  0
   -0.5025   -4.4220   -5.7023 S   0  0  0  0  0  0  0  0  0  0  0  0
    0.7926    1.0884   -5.4731 C   0  0  0  0  0  0  0  0  0  0  0  0
    0.0260    1.3185   -6.6070 C   0  0  0  0  0  0  0  0  0  0  0  0
    0.4057    2.2815   -7.5218 C   0  0  0  0  0  0  0  0  0  0  0  0
    1.5495    3.0435   -7.3202 C   0  0  0  0  0  0  0  0  0  0  0  0
    1.9276    4.1301   -8.2848 C   0  0  0  0  0  0  0  0  0  0  0  0
    1.2607    5.4483   -7.8861 C   0  0  0  0  0  0  0  0  0  0  0  0
    2.3056    2.8130   -6.1789 C   0  0  0  0  0  0  0  0  0  0  0  0
    1.9364    1.8453   -5.2628 C   0  0  0  0  0  0  0  0  0  0  0  0
    1.4629   -0.4482   -3.5888 C   0  0  0  0  0  0  0  0  0  0  0  0
    2.4843   -1.1425   -4.2280 C   0  0  0  0  0  0  0  0  0  0  0  0
    3.5389   -1.6600   -3.5034 C   0  0  0  0  0  0  0  0  0  0  0  0
    3.6007   -1.4989   -2.1242 C   0  0  0  0  0  0  0  0  0  0  0  0
    4.7781   -2.0074   -1.3437 C   0  0  0  0  0  0  0  0  0  0  0  0
    5.8656   -0.9337   -1.2660 C   0  0  0  0  0  0  0  0  0  0  0  0
    2.5723   -0.8150   -1.4917 C   0  0  0  0  0  0  0  0  0  0  0  0
    1.5084   -0.3002   -2.2114 C   0  0  0  0  0  0  0  0  0  0  0  0
   -0.7348    1.9714   -3.0170 C   0  0  0  0  0  0  0  0  0  0  0  0
    0.4461    3.2347   -2.9035 S   0  0  0  0  0  0  0  0  0  0  0  0
   -0.5611    4.0681   -1.7441 C   0  0  0  0  0  0  0  0  0  0  0  0
   -0.1857    5.1313   -0.8918 C   0  0  0  0  0  0  0  0  0  0  0  0
   -0.9204    5.3089    0.2777 C   0  0  0  0  0  0  0  0  0  0  0  0
   -2.0302    4.6102    0.5766 O   0  0  0  0  0  0  0  0  0  0  0  0
   -2.7499    4.0514   -0.5418 C   0  0  0  0  0  0  0  0  0  0  0  0
   -3.6437    2.9523    0.0002 C   0  0  0  0  0  0  0  0  0  0  0  0
   -3.1220    2.0585    0.9266 C   0  0  0  0  0  0  0  0  0  0  0  0
   -3.8630    0.9680    1.3368 C   0  0  0  0  0  0  0  0  0  0  0  0
   -5.1365    0.7420    0.8299 C   0  0  0  0  0  0  0  0  0  0  0  0
   -5.8924   -0.5049    1.1841 C   0  0  0  0  0  0  0  0  0  0  0  0
   -5.5477   -1.6176    0.1910 C   0  0  0  0  0  0  0  0  0  0  0  0
   -5.6633    1.6579   -0.0702 C   0  0  0  0  0  0  0  0  0  0  0  0
   -4.9284    2.7536   -0.4844 C   0  0  0  0  0  0  0  0  0  0  0  0
   -3.5395    5.1654   -1.2136 C   0  0  0  0  0  0  0  0  0  0  0  0
   -3.7392    5.1969   -2.5865 C   0  0  0  0  0  0  0  0  0  0  0  0
   -4.4680    6.2226   -3.1598 C   0  0  0  0  0  0  0  0  0  0  0  0
   -5.0097    7.2365   -2.3808 C   0  0  0  0  0  0  0  0  0  0  0  0
   -5.7581    8.3743   -3.0129 C   0  0  0  0  0  0  0  0  0  0  0  0
   -4.8003    9.5170   -3.3567 C   0  0  0  0  0  0  0  0  0  0  0  0
   -4.8044    7.1979   -1.0075 C   0  0  0  0  0  0  0  0  0  0  0  0
   -4.0824    6.1729   -0.4274 C   0  0  0  0  0  0  0  0  0  0  0  0
   -1.7674    3.4318   -1.5070 C   0  0  0  0  0  0  0  0  0  0  0  0
   -1.8588    2.2337   -2.2195 C   0  0  0  0  0  0  0  0  0  0  0  0
   -2.9989    0.9306   -2.2598 S   0  0  0  0  0  0  0  0  0  0  0  0
   -0.2886    6.2022    1.1524 C   0  0  0  0  0  0  0  0  0  0  0  0
    0.9117    6.7110    0.6388 C   0  0  0  0  0  0  0  0  0  0  0  0
    1.2567    6.1085   -0.9527 S   0  0  0  0  0  0  0  0  0  0  0  0
    1.5841    7.5286    1.5314 C   0  0  0  0  0  0  0  0  0  0  0  0
    0.9162    7.6466    2.7459 C   0  0  0  0  0  0  0  0  0  0  0  0
   -0.6090    6.7731    2.7500 S   0  0  0  0  0  0  0  0  0  0  0  0
    1.4649    8.3108    3.8695 C   0  0  0  0  0  0  0  0  0  0  0  0
    3.0686    8.9786    3.7071 S   0  0  0  0  0  0  0  0  0  0  0  0
    3.1374    9.4127    5.3957 C   0  0  0  0  0  0  0  0  0  0  0  0
    1.9390    9.1278    6.0186 C   0  0  0  0  0  0  0  0  0  0  0  0
    1.6106    9.5735    7.3917 C   0  0  0  0  0  0  0  0  0  0  0  0
    2.1752   10.4960    7.9469 O   0  0  0  0  0  0  0  0  0  0  0  0
    0.4763    8.8435    7.9537 C   0  0  0  0  0  0  0  0  0  0  0  0
    0.1669    8.7835    9.2853 C   0  0  0  0  0  0  0  0  0  0  0  0
    0.8595    9.4330   10.4266 C   0  0  0  0  0  0  0  0  0  0  0  0
    0.2859   10.8296   10.6818 C   0  0  0  0  0  0  0  0  0  0  0  0
   -1.2466    7.8150    9.5423 S   0  0  0  0  0  0  0  0  0  0  0  0
   -1.4363    7.5053    7.8506 C   0  0  0  0  0  0  0  0  0  0  0  0
   -2.5883    6.7067    7.3598 C   0  0  0  0  0  0  0  0  0  0  0  0
   -3.7358    7.6232    6.9243 C   0  0  0  0  0  0  0  0  0  0  0  0
   -0.4354    8.1094    7.1293 C   0  0  0  0  0  0  0  0  0  0  0  0
   -0.2828    8.0061    5.6813 C   0  0  0  0  0  0  0  0  0  0  0  0
   -1.1481    7.5227    4.9592 O   0  0  0  0  0  0  0  0  0  0  0  0
    1.0001    8.4833    5.1779 C   0  0  0  0  0  0  0  0  0  0  0  0
    4.3536    9.9114    5.9296 C   0  0  0  0  0  0  0  0  0  0  0  0
    4.8426    9.6396    7.1708 C   0  0  0  0  0  0  0  0  0  0  0  0
    4.3468    8.5761    8.0810 C   0  0  0  0  0  0  0  0  0  0  0  0
    3.3296    7.9158    7.9932 O   0  0  0  0  0  0  0  0  0  0  0  0
    5.3892    8.4141    9.1067 C   0  0  0  0  0  0  0  0  0  0  0  0
    5.3945    7.4816   10.1436 C   0  0  0  0  0  0  0  0  0  0  0  0
    6.5006    7.5539   10.9545 C   0  0  0  0  0  0  0  0  0  0  0  0
    7.5295    8.4842   10.7499 C   0  0  0  0  0  0  0  0  0  0  0  0
    7.5340    9.4128    9.7364 C   0  0  0  0  0  0  0  0  0  0  0  0
    6.4160    9.3569    8.8978 C   0  0  0  0  0  0  0  0  0  0  0  0
    6.0750   10.1636    7.7306 C   0  0  0  0  0  0  0  0  0  0  0  0
    6.7596   11.2622    7.2848 C   0  0  0  0  0  0  0  0  0  0  0  0
    7.9429   11.7565    7.8727 C   0  0  0  0  0  0  0  0  0  0  0  0
    8.9117   12.2028    8.2975 N   0  0  0  0  0  0  0  0  0  0  0  0
    6.3723   12.0693    6.1930 C   0  0  0  0  0  0  0  0  0  0  0  0
    6.1282   12.7790    5.3242 N   0  0  0  0  0  0  0  0  0  0  0  0
    8.3299    7.9770   11.9232 C   0  0  0  0  0  0  0  0  0  0  0  0
    9.5400    7.0769   11.5941 C   0  0  0  0  0  0  0  0  0  0  0  0
    9.8224    6.3612   12.8954 C   0  0  0  0  0  0  0  0  0  0  0  0
    8.8476    5.4827   13.0926 C   0  0  0  0  0  0  0  0  0  0  0  0
    7.8900    5.5898   11.9277 C   0  0  0  0  0  0  0  0  0  0  0  0
    8.8772    5.9392   10.8065 C   0  0  0  0  0  0  0  0  0  0  0  0
    7.1817    6.9427   12.1539 C   0  0  0  0  0  0  0  0  0  0  0  0
    0.4999   -9.4909   -8.3784 H   0  0  0  0  0  0  0  0  0  0  0  0
    1.3205  -14.5344   -9.5972 H   0  0  0  0  0  0  0  0  0  0  0  0
   -2.5882  -14.5617   -6.3708 H   0  0  0  0  0  0  0  0  0  0  0  0
   -0.8993  -17.5567   -6.2691 H   0  0  0  0  0  0  0  0  0  0  0  0
   -2.9613  -18.3890   -7.3920 H   0  0  0  0  0  0  0  0  0  0  0  0
   -3.4894  -16.7035   -9.3197 H   0  0  0  0  0  0  0  0  0  0  0  0
   -1.4510  -16.7233  -11.0233 H   0  0  0  0  0  0  0  0  0  0  0  0
    0.3342  -18.4206  -10.1437 H   0  0  0  0  0  0  0  0  0  0  0  0
   -1.8025  -19.7609   -9.3386 H   0  0  0  0  0  0  0  0  0  0  0  0
   -0.6617  -19.6633   -7.9738 H   0  0  0  0  0  0  0  0  0  0  0  0
    1.0817  -17.5781   -7.9232 H   0  0  0  0  0  0  0  0  0  0  0  0
   -4.4173   -9.5134   -0.1860 H   0  0  0  0  0  0  0  0  0  0  0  0
   -3.8878   -8.1098   -1.1481 H   0  0  0  0  0  0  0  0  0  0  0  0
   -2.9781   -8.0254    1.1653 H   0  0  0  0  0  0  0  0  0  0  0  0
   -2.1389   -9.5585    0.8944 H   0  0  0  0  0  0  0  0  0  0  0  0
   -1.6995   -8.1234   -0.0476 H   0  0  0  0  0  0  0  0  0  0  0  0
   -1.4623  -13.3285   -4.3361 H   0  0  0  0  0  0  0  0  0  0  0  0
   -1.0084  -13.7088   -2.6811 H   0  0  0  0  0  0  0  0  0  0  0  0
   -3.8438  -13.9629   -3.8053 H   0  0  0  0  0  0  0  0  0  0  0  0
   -2.7332  -15.2963   -3.4756 H   0  0  0  0  0  0  0  0  0  0  0  0
   -3.3678  -14.3278   -2.1429 H   0  0  0  0  0  0  0  0  0  0  0  0
   -3.2922   -5.6770   -3.7071 H   0  0  0  0  0  0  0  0  0  0  0  0
   -0.8654    0.7320   -6.7734 H   0  0  0  0  0  0  0  0  0  0  0  0
   -0.1966    2.4459   -8.4039 H   0  0  0  0  0  0  0  0  0  0  0  0
    3.0112    4.2619   -8.2881 H   0  0  0  0  0  0  0  0  0  0  0  0
    1.6125    3.8573   -9.2939 H   0  0  0  0  0  0  0  0  0  0  0  0
    1.5366    6.2396   -8.5791 H   0  0  0  0  0  0  0  0  0  0  0  0
    1.5683    5.7391   -6.8842 H   0  0  0  0  0  0  0  0  0  0  0  0
    0.1782    5.3415   -7.8931 H   0  0  0  0  0  0  0  0  0  0  0  0
    3.1974    3.3968   -6.0024 H   0  0  0  0  0  0  0  0  0  0  0  0
    2.5415    1.6785   -4.3842 H   0  0  0  0  0  0  0  0  0  0  0  0
    2.4379   -1.2727   -5.2990 H   0  0  0  0  0  0  0  0  0  0  0  0
    4.3255   -2.1965   -4.0141 H   0  0  0  0  0  0  0  0  0  0  0  0
    5.1854   -2.8984   -1.8252 H   0  0  0  0  0  0  0  0  0  0  0  0
    4.4652   -2.2768   -0.3329 H   0  0  0  0  0  0  0  0  0  0  0  0
    6.2000   -0.6615   -2.2646 H   0  0  0  0  0  0  0  0  0  0  0  0
    5.4807   -0.0402   -0.7795 H   0  0  0  0  0  0  0  0  0  0  0  0
    6.7201   -1.2972   -0.7000 H   0  0  0  0  0  0  0  0  0  0  0  0
    2.5976   -0.6862   -0.4190 H   0  0  0  0  0  0  0  0  0  0  0  0
    0.7186    0.2181   -1.6882 H   0  0  0  0  0  0  0  0  0  0  0  0
   -2.1275    2.2192    1.3157 H   0  0  0  0  0  0  0  0  0  0  0  0
   -3.4408    0.2726    2.0481 H   0  0  0  0  0  0  0  0  0  0  0  0
   -6.9664   -0.3122    1.1520 H   0  0  0  0  0  0  0  0  0  0  0  0
   -5.6313   -0.8274    2.1938 H   0  0  0  0  0  0  0  0  0  0  0  0
   -6.0934   -2.5267    0.4317 H   0  0  0  0  0  0  0  0  0  0  0  0
   -4.4823   -1.8338    0.2176 H   0  0  0  0  0  0  0  0  0  0  0  0
   -5.8039   -1.3144   -0.8215 H   0  0  0  0  0  0  0  0  0  0  0  0
   -6.6573    1.5060   -0.4651 H   0  0  0  0  0  0  0  0  0  0  0  0
   -5.3501    3.4458   -1.1976 H   0  0  0  0  0  0  0  0  0  0  0  0
   -3.3311    4.4162   -3.2121 H   0  0  0  0  0  0  0  0  0  0  0  0
   -4.6185    6.2335   -4.2299 H   0  0  0  0  0  0  0  0  0  0  0  0
   -6.5231    8.7409   -2.3256 H   0  0  0  0  0  0  0  0  0  0  0  0
   -6.2522    8.0322   -3.9244 H   0  0  0  0  0  0  0  0  0  0  0  0
   -4.3061    9.8794   -2.4582 H   0  0  0  0  0  0  0  0  0  0  0  0
   -5.3412   10.3426   -3.8132 H   0  0  0  0  0  0  0  0  0  0  0  0
   -4.0368    9.1745   -4.0517 H   0  0  0  0  0  0  0  0  0  0  0  0
   -5.2194    7.9763   -0.3835 H   0  0  0  0  0  0  0  0  0  0  0  0
   -3.9322    6.1477    0.6418 H   0  0  0  0  0  0  0  0  0  0  0  0
    2.5295    8.0007    1.3330 H   0  0  0  0  0  0  0  0  0  0  0  0
    1.9195    9.5263   10.1824 H   0  0  0  0  0  0  0  0  0  0  0  0
    0.7486    8.8189   11.3228 H   0  0  0  0  0  0  0  0  0  0  0  0
   -0.7818   10.7735   10.8840 H   0  0  0  0  0  0  0  0  0  0  0  0
    0.7810   11.2833   11.5360 H   0  0  0  0  0  0  0  0  0  0  0  0
    0.4507   11.4576    9.8105 H   0  0  0  0  0  0  0  0  0  0  0  0
   -2.9319    6.0367    8.1504 H   0  0  0  0  0  0  0  0  0  0  0  0
   -2.2700    6.1173    6.4974 H   0  0  0  0  0  0  0  0  0  0  0  0
   -3.4137    8.2461    6.0944 H   0  0  0  0  0  0  0  0  0  0  0  0
   -4.5824    7.0247    6.5998 H   0  0  0  0  0  0  0  0  0  0  0  0
   -4.0508    8.2609    7.7476 H   0  0  0  0  0  0  0  0  0  0  0  0
    4.9644   10.4816    5.2401 H   0  0  0  0  0  0  0  0  0  0  0  0
    4.5800    6.7844   10.2642 H   0  0  0  0  0  0  0  0  0  0  0  0
    8.3322   10.1217    9.5930 H   0  0  0  0  0  0  0  0  0  0  0  0
    8.5414    8.7051   12.7037 H   0  0  0  0  0  0  0  0  0  0  0  0
   10.3753    7.5907   11.1265 H   0  0  0  0  0  0  0  0  0  0  0  0
   10.6448    6.5984   13.5442 H   0  0  0  0  0  0  0  0  0  0  0  0
    8.6931    4.8396   13.9391 H   0  0  0  0  0  0  0  0  0  0  0  0
    7.2227    4.7478   11.7638 H   0  0  0  0  0  0  0  0  0  0  0  0
    9.5695    5.1249   10.5993 H   0  0  0  0  0  0  0  0  0  0  0  0
    8.4024    6.2578    9.8803 H   0  0  0  0  0  0  0  0  0  0  0  0
    6.6255    6.9815   13.0885 H   0  0  0  0  0  0  0  0  0  0  0  0
  1  2  2  0  0  0  0
  2  3  1  0  0  0  0
  3  4  2  0  0  0  0
  3  5  1  0  0  0  0
  5  6  2  0  0  0  0
  6  7  1  0  0  0  0
  7  8  2  0  0  0  0
  8  9  1  0  0  0  0
  9 10  2  0  0  0  0
 10 11  1  0  0  0  0
 11 12  2  0  0  0  0
 12 13  1  0  0  0  0
 13 14  3  0  0  0  0
 12 15  1  0  0  0  0
 15 16  3  0  0  0  0
  8 17  1  0  0  0  0
 17 18  1  0  0  0  0
 18 19  1  0  0  0  0
 19 20  2  0  0  0  0
 20 21  1  0  0  0  0
 21 22  1  0  0  0  0
 21 23  1  0  0  0  0
  1 24  1  0  0  0  0
 24 25  1  0  0  0  0
 25 26  1  0  0  0  0
 26 27  2  0  0  0  0
 27 28  1  0  0  0  0
 28 29  2  0  0  0  0
 28 30  1  0  0  0  0
 30 31  2  0  0  0  0
 31 32  1  0  0  0  0
 32 33  1  0  0  0  0
 31 34  1  0  0  0  0
 34 35  1  0  0  0  0
 35 36  1  0  0  0  0
 36 37  1  0  0  0  0
 35 38  2  0  0  0  0
 38 39  1  0  0  0  0
 39 40  2  0  0  0  0
 39 41  1  0  0  0  0
 26 42  1  0  0  0  0
 42 43  2  0  0  0  0
 43 44  1  0  0  0  0
 44 45  1  0  0  0  0
 45 46  1  0  0  0  0
 46 47  1  0  0  0  0
 47 48  2  0  0  0  0
 48 49  1  0  0  0  0
 49 50  1  0  0  0  0
 50 51  1  0  0  0  0
 51 52  1  0  0  0  0
 52 53  1  0  0  0  0
 49 54  1  0  0  0  0
 54 55  2  0  0  0  0
 55 56  1  0  0  0  0
 56 57  2  0  0  0  0
 57 58  1  0  0  0  0
 58 59  1  0  0  0  0
 57 60  1  0  0  0  0
 60 61  2  0  0  0  0
 49 62  1  0  0  0  0
 62 63  2  0  0  0  0
 63 64  1  0  0  0  0
 64 65  2  0  0  0  0
 65 66  1  0  0  0  0
 66 67  1  0  0  0  0
 65 68  1  0  0  0  0
 68 69  2  0  0  0  0
 48 70  1  0  0  0  0
 70 71  1  0  0  0  0
 71 72  1  0  0  0  0
 72 73  1  0  0  0  0
 73 74  2  0  0  0  0
 74 75  1  0  0  0  0
 75 76  1  0  0  0  0
 76 77  1  0  0  0  0
 77 78  2  0  0  0  0
 78 79  1  0  0  0  0
 79 80  2  0  0  0  0
 80 81  1  0  0  0  0
 81 82  1  0  0  0  0
 80 83  1  0  0  0  0
 83 84  2  0  0  0  0
 76 85  1  0  0  0  0
 85 86  2  0  0  0  0
 86 87  1  0  0  0  0
 87 88  2  0  0  0  0
 88 89  1  0  0  0  0
 89 90  1  0  0  0  0
 88 91  1  0  0  0  0
 91 92  2  0  0  0  0
 76 93  1  0  0  0  0
 93 94  1  0  0  0  0
 94 95  1  0  0  0  0
 74 96  1  0  0  0  0
 96 97  2  0  0  0  0
 97 98  1  0  0  0  0
 97 99  1  0  0  0  0
 99100  2  0  0  0  0
100101  1  0  0  0  0
100102  1  0  0  0  0
102103  1  0  0  0  0
103104  1  0  0  0  0
104105  2  0  0  0  0
105106  1  0  0  0  0
106107  2  0  0  0  0
106108  1  0  0  0  0
108109  2  0  0  0  0
109110  1  0  0  0  0
110111  1  0  0  0  0
109112  1  0  0  0  0
112113  1  0  0  0  0
113114  1  0  0  0  0
114115  1  0  0  0  0
113116  2  0  0  0  0
116117  1  0  0  0  0
117118  2  0  0  0  0
117119  1  0  0  0  0
104120  1  0  0  0  0
120121  2  0  0  0  0
121122  1  0  0  0  0
122123  2  0  0  0  0
122124  1  0  0  0  0
124125  2  0  0  0  0
125126  1  0  0  0  0
126127  2  0  0  0  0
127128  1  0  0  0  0
128129  2  0  0  0  0
129130  1  0  0  0  0
130131  2  0  0  0  0
131132  1  0  0  0  0
132133  3  0  0  0  0
131134  1  0  0  0  0
134135  3  0  0  0  0
127136  1  0  0  0  0
136137  1  0  0  0  0
137138  1  0  0  0  0
138139  2  0  0  0  0
139140  1  0  0  0  0
140141  1  0  0  0  0
140142  1  0  0  0  0
 11  2  1  0  0  0  0
 23 17  1  0  0  0  0
 41 24  2  0  0  0  0
 53 42  1  0  0  0  0
 61 54  1  0  0  0  0
 69 62  1  0  0  0  0
 94 70  2  0  0  0  0
101 96  1  0  0  0  0
119102  2  0  0  0  0
130121  1  0  0  0  0
142136  1  0  0  0  0
 10  5  1  0  0  0  0
 22 18  1  0  0  0  0
 41 27  1  0  0  0  0
 52 44  2  0  0  0  0
 93 72  2  0  0  0  0
119105  1  0  0  0  0
129124  1  0  0  0  0
141137  1  0  0  0  0
 23  7  1  0  0  0  0
 38 30  1  0  0  0  0
 51 46  2  0  0  0  0
 98 73  1  0  0  0  0
116108  1  0  0  0  0
142126  1  0  0  0  0
 95 47  1  0  0  0  0
 84 77  1  0  0  0  0
 92 85  1  0  0  0  0
  1143  1  0  0  0  0
  6144  1  0  0  0  0
  9145  1  0  0  0  0
 17146  1  0  0  0  0
 18147  1  0  0  0  0
 19148  1  0  0  0  0
 20149  1  0  0  0  0
 21150  1  0  0  0  0
 22151  1  0  0  0  0
 22152  1  0  0  0  0
 23153  1  0  0  0  0
 32154  1  0  0  0  0
 32155  1  0  0  0  0
 33156  1  0  0  0  0
 33157  1  0  0  0  0
 33158  1  0  0  0  0
 36159  1  0  0  0  0
 36160  1  0  0  0  0
 37161  1  0  0  0  0
 37162  1  0  0  0  0
 37163  1  0  0  0  0
 43164  1  0  0  0  0
 55165  1  0  0  0  0
 56166  1  0  0  0  0
 58167  1  0  0  0  0
 58168  1  0  0  0  0
 59169  1  0  0  0  0
 59170  1  0  0  0  0
 59171  1  0  0  0  0
 60172  1  0  0  0  0
 61173  1  0  0  0  0
 63174  1  0  0  0  0
 64175  1  0  0  0  0
 66176  1  0  0  0  0
 66177  1  0  0  0  0
 67178  1  0  0  0  0
 67179  1  0  0  0  0
 67180  1  0  0  0  0
 68181  1  0  0  0  0
 69182  1  0  0  0  0
 78183  1  0  0  0  0
 79184  1  0  0  0  0
 81185  1  0  0  0  0
 81186  1  0  0  0  0
 82187  1  0  0  0  0
 82188  1  0  0  0  0
 82189  1  0  0  0  0
 83190  1  0  0  0  0
 84191  1  0  0  0  0
 86192  1  0  0  0  0
 87193  1  0  0  0  0
 89194  1  0  0  0  0
 89195  1  0  0  0  0
 90196  1  0  0  0  0
 90197  1  0  0  0  0
 90198  1  0  0  0  0
 91199  1  0  0  0  0
 92200  1  0  0  0  0
 99201  1  0  0  0  0
110202  1  0  0  0  0
110203  1  0  0  0  0
111204  1  0  0  0  0
111205  1  0  0  0  0
111206  1  0  0  0  0
114207  1  0  0  0  0
114208  1  0  0  0  0
115209  1  0  0  0  0
115210  1  0  0  0  0
115211  1  0  0  0  0
120212  1  0  0  0  0
125213  1  0  0  0  0
128214  1  0  0  0  0
136215  1  0  0  0  0
137216  1  0  0  0  0
138217  1  0  0  0  0
139218  1  0  0  0  0
140219  1  0  0  0  0
141220  1  0  0  0  0
141221  1  0  0  0  0
142222  1  0  0  0  0
M  END
