165

C         10.09960       -2.03550        3.80030
C         10.22360       -0.76560        3.34940
C          9.19540       -0.05420        2.53140
O          8.21500       -0.51750        1.99310
C          9.56150        1.37060        2.59220
C          8.85330        2.42810        2.02430
C          9.40740        3.66200        2.25970
C         10.57820        3.83560        3.01250
C         11.29050        2.80170        3.57090
C         10.74620        1.53350        3.33880
C         11.21080        0.22080        3.76980
C         12.39620       -0.04990        4.39640
C         12.84810       -1.34450        4.73340
N         13.28530       -2.36460        5.02670
C         13.34460        0.92670        4.76850
N         14.15320        1.66980        5.10250
C         10.54000        5.33650        2.87000
C         10.03760        6.16290        4.08040
C          9.10690        5.26610        4.85850
C          8.00490        5.10310        4.13870
C          8.17100        5.88640        2.85980
C          9.01420        7.06490        3.37170
C          9.24200        5.14190        2.02450
C          9.08580       -2.96140        3.34020
C          8.79720       -3.10210        1.97340
C          7.72400       -3.87550        1.60690
C          7.16130       -4.10890        0.24970
O          7.63970       -3.80850       -0.81650
C          5.86690       -4.79630        0.50940
C          5.74080       -5.05480        1.88990
C          6.90530       -4.50280        2.56880
C          7.24720       -4.44560        3.90740
C          8.34940       -3.68960        4.27830
C          4.58020       -5.62340        2.37900
C          3.53500       -5.86030        1.49810
C          3.63900       -5.56790        0.13690
C          4.84600       -5.05860       -0.37000
C          2.47110       -5.61740       -0.72020
C          2.38220       -5.87160       -2.07290
C          3.45480       -6.46800       -2.86850
C          3.68140       -6.05270       -4.17770
C          4.70100       -6.62430       -4.91530
C          5.49760       -7.61010       -4.36120
C          5.28240       -8.04180       -3.05750
C          6.11260       -9.14560       -2.46820
C          5.48370      -10.50700       -2.77120
C          4.25630       -7.46900       -2.32430
C          1.10860       -5.51420       -2.57610
S          0.40720       -5.50540       -4.17890
C         -1.01080       -4.74140       -3.54010
C         -2.20810       -4.15420       -3.99200
C         -2.83080       -4.09100       -5.25870
C         -4.07140       -3.37420       -5.39490
N         -4.55400       -3.43140       -6.62550
S         -3.54060       -4.30730       -7.53640
N         -2.44220       -4.64420       -6.39610
C         -4.56560       -2.63940       -4.29270
C         -5.55260       -1.64490       -4.19520
S         -6.72840       -0.85040       -5.18770
C         -7.04850        0.28180       -3.88820
C         -7.91540        1.38240       -3.75360
C         -8.84070        1.86390       -4.77040
C        -10.05410        2.45170       -4.41190
C        -10.92070        2.89220       -5.39250
C        -10.59330        2.75640       -6.73150
C         -9.38710        2.17890       -7.10740
C         -9.03260        1.98690       -8.55370
C         -9.33300        0.55160       -8.98970
C         -8.52180        1.73480       -6.12000
C         -7.77340        1.96760       -2.49840
S         -6.57610        1.15070       -1.48730
C         -6.27830        0.01810       -2.74810
C         -5.44160       -1.08730       -2.91720
N         -4.46120       -1.72490       -2.20610
C         -3.91250       -2.68640       -3.02890
C         -2.81840       -3.56640       -2.85220
N         -2.06520       -3.86470       -1.73010
C         -0.95750       -4.54880       -2.15790
C          0.24680       -5.00220       -1.60730
S          0.97640       -4.99270       -0.04450
C         -2.54240       -4.01840       -0.37270
C         -2.71790       -5.49230       -0.00840
C         -3.96720       -1.13970       -0.97700
C         -4.91120       -1.37280        0.20090
C         -8.35220        3.07730       -1.93370
C         -8.69430        3.99680       -1.20430
C         -8.95650        5.07250       -0.39050
C         -8.32730        5.25840        0.81030
C         -8.28960        6.58330        1.47090
O         -9.01560        7.52900        1.25670
C         -7.13550        6.51880        2.39500
C         -6.62500        7.55060        3.17970
C         -5.51580        7.20210        3.91350
C         -4.94700        5.92220        3.87010
C         -5.44200        4.89180        3.10700
C         -6.57270        5.22510        2.35640
C         -7.38970        4.38960        1.48180
C         -7.37690        3.01800        1.42830
C         -8.44430        2.25770        0.90760
N         -9.32440        1.58540        0.60380
C         -6.36820        2.20010        1.96910
N         -5.55230        1.47500        2.32910
C         -3.85740        6.28500        4.84840
C         -4.03220        5.77840        6.29560
C         -3.11060        6.66400        7.10270
C         -3.65150        7.87470        7.14720
C         -4.94800        7.82780        6.37110
C         -5.38660        6.38990        6.67690
C         -4.49400        7.71100        4.90050
H         10.73510       -2.37930        4.60750
H          7.95400        2.24790        1.45640
H         12.18780        2.95090        4.14820
H         11.40160        5.79230        2.38670
H         10.82370        6.64940        4.65130
H          9.36050        4.81100        5.79810
H          7.15410        4.48410        4.35590
H          7.25840        6.12090        2.31820
H          8.46740        7.70460        4.06270
H          9.44580        7.66840        2.57450
H          9.25750        5.46470        0.98550
H          9.40300       -2.61670        1.22510
H          6.65880       -4.95320        4.65690
H          8.60860       -3.60470        5.32410
H          4.46420       -5.84260        3.42970
H          2.60200       -6.25610        1.87430
H          4.94780       -4.81640       -1.41630
H          3.07430       -5.27120       -4.60800
H          4.87730       -6.29430       -5.92830
H          6.29540       -8.04890       -4.94270
H          7.12030       -9.11290       -2.88670
H          6.18760       -9.01430       -1.38670
H          6.08470      -11.30760       -2.34620
H          5.41120      -10.65950       -3.84570
H          4.48210      -10.56300       -2.35040
H          4.06970       -7.80720       -1.31460
H        -10.32030        2.53980       -3.36960
H        -11.86230        3.34060       -5.11190
H        -11.27960        3.10240       -7.49100
H         -9.60410        2.68170       -9.17200
H         -7.97010        2.19080       -8.70240
H         -9.07420        0.41080      -10.03640
H         -8.76020       -0.15340       -8.39170
H        -10.39030        0.33090       -8.86030
H         -7.57510        1.30100       -6.40580
H         -3.50760       -3.52870       -0.28810
H         -1.82820       -3.55080        0.31340
H         -3.13710       -5.57010        0.99100
H         -3.39420       -5.97560       -0.71050
H         -1.76650       -6.01620       -0.02420
H         -3.88600       -0.05880       -1.14010
H         -2.96610       -1.51990       -0.77530
H         -5.89640       -0.97240       -0.02130
H         -5.02510       -2.42890        0.43390
H         -4.53310       -0.85740        1.07880
H         -9.60610        5.86180       -0.74900
H         -7.08690        8.52540        3.18290
H         -4.99660        3.91070        3.07290
H         -2.83760        6.18330        4.48180
H         -3.91360        4.70540        6.41960
H         -2.16430        6.34360        7.49760
H         -3.24730        8.76770        7.58690
H         -5.66340        8.62230        6.56560
H         -6.21830        6.04040        6.06810
H         -5.62090        6.24640        7.73030
H         -3.89750        8.55990        4.57100
