
  xtb     02132200493D
 energy: -292.857733165633 gnorm: 0.000335366281 xtb: 6.4.1 (unknown)
174195  0     0  0            999 V2000
    7.9970   -3.1489   -9.9112 C   0  0  0  0  0  0  0  0  0  0  0  0
    8.8099   -3.5281   -8.8963 C   0  0  0  0  0  0  0  0  0  0  0  0
    8.5565   -3.2730   -7.4470 C   0  0  0  0  0  0  0  0  0  0  0  0
    7.5830   -2.7619   -6.9404 O   0  0  0  0  0  0  0  0  0  0  0  0
    9.7901   -3.6763   -6.7507 C   0  0  0  0  0  0  0  0  0  0  0  0
   10.0195   -3.6202   -5.3772 C   0  0  0  0  0  0  0  0  0  0  0  0
   11.2651   -4.0580   -4.9995 C   0  0  0  0  0  0  0  0  0  0  0  0
   12.2192   -4.5117   -5.9220 C   0  0  0  0  0  0  0  0  0  0  0  0
   12.0063   -4.5727   -7.2777 C   0  0  0  0  0  0  0  0  0  0  0  0
   10.7404   -4.1363   -7.6849 C   0  0  0  0  0  0  0  0  0  0  0  0
   10.1584   -4.0679   -9.0200 C   0  0  0  0  0  0  0  0  0  0  0  0
   10.7581   -4.4919  -10.1753 C   0  0  0  0  0  0  0  0  0  0  0  0
   12.0666   -5.0159  -10.2537 C   0  0  0  0  0  0  0  0  0  0  0  0
   13.1224   -5.4425  -10.3986 N   0  0  0  0  0  0  0  0  0  0  0  0
   10.1659   -4.4820  -11.4567 C   0  0  0  0  0  0  0  0  0  0  0  0
    9.7592   -4.5208  -12.5299 N   0  0  0  0  0  0  0  0  0  0  0  0
   13.2441   -4.7808   -4.8492 C   0  0  0  0  0  0  0  0  0  0  0  0
   14.3938   -3.7574   -4.6759 C   0  0  0  0  0  0  0  0  0  0  0  0
   13.8661   -2.4308   -5.1633 C   0  0  0  0  0  0  0  0  0  0  0  0
   12.9631   -2.0077   -4.2887 C   0  0  0  0  0  0  0  0  0  0  0  0
   12.8631   -3.0413   -3.1941 C   0  0  0  0  0  0  0  0  0  0  0  0
   14.3173   -3.5376   -3.1565 C   0  0  0  0  0  0  0  0  0  0  0  0
   12.1798   -4.2815   -3.8217 C   0  0  0  0  0  0  0  0  0  0  0  0
    6.6327   -2.6906   -9.7846 C   0  0  0  0  0  0  0  0  0  0  0  0
    5.7392   -3.2709   -8.8687 C   0  0  0  0  0  0  0  0  0  0  0  0
    4.4690   -2.7589   -8.7759 C   0  0  0  0  0  0  0  0  0  0  0  0
    3.3594   -3.1702   -7.8740 C   0  0  0  0  0  0  0  0  0  0  0  0
    3.3337   -4.0961   -7.0999 O   0  0  0  0  0  0  0  0  0  0  0  0
    2.2797   -2.1852   -8.1531 C   0  0  0  0  0  0  0  0  0  0  0  0
    2.6913   -1.3136   -9.1808 C   0  0  0  0  0  0  0  0  0  0  0  0
    4.0483   -1.6710   -9.5694 C   0  0  0  0  0  0  0  0  0  0  0  0
    4.9071   -1.1342  -10.5114 C   0  0  0  0  0  0  0  0  0  0  0  0
    6.1842   -1.6617  -10.6206 C   0  0  0  0  0  0  0  0  0  0  0  0
    1.8456   -0.3034   -9.6013 C   0  0  0  0  0  0  0  0  0  0  0  0
    0.6147   -0.1558   -8.9810 C   0  0  0  0  0  0  0  0  0  0  0  0
    0.2042   -1.0084   -7.9507 C   0  0  0  0  0  0  0  0  0  0  0  0
    1.0598   -2.0436   -7.5394 C   0  0  0  0  0  0  0  0  0  0  0  0
   -1.0392   -0.7918   -7.2442 C   0  0  0  0  0  0  0  0  0  0  0  0
   -2.2108   -0.1932   -7.6620 C   0  0  0  0  0  0  0  0  0  0  0  0
   -2.5388    0.1698   -9.0426 C   0  0  0  0  0  0  0  0  0  0  0  0
   -2.2684   -0.7093  -10.0892 C   0  0  0  0  0  0  0  0  0  0  0  0
   -2.6155   -0.3676  -11.3816 C   0  0  0  0  0  0  0  0  0  0  0  0
   -3.2334    0.8437  -11.6427 C   0  0  0  0  0  0  0  0  0  0  0  0
   -3.5207    1.7268  -10.6100 C   0  0  0  0  0  0  0  0  0  0  0  0
   -4.1551    3.0587  -10.8899 C   0  0  0  0  0  0  0  0  0  0  0  0
   -3.0808    4.1203  -11.1350 C   0  0  0  0  0  0  0  0  0  0  0  0
   -3.1698    1.3787   -9.3139 C   0  0  0  0  0  0  0  0  0  0  0  0
   -3.1204   -0.0423   -6.5908 C   0  0  0  0  0  0  0  0  0  0  0  0
   -4.7265    0.6420   -6.4709 S   0  0  0  0  0  0  0  0  0  0  0  0
   -4.7428    0.2652   -4.7795 C   0  0  0  0  0  0  0  0  0  0  0  0
   -5.5819    0.3983   -3.6565 C   0  0  0  0  0  0  0  0  0  0  0  0
   -6.9075    0.8627   -3.5102 C   0  0  0  0  0  0  0  0  0  0  0  0
   -7.5258    0.8160   -2.2124 C   0  0  0  0  0  0  0  0  0  0  0  0
   -8.7816    1.2333   -2.2368 N   0  0  0  0  0  0  0  0  0  0  0  0
   -9.1549    1.6535   -3.7554 S   0  0  0  0  0  0  0  0  0  0  0  0
   -7.7273    1.3203   -4.4431 N   0  0  0  0  0  0  0  0  0  0  0  0
   -6.7496    0.4330   -1.0958 C   0  0  0  0  0  0  0  0  0  0  0  0
   -6.9973    0.5029    0.2862 C   0  0  0  0  0  0  0  0  0  0  0  0
   -8.2772    0.9340    1.3712 S   0  0  0  0  0  0  0  0  0  0  0  0
   -7.1831    0.7110    2.7169 C   0  0  0  0  0  0  0  0  0  0  0  0
   -7.3279    0.8955    4.1100 C   0  0  0  0  0  0  0  0  0  0  0  0
   -8.5627    1.4023    4.7153 C   0  0  0  0  0  0  0  0  0  0  0  0
   -9.7926    0.8652    4.3487 C   0  0  0  0  0  0  0  0  0  0  0  0
  -10.9552    1.3627    4.9078 C   0  0  0  0  0  0  0  0  0  0  0  0
  -10.9022    2.3963    5.8256 C   0  0  0  0  0  0  0  0  0  0  0  0
   -9.6825    2.9520    6.1948 C   0  0  0  0  0  0  0  0  0  0  0  0
   -9.6242    4.1078    7.1519 C   0  0  0  0  0  0  0  0  0  0  0  0
   -9.7302    5.4334    6.3958 C   0  0  0  0  0  0  0  0  0  0  0  0
   -8.5209    2.4519    5.6288 C   0  0  0  0  0  0  0  0  0  0  0  0
   -6.1503    0.6269    4.7777 C   0  0  0  0  0  0  0  0  0  0  0  0
   -4.8546    0.1674    3.6842 S   0  0  0  0  0  0  0  0  0  0  0  0
   -5.9039    0.3184    2.3237 C   0  0  0  0  0  0  0  0  0  0  0  0
   -5.7996    0.1877    0.9324 C   0  0  0  0  0  0  0  0  0  0  0  0
   -4.8316   -0.1044    0.0087 N   0  0  0  0  0  0  0  0  0  0  0  0
   -5.3961    0.0250   -1.2456 C   0  0  0  0  0  0  0  0  0  0  0  0
   -4.8614   -0.1250   -2.5493 C   0  0  0  0  0  0  0  0  0  0  0  0
   -3.6450   -0.6171   -2.9958 N   0  0  0  0  0  0  0  0  0  0  0  0
   -3.5766   -0.3632   -4.3425 C   0  0  0  0  0  0  0  0  0  0  0  0
   -2.6516   -0.5439   -5.3775 C   0  0  0  0  0  0  0  0  0  0  0  0
   -1.0706   -1.2114   -5.5378 S   0  0  0  0  0  0  0  0  0  0  0  0
   -2.8823   -1.7273   -2.4657 C   0  0  0  0  0  0  0  0  0  0  0  0
   -3.3192   -3.0487   -3.0987 C   0  0  0  0  0  0  0  0  0  0  0  0
   -3.4398   -0.1437    0.3981 C   0  0  0  0  0  0  0  0  0  0  0  0
   -3.0756   -1.4484    1.1074 C   0  0  0  0  0  0  0  0  0  0  0  0
   -5.8571    0.6188    6.1937 C   0  0  0  0  0  0  0  0  0  0  0  0
   -4.5401    0.8524    6.6231 C   0  0  0  0  0  0  0  0  0  0  0  0
   -4.2605    0.8252    7.9671 C   0  0  0  0  0  0  0  0  0  0  0  0
   -2.9598    1.0316    8.6551 C   0  0  0  0  0  0  0  0  0  0  0  0
   -1.8839    1.2703    8.1606 O   0  0  0  0  0  0  0  0  0  0  0  0
   -3.2824    0.8776   10.0996 C   0  0  0  0  0  0  0  0  0  0  0  0
   -4.6568    0.6049   10.2470 C   0  0  0  0  0  0  0  0  0  0  0  0
   -5.2640    0.5694    8.9224 C   0  0  0  0  0  0  0  0  0  0  0  0
   -6.5582    0.3222    8.5046 C   0  0  0  0  0  0  0  0  0  0  0  0
   -6.8421    0.3406    7.1472 C   0  0  0  0  0  0  0  0  0  0  0  0
   -5.1821    0.4039   11.5099 C   0  0  0  0  0  0  0  0  0  0  0  0
   -4.3311    0.4762   12.6029 C   0  0  0  0  0  0  0  0  0  0  0  0
   -2.9724    0.7775   12.4690 C   0  0  0  0  0  0  0  0  0  0  0  0
   -2.4426    0.9690   11.1841 C   0  0  0  0  0  0  0  0  0  0  0  0
   -2.1449    0.7999   13.6613 C   0  0  0  0  0  0  0  0  0  0  0  0
   -1.0735    1.5512   13.9771 C   0  0  0  0  0  0  0  0  0  0  0  0
   -0.3819    1.1228   15.2172 C   0  0  0  0  0  0  0  0  0  0  0  0
   -0.8783    0.3685   16.0256 O   0  0  0  0  0  0  0  0  0  0  0  0
    0.9434    1.5190   15.3568 N   0  0  0  0  0  0  0  0  0  0  0  0
    1.7745    0.7804   16.3047 C   0  0  0  0  0  0  0  0  0  0  0  0
    1.7387    1.4240   17.6842 C   0  0  0  0  0  0  0  0  0  0  0  0
    1.5125    2.5911   14.7131 C   0  0  0  0  0  0  0  0  0  0  0  0
    2.6948    2.8149   14.7399 O   0  0  0  0  0  0  0  0  0  0  0  0
    0.4812    3.5007   14.0545 C   0  0  0  0  0  0  0  0  0  0  0  0
    1.1410    4.5103   13.2561 C   0  0  0  0  0  0  0  0  0  0  0  0
    1.6393    5.3031   12.6031 N   0  0  0  0  0  0  0  0  0  0  0  0
   -0.5307    2.7187   13.1944 C   0  0  0  0  0  0  0  0  0  0  0  0
   -1.6407    3.6832   12.7632 C   0  0  0  0  0  0  0  0  0  0  0  0
    8.3920   -3.1448  -10.9200 H   0  0  0  0  0  0  0  0  0  0  0  0
    9.2553   -3.2635   -4.7045 H   0  0  0  0  0  0  0  0  0  0  0  0
   12.7512   -4.9240   -7.9719 H   0  0  0  0  0  0  0  0  0  0  0  0
   13.5895   -5.8094   -4.7680 H   0  0  0  0  0  0  0  0  0  0  0  0
   15.3469   -4.0759   -5.0892 H   0  0  0  0  0  0  0  0  0  0  0  0
   14.1540   -1.9775   -6.0937 H   0  0  0  0  0  0  0  0  0  0  0  0
   12.3452   -1.1305   -4.3424 H   0  0  0  0  0  0  0  0  0  0  0  0
   12.4228   -2.7086   -2.2579 H   0  0  0  0  0  0  0  0  0  0  0  0
   15.0126   -2.7764   -2.8058 H   0  0  0  0  0  0  0  0  0  0  0  0
   14.4495   -4.4511   -2.5784 H   0  0  0  0  0  0  0  0  0  0  0  0
   11.8265   -4.9857   -3.0711 H   0  0  0  0  0  0  0  0  0  0  0  0
    6.0296   -4.1144   -8.2639 H   0  0  0  0  0  0  0  0  0  0  0  0
    4.5983   -0.3187  -11.1478 H   0  0  0  0  0  0  0  0  0  0  0  0
    6.8706   -1.2440  -11.3435 H   0  0  0  0  0  0  0  0  0  0  0  0
    2.1396    0.3803  -10.3832 H   0  0  0  0  0  0  0  0  0  0  0  0
   -0.0337    0.6532   -9.2804 H   0  0  0  0  0  0  0  0  0  0  0  0
    0.7683   -2.7165   -6.7460 H   0  0  0  0  0  0  0  0  0  0  0  0
   -1.7969   -1.6587   -9.8824 H   0  0  0  0  0  0  0  0  0  0  0  0
   -2.4077   -1.0524  -12.1907 H   0  0  0  0  0  0  0  0  0  0  0  0
   -3.5024    1.1028  -12.6566 H   0  0  0  0  0  0  0  0  0  0  0  0
   -4.7963    2.9854  -11.7702 H   0  0  0  0  0  0  0  0  0  0  0  0
   -4.7716    3.3588  -10.0406 H   0  0  0  0  0  0  0  0  0  0  0  0
   -3.5388    5.0863  -11.3335 H   0  0  0  0  0  0  0  0  0  0  0  0
   -2.4648    3.8460  -11.9888 H   0  0  0  0  0  0  0  0  0  0  0  0
   -2.4359    4.2146  -10.2640 H   0  0  0  0  0  0  0  0  0  0  0  0
   -3.3813    2.0614   -8.5037 H   0  0  0  0  0  0  0  0  0  0  0  0
   -9.8335    0.0519    3.6401 H   0  0  0  0  0  0  0  0  0  0  0  0
  -11.9081    0.9400    4.6258 H   0  0  0  0  0  0  0  0  0  0  0  0
  -11.8146    2.7784    6.2603 H   0  0  0  0  0  0  0  0  0  0  0  0
  -10.4450    4.0359    7.8686 H   0  0  0  0  0  0  0  0  0  0  0  0
   -8.6830    4.0821    7.7052 H   0  0  0  0  0  0  0  0  0  0  0  0
   -8.9133    5.5286    5.6841 H   0  0  0  0  0  0  0  0  0  0  0  0
   -9.6879    6.2711    7.0880 H   0  0  0  0  0  0  0  0  0  0  0  0
  -10.6682    5.4822    5.8473 H   0  0  0  0  0  0  0  0  0  0  0  0
   -7.5663    2.8821    5.8978 H   0  0  0  0  0  0  0  0  0  0  0  0
   -3.0271   -1.7934   -1.3942 H   0  0  0  0  0  0  0  0  0  0  0  0
   -1.8244   -1.5452   -2.6793 H   0  0  0  0  0  0  0  0  0  0  0  0
   -3.1491   -3.0413   -4.1719 H   0  0  0  0  0  0  0  0  0  0  0  0
   -4.3780   -3.2210   -2.9159 H   0  0  0  0  0  0  0  0  0  0  0  0
   -2.7504   -3.8666   -2.6651 H   0  0  0  0  0  0  0  0  0  0  0  0
   -2.8208    0.0272   -0.4832 H   0  0  0  0  0  0  0  0  0  0  0  0
   -3.2638    0.6874    1.0910 H   0  0  0  0  0  0  0  0  0  0  0  0
   -2.0017   -1.4935    1.2647 H   0  0  0  0  0  0  0  0  0  0  0  0
   -3.5660   -1.4980    2.0755 H   0  0  0  0  0  0  0  0  0  0  0  0
   -3.3851   -2.3193    0.5335 H   0  0  0  0  0  0  0  0  0  0  0  0
   -3.7554    1.0560    5.9091 H   0  0  0  0  0  0  0  0  0  0  0  0
   -7.3416    0.1053    9.2149 H   0  0  0  0  0  0  0  0  0  0  0  0
   -7.8453    0.1223    6.8158 H   0  0  0  0  0  0  0  0  0  0  0  0
   -6.2294    0.1826   11.6490 H   0  0  0  0  0  0  0  0  0  0  0  0
   -4.7278    0.3111   13.5942 H   0  0  0  0  0  0  0  0  0  0  0  0
   -1.3896    1.1458   11.0323 H   0  0  0  0  0  0  0  0  0  0  0  0
   -2.4324    0.0751   14.4170 H   0  0  0  0  0  0  0  0  0  0  0  0
    1.3892   -0.2393   16.3526 H   0  0  0  0  0  0  0  0  0  0  0  0
    2.7915    0.7799   15.9080 H   0  0  0  0  0  0  0  0  0  0  0  0
    2.1135    2.4441   17.6354 H   0  0  0  0  0  0  0  0  0  0  0  0
    0.7210    1.4325   18.0670 H   0  0  0  0  0  0  0  0  0  0  0  0
    2.3641    0.8562   18.3671 H   0  0  0  0  0  0  0  0  0  0  0  0
   -0.0563    4.0093   14.8681 H   0  0  0  0  0  0  0  0  0  0  0  0
   -0.0017    2.3571   12.3036 H   0  0  0  0  0  0  0  0  0  0  0  0
   -2.2253    3.9938   13.6274 H   0  0  0  0  0  0  0  0  0  0  0  0
   -1.2030    4.5658   12.3014 H   0  0  0  0  0  0  0  0  0  0  0  0
   -2.3105    3.2212   12.0456 H   0  0  0  0  0  0  0  0  0  0  0  0
  1  2  2  0  0  0  0
  2  3  1  0  0  0  0
  3  4  2  0  0  0  0
  3  5  1  0  0  0  0
  5  6  2  0  0  0  0
  6  7  1  0  0  0  0
  7  8  2  0  0  0  0
  8  9  1  0  0  0  0
  9 10  2  0  0  0  0
 10 11  1  0  0  0  0
 11 12  2  0  0  0  0
 12 13  1  0  0  0  0
 13 14  3  0  0  0  0
 12 15  1  0  0  0  0
 15 16  3  0  0  0  0
  8 17  1  0  0  0  0
 17 18  1  0  0  0  0
 18 19  1  0  0  0  0
 19 20  2  0  0  0  0
 20 21  1  0  0  0  0
 21 22  1  0  0  0  0
 21 23  1  0  0  0  0
  1 24  1  0  0  0  0
 24 25  2  0  0  0  0
 25 26  1  0  0  0  0
 26 27  1  0  0  0  0
 27 28  2  0  0  0  0
 27 29  1  0  0  0  0
 29 30  2  0  0  0  0
 30 31  1  0  0  0  0
 31 32  1  0  0  0  0
 32 33  2  0  0  0  0
 30 34  1  0  0  0  0
 34 35  2  0  0  0  0
 35 36  1  0  0  0  0
 36 37  2  0  0  0  0
 36 38  1  0  0  0  0
 38 39  2  0  0  0  0
 39 40  1  0  0  0  0
 40 41  2  0  0  0  0
 41 42  1  0  0  0  0
 42 43  2  0  0  0  0
 43 44  1  0  0  0  0
 44 45  1  0  0  0  0
 45 46  1  0  0  0  0
 44 47  2  0  0  0  0
 39 48  1  0  0  0  0
 48 49  1  0  0  0  0
 49 50  1  0  0  0  0
 50 51  1  0  0  0  0
 51 52  1  0  0  0  0
 52 53  1  0  0  0  0
 53 54  2  0  0  0  0
 54 55  1  0  0  0  0
 55 56  1  0  0  0  0
 53 57  1  0  0  0  0
 57 58  1  0  0  0  0
 58 59  1  0  0  0  0
 59 60  1  0  0  0  0
 60 61  1  0  0  0  0
 61 62  1  0  0  0  0
 62 63  2  0  0  0  0
 63 64  1  0  0  0  0
 64 65  2  0  0  0  0
 65 66  1  0  0  0  0
 66 67  1  0  0  0  0
 67 68  1  0  0  0  0
 66 69  2  0  0  0  0
 61 70  2  0  0  0  0
 70 71  1  0  0  0  0
 71 72  1  0  0  0  0
 72 73  1  0  0  0  0
 73 74  1  0  0  0  0
 74 75  1  0  0  0  0
 75 76  1  0  0  0  0
 76 77  1  0  0  0  0
 77 78  1  0  0  0  0
 78 79  1  0  0  0  0
 79 80  1  0  0  0  0
 77 81  1  0  0  0  0
 81 82  1  0  0  0  0
 74 83  1  0  0  0  0
 83 84  1  0  0  0  0
 70 85  1  0  0  0  0
 85 86  2  0  0  0  0
 86 87  1  0  0  0  0
 87 88  1  0  0  0  0
 88 89  2  0  0  0  0
 88 90  1  0  0  0  0
 90 91  2  0  0  0  0
 91 92  1  0  0  0  0
 92 93  1  0  0  0  0
 93 94  2  0  0  0  0
 91 95  1  0  0  0  0
 95 96  2  0  0  0  0
 96 97  1  0  0  0  0
 97 98  2  0  0  0  0
 97 99  1  0  0  0  0
 99100  2  0  0  0  0
100101  1  0  0  0  0
101102  2  0  0  0  0
101103  1  0  0  0  0
103104  1  0  0  0  0
104105  1  0  0  0  0
103106  1  0  0  0  0
106107  2  0  0  0  0
106108  1  0  0  0  0
108109  1  0  0  0  0
109110  3  0  0  0  0
108111  1  0  0  0  0
111112  1  0  0  0  0
 11  2  1  0  0  0  0
 23 17  1  0  0  0  0
 33 24  1  0  0  0  0
 80 38  1  0  0  0  0
 94 85  1  0  0  0  0
111100  1  0  0  0  0
 10  5  1  0  0  0  0
 22 18  1  0  0  0  0
 31 26  2  0  0  0  0
 47 40  1  0  0  0  0
 79 48  2  0  0  0  0
 92 87  2  0  0  0  0
 23  7  1  0  0  0  0
 37 29  1  0  0  0  0
 78 50  2  0  0  0  0
 98 90  1  0  0  0  0
 76 51  2  0  0  0  0
 56 52  2  0  0  0  0
 75 57  2  0  0  0  0
 73 58  2  0  0  0  0
 72 60  2  0  0  0  0
 69 62  1  0  0  0  0
  1113  1  0  0  0  0
  6114  1  0  0  0  0
  9115  1  0  0  0  0
 17116  1  0  0  0  0
 18117  1  0  0  0  0
 19118  1  0  0  0  0
 20119  1  0  0  0  0
 21120  1  0  0  0  0
 22121  1  0  0  0  0
 22122  1  0  0  0  0
 23123  1  0  0  0  0
 25124  1  0  0  0  0
 32125  1  0  0  0  0
 33126  1  0  0  0  0
 34127  1  0  0  0  0
 35128  1  0  0  0  0
 37129  1  0  0  0  0
 41130  1  0  0  0  0
 42131  1  0  0  0  0
 43132  1  0  0  0  0
 45133  1  0  0  0  0
 45134  1  0  0  0  0
 46135  1  0  0  0  0
 46136  1  0  0  0  0
 46137  1  0  0  0  0
 47138  1  0  0  0  0
 63139  1  0  0  0  0
 64140  1  0  0  0  0
 65141  1  0  0  0  0
 67142  1  0  0  0  0
 67143  1  0  0  0  0
 68144  1  0  0  0  0
 68145  1  0  0  0  0
 68146  1  0  0  0  0
 69147  1  0  0  0  0
 81148  1  0  0  0  0
 81149  1  0  0  0  0
 82150  1  0  0  0  0
 82151  1  0  0  0  0
 82152  1  0  0  0  0
 83153  1  0  0  0  0
 83154  1  0  0  0  0
 84155  1  0  0  0  0
 84156  1  0  0  0  0
 84157  1  0  0  0  0
 86158  1  0  0  0  0
 93159  1  0  0  0  0
 94160  1  0  0  0  0
 95161  1  0  0  0  0
 96162  1  0  0  0  0
 98163  1  0  0  0  0
 99164  1  0  0  0  0
104165  1  0  0  0  0
104166  1  0  0  0  0
105167  1  0  0  0  0
105168  1  0  0  0  0
105169  1  0  0  0  0
108170  1  0  0  0  0
111171  1  0  0  0  0
112172  1  0  0  0  0
112173  1  0  0  0  0
112174  1  0  0  0  0
M  END
