259

C          6.40240       -2.13120      -10.74300
C          7.23470       -1.49320       -9.85990
C          6.99750       -1.31820       -8.42240
O          6.05680       -1.73370       -7.76770
C          8.13010       -0.52960       -7.90810
C          8.32810       -0.10600       -6.59640
C          9.47630        0.62620       -6.41280
C         10.36500        0.91140       -7.45760
C         10.18330        0.49480       -8.75510
C          9.01800       -0.24780       -8.96550
C          8.48970       -0.84630      -10.19120
C          9.09780       -0.79490      -11.41970
C          8.61440       -1.37660      -12.61020
N          8.30390       -1.81620      -13.62570
C         10.32240       -0.14500      -11.68040
N         11.30950        0.36260      -11.97520
C         11.29250        1.69360       -6.56190
C         11.24170        3.23930       -6.64520
C          9.85320        3.59840       -7.11290
C          9.01080        3.32960       -6.12440
C          9.81460        2.78380       -4.97020
C         11.11930        3.57610       -5.15050
C         10.30150        1.37690       -5.39780
C          5.16780       -2.76520      -10.54350
S          4.31930       -2.95370       -9.01510
C          3.04590       -3.75090       -9.82460
C          1.78000       -4.31700       -9.46280
C          1.18030       -4.80050      -10.64330
C          2.08480       -4.58820      -11.84500
C          1.34090       -3.75610      -12.87110
C          0.53940       -4.37440      -13.82260
C         -0.17810       -3.62120      -14.73220
C         -0.11800       -2.23380      -14.71560
C         -0.92910       -1.41650      -15.67930
C         -2.30590       -1.10500      -15.08900
C          0.67310       -1.62050      -13.75380
C          1.39090       -2.36940      -12.83980
C          2.61180       -5.88300      -12.43790
C          2.48580       -7.09760      -11.77990
C          3.01510       -8.25090      -12.33120
C          3.68790       -8.22010      -13.54450
C          4.30120       -9.46510      -14.11750
C          5.74070       -9.62620      -13.62450
C          3.82340       -6.99840      -14.19260
C          3.29460       -5.84480      -13.64800
C          3.24520       -3.86980      -11.19970
C          4.44500       -3.32560      -11.60580
C         -0.08470       -5.34650      -10.59430
C         -0.72860       -5.44870       -9.37230
C         -0.11490       -5.02680       -8.18600
C          1.14560       -4.43180       -8.23940
C         -0.79060       -5.16370       -6.91000
C         -1.68840       -6.12030       -6.48880
C         -2.03040       -7.33890       -7.22660
C         -3.34450       -7.79320       -7.26980
C         -3.65210       -8.94720       -7.96700
C         -2.66080       -9.65180       -8.62580
C         -1.34060       -9.21790       -8.58510
C         -0.25310       -9.99910       -9.26600
C          0.31760      -11.06040       -8.32370
C         -1.03620       -8.07050       -7.87170
C         -2.18460       -5.82480       -5.19680
S         -3.33170       -6.62350       -4.14580
C         -3.06850       -5.39340       -2.95460
C         -3.48300       -5.05550       -1.65290
C         -4.30670       -5.73040       -0.72630
C         -4.44040       -5.20030        0.60280
N         -5.18900       -5.96750        1.37990
S         -5.69040       -7.24090        0.51400
N         -4.96850       -6.86590       -0.88580
C         -3.84400       -3.95770        0.90690
C         -3.91550       -3.14020        2.04900
S         -4.59300       -3.16590        3.64240
C         -3.96280       -1.56040        3.91150
C         -3.95520       -0.72090        5.04690
C         -4.63530       -1.05500        6.29960
C         -4.45130       -2.30070        6.89250
C         -5.10530       -2.60540        8.07030
C         -5.94690       -1.67940        8.66340
C         -6.15840       -0.44050        8.07410
C         -7.10650        0.55740        8.67290
C         -8.48330        0.45460        8.01490
C         -5.50670       -0.14510        6.88580
C         -3.20400        0.41290        4.82200
S         -2.62710        0.51230        3.16010
C         -3.27730       -1.04690        2.81250
C         -3.24950       -1.95170        1.74360
N         -2.75740       -2.00490        0.46590
C         -3.09090       -3.23950       -0.06180
C         -2.80830       -3.85350       -1.30830
N         -1.97790       -3.49060       -2.36040
C         -2.14230       -4.42870       -3.34790
C         -1.63820       -4.67450       -4.63220
S         -0.51480       -3.92070       -5.70340
C         -0.72350       -2.76950       -2.29860
C          0.24880       -3.45010       -1.33730
C         -2.39730       -0.78360       -0.21860
C         -0.99930       -0.29320        0.15110
C         -2.66940        1.37230        5.74590
C         -1.32110        1.68340        5.87010
N         -0.27350        1.06200        5.21010
C          0.84250        1.83940        4.85400
C          2.13080        1.33730        5.01570
C          3.22190        2.11030        4.67560
C          3.06340        3.39830        4.17610
C          4.25630        4.24180        3.84530
C          1.77440        3.88950        4.01500
C          0.67340        3.12270        4.34220
C         -0.30250       -0.30020        4.88560
C         -0.92320       -1.23000        5.71610
C         -1.01090       -2.55380        5.33110
C         -0.49380       -2.99140        4.11890
C         -0.66780       -4.41040        3.67290
C          0.16740       -2.06680        3.31880
C          0.26970       -0.74310        3.69280
C         -1.12720        2.72210        6.81190
S          0.27340        3.50580        7.43960
C         -0.73710        4.54510        8.45650
C         -2.10160        4.19530        8.37760
N         -3.10380        4.64990        9.18440
C         -4.44170        4.59410        8.74120
C         -5.43500        4.14100        9.60230
C         -6.74900        4.09570        9.17680
C         -7.09980        4.49050        7.89160
C         -8.51830        4.41240        7.41760
C         -6.09860        4.95390        7.04450
C         -4.78340        5.01340        7.45880
C         -2.86570        5.17880       10.46260
C         -1.94010        4.59500       11.32610
C         -1.69620        5.15520       12.56210
C         -2.36040        6.30780       12.97630
C         -2.04220        6.93200       14.29850
C         -3.31030        6.85890       12.12740
C         -3.56790        6.30430       10.88740
C         -2.29260        3.18540        7.40480
S         -3.67340        2.30940        6.83680
C         -0.07740        5.53200        9.19300
C         -0.63410        6.70940        9.64400
C         -1.78150        7.37010        9.00400
O         -2.42970        6.97360        8.05220
C         -1.90320        8.68800        9.66360
C         -2.83030        9.68600        9.38020
C         -2.69850       10.81060       10.16070
C         -1.71230       10.93670       11.14580
C         -0.78880        9.95890       11.43370
C         -0.90950        8.80700       10.65380
C         -0.13010        7.57050       10.67480
C          0.80900        7.22360       11.61660
C          1.43430        5.96290       11.67530
N          1.96280        4.95060       11.80290
C          1.20400        8.04470       12.68730
N          1.55560        8.66070       13.59210
C         -2.15210       12.33040       11.52280
C         -1.28810       13.49340       10.99160
C         -2.19670       14.69700       11.09580
C         -3.13330       14.57720       10.16360
C         -2.87310       13.29060        9.41370
C         -1.34080       13.25340        9.47730
C         -3.25460       12.18880       10.42480
H          6.71930       -2.15310      -11.77880
H          7.61770       -0.35100       -5.82230
H         10.87930        0.72300       -9.54450
H         12.30990        1.31580       -6.48270
H         12.06430        3.68870       -7.19470
H          9.62650        3.94590       -8.10390
H          7.93920        3.40710       -6.12460
H          9.33810        2.81940       -3.99390
H         10.99340        4.64220       -4.96780
H         11.94490        3.19510       -4.55090
H         10.67240        0.79330       -4.55740
H          0.48670       -5.45310      -13.86020
H         -0.79160       -4.11930      -15.46960
H         -1.05470       -1.96430      -16.61550
H         -0.41150       -0.48030      -15.89780
H         -2.84310       -2.02650      -14.87540
H         -2.89420       -0.51290      -15.78610
H         -2.20190       -0.54790      -14.16050
H          0.73130       -0.54180      -13.71990
H          1.99720       -1.86830      -12.09930
H          1.96850       -7.14730      -10.83290
H          2.90110       -9.19040      -11.80870
H          3.71800      -10.33800      -13.81710
H          4.29900       -9.41080      -15.20800
H          6.34080       -8.76960      -13.92300
H          5.76320       -9.69700      -12.53920
H          6.18760      -10.52590      -14.04110
H          4.34780       -6.95090      -15.13630
H          3.40100       -4.90540      -14.17090
H          4.81140       -3.30400      -12.61670
H         -0.57390       -5.68850      -11.49370
H         -1.72590       -5.85750       -9.33100
H          1.62430       -4.07310       -7.34010
H         -4.12310       -7.23510       -6.77230
H         -4.67410       -9.29510       -8.00040
H         -2.91100      -10.54680       -9.17720
H          0.54670       -9.32280       -9.57580
H         -0.65230      -10.48620      -10.15810
H          1.10620      -11.62430       -8.81670
H         -0.46340      -11.75170       -8.01540
H          0.72980      -10.59190       -7.43280
H         -0.01070       -7.73350       -7.81600
H         -3.79230       -3.01940        6.43140
H         -4.95720       -3.57100        8.53120
H         -6.44930       -1.92370        9.58840
H         -7.20490        0.37720        9.74520
H         -6.71180        1.56530        8.52800
H         -8.90140       -0.53880        8.16250
H         -8.40470        0.63500        6.94530
H         -9.16510        1.18580        8.44260
H         -5.69850        0.79860        6.39580
H         -0.30850       -2.77770       -3.30930
H         -0.87630       -1.73110       -2.01550
H          0.43230       -4.47460       -1.65350
H         -0.16200       -3.47230       -0.32980
H          1.19570       -2.91650       -1.32480
H         -3.12060       -0.01430        0.07690
H         -2.50920       -0.94050       -1.29230
H         -0.96810       -0.03090        1.20460
H         -0.75590        0.59170       -0.43120
H         -0.24610       -1.05380       -0.02930
H          2.26710        0.34210        5.41260
H          4.21670        1.71080        4.81070
H          4.60440        4.75840        4.74040
H          5.07440        3.62890        3.47340
H          4.00770        4.99210        3.09850
H          1.62770        4.88560        3.62280
H         -0.32390        3.51310        4.19960
H         -1.34000       -0.91270        6.66090
H         -1.49310       -3.26250        5.98830
H          0.17110       -4.73280        3.05980
H         -0.75940       -5.07800        4.52620
H         -1.57700       -4.50400        3.07620
H          0.59930       -2.38640        2.38100
H          0.77440       -0.03370        3.05330
H         -5.17290        3.82450       10.60140
H         -7.51270        3.74470        9.85580
H         -9.20010        4.25940        8.25020
H         -8.80030        5.32430        6.89470
H         -8.63400        3.58060        6.72270
H         -6.35680        5.28300        6.04840
H         -4.01590        5.41210        6.81460
H         -1.40930        3.70450       11.02440
H         -0.97060        4.69510       13.21670
H         -2.01290        6.17780       15.08250
H         -1.06210        7.40900       14.26410
H         -2.77900        7.68710       14.56020
H         -3.84880        7.74520       12.43060
H         -4.30580        6.74700       10.23530
H          0.97740        5.35770        9.36950
H         -3.57560        9.54990        8.61190
H         -0.02940       10.07070       12.18980
H         -2.46170       12.46870       12.55720
H         -0.30750       13.57900       11.45190
H         -2.10100       15.45790       11.84800
H         -3.97630       15.21800        9.98170
H         -3.33640       13.19220        8.43550
H         -0.90700       12.30600        9.16310
H         -0.88530       14.06730        8.91530
H         -4.29940       12.23280       10.72800
