200

C          4.42380      -10.59060       -8.58370
C          5.48170      -10.33710       -7.77720
C          5.43590       -9.50870       -6.53520
O          4.48020       -8.94060       -6.05560
C          6.77860       -9.60840       -5.93970
C          7.21650       -8.97310       -4.77920
C          8.52320       -9.24150       -4.45380
C          9.33570      -10.08760       -5.22290
C          8.91630      -10.72090       -6.36750
C          7.58740      -10.45870       -6.72060
C          6.80820      -10.93760       -7.85690
C          7.26530      -11.77220       -8.84090
C          8.56090      -12.33190       -8.88010
N          9.58960      -12.83150       -8.98030
C          6.52320      -12.20660       -9.96030
N          5.99540      -12.60230      -10.90040
C         10.52020       -9.91300       -4.30600
C         10.84350      -11.06150       -3.31840
C          9.54350      -11.78000       -3.05440
C          8.77670      -10.97690       -2.32910
C          9.54440       -9.70020       -2.08960
C         10.97600      -10.25460       -2.01670
C          9.61670       -8.96800       -3.45260
C          3.15260       -9.90290       -8.54390
C          3.07680       -8.51600       -8.33430
C          1.83850       -7.93030       -8.25600
C          1.49620       -6.50680       -7.99540
O          2.24670       -5.56690       -7.89230
C          0.01230       -6.50410       -7.89480
C         -0.48190       -7.79830       -8.15210
C          0.65200       -8.68410       -8.37850
C          0.72440      -10.03870       -8.64760
C          1.97490      -10.63040       -8.74400
C         -1.84410       -8.03210       -8.09800
C         -2.69310       -6.99100       -7.75380
C         -2.20690       -5.71040       -7.47090
C         -0.82550       -5.47060       -7.55960
C         -3.07140       -4.65720       -6.98610
C         -4.42490       -4.44460       -7.15580
C         -5.28480       -5.14260       -8.11370
C         -4.84490       -5.38210       -9.41410
C         -5.68260       -6.00120      -10.32090
C         -6.95950       -6.38310       -9.94550
C         -7.41770       -6.14380       -8.65640
C         -8.78720       -6.58860       -8.23080
C         -8.73170       -8.00080       -7.64440
C         -6.57180       -5.52290       -7.74930
C         -4.88410       -3.38430       -6.34030
S         -6.46050       -2.67000       -6.07670
C         -5.75680       -1.57660       -4.92970
C         -6.14870       -0.59920       -3.99750
C         -7.42140       -0.16080       -3.56970
C         -7.51330        0.69680       -2.41920
N         -8.76680        0.95840       -2.08400
S         -9.74700        0.20240       -3.12700
N         -8.61050       -0.49520       -4.04540
C         -6.32710        1.18440       -1.82730
C         -6.10360        2.07740       -0.76260
S         -6.99010        2.93320        0.45570
C         -5.48430        3.58090        1.06770
C         -5.18100        4.42880        2.15530
C         -6.22440        4.88660        3.07810
C         -7.07970        3.93630        3.63030
C         -8.08860        4.33140        4.48690
C         -8.24420        5.66750        4.80780
C         -7.40080        6.62940        4.26520
C         -7.53080        8.06470        4.68280
C         -6.96600        8.24510        6.09300
C         -6.40460        6.22930        3.38690
C         -3.81910        4.64450        2.25730
S         -2.91710        3.81320        0.98560
C         -4.37400        3.16380        0.33470
C         -4.72610        2.29510       -0.70230
N         -4.07740        1.55750       -1.66010
C         -5.04960        0.84500       -2.34920
C         -4.96240       -0.15630       -3.34790
N         -3.89550       -0.88080       -3.83980
C         -4.37700       -1.73810       -4.78940
C         -3.88190       -2.77880       -5.58410
S         -2.35070       -3.51910       -5.85890
C         -2.56900       -1.07170       -3.30240
C         -1.49170       -0.47840       -4.20930
C         -2.80560        2.04860       -2.15140
C         -3.00200        2.95840       -3.36190
C         -3.01010        5.30520        3.22860
C         -1.68500        5.02850        3.43450
C         -1.07110        5.81060        4.43500
C          0.25130        5.71810        4.91510
C          1.21450        4.84930        4.27440
C          1.37650        4.63590        2.93150
C          2.43050        3.75310        2.64830
F          2.75880        3.43460        1.38090
C          3.07220        3.25720        3.75220
S          4.43020        2.16470        3.89800
C          4.09510        0.96110        2.55640
C          2.79750        0.21050        2.77660
S          2.36690        3.91910        5.19200
C          0.57240        6.50580        6.01620
C         -0.34020        7.43450        6.58830
C         -1.64740        7.58250        6.05660
C         -2.57910        8.57870        6.52810
S         -2.73680        8.99280        8.21690
C         -3.95670       10.17860        7.88810
S         -4.70980       11.19190        9.08910
C         -3.92820       10.60320       10.63240
C         -4.54000        9.31080       11.13530
C         -4.20130       10.22280        6.53790
C         -3.44650        9.32350        5.77250
F         -5.08770       11.06670        5.98670
C         -1.98120        6.73160        5.01040
S         -3.56210        6.59120        4.27900
C          0.25670        8.13740        7.64280
C          1.56420        7.77070        7.90700
S          2.12340        6.53380        6.80360
C          2.27820        8.33790        8.98120
C          3.55600        8.11770        9.41320
C          4.55890        7.26430        8.74970
O          4.40400        6.56930        7.76410
C          5.80510        7.43570        9.51270
C          7.02980        6.88010        9.28110
C          8.10180        7.19410       10.14640
C          9.38890        6.65350        9.95880
C         10.41300        6.97470       10.80810
C         10.19420        7.84990       11.88220
C          8.95540        8.39200       12.09230
C          7.87830        8.08290       11.23710
C          6.59670        8.64100       11.45200
C          5.57020        8.32170       10.60310
C          4.17020        8.73210       10.57610
C          3.55650        9.52020       11.51720
C          4.21520       10.06730       12.63810
N          4.68810       10.54410       13.56960
C          2.19430        9.88370       11.53220
N          1.09860       10.21750       11.62970
H          4.49710      -11.38840       -9.31220
H          6.55560       -8.32950       -4.22000
H          9.55500      -11.36680       -6.94610
H         11.41520       -9.49180       -4.75930
H         11.68500      -11.68370       -3.61040
H          9.30080      -12.74570       -3.45760
H          7.76480      -11.13700       -2.00550
H          9.20350       -9.08250       -1.26290
H         11.74310       -9.48280       -2.06050
H         11.13870      -10.88610       -1.14480
H          9.92020       -7.92810       -3.35000
H          3.96770       -7.91450       -8.25360
H         -0.16920      -10.63130       -8.77240
H          2.04650      -11.69150       -8.93660
H         -2.24870       -9.01420       -8.29090
H         -3.75260       -7.17860       -7.67040
H         -0.42160       -4.49000       -7.35340
H         -3.85370       -5.07100       -9.70950
H         -5.34040       -6.18140      -11.32940
H         -7.60970       -6.86390      -10.66210
H         -9.46160       -6.58150       -9.08910
H         -9.18080       -5.90130       -7.47970
H         -8.35190       -8.70330       -8.38320
H         -9.72320       -8.32370       -7.33590
H         -8.07370       -8.02560       -6.77840
H         -6.91540       -5.33920       -6.74160
H         -6.94400        2.89140        3.39470
H         -8.75330        3.59210        4.90880
H         -9.03190        5.97080        5.48220
H         -6.98550        8.70840        3.99130
H         -8.58100        8.36400        4.67460
H         -7.52680        7.64860        6.80890
H         -7.02030        9.28850        6.39230
H         -5.92650        7.92320        6.12050
H         -5.77840        6.97290        2.91570
H         -2.39780       -2.15140       -3.22100
H         -2.53600       -0.65990       -2.29310
H         -1.68520        0.56840       -4.42740
H         -0.51840       -0.56890       -3.73500
H         -1.46340       -1.01950       -5.15120
H         -2.13230        1.23380       -2.40030
H         -2.35380        2.61450       -1.33290
H         -2.04280        3.34550       -3.69500
H         -3.64450        3.79710       -3.10310
H         -3.46650        2.41130       -4.17990
H         -1.17780        4.23860        2.91170
H          0.81450        5.13040        2.16100
H          4.10340        1.49240        1.60710
H          4.95230        0.28990        2.59780
H          1.94710        0.88810        2.73220
H          2.79970       -0.27950        3.74780
H          2.67590       -0.54480        2.00290
H         -2.85920       10.50320       10.44560
H         -4.09360       11.41540       11.33950
H         -5.60470        9.43910       11.31620
H         -4.40320        8.50820       10.41440
H         -4.05870        9.02110       12.06660
H         -3.51830        9.27070        4.70240
H         -0.23440        8.90000        8.21920
H          1.69000        9.05570        9.54010
H          7.17850        6.20980        8.44760
H          9.55100        5.98020        9.12970
H         11.39690        6.55630       10.65680
H         11.01270        8.09270       12.54330
H          8.78180        9.06570       12.91850
H          6.46280        9.31240       12.28500
