219

C         -6.75670       -7.82940        7.38290
C         -6.17930       -8.26800        8.53960
C         -4.87060       -7.86410        9.08080
O         -4.17170       -6.93360        8.72300
C         -4.54640       -8.84530       10.12940
C         -3.36570       -8.92290       10.86480
C         -3.32580       -9.97500       11.74740
C         -4.38420      -10.88270       11.89270
C         -5.55970      -10.81010       11.18350
C         -5.61990       -9.74860       10.27670
C         -6.68550       -9.35260        9.36060
C         -7.96560       -9.83830        9.35060
C         -9.02560       -9.30930        8.58070
N         -9.95670       -8.90780        8.04210
C         -8.42040      -10.88760       10.17590
N         -8.84720      -11.74070       10.81500
C         -3.64670      -11.69970       12.92330
C         -3.01560      -13.03660       12.46080
C         -2.73120      -12.88990       10.98640
C         -1.73020      -12.03040       10.85060
C         -1.31980      -11.58000       12.23100
C         -1.59740      -12.86450       13.02810
C         -2.46870      -10.68760       12.76330
C         -6.39180       -6.74880        6.55700
S         -5.21390       -5.53990        6.97790
C         -5.65180       -4.54640        5.61750
C         -6.62430       -5.17760        4.82570
C         -7.19810       -4.62610        3.60470
O         -6.72700       -3.65880        3.01430
C         -8.39300       -5.32050        3.13350
C         -9.22730       -4.87200        2.14040
C         -9.11070       -3.64950        1.30480
C         -8.19930       -3.90530        0.10070
S        -10.53370       -5.97990        1.88300
C         -9.95190       -7.06700        3.09690
C        -10.64910       -8.33740        3.41550
C        -12.01350       -8.46170        2.75400
C         -8.81080       -6.57340        3.68080
C         -8.07830       -7.25340        4.74060
O         -8.30610       -8.40860        5.06760
C         -7.04550       -6.41260        5.36770
C         -4.98760       -3.30290        5.46350
C         -4.27860       -2.63760        6.46830
C         -4.28360       -2.98020        7.89440
C         -3.08040       -3.17400        8.56240
C         -3.08520       -3.52570        9.89930
C         -4.28100       -3.69320       10.57190
C         -5.49290       -3.48200        9.92460
C         -6.79340       -3.74220       10.62880
C         -7.21650       -5.19670       10.40720
C         -5.48220       -3.10690        8.59170
C         -3.55610       -1.55540        5.96080
S         -2.50660       -0.37790        6.72200
C         -2.22800        0.32710        5.16530
C         -1.48630        1.36750        4.58780
C         -0.70100        2.38280        5.17590
C         -0.10650        3.37650        4.32970
N          0.56230        4.29150        5.01350
S          0.45460        3.93120        6.58970
N         -0.44760        2.59310        6.45790
C         -0.22870        3.23820        2.92990
C          0.39260        3.93660        1.88400
S          1.47530        5.26830        1.66090
C          1.51760        4.91330       -0.04990
C          2.20850        5.50660       -1.12420
C          3.02350        6.71420       -0.97030
C          2.85280        7.80470       -1.82130
C          3.60020        8.94940       -1.63150
C          4.51100        9.02440       -0.59110
C          4.68910        7.95120        0.27050
C          5.62640        8.03910        1.44010
C          4.84900        8.37420        2.71460
C          3.93900        6.80090        0.07130
C          1.95560        4.83610       -2.31020
S          0.81710        3.51270       -2.10560
C          0.71400        3.82940       -0.40960
C          0.06120        3.27520        0.69910
N         -0.77760        2.22750        0.96610
C         -0.97260        2.17850        2.33750
C         -1.70760        1.30320        3.18100
N         -2.60920        0.28240        2.93020
C         -2.91770       -0.30630        4.12760
C         -3.69140       -1.38290        4.57820
S         -4.79940       -2.51800        3.89810
C         -3.46110        0.04970        1.78440
C         -4.25570        1.29900        1.41300
C         -1.00510        1.21840       -0.04310
C         -0.25510       -0.07270        0.27450
C          2.57250        5.02340       -3.57690
S          1.87740        4.34840       -5.02930
C          3.19660        4.95510       -5.97210
C          3.40590        4.87930       -7.36310
C          4.41680        5.67280       -7.92430
O          5.15940        6.52810       -7.19430
C          5.37420        6.18980       -5.80890
C          6.51430        5.17790       -5.75120
C          7.63770        5.42130       -6.53160
C          8.69730        4.53600       -6.52780
C          8.66610        3.39200       -5.73980
C          9.80010        2.40830       -5.76670
C          9.56340        1.35080       -6.84690
C          7.54090        3.15570       -4.96220
C          6.47310        4.03530       -4.96640
C          5.74600        7.47010       -5.08050
C          5.22280        8.68570       -5.49540
C          5.52050        9.84450       -4.80370
C          6.33110        9.81520       -3.67660
C          6.69600       11.08570       -2.96470
C          7.88430       11.75860       -3.65480
C          6.83810        8.59220       -3.25880
C          6.55230        7.43080       -3.95120
C          4.11500        5.63740       -5.18930
C          3.76440        5.66970       -3.84220
C          4.51000        5.54330       -9.30520
C          3.59270        4.64310       -9.82940
S          2.58150        3.96580       -8.55770
C          3.32750        4.18820      -11.13190
C          3.98370        4.39490      -12.31800
C          5.27890        5.07010      -12.55500
O          5.94070        5.74510      -11.79180
C          5.65020        4.75160      -13.94750
C          6.83260        5.10710      -14.59350
C          6.92050        4.65430      -15.88770
C          5.90920        3.89700      -16.49340
C          4.73770        3.54190      -15.86840
C          4.62470        4.00070      -14.55210
C          3.54580        3.83010      -13.58210
C          2.31520        3.29210      -13.86310
C          1.22320        3.20470      -12.97390
N          0.27320        3.10860      -12.33460
C          1.93830        2.78130      -15.12250
N          1.55810        2.34740      -16.11570
C          6.66600        3.77760      -17.79300
C          6.19830        4.68650      -18.94910
C          7.38060        4.71130      -19.89060
C          8.33690        5.43160      -19.31830
C          7.81690        5.90550      -17.98030
C          6.33140        6.07990      -18.32130
C          7.79230        4.62500      -17.11880
H         -7.61610       -8.37980        7.01620
H         -2.57480       -8.20390       10.71870
H         -6.36370      -11.51730       11.30240
H         -4.12190      -11.78100       13.89880
H         -3.56990      -13.92310       12.75670
H         -3.30670      -13.36730       10.21510
H         -1.30280      -11.64590        9.94310
H         -0.32940      -11.14090       12.31800
H         -1.57620      -12.71900       14.10720
H         -0.93240      -13.68190       12.75380
H         -2.17370      -10.10630       13.63460
H        -10.10100       -3.34610        0.95920
H         -8.67590       -2.84900        1.90650
H         -8.57980       -4.72930       -0.49910
H         -7.19760       -4.14870        0.44450
H         -8.14730       -3.01500       -0.51990
H        -10.00390       -9.16790        3.10940
H        -10.73750       -8.41780        4.50380
H        -12.66570       -7.64870        3.06610
H        -11.91990       -8.43070        1.67000
H        -12.47910       -9.40290        3.03320
H         -2.14880       -3.07150        8.02720
H         -2.14930       -3.68260       10.41460
H         -4.27880       -3.99140       11.61060
H         -6.68360       -3.55790       11.69910
H         -7.56980       -3.07840       10.24360
H         -7.36370       -5.39150        9.34680
H         -6.44490       -5.87250       10.77180
H         -8.14520       -5.41190       10.93100
H         -6.41650       -2.93110        8.07560
H          2.13030        7.75060       -2.62180
H          3.46930        9.79070       -2.29510
H          5.08360        9.92830       -0.44460
H          6.14110        7.08530        1.57440
H          6.37690        8.81100        1.25910
H          4.10110        7.61040        2.91410
H          5.52230        8.43410        3.56650
H          4.34020        9.32930        2.60560
H          4.07640        5.95540        0.72960
H         -2.88100       -0.32270        0.93890
H         -4.15420       -0.74470        2.07200
H         -3.59800        2.13450        1.18450
H         -4.89690        1.59010        2.24160
H         -4.88030        1.09520        0.54760
H         -2.07270        1.04050       -0.17360
H         -0.63050        1.62990       -0.98360
H          0.81460        0.11990        0.31070
H         -0.55950       -0.47920        1.23590
H         -0.44770       -0.81230       -0.49800
H          7.66800        6.30920       -7.14520
H          9.56330        4.73810       -7.14150
H         10.73710        2.92940       -5.97270
H          9.88770        1.91710       -4.79540
H          8.63990        0.81040       -6.65140
H         10.38500        0.63870       -6.86900
H          9.48340        1.82060       -7.82460
H          7.49670        2.27110       -4.34270
H          5.61130        3.82780       -4.34890
H          4.59140        8.72170       -6.36980
H          5.11240       10.78630       -5.14260
H          5.84540       11.77070       -2.96540
H          6.96110       10.86700       -1.92870
H          8.74570       11.09450       -3.65340
H          7.63820       11.99580       -4.68710
H          8.15310       12.67870       -3.14090
H          7.46590        8.54560       -2.38050
H          6.96290        6.48970       -3.61490
H          4.36550        6.12930       -3.08060
H          5.22010        6.07450       -9.91070
H          2.46510        3.53300      -11.17910
H          7.58910        5.68340      -14.08420
H          3.97490        2.95090      -16.34650
H          6.89880        2.76430      -18.11510
H          5.23620        4.41900      -19.37730
H          7.41920        4.17370      -20.81980
H          9.33380        5.61560      -19.67400
H          8.32980        6.74980      -17.52730
H          5.69270        6.23860      -17.45450
H          6.16600        6.87540      -19.04610
H          8.77670        4.17760      -16.99360
