
  xtb     02222217523D
 energy: -311.523326787193 gnorm: 0.000383387299 xtb: 6.4.1 (unknown)
191212  0     0  0            999 V2000
    9.3582    1.5548    5.1422 C   0  0  0  0  0  0  0  0  0  0  0  0
    9.1261    0.8851    6.2997 C   0  0  0  0  0  0  0  0  0  0  0  0
    8.1491   -0.2257    6.4446 C   0  0  0  0  0  0  0  0  0  0  0  0
    7.5224   -0.7917    5.5759 O   0  0  0  0  0  0  0  0  0  0  0  0
    7.9884   -0.4228    7.8991 C   0  0  0  0  0  0  0  0  0  0  0  0
    7.1229   -1.3179    8.5254 C   0  0  0  0  0  0  0  0  0  0  0  0
    7.1454   -1.2527    9.8974 C   0  0  0  0  0  0  0  0  0  0  0  0
    7.9658   -0.3589   10.5992 C   0  0  0  0  0  0  0  0  0  0  0  0
    8.8266    0.5260    9.9956 C   0  0  0  0  0  0  0  0  0  0  0  0
    8.8201    0.4750    8.5973 C   0  0  0  0  0  0  0  0  0  0  0  0
    9.5710    1.2654    7.6273 C   0  0  0  0  0  0  0  0  0  0  0  0
   10.5663    2.1614    7.9177 C   0  0  0  0  0  0  0  0  0  0  0  0
   11.3195    2.8671    6.9557 C   0  0  0  0  0  0  0  0  0  0  0  0
   11.9819    3.4749    6.2408 N   0  0  0  0  0  0  0  0  0  0  0  0
   10.9927    2.4886    9.2211 C   0  0  0  0  0  0  0  0  0  0  0  0
   11.3837    2.8041   10.2538 N   0  0  0  0  0  0  0  0  0  0  0  0
    7.4521   -0.8166   11.9418 C   0  0  0  0  0  0  0  0  0  0  0  0
    6.4288    0.1061   12.6374 C   0  0  0  0  0  0  0  0  0  0  0  0
    5.7604   -0.7941   13.6513 C   0  0  0  0  0  0  0  0  0  0  0  0
    4.9865   -1.6438   12.9883 C   0  0  0  0  0  0  0  0  0  0  0  0
    5.1186   -1.3320   11.5151 C   0  0  0  0  0  0  0  0  0  0  0  0
    5.3161    0.1878   11.5842 C   0  0  0  0  0  0  0  0  0  0  0  0
    6.5407   -1.8159   11.1597 C   0  0  0  0  0  0  0  0  0  0  0  0
    8.9462    1.1211    3.8341 C   0  0  0  0  0  0  0  0  0  0  0  0
    8.3603    2.0585    2.9760 C   0  0  0  0  0  0  0  0  0  0  0  0
    7.8331    1.6911    1.7567 C   0  0  0  0  0  0  0  0  0  0  0  0
    7.1882    2.5324    0.9035 O   0  0  0  0  0  0  0  0  0  0  0  0
    6.8746    3.8453    1.3212 C   0  0  0  0  0  0  0  0  0  0  0  0
    5.9962    4.4672    0.2470 C   0  0  0  0  0  0  0  0  0  0  0  0
    7.9431    0.3473    1.3321 C   0  0  0  0  0  0  0  0  0  0  0  0
    8.5988   -0.5668    2.1541 C   0  0  0  0  0  0  0  0  0  0  0  0
    9.1133   -0.2101    3.3903 C   0  0  0  0  0  0  0  0  0  0  0  0
    9.8435   -1.0244    4.1812 O   0  0  0  0  0  0  0  0  0  0  0  0
   10.1005   -2.3578    3.7825 C   0  0  0  0  0  0  0  0  0  0  0  0
    8.9216   -3.2910    4.0368 C   0  0  0  0  0  0  0  0  0  0  0  0
    7.3121   -0.0881    0.1103 C   0  0  0  0  0  0  0  0  0  0  0  0
    7.5719   -1.2173   -0.6458 C   0  0  0  0  0  0  0  0  0  0  0  0
    8.7501   -2.0795   -0.5182 C   0  0  0  0  0  0  0  0  0  0  0  0
   10.0301   -1.5318   -0.4543 C   0  0  0  0  0  0  0  0  0  0  0  0
   11.1276   -2.3621   -0.3405 C   0  0  0  0  0  0  0  0  0  0  0  0
   10.9634   -3.7372   -0.2936 C   0  0  0  0  0  0  0  0  0  0  0  0
    9.6962   -4.2994   -0.3663 C   0  0  0  0  0  0  0  0  0  0  0  0
    9.5037   -5.7883   -0.3694 C   0  0  0  0  0  0  0  0  0  0  0  0
    9.3164   -6.2957   -1.8005 C   0  0  0  0  0  0  0  0  0  0  0  0
    8.5971   -3.4603   -0.4835 C   0  0  0  0  0  0  0  0  0  0  0  0
    6.5679   -1.4326   -1.6120 C   0  0  0  0  0  0  0  0  0  0  0  0
    6.3086   -2.6891   -2.8034 S   0  0  0  0  0  0  0  0  0  0  0  0
    4.8103   -1.9355   -3.2416 C   0  0  0  0  0  0  0  0  0  0  0  0
    3.6666   -2.2051   -4.0136 C   0  0  0  0  0  0  0  0  0  0  0  0
    3.2821   -3.3381   -4.7656 C   0  0  0  0  0  0  0  0  0  0  0  0
    1.9128   -3.4646   -5.1915 C   0  0  0  0  0  0  0  0  0  0  0  0
    1.6793   -4.6156   -5.8013 N   0  0  0  0  0  0  0  0  0  0  0  0
    3.0584   -5.4633   -5.8483 S   0  0  0  0  0  0  0  0  0  0  0  0
    4.0084   -4.3977   -5.0827 N   0  0  0  0  0  0  0  0  0  0  0  0
    1.0157   -2.4011   -4.9485 C   0  0  0  0  0  0  0  0  0  0  0  0
   -0.3621   -2.2380   -5.1870 C   0  0  0  0  0  0  0  0  0  0  0  0
   -1.7234   -3.1619   -5.7337 S   0  0  0  0  0  0  0  0  0  0  0  0
   -2.7636   -1.8025   -5.3652 C   0  0  0  0  0  0  0  0  0  0  0  0
   -4.1617   -1.6497   -5.3581 C   0  0  0  0  0  0  0  0  0  0  0  0
   -5.0514   -2.7605   -5.7169 C   0  0  0  0  0  0  0  0  0  0  0  0
   -4.8972   -3.4107   -6.9366 C   0  0  0  0  0  0  0  0  0  0  0  0
   -5.7263   -4.4688   -7.2626 C   0  0  0  0  0  0  0  0  0  0  0  0
   -6.7025   -4.8889   -6.3773 C   0  0  0  0  0  0  0  0  0  0  0  0
   -6.8567   -4.2627   -5.1450 C   0  0  0  0  0  0  0  0  0  0  0  0
   -7.8804   -4.7471   -4.1587 C   0  0  0  0  0  0  0  0  0  0  0  0
   -7.2693   -5.7983   -3.2305 C   0  0  0  0  0  0  0  0  0  0  0  0
   -6.0200   -3.2064   -4.8219 C   0  0  0  0  0  0  0  0  0  0  0  0
   -4.5360   -0.4029   -4.8766 C   0  0  0  0  0  0  0  0  0  0  0  0
   -3.1519    0.5654   -4.4045 S   0  0  0  0  0  0  0  0  0  0  0  0
   -2.0715   -0.6912   -4.8823 C   0  0  0  0  0  0  0  0  0  0  0  0
   -0.6988   -0.9449   -4.7805 C   0  0  0  0  0  0  0  0  0  0  0  0
    0.4123   -0.2926   -4.3071 N   0  0  0  0  0  0  0  0  0  0  0  0
    1.4639   -1.1922   -4.3519 C   0  0  0  0  0  0  0  0  0  0  0  0
    2.7523   -1.1441   -3.7684 C   0  0  0  0  0  0  0  0  0  0  0  0
    3.3192   -0.2711   -2.8604 N   0  0  0  0  0  0  0  0  0  0  0  0
    4.5565   -0.7576   -2.5344 C   0  0  0  0  0  0  0  0  0  0  0  0
    5.5602   -0.4690   -1.6011 C   0  0  0  0  0  0  0  0  0  0  0  0
    5.8723    0.7541   -0.4233 S   0  0  0  0  0  0  0  0  0  0  0  0
    2.7075    0.7458   -2.0355 C   0  0  0  0  0  0  0  0  0  0  0  0
    3.2590    2.1389   -2.3376 C   0  0  0  0  0  0  0  0  0  0  0  0
    0.4916    1.1504   -4.3843 C   0  0  0  0  0  0  0  0  0  0  0  0
    0.1631    1.6530   -5.7900 C   0  0  0  0  0  0  0  0  0  0  0  0
   -5.8617    0.1323   -4.7197 C   0  0  0  0  0  0  0  0  0  0  0  0
   -6.9394   -0.3956   -5.4376 C   0  0  0  0  0  0  0  0  0  0  0  0
   -8.2450   -0.0192   -5.1837 C   0  0  0  0  0  0  0  0  0  0  0  0
   -9.3356   -0.5696   -5.7663 O   0  0  0  0  0  0  0  0  0  0  0  0
   -9.1921   -1.5078   -6.8168 C   0  0  0  0  0  0  0  0  0  0  0  0
   -8.8298   -0.8483   -8.1428 C   0  0  0  0  0  0  0  0  0  0  0  0
   -8.4999    0.9681   -4.1943 C   0  0  0  0  0  0  0  0  0  0  0  0
   -7.4087    1.5948   -3.5829 C   0  0  0  0  0  0  0  0  0  0  0  0
   -6.1116    1.1959   -3.8173 C   0  0  0  0  0  0  0  0  0  0  0  0
   -5.0205    1.7386   -3.2181 O   0  0  0  0  0  0  0  0  0  0  0  0
   -5.1707    2.7164   -2.2049 C   0  0  0  0  0  0  0  0  0  0  0  0
   -5.3320    4.1215   -2.7759 C   0  0  0  0  0  0  0  0  0  0  0  0
   -9.8518    1.3271   -3.9148 C   0  0  0  0  0  0  0  0  0  0  0  0
  -10.3893    1.8615   -2.7792 C   0  0  0  0  0  0  0  0  0  0  0  0
   -9.7839    1.9216   -1.4260 C   0  0  0  0  0  0  0  0  0  0  0  0
   -8.6304    1.7344   -1.0916 O   0  0  0  0  0  0  0  0  0  0  0  0
  -10.8975    2.2100   -0.5023 C   0  0  0  0  0  0  0  0  0  0  0  0
  -10.8207    2.2847    0.8865 C   0  0  0  0  0  0  0  0  0  0  0  0
  -12.0174    2.5680    1.4981 C   0  0  0  0  0  0  0  0  0  0  0  0
  -13.2073    2.7550    0.7817 C   0  0  0  0  0  0  0  0  0  0  0  0
  -13.2974    2.6793   -0.5878 C   0  0  0  0  0  0  0  0  0  0  0  0
  -12.0875    2.3997   -1.2305 C   0  0  0  0  0  0  0  0  0  0  0  0
  -11.7847    2.2484   -2.6498 C   0  0  0  0  0  0  0  0  0  0  0  0
  -12.6454    2.5145   -3.6827 C   0  0  0  0  0  0  0  0  0  0  0  0
  -12.3122    2.4729   -5.0538 C   0  0  0  0  0  0  0  0  0  0  0  0
  -12.1294    2.4978   -6.1877 N   0  0  0  0  0  0  0  0  0  0  0  0
  -13.9848    2.9227   -3.5163 C   0  0  0  0  0  0  0  0  0  0  0  0
  -15.0818    3.2565   -3.4533 N   0  0  0  0  0  0  0  0  0  0  0  0
  -14.0121    3.0098    2.0319 C   0  0  0  0  0  0  0  0  0  0  0  0
  -14.3856    4.4762    2.3616 C   0  0  0  0  0  0  0  0  0  0  0  0
  -13.3270    5.3417    1.7245 C   0  0  0  0  0  0  0  0  0  0  0  0
  -12.1999    5.1670    2.4015 C   0  0  0  0  0  0  0  0  0  0  0  0
  -12.4761    4.1795    3.5083 C   0  0  0  0  0  0  0  0  0  0  0  0
  -13.9362    4.5354    3.8304 C   0  0  0  0  0  0  0  0  0  0  0  0
  -12.6857    2.8034    2.8291 C   0  0  0  0  0  0  0  0  0  0  0  0
    9.8189    2.5346    5.1889 H   0  0  0  0  0  0  0  0  0  0  0  0
    6.5043   -1.9859    7.9464 H   0  0  0  0  0  0  0  0  0  0  0  0
    9.4482    1.2107   10.5481 H   0  0  0  0  0  0  0  0  0  0  0  0
    8.1980   -1.2164   12.6259 H   0  0  0  0  0  0  0  0  0  0  0  0
    6.8381    1.0419   13.0081 H   0  0  0  0  0  0  0  0  0  0  0  0
    5.9557   -0.7575   14.7070 H   0  0  0  0  0  0  0  0  0  0  0  0
    4.4063   -2.4590   13.3794 H   0  0  0  0  0  0  0  0  0  0  0  0
    4.3336   -1.7063   10.8633 H   0  0  0  0  0  0  0  0  0  0  0  0
    4.4319    0.7010   11.9589 H   0  0  0  0  0  0  0  0  0  0  0  0
    5.6269    0.6382   10.6433 H   0  0  0  0  0  0  0  0  0  0  0  0
    6.6802   -2.8833   11.3208 H   0  0  0  0  0  0  0  0  0  0  0  0
    8.2767    3.0755    3.3263 H   0  0  0  0  0  0  0  0  0  0  0  0
    7.7968    4.4293    1.4458 H   0  0  0  0  0  0  0  0  0  0  0  0
    6.3407    3.8174    2.2808 H   0  0  0  0  0  0  0  0  0  0  0  0
    5.7401    5.4860    0.5222 H   0  0  0  0  0  0  0  0  0  0  0  0
    5.0859    3.8848    0.1334 H   0  0  0  0  0  0  0  0  0  0  0  0
    6.5230    4.4746   -0.7031 H   0  0  0  0  0  0  0  0  0  0  0  0
    8.6601   -1.5859    1.8164 H   0  0  0  0  0  0  0  0  0  0  0  0
   10.9510   -2.6601    4.4009 H   0  0  0  0  0  0  0  0  0  0  0  0
   10.4089   -2.3927    2.7296 H   0  0  0  0  0  0  0  0  0  0  0  0
    8.6581   -3.2704    5.0907 H   0  0  0  0  0  0  0  0  0  0  0  0
    8.0491   -2.9804    3.4694 H   0  0  0  0  0  0  0  0  0  0  0  0
    9.1917   -4.3043    3.7519 H   0  0  0  0  0  0  0  0  0  0  0  0
   10.1538   -0.4597   -0.4914 H   0  0  0  0  0  0  0  0  0  0  0  0
   12.1192   -1.9365   -0.2894 H   0  0  0  0  0  0  0  0  0  0  0  0
   11.8282   -4.3786   -0.2015 H   0  0  0  0  0  0  0  0  0  0  0  0
   10.3711   -6.2769    0.0790 H   0  0  0  0  0  0  0  0  0  0  0  0
    8.6217   -6.0472    0.2207 H   0  0  0  0  0  0  0  0  0  0  0  0
    8.4520   -5.8222   -2.2602 H   0  0  0  0  0  0  0  0  0  0  0  0
   10.1929   -6.0628   -2.4010 H   0  0  0  0  0  0  0  0  0  0  0  0
    9.1678   -7.3730   -1.8055 H   0  0  0  0  0  0  0  0  0  0  0  0
    7.6050   -3.8854   -0.5302 H   0  0  0  0  0  0  0  0  0  0  0  0
   -4.1398   -3.0761   -7.6294 H   0  0  0  0  0  0  0  0  0  0  0  0
   -5.6104   -4.9669   -8.2137 H   0  0  0  0  0  0  0  0  0  0  0  0
   -7.3514   -5.7118   -6.6407 H   0  0  0  0  0  0  0  0  0  0  0  0
   -8.2456   -3.9076   -3.5629 H   0  0  0  0  0  0  0  0  0  0  0  0
   -8.7286   -5.1843   -4.6899 H   0  0  0  0  0  0  0  0  0  0  0  0
   -8.0091   -6.1517   -2.5161 H   0  0  0  0  0  0  0  0  0  0  0  0
   -6.4301   -5.3758   -2.6825 H   0  0  0  0  0  0  0  0  0  0  0  0
   -6.9081   -6.6472   -3.8067 H   0  0  0  0  0  0  0  0  0  0  0  0
   -6.1250   -2.7106   -3.8672 H   0  0  0  0  0  0  0  0  0  0  0  0
    1.6256    0.7028   -2.1564 H   0  0  0  0  0  0  0  0  0  0  0  0
    2.9374    0.5053   -0.9910 H   0  0  0  0  0  0  0  0  0  0  0  0
    2.7229    2.8801   -1.7516 H   0  0  0  0  0  0  0  0  0  0  0  0
    4.3124    2.1852   -2.0756 H   0  0  0  0  0  0  0  0  0  0  0  0
    3.1634    2.3912   -3.3913 H   0  0  0  0  0  0  0  0  0  0  0  0
   -0.2106    1.5866   -3.6657 H   0  0  0  0  0  0  0  0  0  0  0  0
    1.5052    1.4546   -4.1418 H   0  0  0  0  0  0  0  0  0  0  0  0
   -0.8685    1.4362   -6.0507 H   0  0  0  0  0  0  0  0  0  0  0  0
    0.3111    2.7287   -5.8338 H   0  0  0  0  0  0  0  0  0  0  0  0
    0.8161    1.1797   -6.5204 H   0  0  0  0  0  0  0  0  0  0  0  0
   -6.7243   -1.1325   -6.1910 H   0  0  0  0  0  0  0  0  0  0  0  0
   -8.4650   -2.2838   -6.5475 H   0  0  0  0  0  0  0  0  0  0  0  0
  -10.1797   -1.9713   -6.8922 H   0  0  0  0  0  0  0  0  0  0  0  0
   -8.7980   -1.6003   -8.9260 H   0  0  0  0  0  0  0  0  0  0  0  0
   -7.8604   -0.3598   -8.0838 H   0  0  0  0  0  0  0  0  0  0  0  0
   -9.5775   -0.1011   -8.3967 H   0  0  0  0  0  0  0  0  0  0  0  0
   -7.6122    2.4080   -2.9118 H   0  0  0  0  0  0  0  0  0  0  0  0
   -4.2403    2.6565   -1.6322 H   0  0  0  0  0  0  0  0  0  0  0  0
   -6.0056    2.4558   -1.5456 H   0  0  0  0  0  0  0  0  0  0  0  0
   -5.3724    4.8421   -1.9638 H   0  0  0  0  0  0  0  0  0  0  0  0
   -4.4862    4.3577   -3.4173 H   0  0  0  0  0  0  0  0  0  0  0  0
   -6.2421    4.2039   -3.3645 H   0  0  0  0  0  0  0  0  0  0  0  0
  -10.5400    1.0751   -4.7129 H   0  0  0  0  0  0  0  0  0  0  0  0
   -9.8839    2.1283    1.3985 H   0  0  0  0  0  0  0  0  0  0  0  0
  -14.2217    2.8159   -1.1239 H   0  0  0  0  0  0  0  0  0  0  0  0
  -14.8326    2.3202    2.2203 H   0  0  0  0  0  0  0  0  0  0  0  0
  -15.4167    4.7395    2.1418 H   0  0  0  0  0  0  0  0  0  0  0  0
  -13.4871    5.9289    0.8393 H   0  0  0  0  0  0  0  0  0  0  0  0
  -11.2295    5.5792    2.1949 H   0  0  0  0  0  0  0  0  0  0  0  0
  -11.7686    4.1728    4.3335 H   0  0  0  0  0  0  0  0  0  0  0  0
  -14.0419    5.5289    4.2636 H   0  0  0  0  0  0  0  0  0  0  0  0
  -14.4313    3.8023    4.4657 H   0  0  0  0  0  0  0  0  0  0  0  0
  -12.6404    1.9795    3.5391 H   0  0  0  0  0  0  0  0  0  0  0  0
  1  2  2  0  0  0  0
  2  3  1  0  0  0  0
  3  4  2  0  0  0  0
  3  5  1  0  0  0  0
  5  6  2  0  0  0  0
  6  7  1  0  0  0  0
  7  8  2  0  0  0  0
  8  9  1  0  0  0  0
  9 10  2  0  0  0  0
 10 11  1  0  0  0  0
 11 12  2  0  0  0  0
 12 13  1  0  0  0  0
 13 14  3  0  0  0  0
 12 15  1  0  0  0  0
 15 16  3  0  0  0  0
  8 17  1  0  0  0  0
 17 18  1  0  0  0  0
 18 19  1  0  0  0  0
 19 20  2  0  0  0  0
 20 21  1  0  0  0  0
 21 22  1  0  0  0  0
 21 23  1  0  0  0  0
  1 24  1  0  0  0  0
 24 25  2  0  0  0  0
 25 26  1  0  0  0  0
 26 27  1  0  0  0  0
 27 28  1  0  0  0  0
 28 29  1  0  0  0  0
 26 30  2  0  0  0  0
 30 31  1  0  0  0  0
 31 32  2  0  0  0  0
 32 33  1  0  0  0  0
 33 34  1  0  0  0  0
 34 35  1  0  0  0  0
 30 36  1  0  0  0  0
 36 37  2  0  0  0  0
 37 38  1  0  0  0  0
 38 39  2  0  0  0  0
 39 40  1  0  0  0  0
 40 41  2  0  0  0  0
 41 42  1  0  0  0  0
 42 43  1  0  0  0  0
 43 44  1  0  0  0  0
 42 45  2  0  0  0  0
 37 46  1  0  0  0  0
 46 47  1  0  0  0  0
 47 48  1  0  0  0  0
 48 49  1  0  0  0  0
 49 50  1  0  0  0  0
 50 51  1  0  0  0  0
 51 52  2  0  0  0  0
 52 53  1  0  0  0  0
 53 54  1  0  0  0  0
 51 55  1  0  0  0  0
 55 56  1  0  0  0  0
 56 57  1  0  0  0  0
 57 58  1  0  0  0  0
 58 59  1  0  0  0  0
 59 60  1  0  0  0  0
 60 61  2  0  0  0  0
 61 62  1  0  0  0  0
 62 63  2  0  0  0  0
 63 64  1  0  0  0  0
 64 65  1  0  0  0  0
 65 66  1  0  0  0  0
 64 67  2  0  0  0  0
 59 68  2  0  0  0  0
 68 69  1  0  0  0  0
 69 70  1  0  0  0  0
 70 71  1  0  0  0  0
 71 72  1  0  0  0  0
 72 73  1  0  0  0  0
 73 74  1  0  0  0  0
 74 75  1  0  0  0  0
 75 76  1  0  0  0  0
 76 77  1  0  0  0  0
 77 78  1  0  0  0  0
 75 79  1  0  0  0  0
 79 80  1  0  0  0  0
 72 81  1  0  0  0  0
 81 82  1  0  0  0  0
 68 83  1  0  0  0  0
 83 84  2  0  0  0  0
 84 85  1  0  0  0  0
 85 86  1  0  0  0  0
 86 87  1  0  0  0  0
 87 88  1  0  0  0  0
 85 89  2  0  0  0  0
 89 90  1  0  0  0  0
 90 91  2  0  0  0  0
 91 92  1  0  0  0  0
 92 93  1  0  0  0  0
 93 94  1  0  0  0  0
 89 95  1  0  0  0  0
 95 96  2  0  0  0  0
 96 97  1  0  0  0  0
 97 98  2  0  0  0  0
 97 99  1  0  0  0  0
 99100  2  0  0  0  0
100101  1  0  0  0  0
101102  2  0  0  0  0
102103  1  0  0  0  0
103104  2  0  0  0  0
104105  1  0  0  0  0
105106  2  0  0  0  0
106107  1  0  0  0  0
107108  3  0  0  0  0
106109  1  0  0  0  0
109110  3  0  0  0  0
102111  1  0  0  0  0
111112  1  0  0  0  0
112113  1  0  0  0  0
113114  2  0  0  0  0
114115  1  0  0  0  0
115116  1  0  0  0  0
115117  1  0  0  0  0
 11  2  1  0  0  0  0
 23 17  1  0  0  0  0
 32 24  1  0  0  0  0
 78 36  1  0  0  0  0
 91 83  1  0  0  0  0
105 96  1  0  0  0  0
117111  1  0  0  0  0
 10  5  1  0  0  0  0
 22 18  1  0  0  0  0
 45 38  1  0  0  0  0
 77 46  2  0  0  0  0
104 99  1  0  0  0  0
116112  1  0  0  0  0
 23  7  1  0  0  0  0
 76 48  2  0  0  0  0
117101  1  0  0  0  0
 74 49  2  0  0  0  0
 54 50  2  0  0  0  0
 73 55  2  0  0  0  0
 71 56  2  0  0  0  0
 70 58  2  0  0  0  0
 67 60  1  0  0  0  0
  1118  1  0  0  0  0
  6119  1  0  0  0  0
  9120  1  0  0  0  0
 17121  1  0  0  0  0
 18122  1  0  0  0  0
 19123  1  0  0  0  0
 20124  1  0  0  0  0
 21125  1  0  0  0  0
 22126  1  0  0  0  0
 22127  1  0  0  0  0
 23128  1  0  0  0  0
 25129  1  0  0  0  0
 28130  1  0  0  0  0
 28131  1  0  0  0  0
 29132  1  0  0  0  0
 29133  1  0  0  0  0
 29134  1  0  0  0  0
 31135  1  0  0  0  0
 34136  1  0  0  0  0
 34137  1  0  0  0  0
 35138  1  0  0  0  0
 35139  1  0  0  0  0
 35140  1  0  0  0  0
 39141  1  0  0  0  0
 40142  1  0  0  0  0
 41143  1  0  0  0  0
 43144  1  0  0  0  0
 43145  1  0  0  0  0
 44146  1  0  0  0  0
 44147  1  0  0  0  0
 44148  1  0  0  0  0
 45149  1  0  0  0  0
 61150  1  0  0  0  0
 62151  1  0  0  0  0
 63152  1  0  0  0  0
 65153  1  0  0  0  0
 65154  1  0  0  0  0
 66155  1  0  0  0  0
 66156  1  0  0  0  0
 66157  1  0  0  0  0
 67158  1  0  0  0  0
 79159  1  0  0  0  0
 79160  1  0  0  0  0
 80161  1  0  0  0  0
 80162  1  0  0  0  0
 80163  1  0  0  0  0
 81164  1  0  0  0  0
 81165  1  0  0  0  0
 82166  1  0  0  0  0
 82167  1  0  0  0  0
 82168  1  0  0  0  0
 84169  1  0  0  0  0
 87170  1  0  0  0  0
 87171  1  0  0  0  0
 88172  1  0  0  0  0
 88173  1  0  0  0  0
 88174  1  0  0  0  0
 90175  1  0  0  0  0
 93176  1  0  0  0  0
 93177  1  0  0  0  0
 94178  1  0  0  0  0
 94179  1  0  0  0  0
 94180  1  0  0  0  0
 95181  1  0  0  0  0
100182  1  0  0  0  0
103183  1  0  0  0  0
111184  1  0  0  0  0
112185  1  0  0  0  0
113186  1  0  0  0  0
114187  1  0  0  0  0
115188  1  0  0  0  0
116189  1  0  0  0  0
116190  1  0  0  0  0
117191  1  0  0  0  0
M  END
