157

C         -6.00770       -0.50810        2.83830
C         -7.21280       -1.08790        3.04310
C         -7.90260       -0.89970        4.35250
O         -7.39110       -0.58470        5.40130
C         -9.33170       -1.11090        4.05890
C        -10.40930       -0.87010        4.90910
C        -11.63680       -1.10100        4.33680
C        -11.78870       -1.54360        3.01470
C        -10.73700       -1.79740        2.16790
C         -9.47910       -1.56440        2.72940
C         -8.15580       -1.72300        2.14140
C         -7.83960       -2.49860        1.05950
C         -6.51380       -2.79310        0.68250
N         -5.45260       -3.09420        0.36430
C         -8.78970       -3.08900        0.20380
N         -9.52180       -3.55220       -0.54980
C        -13.29410       -1.52290        3.09670
C        -14.02930       -0.33930        2.42000
C        -13.05920        0.81610        2.40920
C        -12.91590        1.23610        3.65900
C        -13.78570        0.37150        4.53790
C        -14.94930        0.08960        3.57410
C        -13.12530       -1.03000        4.56850
C         -5.33110       -0.23570        1.61600
S         -3.59680       -0.10420        1.67420
C         -3.49180        0.17520       -0.03600
C         -4.74780        0.12390       -0.62490
C         -4.98030        0.02350       -2.07180
O         -4.08840       -0.20200       -2.87130
C         -6.38950        0.14290       -2.44470
C         -6.85040        0.17890       -3.73470
C         -6.08970        0.03610       -5.00120
C         -5.88370       -1.44360       -5.33950
S         -8.57230        0.36690       -3.76880
C         -8.68060        0.40190       -2.04550
C         -9.99710        0.58560       -1.38210
C        -10.24000        2.06550       -1.07050
C         -7.43500        0.28210       -1.47600
C         -7.19500        0.24100       -0.04010
O         -8.06660        0.46180        0.79020
C         -5.79550       -0.03130        0.32330
C         -2.23260        0.51510       -0.60880
C         -1.95150        1.41000       -1.63000
C         -2.95480        2.18630       -2.35640
C         -2.88170        2.28160       -3.74220
C         -3.88640        2.92510       -4.44180
C         -4.97310        3.45820       -3.77360
C         -5.04860        3.39540       -2.38630
C         -6.21200        4.00090       -1.65410
C         -5.94430        5.47300       -1.33700
C         -4.02000        2.78430       -1.68870
C         -0.56590        1.48970       -1.86310
S          0.39710        2.43610       -2.97250
C          1.83050        1.75320       -2.28260
C          3.22760        1.81320       -2.44300
C          4.07090        2.42720       -3.39760
C          5.48760        2.16460       -3.35890
N          6.13320        2.74390       -4.35820
S          5.06450        3.55510       -5.26350
N          3.73150        3.19770       -4.41850
C          6.02340        1.42240       -2.28130
C          7.33570        1.12430       -1.87150
S          8.96070        1.30930       -2.43420
C          9.54060        0.54310       -0.96990
C         10.82660        0.26120       -0.47860
C         12.07470        0.56860       -1.16620
C         13.21950        0.92860       -0.45510
C         14.38470        1.23110       -1.13180
C         14.42510        1.18410       -2.51510
C         13.29580        0.82730       -3.24110
C         13.30760        0.81970       -4.74230
C         12.72340        2.12640       -5.28290
C         12.12930        0.52280       -2.55730
C         10.74950       -0.34790        0.77400
S          9.09480       -0.55720        1.34480
C          8.50420        0.17600       -0.10050
C          7.24810        0.50330       -0.62030
N          5.93260        0.38200       -0.24300
C          5.17160        0.91290       -1.26750
C          3.77340        0.96700       -1.44380
N          2.75110        0.35410       -0.74320
C          1.57290        0.84420       -1.24980
C          0.20320        0.69300       -1.01050
S         -0.78540       -0.18870        0.09350
C          2.79620       -0.96390       -0.14030
C          2.26500       -2.02880       -1.09940
C          5.57510        0.35310        1.16170
C          6.09590        1.59200        1.88970
C         11.76860       -0.82430        1.56070
C         12.56610       -1.29470        2.35610
C         13.53950       -1.78810        3.19280
C         13.25090       -2.35080        4.40300
C         11.86220       -2.49180        4.92410
O         10.83930       -2.13490        4.38170
C         12.01890       -3.15300        6.23070
C         11.20300       -3.60660        7.28020
C         11.95110       -4.16010        8.27740
S         13.65010       -4.14360        7.96850
C         13.36890       -3.37610        6.46190
C         14.17930       -2.90030        5.37240
C         15.54920       -2.97150        5.31610
C         16.33930       -2.49640        4.25390
N         17.02500       -2.12070        3.41250
C         16.28720       -3.54760        6.36980
N         16.89170       -4.01530        7.22600
H         -5.49810       -0.17410        3.73740
H        -10.25270       -0.52660        5.91970
H        -10.86280       -2.12870        1.14990
H        -13.79550       -2.47420        2.93090
H        -14.49790       -0.58310        1.47010
H        -12.54320        1.15840        1.53150
H        -12.26010        2.00130        4.03090
H        -14.03250        0.77550        5.51620
H        -15.61430       -0.70210        3.91630
H        -15.52860        0.98190        3.34160
H        -13.51870       -1.65760        5.36550
H         -6.63080        0.52880       -5.81160
H         -5.11290        0.50720       -4.87640
H         -5.35680       -1.53590       -6.28510
H         -5.28970       -1.91740       -4.56280
H         -6.83970       -1.95720       -5.41820
H        -10.78910        0.20920       -2.03210
H        -10.00340        0.02580       -0.44430
H        -10.19150        2.66060       -1.98000
H         -9.48870        2.42270       -0.37120
H        -11.22100        2.19540       -0.62160
H         -2.06190        1.81900       -4.26850
H         -3.82960        2.99260       -5.51840
H         -5.77270        3.92740       -4.32900
H         -7.11220        3.92130       -2.26790
H         -6.38800        3.45570       -0.72350
H         -5.05490        5.57010       -0.71860
H         -6.78740        5.90720       -0.80480
H         -5.78500        6.03400       -2.25510
H         -4.05450        2.76020       -0.60830
H         13.18620        0.98930        0.62170
H         15.26760        1.51130       -0.57660
H         15.34060        1.42610       -3.03530
H         14.33000        0.70130       -5.10560
H         12.71330       -0.01840       -5.11210
H         12.72770        2.12330       -6.37020
H         11.69950        2.25430       -4.93900
H         13.30960        2.97430       -4.93560
H         11.25460        0.22490       -3.11620
H          2.19250       -0.95150        0.77270
H          3.82800       -1.20840        0.10560
H          1.21810       -1.85880       -1.33340
H          2.36030       -3.00910       -0.64110
H          2.83640       -2.01800       -2.02520
H          4.49110        0.33190        1.25470
H          6.00070       -0.54930        1.61160
H          5.70230        2.49350        1.42460
H          7.18110        1.63240        1.86710
H          5.77460        1.56460        2.92700
H         14.56320       -1.71220        2.84780
H         10.13170       -3.52920        7.29710
H         11.60230       -4.58720        9.19740
