217

C          6.89750        7.19110        5.19210
C          6.79250        7.31770        6.54760
C          6.06750        6.42030        7.46220
O          5.65460        5.29780        7.23380
C          5.90490        7.16870        8.71980
C          5.19610        6.76370        9.84970
C          5.19240        7.68700       10.86690
C          5.84240        8.92520       10.77000
C          6.54790        9.33600        9.66380
C          6.56820        8.40930        8.61690
C          7.20450        8.48620        7.30490
C          8.09800        9.43850        6.89390
C          8.82430        9.39860        5.68240
N          9.49850        9.42270        4.75350
C          8.47260       10.55820        7.66540
N          8.81900       11.48640        8.24560
C          5.41670        9.34660       12.15460
C          6.48740        9.25980       13.26260
C          5.68340        9.26050       14.54280
C          5.06990        8.08760       14.63490
C          5.44860        7.27440       13.41810
C          6.88090        7.77830       13.19910
C          4.69380        7.96550       12.26280
C          6.51560        6.11890        4.36240
S          6.10960        4.52330        4.92830
C          5.94470        3.92060        3.30450
C          6.16430        4.93670        2.36310
C          6.11840        4.75470        0.91800
O          5.67680        3.74710        0.37200
C          6.66220        5.87290        0.15800
C          6.89760        5.85630       -1.19510
C          6.65170        4.73950       -2.14340
C          7.28040        4.95980       -3.51180
S          7.55220        7.36910       -1.72390
C          7.48230        8.04280       -0.13060
C          7.91480        9.43470        0.14860
C          8.68440       10.06980       -1.00050
C          6.99400        7.12310        0.76460
C          6.80200        7.38270        2.18620
O          6.88040        8.50260        2.66920
C          6.50360        6.16930        2.96480
C          5.54060        2.57310        3.13780
C          5.61060        1.59190        4.12910
C          6.39210        1.69030        5.36550
C          7.76300        1.92980        5.31330
C          8.49250        1.99290        6.48400
C          7.86480        1.82650        7.70640
C          6.50020        1.57880        7.77410
C          5.80620        1.46140        9.09950
C          5.44350        2.85490        9.61690
C          5.77450        1.50210        6.59530
C          4.87840        0.45530        3.78280
S          4.60520       -1.06390        4.60770
C          3.59870       -1.55670        3.28870
C          2.83180       -2.66320        2.89830
C          2.69400       -3.94520        3.47440
C          1.90680       -4.93170        2.79200
N          1.90790       -6.09940        3.41450
S          2.81870       -5.96870        4.74770
N          3.24610       -4.41480        4.58150
C          1.19420       -4.55260        1.63310
C          0.21050       -5.23200        0.89880
S         -0.60390       -6.76210        0.88070
C         -1.66820       -6.15170       -0.37230
C         -2.79690       -6.69200       -1.01230
C         -3.34240       -8.00430       -0.66000
C         -2.50610       -9.11240       -0.56220
C         -3.03050      -10.34000       -0.20280
C         -4.38220      -10.47330        0.06280
C         -5.22820       -9.37310       -0.01060
C         -6.70500       -9.50850        0.22490
C         -7.44540       -9.60610       -1.11090
C         -4.69540       -8.14360       -0.36370
C         -3.36060       -5.78090       -1.89960
S         -2.53040       -4.23670       -1.89370
C         -1.37580       -4.84150       -0.75670
C         -0.29570       -4.32360       -0.03400
N          0.35730       -3.12680        0.07270
C          1.28830       -3.23720        1.08810
C          2.21180       -2.32180        1.66100
N          2.65160       -1.06390        1.29120
C          3.48430       -0.59950        2.27500
C          4.23320        0.55280        2.54260
S          4.63180        2.02730        1.73500
C          2.60660       -0.38870        0.01450
C          1.78260        0.89820        0.05990
C         -0.17840       -1.97880       -0.62060
C          0.15740       -1.99150       -2.11040
C         -4.44340       -5.94770       -2.82020
C         -4.91350       -7.17950       -3.26980
C         -5.91870       -7.27300       -4.21940
C         -6.51600       -6.15500       -4.79210
C         -6.12240       -4.87770       -4.29900
N         -6.81040       -3.77110       -4.59870
C         -6.37710       -2.59590       -4.21290
C         -7.26870       -1.45270       -4.41030
C         -7.29250       -0.37990       -3.51990
C         -8.15750        0.67600       -3.72510
C         -9.02310        0.69380       -4.81270
C         -9.98770        1.82650       -5.00770
C        -11.29730        1.54340       -4.26840
C         -9.01630       -0.39070       -5.68210
C         -8.15520       -1.45030       -5.48580
C         -5.10180       -2.49120       -3.56480
N         -4.54490       -3.58000       -3.09620
C         -5.04570       -4.78480       -3.38220
C         -4.37130       -1.23510       -3.39750
C         -3.66900       -0.98650       -2.22080
C         -2.95300        0.18370       -2.07030
C         -2.90690        1.12750       -3.08980
C         -2.08610        2.37530       -2.93650
C         -0.63430        2.11580       -3.34480
C         -3.59720        0.86770       -4.26820
C         -4.32680       -0.29390       -4.42400
C         -7.52480       -6.26640       -5.79940
C         -7.70320       -5.36090       -6.79950
C         -6.68270       -4.36990       -7.23280
O         -5.51800       -4.29880       -6.89970
C         -7.32950       -3.56850       -8.29060
C         -6.78420       -2.47240       -8.95660
C         -7.61260       -1.92480       -9.90540
C         -8.88710       -2.43830      -10.18250
C         -9.43150       -3.52590       -9.54340
C         -8.60720       -4.09500       -8.56580
C         -8.84400       -5.23850       -7.68730
C         -9.96990       -6.02090       -7.68620
C        -10.20230       -7.11670       -6.82900
N        -10.47300       -8.02290       -6.17700
C        -11.06390       -5.85280       -8.56000
N        -11.99030       -5.77590       -9.23460
C         -9.16140       -1.40160      -11.24420
C        -10.09300       -0.23690      -10.84750
C         -9.79540        0.83110      -11.87510
C         -8.58900        1.31770      -11.61370
C         -8.05080        0.58700      -10.40480
C         -9.35650        0.34940       -9.63640
C         -7.74080       -0.82910      -10.93500
H          7.27740        8.04540        4.64230
H          4.70420        5.80450        9.88230
H          7.03410       10.29500        9.59830
H          4.81840       10.25390       12.21070
H          7.28400        9.99440       13.18380
H          5.60210       10.10660       15.19970
H          4.37360        7.75820       15.38370
H          5.29900        6.19980       13.48140
H          7.31770        7.47560       12.24930
H          7.54590        7.49420       14.01290
H          3.61310        7.95180       12.39220
H          7.02500        3.81590       -1.69100
H          5.56910        4.60660       -2.24370
H          7.08230        4.10770       -4.15670
H          8.35760        5.08240       -3.42250
H          6.87170        5.85160       -3.98290
H          8.51580        9.43210        1.06320
H          7.02510       10.03030        0.37990
H          9.57810        9.49250       -1.22770
H          8.06840       10.11710       -1.89670
H          8.98500       11.07960       -0.73520
H          8.24660        2.06140        4.35590
H          9.55680        2.17430        6.44390
H          8.44150        1.88630        8.61840
H          4.89700        0.86780        8.98860
H          6.45600        0.96210        9.82140
H          6.34550        3.43230        9.80910
H          4.86990        2.78330       10.53910
H          4.85840        3.38550        8.86960
H          4.71130        1.31420        6.62950
H         -1.45420       -9.01110       -0.78220
H         -2.38050      -11.19950       -0.13250
H         -4.78490      -11.43800        0.33570
H         -7.07260       -8.64030        0.77610
H         -6.90790      -10.40170        0.81830
H         -7.26870       -8.71450       -1.70930
H         -7.09750      -10.47010       -1.67290
H         -8.51550       -9.70740       -0.94720
H         -5.33860       -7.27600       -0.41090
H          2.23190       -1.08140       -0.73540
H          3.63490       -0.12460       -0.25710
H          2.29470        1.64950        0.65350
H          1.65840        1.28600       -0.94730
H          0.80120        0.73500        0.50010
H         -1.26860       -2.01820       -0.52120
H          0.17110       -1.07200       -0.13610
H         -0.27800       -1.11870       -2.58880
H         -0.26470       -2.87650       -2.57750
H          1.23100       -1.99410       -2.28550
H         -4.45740       -8.08550       -2.90430
H         -6.21470       -8.25200       -4.56830
H         -6.64760       -0.38110       -2.65380
H         -8.16420        1.50080       -3.02690
H        -10.19630        1.95620       -6.07160
H         -9.55310        2.75320       -4.62750
H        -11.75120        0.62790       -4.64050
H        -11.11220        1.42440       -3.20330
H        -11.99860        2.36220       -4.41030
H         -9.69990       -0.40290       -6.51900
H         -8.15060       -2.28850       -6.16480
H         -3.70940       -1.71530       -1.42640
H         -2.42500        0.37500       -1.14660
H         -2.49830        3.16930       -3.56160
H         -2.11100        2.71010       -1.89740
H         -0.19730        1.34330       -2.71560
H         -0.04250        3.02220       -3.24250
H         -0.58570        1.78280       -4.37910
H         -3.56410        1.58810       -5.07300
H         -4.85150       -0.48580       -5.34830
H         -8.18600       -7.11930       -5.72180
H         -5.79490       -2.11600       -8.71520
H        -10.40870       -3.91390       -9.77700
H         -9.36240       -1.78620      -12.24220
H        -11.13580       -0.51260      -10.71600
H        -10.44750        1.07460      -12.69320
H         -8.03220        2.04880      -12.17010
H         -7.23390        1.06230       -9.86810
H         -9.80580        1.27870       -9.28930
H         -9.25340       -0.34300       -8.80360
H         -6.99450       -0.83300      -11.72740
