
  xtb     02132221153D
 energy: -389.393236695257 gnorm: 0.000749376193 xtb: 6.4.1 (unknown)
237265  0     0  0            999 V2000
    5.6531   -8.0581   -7.3884 C   0  0  0  0  0  0  0  0  0  0  0  0
    6.3133   -9.2238   -7.1434 C   0  0  0  0  0  0  0  0  0  0  0  0
    5.7655  -10.3900   -6.4071 C   0  0  0  0  0  0  0  0  0  0  0  0
    4.6182  -10.6012   -6.0649 O   0  0  0  0  0  0  0  0  0  0  0  0
    6.9235  -11.2435   -6.0966 C   0  0  0  0  0  0  0  0  0  0  0  0
    6.9093  -12.4261   -5.3592 C   0  0  0  0  0  0  0  0  0  0  0  0
    8.1363  -13.0335   -5.2529 C   0  0  0  0  0  0  0  0  0  0  0  0
    9.2979  -12.4991   -5.8273 C   0  0  0  0  0  0  0  0  0  0  0  0
    9.3284  -11.3276   -6.5457 C   0  0  0  0  0  0  0  0  0  0  0  0
    8.0875  -10.6970   -6.6740 C   0  0  0  0  0  0  0  0  0  0  0  0
    7.7285   -9.4594   -7.3588 C   0  0  0  0  0  0  0  0  0  0  0  0
    8.5643   -8.6977   -8.1313 C   0  0  0  0  0  0  0  0  0  0  0  0
    9.9284   -8.9820   -8.3503 C   0  0  0  0  0  0  0  0  0  0  0  0
   11.0440   -9.1485   -8.5650 N   0  0  0  0  0  0  0  0  0  0  0  0
    8.1843   -7.5348   -8.8356 C   0  0  0  0  0  0  0  0  0  0  0  0
    7.9622   -6.5840   -9.4398 N   0  0  0  0  0  0  0  0  0  0  0  0
   10.1585  -13.6359   -5.3363 C   0  0  0  0  0  0  0  0  0  0  0  0
   10.5644  -14.7231   -6.3622 C   0  0  0  0  0  0  0  0  0  0  0  0
    9.4900  -14.7366   -7.4213 C   0  0  0  0  0  0  0  0  0  0  0  0
    8.3916  -15.2428   -6.8770 C   0  0  0  0  0  0  0  0  0  0  0  0
    8.7031  -15.5802   -5.4399 C   0  0  0  0  0  0  0  0  0  0  0  0
   10.1804  -15.9834   -5.5705 C   0  0  0  0  0  0  0  0  0  0  0  0
    8.8644  -14.2310   -4.6965 C   0  0  0  0  0  0  0  0  0  0  0  0
    4.2569   -7.8508   -7.2605 C   0  0  0  0  0  0  0  0  0  0  0  0
    3.6720   -6.2839   -6.7635 S   0  0  0  0  0  0  0  0  0  0  0  0
    2.0264   -6.8436   -6.7190 C   0  0  0  0  0  0  0  0  0  0  0  0
    1.9465   -8.1887   -7.0762 C   0  0  0  0  0  0  0  0  0  0  0  0
    0.7686   -9.0421   -6.8726 C   0  0  0  0  0  0  0  0  0  0  0  0
   -0.2344   -8.6581   -6.2927 O   0  0  0  0  0  0  0  0  0  0  0  0
    0.9526  -10.4187   -7.3341 C   0  0  0  0  0  0  0  0  0  0  0  0
   -0.0270  -11.3779   -7.2895 C   0  0  0  0  0  0  0  0  0  0  0  0
   -1.4172  -11.2632   -6.7813 C   0  0  0  0  0  0  0  0  0  0  0  0
   -1.4666  -11.4886   -5.2676 C   0  0  0  0  0  0  0  0  0  0  0  0
    0.5538  -12.8873   -7.9058 S   0  0  0  0  0  0  0  0  0  0  0  0
    2.1147  -12.2263   -8.2567 C   0  0  0  0  0  0  0  0  0  0  0  0
    3.2024  -13.0999   -8.7676 C   0  0  0  0  0  0  0  0  0  0  0  0
    3.9386  -13.7557   -7.5952 C   0  0  0  0  0  0  0  0  0  0  0  0
    2.1763  -10.9039   -7.9017 C   0  0  0  0  0  0  0  0  0  0  0  0
    3.3346  -10.0384   -8.1138 C   0  0  0  0  0  0  0  0  0  0  0  0
    4.2603  -10.2982   -8.8600 O   0  0  0  0  0  0  0  0  0  0  0  0
    3.2027   -8.7287   -7.4389 C   0  0  0  0  0  0  0  0  0  0  0  0
    1.0056   -5.9270   -6.3489 C   0  0  0  0  0  0  0  0  0  0  0  0
   -0.3134   -5.8261   -6.7656 C   0  0  0  0  0  0  0  0  0  0  0  0
   -0.9380   -6.6251   -7.8163 C   0  0  0  0  0  0  0  0  0  0  0  0
   -0.2357   -6.9784   -8.9673 C   0  0  0  0  0  0  0  0  0  0  0  0
   -0.8504   -7.7351   -9.9447 C   0  0  0  0  0  0  0  0  0  0  0  0
   -2.1751   -8.1162   -9.8068 C   0  0  0  0  0  0  0  0  0  0  0  0
   -2.9040   -7.7364   -8.6877 C   0  0  0  0  0  0  0  0  0  0  0  0
   -4.3519   -8.1117   -8.5405 C   0  0  0  0  0  0  0  0  0  0  0  0
   -4.5156   -9.4088   -7.7476 C   0  0  0  0  0  0  0  0  0  0  0  0
   -2.2706   -7.0062   -7.6933 C   0  0  0  0  0  0  0  0  0  0  0  0
   -0.9745   -4.7778   -6.0955 C   0  0  0  0  0  0  0  0  0  0  0  0
   -2.6111   -4.1676   -6.1779 S   0  0  0  0  0  0  0  0  0  0  0  0
   -2.2017   -2.9697   -5.0004 C   0  0  0  0  0  0  0  0  0  0  0  0
   -2.8049   -1.9116   -4.3045 C   0  0  0  0  0  0  0  0  0  0  0  0
   -4.1047   -1.3723   -4.4064 C   0  0  0  0  0  0  0  0  0  0  0  0
   -4.4420   -0.2296   -3.6103 C   0  0  0  0  0  0  0  0  0  0  0  0
   -5.6772    0.1939   -3.8292 N   0  0  0  0  0  0  0  0  0  0  0  0
   -6.3573   -0.7669   -4.9417 S   0  0  0  0  0  0  0  0  0  0  0  0
   -5.1017   -1.7609   -5.1859 N   0  0  0  0  0  0  0  0  0  0  0  0
   -3.4913    0.2621   -2.6910 C   0  0  0  0  0  0  0  0  0  0  0  0
   -3.6003    1.2699   -1.7205 C   0  0  0  0  0  0  0  0  0  0  0  0
   -4.7509    2.4290   -1.1452 S   0  0  0  0  0  0  0  0  0  0  0  0
   -3.6191    2.9106    0.0997 C   0  0  0  0  0  0  0  0  0  0  0  0
   -3.6534    3.8954    1.1158 C   0  0  0  0  0  0  0  0  0  0  0  0
   -4.7661    4.8287    1.2962 C   0  0  0  0  0  0  0  0  0  0  0  0
   -4.5482    6.1535    1.6700 C   0  0  0  0  0  0  0  0  0  0  0  0
   -5.6112    7.0256    1.7963 C   0  0  0  0  0  0  0  0  0  0  0  0
   -6.8990    6.6035    1.5167 C   0  0  0  0  0  0  0  0  0  0  0  0
   -7.1357    5.2969    1.1089 C   0  0  0  0  0  0  0  0  0  0  0  0
   -8.5261    4.8383    0.7719 C   0  0  0  0  0  0  0  0  0  0  0  0
   -9.2706    4.3718    2.0226 C   0  0  0  0  0  0  0  0  0  0  0  0
   -6.0683    4.4165    1.0267 C   0  0  0  0  0  0  0  0  0  0  0  0
   -2.4708    3.9123    1.8333 C   0  0  0  0  0  0  0  0  0  0  0  0
   -1.3187    2.7165    1.2658 S   0  0  0  0  0  0  0  0  0  0  0  0
   -2.4228    2.2009    0.0460 C   0  0  0  0  0  0  0  0  0  0  0  0
   -2.4076    1.2667   -0.9996 C   0  0  0  0  0  0  0  0  0  0  0  0
   -1.5514    0.3289   -1.5059 N   0  0  0  0  0  0  0  0  0  0  0  0
   -2.1952   -0.3149   -2.5526 C   0  0  0  0  0  0  0  0  0  0  0  0
   -1.8175   -1.3638   -3.4355 C   0  0  0  0  0  0  0  0  0  0  0  0
   -0.6366   -2.0650   -3.6317 N   0  0  0  0  0  0  0  0  0  0  0  0
   -0.8738   -3.0303   -4.5747 C   0  0  0  0  0  0  0  0  0  0  0  0
   -0.1686   -4.0610   -5.2062 C   0  0  0  0  0  0  0  0  0  0  0  0
    1.4398   -4.6832   -5.1806 S   0  0  0  0  0  0  0  0  0  0  0  0
    0.7299   -1.7108   -3.3214 C   0  0  0  0  0  0  0  0  0  0  0  0
    1.1212   -0.3804   -3.9604 C   0  0  0  0  0  0  0  0  0  0  0  0
   -0.3725   -0.0271   -0.7509 C   0  0  0  0  0  0  0  0  0  0  0  0
   -0.5499   -1.3638   -0.0340 C   0  0  0  0  0  0  0  0  0  0  0  0
   -2.2010    4.7254    2.9884 C   0  0  0  0  0  0  0  0  0  0  0  0
   -1.1888    5.6399    3.2214 C   0  0  0  0  0  0  0  0  0  0  0  0
   -0.1004    5.8719    2.3895 N   0  0  0  0  0  0  0  0  0  0  0  0
    0.3218    7.1977    2.2039 C   0  0  0  0  0  0  0  0  0  0  0  0
   -0.6202    8.2094    2.0361 C   0  0  0  0  0  0  0  0  0  0  0  0
   -0.2161    9.5223    1.9046 C   0  0  0  0  0  0  0  0  0  0  0  0
    1.1303    9.8626    1.9231 C   0  0  0  0  0  0  0  0  0  0  0  0
    1.5610   11.2940    1.8279 C   0  0  0  0  0  0  0  0  0  0  0  0
    2.0646    8.8443    2.0654 C   0  0  0  0  0  0  0  0  0  0  0  0
    1.6734    7.5287    2.2080 C   0  0  0  0  0  0  0  0  0  0  0  0
    0.7226    4.8042    2.0135 C   0  0  0  0  0  0  0  0  0  0  0  0
    0.9527    3.7407    2.8849 C   0  0  0  0  0  0  0  0  0  0  0  0
    1.7188    2.6653    2.4801 C   0  0  0  0  0  0  0  0  0  0  0  0
    2.2734    2.6201    1.2073 C   0  0  0  0  0  0  0  0  0  0  0  0
    3.0932    1.4427    0.7725 C   0  0  0  0  0  0  0  0  0  0  0  0
    2.0690    3.7018    0.3577 C   0  0  0  0  0  0  0  0  0  0  0  0
    1.3093    4.7845    0.7501 C   0  0  0  0  0  0  0  0  0  0  0  0
   -1.4360    6.3908    4.3981 C   0  0  0  0  0  0  0  0  0  0  0  0
   -0.5981    7.6990    5.1488 S   0  0  0  0  0  0  0  0  0  0  0  0
   -1.8397    7.7725    6.4031 C   0  0  0  0  0  0  0  0  0  0  0  0
   -2.7889    6.7219    6.2780 C   0  0  0  0  0  0  0  0  0  0  0  0
   -3.7606    6.4287    7.1914 N   0  0  0  0  0  0  0  0  0  0  0  0
   -3.5767    6.6304    8.5759 C   0  0  0  0  0  0  0  0  0  0  0  0
   -2.3404    6.4040    9.1746 C   0  0  0  0  0  0  0  0  0  0  0  0
   -2.1811    6.6148   10.5296 C   0  0  0  0  0  0  0  0  0  0  0  0
   -3.2441    7.0337   11.3213 C   0  0  0  0  0  0  0  0  0  0  0  0
   -3.0694    7.2875   12.7867 C   0  0  0  0  0  0  0  0  0  0  0  0
   -4.4824    7.2227   10.7188 C   0  0  0  0  0  0  0  0  0  0  0  0
   -4.6538    7.0292    9.3628 C   0  0  0  0  0  0  0  0  0  0  0  0
   -4.9181    5.7361    6.7836 C   0  0  0  0  0  0  0  0  0  0  0  0
   -5.3852    4.6625    7.5361 C   0  0  0  0  0  0  0  0  0  0  0  0
   -6.5276    3.9934    7.1494 C   0  0  0  0  0  0  0  0  0  0  0  0
   -7.2257    4.3653    6.0063 C   0  0  0  0  0  0  0  0  0  0  0  0
   -8.4528    3.6157    5.5902 C   0  0  0  0  0  0  0  0  0  0  0  0
   -6.7480    5.4337    5.2568 C   0  0  0  0  0  0  0  0  0  0  0  0
   -5.6123    6.1206    5.6400 C   0  0  0  0  0  0  0  0  0  0  0  0
   -2.5720    5.9966    5.0920 C   0  0  0  0  0  0  0  0  0  0  0  0
   -3.3793    4.6828    4.2967 S   0  0  0  0  0  0  0  0  0  0  0  0
   -1.9759    8.8151    7.3161 C   0  0  0  0  0  0  0  0  0  0  0  0
   -1.1640    9.9010    7.5615 C   0  0  0  0  0  0  0  0  0  0  0  0
    0.1586   10.1437    6.9851 C   0  0  0  0  0  0  0  0  0  0  0  0
    0.7398    9.4831    6.1394 O   0  0  0  0  0  0  0  0  0  0  0  0
    0.6836   11.3523    7.6469 C   0  0  0  0  0  0  0  0  0  0  0  0
    1.9110   11.9681    7.4199 C   0  0  0  0  0  0  0  0  0  0  0  0
    2.1250   13.0885    8.1872 C   0  0  0  0  0  0  0  0  0  0  0  0
    1.1846   13.5620    9.1102 C   0  0  0  0  0  0  0  0  0  0  0  0
   -0.0324   12.9643    9.3408 C   0  0  0  0  0  0  0  0  0  0  0  0
   -0.2684   11.8211    8.5737 C   0  0  0  0  0  0  0  0  0  0  0  0
   -1.4392   10.9443    8.5190 C   0  0  0  0  0  0  0  0  0  0  0  0
   -2.5962   11.1260    9.2401 C   0  0  0  0  0  0  0  0  0  0  0  0
   -3.7823   10.3834    9.0909 C   0  0  0  0  0  0  0  0  0  0  0  0
   -4.8033    9.8591    9.0122 N   0  0  0  0  0  0  0  0  0  0  0  0
   -2.7764   12.1161   10.2255 C   0  0  0  0  0  0  0  0  0  0  0  0
   -2.9941   12.8791   11.0568 N   0  0  0  0  0  0  0  0  0  0  0  0
    2.0578   14.7187    9.5279 C   0  0  0  0  0  0  0  0  0  0  0  0
    2.8118   14.6057   10.8759 C   0  0  0  0  0  0  0  0  0  0  0  0
    3.0087   13.1327   11.1346 C   0  0  0  0  0  0  0  0  0  0  0  0
    3.8998   12.6838   10.2608 C   0  0  0  0  0  0  0  0  0  0  0  0
    4.3215   13.8454    9.3954 C   0  0  0  0  0  0  0  0  0  0  0  0
    4.2266   14.9914   10.4153 C   0  0  0  0  0  0  0  0  0  0  0  0
    3.1067   14.1908    8.4991 C   0  0  0  0  0  0  0  0  0  0  0  0
    6.2300   -7.1772   -7.6434 H   0  0  0  0  0  0  0  0  0  0  0  0
    5.9946  -12.8020   -4.9276 H   0  0  0  0  0  0  0  0  0  0  0  0
   10.2314  -10.9240   -6.9724 H   0  0  0  0  0  0  0  0  0  0  0  0
   10.9776  -13.3639   -4.6737 H   0  0  0  0  0  0  0  0  0  0  0  0
   11.5882  -14.6470   -6.7182 H   0  0  0  0  0  0  0  0  0  0  0  0
    9.6186  -14.3356   -8.4095 H   0  0  0  0  0  0  0  0  0  0  0  0
    7.4185  -15.3492   -7.3194 H   0  0  0  0  0  0  0  0  0  0  0  0
    8.0323  -16.2851   -4.9556 H   0  0  0  0  0  0  0  0  0  0  0  0
   10.3179  -16.8989   -6.1438 H   0  0  0  0  0  0  0  0  0  0  0  0
   10.6935  -16.0679   -4.6135 H   0  0  0  0  0  0  0  0  0  0  0  0
    8.8369  -14.3467   -3.6147 H   0  0  0  0  0  0  0  0  0  0  0  0
   -2.0519  -11.9970   -7.2824 H   0  0  0  0  0  0  0  0  0  0  0  0
   -1.7805  -10.2569   -6.9971 H   0  0  0  0  0  0  0  0  0  0  0  0
   -0.8876  -10.7193   -4.7642 H   0  0  0  0  0  0  0  0  0  0  0  0
   -1.0599  -12.4647   -5.0114 H   0  0  0  0  0  0  0  0  0  0  0  0
   -2.4946  -11.4346   -4.9196 H   0  0  0  0  0  0  0  0  0  0  0  0
    3.9026  -12.4880   -9.3373 H   0  0  0  0  0  0  0  0  0  0  0  0
    2.7852  -13.8711   -9.4184 H   0  0  0  0  0  0  0  0  0  0  0  0
    4.3217  -12.9866   -6.9297 H   0  0  0  0  0  0  0  0  0  0  0  0
    3.2654  -14.4010   -7.0339 H   0  0  0  0  0  0  0  0  0  0  0  0
    4.7711  -14.3500   -7.9626 H   0  0  0  0  0  0  0  0  0  0  0  0
    0.7838   -6.6480   -9.1014 H   0  0  0  0  0  0  0  0  0  0  0  0
   -0.2976   -8.0178  -10.8289 H   0  0  0  0  0  0  0  0  0  0  0  0
   -2.6501   -8.6987  -10.5833 H   0  0  0  0  0  0  0  0  0  0  0  0
   -4.7997   -8.2354   -9.5287 H   0  0  0  0  0  0  0  0  0  0  0  0
   -4.8808   -7.3083   -8.0241 H   0  0  0  0  0  0  0  0  0  0  0  0
   -4.0688   -9.3072   -6.7614 H   0  0  0  0  0  0  0  0  0  0  0  0
   -5.5699   -9.6480   -7.6281 H   0  0  0  0  0  0  0  0  0  0  0  0
   -4.0303  -10.2334   -8.2650 H   0  0  0  0  0  0  0  0  0  0  0  0
   -2.8171   -6.7445   -6.8003 H   0  0  0  0  0  0  0  0  0  0  0  0
   -3.5413    6.5048    1.8350 H   0  0  0  0  0  0  0  0  0  0  0  0
   -5.4322    8.0489    2.0942 H   0  0  0  0  0  0  0  0  0  0  0  0
   -7.7233    7.2982    1.5956 H   0  0  0  0  0  0  0  0  0  0  0  0
   -9.0791    5.6588    0.3097 H   0  0  0  0  0  0  0  0  0  0  0  0
   -8.4743    4.0160    0.0561 H   0  0  0  0  0  0  0  0  0  0  0  0
   -8.7331    3.5530    2.4945 H   0  0  0  0  0  0  0  0  0  0  0  0
  -10.2705    4.0299    1.7658 H   0  0  0  0  0  0  0  0  0  0  0  0
   -9.3573    5.1872    2.7376 H   0  0  0  0  0  0  0  0  0  0  0  0
   -6.2538    3.3922    0.7402 H   0  0  0  0  0  0  0  0  0  0  0  0
    1.3570   -2.5049   -3.7350 H   0  0  0  0  0  0  0  0  0  0  0  0
    0.8932   -1.7057   -2.2439 H   0  0  0  0  0  0  0  0  0  0  0  0
    2.1489   -0.1340   -3.7068 H   0  0  0  0  0  0  0  0  0  0  0  0
    1.0401   -0.4515   -5.0427 H   0  0  0  0  0  0  0  0  0  0  0  0
    0.4708    0.4241   -3.6253 H   0  0  0  0  0  0  0  0  0  0  0  0
    0.5086   -0.0263   -1.3915 H   0  0  0  0  0  0  0  0  0  0  0  0
   -0.2269    0.7631   -0.0099 H   0  0  0  0  0  0  0  0  0  0  0  0
    0.3625   -1.6283    0.4939 H   0  0  0  0  0  0  0  0  0  0  0  0
   -0.7947   -2.1573   -0.7367 H   0  0  0  0  0  0  0  0  0  0  0  0
   -1.3587   -1.2906    0.6890 H   0  0  0  0  0  0  0  0  0  0  0  0
   -1.6723    7.9639    2.0171 H   0  0  0  0  0  0  0  0  0  0  0  0
   -0.9607   10.2965    1.7865 H   0  0  0  0  0  0  0  0  0  0  0  0
    2.5539   11.3745    1.3913 H   0  0  0  0  0  0  0  0  0  0  0  0
    0.8620   11.8727    1.2281 H   0  0  0  0  0  0  0  0  0  0  0  0
    1.5935   11.7334    2.8257 H   0  0  0  0  0  0  0  0  0  0  0  0
    3.1174    9.0864    2.0833 H   0  0  0  0  0  0  0  0  0  0  0  0
    2.4128    6.7528    2.3412 H   0  0  0  0  0  0  0  0  0  0  0  0
    0.5206    3.7603    3.8747 H   0  0  0  0  0  0  0  0  0  0  0  0
    1.8839    1.8445    3.1630 H   0  0  0  0  0  0  0  0  0  0  0  0
    2.6796    0.5170    1.1676 H   0  0  0  0  0  0  0  0  0  0  0  0
    4.1137    1.5380    1.1448 H   0  0  0  0  0  0  0  0  0  0  0  0
    3.1354    1.3783   -0.3123 H   0  0  0  0  0  0  0  0  0  0  0  0
    2.5025    3.6904   -0.6323 H   0  0  0  0  0  0  0  0  0  0  0  0
    1.1468    5.6144    0.0787 H   0  0  0  0  0  0  0  0  0  0  0  0
   -1.5061    6.0704    8.5749 H   0  0  0  0  0  0  0  0  0  0  0  0
   -1.2141    6.4423   10.9801 H   0  0  0  0  0  0  0  0  0  0  0  0
   -3.8390    6.7728   13.3592 H   0  0  0  0  0  0  0  0  0  0  0  0
   -2.0934    6.9523   13.1286 H   0  0  0  0  0  0  0  0  0  0  0  0
   -3.1604    8.3538   12.9939 H   0  0  0  0  0  0  0  0  0  0  0  0
   -5.3216    7.5448   11.3163 H   0  0  0  0  0  0  0  0  0  0  0  0
   -5.6159    7.1973    8.9055 H   0  0  0  0  0  0  0  0  0  0  0  0
   -4.8473    4.3572    8.4213 H   0  0  0  0  0  0  0  0  0  0  0  0
   -6.8804    3.1627    7.7432 H   0  0  0  0  0  0  0  0  0  0  0  0
   -8.1914    2.8580    4.8512 H   0  0  0  0  0  0  0  0  0  0  0  0
   -8.9071    3.1137    6.4409 H   0  0  0  0  0  0  0  0  0  0  0  0
   -9.1840    4.2836    5.1422 H   0  0  0  0  0  0  0  0  0  0  0  0
   -7.2695    5.7374    4.3612 H   0  0  0  0  0  0  0  0  0  0  0  0
   -5.2662    6.9631    5.0598 H   0  0  0  0  0  0  0  0  0  0  0  0
   -2.8780    8.7623    7.9116 H   0  0  0  0  0  0  0  0  0  0  0  0
    2.6041   11.5712    6.6944 H   0  0  0  0  0  0  0  0  0  0  0  0
   -0.7459   13.3447   10.0525 H   0  0  0  0  0  0  0  0  0  0  0  0
    1.6425   15.7120    9.3682 H   0  0  0  0  0  0  0  0  0  0  0  0
    2.3744   15.1813   11.6873 H   0  0  0  0  0  0  0  0  0  0  0  0
    2.4529   12.5740   11.8646 H   0  0  0  0  0  0  0  0  0  0  0  0
    4.2374   11.6744   10.1146 H   0  0  0  0  0  0  0  0  0  0  0  0
    5.2601   13.7289    8.8595 H   0  0  0  0  0  0  0  0  0  0  0  0
    4.2806   15.9806    9.9625 H   0  0  0  0  0  0  0  0  0  0  0  0
    4.9659   14.9102   11.2108 H   0  0  0  0  0  0  0  0  0  0  0  0
    3.3760   14.8403    7.6681 H   0  0  0  0  0  0  0  0  0  0  0  0
  1  2  2  0  0  0  0
  2  3  1  0  0  0  0
  3  4  2  0  0  0  0
  3  5  1  0  0  0  0
  5  6  2  0  0  0  0
  6  7  1  0  0  0  0
  7  8  2  0  0  0  0
  8  9  1  0  0  0  0
  9 10  2  0  0  0  0
 10 11  1  0  0  0  0
 11 12  2  0  0  0  0
 12 13  1  0  0  0  0
 13 14  3  0  0  0  0
 12 15  1  0  0  0  0
 15 16  3  0  0  0  0
  8 17  1  0  0  0  0
 17 18  1  0  0  0  0
 18 19  1  0  0  0  0
 19 20  2  0  0  0  0
 20 21  1  0  0  0  0
 21 22  1  0  0  0  0
 21 23  1  0  0  0  0
  1 24  1  0  0  0  0
 24 25  1  0  0  0  0
 25 26  1  0  0  0  0
 26 27  2  0  0  0  0
 27 28  1  0  0  0  0
 28 29  2  0  0  0  0
 28 30  1  0  0  0  0
 30 31  2  0  0  0  0
 31 32  1  0  0  0  0
 32 33  1  0  0  0  0
 31 34  1  0  0  0  0
 34 35  1  0  0  0  0
 35 36  1  0  0  0  0
 36 37  1  0  0  0  0
 35 38  2  0  0  0  0
 38 39  1  0  0  0  0
 39 40  2  0  0  0  0
 39 41  1  0  0  0  0
 26 42  1  0  0  0  0
 42 43  2  0  0  0  0
 43 44  1  0  0  0  0
 44 45  2  0  0  0  0
 45 46  1  0  0  0  0
 46 47  2  0  0  0  0
 47 48  1  0  0  0  0
 48 49  1  0  0  0  0
 49 50  1  0  0  0  0
 48 51  2  0  0  0  0
 43 52  1  0  0  0  0
 52 53  1  0  0  0  0
 53 54  1  0  0  0  0
 54 55  1  0  0  0  0
 55 56  1  0  0  0  0
 56 57  1  0  0  0  0
 57 58  2  0  0  0  0
 58 59  1  0  0  0  0
 59 60  1  0  0  0  0
 57 61  1  0  0  0  0
 61 62  1  0  0  0  0
 62 63  1  0  0  0  0
 63 64  1  0  0  0  0
 64 65  1  0  0  0  0
 65 66  1  0  0  0  0
 66 67  2  0  0  0  0
 67 68  1  0  0  0  0
 68 69  2  0  0  0  0
 69 70  1  0  0  0  0
 70 71  1  0  0  0  0
 71 72  1  0  0  0  0
 70 73  2  0  0  0  0
 65 74  2  0  0  0  0
 74 75  1  0  0  0  0
 75 76  1  0  0  0  0
 76 77  1  0  0  0  0
 77 78  1  0  0  0  0
 78 79  1  0  0  0  0
 79 80  1  0  0  0  0
 80 81  1  0  0  0  0
 81 82  1  0  0  0  0
 82 83  1  0  0  0  0
 83 84  1  0  0  0  0
 81 85  1  0  0  0  0
 85 86  1  0  0  0  0
 78 87  1  0  0  0  0
 87 88  1  0  0  0  0
 74 89  1  0  0  0  0
 89 90  2  0  0  0  0
 90 91  1  0  0  0  0
 91 92  1  0  0  0  0
 92 93  2  0  0  0  0
 93 94  1  0  0  0  0
 94 95  2  0  0  0  0
 95 96  1  0  0  0  0
 95 97  1  0  0  0  0
 97 98  2  0  0  0  0
 91 99  1  0  0  0  0
 99100  2  0  0  0  0
100101  1  0  0  0  0
101102  2  0  0  0  0
102103  1  0  0  0  0
102104  1  0  0  0  0
104105  2  0  0  0  0
 90106  1  0  0  0  0
106107  1  0  0  0  0
107108  1  0  0  0  0
108109  2  0  0  0  0
109110  1  0  0  0  0
110111  1  0  0  0  0
111112  2  0  0  0  0
112113  1  0  0  0  0
113114  2  0  0  0  0
114115  1  0  0  0  0
114116  1  0  0  0  0
116117  2  0  0  0  0
110118  1  0  0  0  0
118119  2  0  0  0  0
119120  1  0  0  0  0
120121  2  0  0  0  0
121122  1  0  0  0  0
121123  1  0  0  0  0
123124  2  0  0  0  0
109125  1  0  0  0  0
125126  1  0  0  0  0
108127  1  0  0  0  0
127128  2  0  0  0  0
128129  1  0  0  0  0
129130  2  0  0  0  0
129131  1  0  0  0  0
131132  2  0  0  0  0
132133  1  0  0  0  0
133134  2  0  0  0  0
134135  1  0  0  0  0
135136  2  0  0  0  0
136137  1  0  0  0  0
137138  2  0  0  0  0
138139  1  0  0  0  0
139140  3  0  0  0  0
138141  1  0  0  0  0
141142  3  0  0  0  0
134143  1  0  0  0  0
143144  1  0  0  0  0
144145  1  0  0  0  0
145146  2  0  0  0  0
146147  1  0  0  0  0
147148  1  0  0  0  0
147149  1  0  0  0  0
 11  2  1  0  0  0  0
 23 17  1  0  0  0  0
 41 24  2  0  0  0  0
 84 42  1  0  0  0  0
126 89  1  0  0  0  0
137128  1  0  0  0  0
149143  1  0  0  0  0
 10  5  1  0  0  0  0
 22 18  1  0  0  0  0
 41 27  1  0  0  0  0
 51 44  1  0  0  0  0
 83 52  2  0  0  0  0
 98 92  1  0  0  0  0
105 99  1  0  0  0  0
125106  2  0  0  0  0
136131  1  0  0  0  0
148144  1  0  0  0  0
 23  7  1  0  0  0  0
 38 30  1  0  0  0  0
 82 54  2  0  0  0  0
117111  1  0  0  0  0
124118  1  0  0  0  0
149133  1  0  0  0  0
 80 55  2  0  0  0  0
 60 56  2  0  0  0  0
 79 61  2  0  0  0  0
 77 62  2  0  0  0  0
 76 64  2  0  0  0  0
 73 66  1  0  0  0  0
  1150  1  0  0  0  0
  6151  1  0  0  0  0
  9152  1  0  0  0  0
 17153  1  0  0  0  0
 18154  1  0  0  0  0
 19155  1  0  0  0  0
 20156  1  0  0  0  0
 21157  1  0  0  0  0
 22158  1  0  0  0  0
 22159  1  0  0  0  0
 23160  1  0  0  0  0
 32161  1  0  0  0  0
 32162  1  0  0  0  0
 33163  1  0  0  0  0
 33164  1  0  0  0  0
 33165  1  0  0  0  0
 36166  1  0  0  0  0
 36167  1  0  0  0  0
 37168  1  0  0  0  0
 37169  1  0  0  0  0
 37170  1  0  0  0  0
 45171  1  0  0  0  0
 46172  1  0  0  0  0
 47173  1  0  0  0  0
 49174  1  0  0  0  0
 49175  1  0  0  0  0
 50176  1  0  0  0  0
 50177  1  0  0  0  0
 50178  1  0  0  0  0
 51179  1  0  0  0  0
 67180  1  0  0  0  0
 68181  1  0  0  0  0
 69182  1  0  0  0  0
 71183  1  0  0  0  0
 71184  1  0  0  0  0
 72185  1  0  0  0  0
 72186  1  0  0  0  0
 72187  1  0  0  0  0
 73188  1  0  0  0  0
 85189  1  0  0  0  0
 85190  1  0  0  0  0
 86191  1  0  0  0  0
 86192  1  0  0  0  0
 86193  1  0  0  0  0
 87194  1  0  0  0  0
 87195  1  0  0  0  0
 88196  1  0  0  0  0
 88197  1  0  0  0  0
 88198  1  0  0  0  0
 93199  1  0  0  0  0
 94200  1  0  0  0  0
 96201  1  0  0  0  0
 96202  1  0  0  0  0
 96203  1  0  0  0  0
 97204  1  0  0  0  0
 98205  1  0  0  0  0
100206  1  0  0  0  0
101207  1  0  0  0  0
103208  1  0  0  0  0
103209  1  0  0  0  0
103210  1  0  0  0  0
104211  1  0  0  0  0
105212  1  0  0  0  0
112213  1  0  0  0  0
113214  1  0  0  0  0
115215  1  0  0  0  0
115216  1  0  0  0  0
115217  1  0  0  0  0
116218  1  0  0  0  0
117219  1  0  0  0  0
119220  1  0  0  0  0
120221  1  0  0  0  0
122222  1  0  0  0  0
122223  1  0  0  0  0
122224  1  0  0  0  0
123225  1  0  0  0  0
124226  1  0  0  0  0
127227  1  0  0  0  0
132228  1  0  0  0  0
135229  1  0  0  0  0
143230  1  0  0  0  0
144231  1  0  0  0  0
145232  1  0  0  0  0
146233  1  0  0  0  0
147234  1  0  0  0  0
148235  1  0  0  0  0
148236  1  0  0  0  0
149237  1  0  0  0  0
M  END
