170

C          7.46170       -2.39770      -10.65400
C          8.50390       -2.34900       -9.79060
C          8.49640       -1.63770       -8.47750
O          7.57780       -1.04210       -7.96060
C          9.87870       -1.71480       -7.97580
C         10.35140       -1.19270       -6.77330
C         11.68600       -1.42540       -6.54870
C         12.49780       -2.11510       -7.46120
C         12.04800       -2.62290       -8.65570
C         10.68680       -2.40780       -8.90010
C          9.86450       -2.81130      -10.03460
C         10.28930       -3.54800      -11.10740
C          9.47690       -3.97700      -12.17920
N          8.88890       -4.37240      -13.08280
C         11.61360       -3.99880      -11.29700
N         12.66670       -4.39560      -11.52330
C         13.71950       -1.99510       -6.58540
C         14.15300       -3.24710       -5.78290
C         12.90730       -4.06990       -5.56440
C         12.13860       -3.41950       -4.70120
C         12.85070       -2.14500       -4.32020
C         14.31080       -2.62000       -4.38840
C         12.81490       -1.22910       -5.56910
C          6.09220       -2.05550      -10.34330
C          5.51650       -2.40660       -9.11100
C          4.21260       -2.05350       -8.87000
C          3.38960       -2.29880       -7.65590
O          3.69580       -2.90730       -6.65910
C          2.09310       -1.63460       -7.95580
C          2.13230       -1.08420       -9.25220
C          3.44730       -1.34680       -9.82140
C          3.99830       -1.03530      -11.05120
C          5.30920       -1.40880      -11.30520
C          1.02800       -0.41110       -9.74260
C         -0.09560       -0.28670       -8.93960
C         -0.14140       -0.83160       -7.65240
C          0.98260       -1.51310       -7.15840
C         -1.29360       -0.66000       -6.79470
C         -2.63030       -0.51620       -7.10530
C         -3.22650       -0.68090       -8.43300
C         -2.84380       -1.73490       -9.25990
C         -3.44760       -1.89740      -10.49120
C         -4.43620       -1.02130      -10.90700
C         -4.83950        0.02670      -10.09010
C         -5.88890        1.00000      -10.54410
C         -5.24120        2.20800      -11.22400
C         -4.22670        0.18760       -8.85610
C         -3.40350       -0.27670       -5.94610
S         -5.11810       -0.04470       -5.68470
C         -4.82000        0.08490       -3.98290
C         -5.52670        0.25100       -2.78150
C         -6.91500        0.33060       -2.54290
C         -7.38090        0.39560       -1.18970
N         -8.70200        0.42740       -1.10850
S         -9.30700        0.38100       -2.61050
N         -7.90600        0.31920       -3.42080
C         -6.43330        0.45910       -0.14630
C         -6.61480        0.62190        1.23570
S         -7.89810        0.76390        2.39030
C         -6.70730        0.99950        3.65060
C         -6.81310        1.19370        5.04490
C         -8.10130        1.14010        5.74150
C         -8.26370        0.34860        6.87650
C         -9.49970        0.26930        7.48760
C        -10.57950        0.96940        6.97610
C        -10.43800        1.75360        5.83880
C        -11.59400        2.54260        5.29520
C        -11.59860        3.95690        5.87900
C         -9.19390        1.83090        5.22990
C         -5.56910        1.33510        5.62990
S         -4.26440        1.18880        4.46010
C         -5.39510        0.96160        3.17870
C         -5.34350        0.73440        1.79750
N         -4.38910        0.63410        0.82400
C         -5.02750        0.44170       -0.38880
C         -4.56870        0.25430       -1.72450
N         -3.32040        0.05390       -2.28800
C         -3.47390       -0.03760       -3.64290
C         -2.66300       -0.25360       -4.76530
S         -0.98800       -0.52730       -5.07060
C         -2.01230       -0.18830       -1.72750
C         -1.11140        1.04280       -1.83480
C         -3.01020        0.85410        1.18990
C         -2.38630       -0.38810        1.82740
C         -5.20230        1.65180        6.98980
C         -3.92160        1.30500        7.45540
C         -3.55920        1.64560        8.73410
C         -2.26690        1.41350        9.43420
O         -1.27270        0.88850        8.99650
C         -2.47380        2.00280       10.78620
C         -3.77090        2.55410       10.86060
C         -4.44330        2.33160        9.59140
C         -5.70130        2.68480        9.13560
C         -6.06640        2.35040        7.84170
C         -4.17730        3.20380       12.01440
C         -3.29090        3.28690       13.07330
C         -2.01720        2.70010       13.02590
C         -1.60090        2.06130       11.84390
C         -1.15330        2.84180       14.16800
C         -0.22170        1.96530       14.62310
C         -0.11480        0.52950       14.25180
O         -0.67340       -0.05680       13.35760
C          0.74420       -0.07520       15.29900
C          1.06370       -1.41140       15.47430
Cl         0.58840       -2.59720       14.34450
C          1.79220       -1.77330       16.61700
Cl         2.24410       -3.40350       16.85760
C          2.11170       -0.81380       17.57730
Cl         2.91130       -1.29730       19.00910
C          1.77710        0.53800       17.39750
Cl         2.04740        1.62630       18.69470
C          1.15110        0.91610       16.21570
C          0.72010        2.21270       15.70770
C          1.25460        3.43960       15.98940
C          2.41040        3.69760       16.75940
N          3.38310        4.00990       17.28120
C          0.80610        4.63930       15.38840
N          0.49400        5.65290       14.95040
H          7.64240       -2.70000      -11.67820
H          9.69040       -0.66650       -6.10260
H         12.68770       -3.14350       -9.34860
H         14.56590       -1.46460       -7.01670
H         15.00930       -3.77320       -6.19600
H         12.69460       -4.98410       -6.08690
H         11.15470       -3.68120       -4.35840
H         12.52150       -1.66740       -3.40110
H         14.55040       -3.35470       -3.62140
H         15.03410       -1.80630       -4.35740
H         13.07020       -0.19760       -5.33470
H          6.07140       -2.96650       -8.37560
H          3.42560       -0.51310      -11.80270
H          5.75470       -1.16630      -12.25960
H          1.03600        0.02830      -10.72860
H         -0.95110        0.25920       -9.30700
H          0.97630       -1.94070       -6.16630
H         -2.08440       -2.42760       -8.92840
H         -3.15070       -2.71710      -11.12890
H         -4.90560       -1.15820      -11.87060
H         -6.47150        1.33920       -9.68550
H         -6.56660        0.51170      -11.24680
H         -6.00180        2.91140      -11.55430
H         -4.57310        2.71830      -10.53370
H         -4.66250        1.89080      -12.08900
H         -4.52690        1.00470       -8.21630
H         -7.42370       -0.20740        7.26620
H         -9.62440       -0.34810        8.36510
H        -11.54350        0.89890        7.45900
H        -11.51920        2.60190        4.20780
H        -12.53240        2.04560        5.54770
H        -10.67410        4.47300        5.62940
H        -11.68800        3.91950        6.96270
H        -12.43330        4.52940        5.48160
H         -9.07010        2.44310        4.34840
H         -2.10950       -0.53330       -0.70270
H         -1.55810       -1.00040       -2.30580
H         -1.58970        1.92610       -1.41580
H         -0.17690        0.86380       -1.31070
H         -0.88550        1.24960       -2.87740
H         -2.99680        1.66490        1.92670
H         -2.44950        1.19140        0.32370
H         -2.85960       -0.59420        2.78350
H         -1.32620       -0.22300        1.99810
H         -2.51140       -1.26660        1.19740
H         -3.22810        0.77590        6.81800
H         -6.39060        3.22540        9.76650
H         -7.03530        2.64990        7.47370
H         -5.15870        3.64720       12.08720
H         -3.59220        3.79700       13.97720
H         -0.60690        1.65800       11.74650
H         -1.31040        3.74650       14.74450
