
  xtb     02132200573D
 energy: -286.815797549283 gnorm: 0.001667685500 xtb: 6.4.1 (unknown)
163184  0     0  0            999 V2000
   -3.6313    9.8010    5.7625 C   0  0  0  0  0  0  0  0  0  0  0  0
   -2.6275   10.4928    5.1713 C   0  0  0  0  0  0  0  0  0  0  0  0
   -1.5612    9.8957    4.3112 C   0  0  0  0  0  0  0  0  0  0  0  0
   -1.5124    8.7809    3.8408 O   0  0  0  0  0  0  0  0  0  0  0  0
   -0.5094   10.9213    4.2191 C   0  0  0  0  0  0  0  0  0  0  0  0
    0.7089   10.7942    3.5542 C   0  0  0  0  0  0  0  0  0  0  0  0
    1.5032   11.9121    3.6245 C   0  0  0  0  0  0  0  0  0  0  0  0
    1.1240   13.0676    4.3237 C   0  0  0  0  0  0  0  0  0  0  0  0
   -0.0721   13.2051    4.9867 C   0  0  0  0  0  0  0  0  0  0  0  0
   -0.9057   12.0839    4.9118 C   0  0  0  0  0  0  0  0  0  0  0  0
   -2.2390   11.8672    5.4597 C   0  0  0  0  0  0  0  0  0  0  0  0
   -3.0307   12.8124    6.0529 C   0  0  0  0  0  0  0  0  0  0  0  0
   -2.6396   14.1480    6.2863 C   0  0  0  0  0  0  0  0  0  0  0  0
   -2.3831   15.2444    6.5088 N   0  0  0  0  0  0  0  0  0  0  0  0
   -4.3634   12.5957    6.4672 C   0  0  0  0  0  0  0  0  0  0  0  0
   -5.4582   12.5062    6.7996 N   0  0  0  0  0  0  0  0  0  0  0  0
    2.4011   13.7909    3.9757 C   0  0  0  0  0  0  0  0  0  0  0  0
    2.3362   14.8687    2.8661 C   0  0  0  0  0  0  0  0  0  0  0  0
    1.1842   14.4890    1.9688 C   0  0  0  0  0  0  0  0  0  0  0  0
    1.5341   13.3987    1.3005 C   0  0  0  0  0  0  0  0  0  0  0  0
    2.9295   13.0213    1.7329 C   0  0  0  0  0  0  0  0  0  0  0  0
    3.5185   14.4164    1.9945 C   0  0  0  0  0  0  0  0  0  0  0  0
    2.8178   12.5079    3.1900 C   0  0  0  0  0  0  0  0  0  0  0  0
   -4.0146    8.4532    5.4184 C   0  0  0  0  0  0  0  0  0  0  0  0
   -4.3710    7.5318    6.4131 C   0  0  0  0  0  0  0  0  0  0  0  0
   -4.3898    7.9420    7.6959 F   0  0  0  0  0  0  0  0  0  0  0  0
   -4.6209    6.2051    6.1484 C   0  0  0  0  0  0  0  0  0  0  0  0
   -4.5635    5.7281    4.8347 C   0  0  0  0  0  0  0  0  0  0  0  0
   -4.3138    6.6763    3.8309 C   0  0  0  0  0  0  0  0  0  0  0  0
   -4.3488    6.2880    2.5397 F   0  0  0  0  0  0  0  0  0  0  0  0
   -4.0448    7.9956    4.0984 C   0  0  0  0  0  0  0  0  0  0  0  0
   -4.6397    4.3180    4.5278 C   0  0  0  0  0  0  0  0  0  0  0  0
   -5.3596    3.3081    5.1415 C   0  0  0  0  0  0  0  0  0  0  0  0
   -6.4296    3.5099    6.1174 C   0  0  0  0  0  0  0  0  0  0  0  0
   -7.3267    4.5689    5.9869 C   0  0  0  0  0  0  0  0  0  0  0  0
   -8.3496    4.7218    6.9021 C   0  0  0  0  0  0  0  0  0  0  0  0
   -8.4955    3.8235    7.9458 C   0  0  0  0  0  0  0  0  0  0  0  0
   -7.6150    2.7588    8.0880 C   0  0  0  0  0  0  0  0  0  0  0  0
   -7.7990    1.7408    9.1756 C   0  0  0  0  0  0  0  0  0  0  0  0
   -8.5895    0.5432    8.6444 C   0  0  0  0  0  0  0  0  0  0  0  0
   -6.5872    2.6126    7.1687 C   0  0  0  0  0  0  0  0  0  0  0  0
   -4.9818    2.0417    4.6402 C   0  0  0  0  0  0  0  0  0  0  0  0
   -5.4986    0.3989    4.9659 S   0  0  0  0  0  0  0  0  0  0  0  0
   -4.3528   -0.1887    3.8021 C   0  0  0  0  0  0  0  0  0  0  0  0
   -3.8942   -1.4016    3.2438 C   0  0  0  0  0  0  0  0  0  0  0  0
   -4.3270   -2.7477    3.3031 C   0  0  0  0  0  0  0  0  0  0  0  0
   -3.7205   -3.7311    2.4339 C   0  0  0  0  0  0  0  0  0  0  0  0
   -4.2932   -4.9183    2.5465 N   0  0  0  0  0  0  0  0  0  0  0  0
   -5.4762   -4.8236    3.6470 S   0  0  0  0  0  0  0  0  0  0  0  0
   -5.3115   -3.2583    4.0244 N   0  0  0  0  0  0  0  0  0  0  0  0
   -2.5996   -3.3730    1.6477 C   0  0  0  0  0  0  0  0  0  0  0  0
   -1.7155   -4.0763    0.8011 C   0  0  0  0  0  0  0  0  0  0  0  0
   -1.5355   -5.6352    0.0612 S   0  0  0  0  0  0  0  0  0  0  0  0
   -0.0880   -5.0763   -0.7521 C   0  0  0  0  0  0  0  0  0  0  0  0
    0.8091   -5.6646   -1.6723 C   0  0  0  0  0  0  0  0  0  0  0  0
    0.7284   -7.0518   -2.1294 C   0  0  0  0  0  0  0  0  0  0  0  0
    1.8818   -7.8211   -2.2753 C   0  0  0  0  0  0  0  0  0  0  0  0
    1.7876   -9.1314   -2.7010 C   0  0  0  0  0  0  0  0  0  0  0  0
    0.5510   -9.6886   -2.9788 C   0  0  0  0  0  0  0  0  0  0  0  0
   -0.6104   -8.9424   -2.8242 C   0  0  0  0  0  0  0  0  0  0  0  0
   -1.9516   -9.5271   -3.1618 C   0  0  0  0  0  0  0  0  0  0  0  0
   -2.3112   -9.2262   -4.6184 C   0  0  0  0  0  0  0  0  0  0  0  0
   -0.5098   -7.6260   -2.3997 C   0  0  0  0  0  0  0  0  0  0  0  0
    1.8047   -4.7740   -2.0319 C   0  0  0  0  0  0  0  0  0  0  0  0
    1.6648   -3.2275   -1.2173 S   0  0  0  0  0  0  0  0  0  0  0  0
    0.2347   -3.7595   -0.4244 C   0  0  0  0  0  0  0  0  0  0  0  0
   -0.6955   -3.1877    0.4477 C   0  0  0  0  0  0  0  0  0  0  0  0
   -0.9125   -1.9567    1.0118 N   0  0  0  0  0  0  0  0  0  0  0  0
   -2.0978   -2.0500    1.7141 C   0  0  0  0  0  0  0  0  0  0  0  0
   -2.8453   -1.0468    2.3594 C   0  0  0  0  0  0  0  0  0  0  0  0
   -2.7083    0.3259    2.3142 N   0  0  0  0  0  0  0  0  0  0  0  0
   -3.6222    0.8386    3.1981 C   0  0  0  0  0  0  0  0  0  0  0  0
   -3.9881    2.1042    3.6632 C   0  0  0  0  0  0  0  0  0  0  0  0
   -3.5161    3.7207    3.3219 S   0  0  0  0  0  0  0  0  0  0  0  0
   -2.2725    1.1064    1.1730 C   0  0  0  0  0  0  0  0  0  0  0  0
   -3.4616    1.5527    0.3228 C   0  0  0  0  0  0  0  0  0  0  0  0
    0.1980   -1.0799    1.3284 C   0  0  0  0  0  0  0  0  0  0  0  0
    1.2339   -1.7912    2.1984 C   0  0  0  0  0  0  0  0  0  0  0  0
    2.8044   -4.8887   -3.0705 C   0  0  0  0  0  0  0  0  0  0  0  0
    4.0564   -4.2685   -2.9617 C   0  0  0  0  0  0  0  0  0  0  0  0
    4.3892   -3.6472   -1.8113 F   0  0  0  0  0  0  0  0  0  0  0  0
    4.9732   -4.2599   -3.9856 C   0  0  0  0  0  0  0  0  0  0  0  0
    4.6969   -4.9052   -5.1929 C   0  0  0  0  0  0  0  0  0  0  0  0
    3.4441   -5.5212   -5.3075 C   0  0  0  0  0  0  0  0  0  0  0  0
    3.0656   -6.0379   -6.4900 F   0  0  0  0  0  0  0  0  0  0  0  0
    2.5215   -5.5177   -4.2867 C   0  0  0  0  0  0  0  0  0  0  0  0
    5.6464   -4.8187   -6.2823 C   0  0  0  0  0  0  0  0  0  0  0  0
    5.9496   -5.8050   -7.1510 C   0  0  0  0  0  0  0  0  0  0  0  0
    5.5293   -7.2331   -7.0196 C   0  0  0  0  0  0  0  0  0  0  0  0
    5.0657   -7.7683   -6.0393 O   0  0  0  0  0  0  0  0  0  0  0  0
    5.8996   -7.8687   -8.2958 C   0  0  0  0  0  0  0  0  0  0  0  0
    5.6064   -9.1699   -8.6986 C   0  0  0  0  0  0  0  0  0  0  0  0
    6.0561   -9.4816   -9.9586 C   0  0  0  0  0  0  0  0  0  0  0  0
    6.7469   -8.5654  -10.7655 C   0  0  0  0  0  0  0  0  0  0  0  0
    7.0531   -7.2841  -10.3787 C   0  0  0  0  0  0  0  0  0  0  0  0
    6.6115   -6.9481   -9.0941 C   0  0  0  0  0  0  0  0  0  0  0  0
    6.7511   -5.6944   -8.3648 C   0  0  0  0  0  0  0  0  0  0  0  0
    7.5121   -4.6244   -8.7472 C   0  0  0  0  0  0  0  0  0  0  0  0
    8.2947   -4.5792   -9.9219 C   0  0  0  0  0  0  0  0  0  0  0  0
    8.9586   -4.4724  -10.8520 N   0  0  0  0  0  0  0  0  0  0  0  0
    7.6666   -3.4276   -8.0146 C   0  0  0  0  0  0  0  0  0  0  0  0
    7.8491   -2.4288   -7.4788 N   0  0  0  0  0  0  0  0  0  0  0  0
    6.8823   -9.5462  -11.9023 C   0  0  0  0  0  0  0  0  0  0  0  0
    8.2584  -10.2261  -12.1073 C   0  0  0  0  0  0  0  0  0  0  0  0
    8.9338  -10.2398  -10.7582 C   0  0  0  0  0  0  0  0  0  0  0  0
    8.2872  -11.1072   -9.9908 C   0  0  0  0  0  0  0  0  0  0  0  0
    7.1634  -11.6965  -10.8073 C   0  0  0  0  0  0  0  0  0  0  0  0
    7.8108  -11.6936  -12.2014 C   0  0  0  0  0  0  0  0  0  0  0  0
    6.1195  -10.5685  -11.0018 C   0  0  0  0  0  0  0  0  0  0  0  0
   -4.1568   10.2394    6.6024 H   0  0  0  0  0  0  0  0  0  0  0  0
    0.9632    9.8825    3.0376 H   0  0  0  0  0  0  0  0  0  0  0  0
   -0.3468   14.0974    5.5244 H   0  0  0  0  0  0  0  0  0  0  0  0
    3.0197   14.0959    4.8170 H   0  0  0  0  0  0  0  0  0  0  0  0
    2.3443   15.8920    3.2302 H   0  0  0  0  0  0  0  0  0  0  0  0
    0.2420   15.0039    1.9548 H   0  0  0  0  0  0  0  0  0  0  0  0
    0.9423   12.8188    0.6165 H   0  0  0  0  0  0  0  0  0  0  0  0
    3.4777   12.3638    1.0636 H   0  0  0  0  0  0  0  0  0  0  0  0
    4.4678   14.3937    2.5277 H   0  0  0  0  0  0  0  0  0  0  0  0
    3.6212   15.0072    1.0859 H   0  0  0  0  0  0  0  0  0  0  0  0
    3.7123   11.9784    3.5118 H   0  0  0  0  0  0  0  0  0  0  0  0
   -4.8272    5.5301    6.9635 H   0  0  0  0  0  0  0  0  0  0  0  0
   -3.8679    8.6702    3.2780 H   0  0  0  0  0  0  0  0  0  0  0  0
   -7.2285    5.2570    5.1605 H   0  0  0  0  0  0  0  0  0  0  0  0
   -9.0431    5.5430    6.7973 H   0  0  0  0  0  0  0  0  0  0  0  0
   -9.3016    3.9483    8.6541 H   0  0  0  0  0  0  0  0  0  0  0  0
   -6.8253    1.3982    9.5315 H   0  0  0  0  0  0  0  0  0  0  0  0
   -8.3347    2.1857   10.0163 H   0  0  0  0  0  0  0  0  0  0  0  0
   -8.7211   -0.2023    9.4249 H   0  0  0  0  0  0  0  0  0  0  0  0
   -8.0650    0.0849    7.8090 H   0  0  0  0  0  0  0  0  0  0  0  0
   -9.5707    0.8617    8.2990 H   0  0  0  0  0  0  0  0  0  0  0  0
   -5.8898    1.7950    7.2793 H   0  0  0  0  0  0  0  0  0  0  0  0
    2.8458   -7.3948   -2.0423 H   0  0  0  0  0  0  0  0  0  0  0  0
    2.6845   -9.7213   -2.8159 H   0  0  0  0  0  0  0  0  0  0  0  0
    0.4853  -10.7145   -3.3118 H   0  0  0  0  0  0  0  0  0  0  0  0
   -1.9322  -10.6082   -3.0116 H   0  0  0  0  0  0  0  0  0  0  0  0
   -2.7151   -9.1035   -2.5066 H   0  0  0  0  0  0  0  0  0  0  0  0
   -2.3540   -8.1519   -4.7837 H   0  0  0  0  0  0  0  0  0  0  0  0
   -3.2791   -9.6544   -4.8682 H   0  0  0  0  0  0  0  0  0  0  0  0
   -1.5624   -9.6450   -5.2873 H   0  0  0  0  0  0  0  0  0  0  0  0
   -1.4068   -7.0340   -2.2895 H   0  0  0  0  0  0  0  0  0  0  0  0
   -1.7266    1.9824    1.5373 H   0  0  0  0  0  0  0  0  0  0  0  0
   -1.6159    0.4981    0.5542 H   0  0  0  0  0  0  0  0  0  0  0  0
   -4.1165    2.2149    0.8818 H   0  0  0  0  0  0  0  0  0  0  0  0
   -3.1016    2.0855   -0.5527 H   0  0  0  0  0  0  0  0  0  0  0  0
   -4.0344    0.6873   -0.0040 H   0  0  0  0  0  0  0  0  0  0  0  0
   -0.1781   -0.2170    1.8759 H   0  0  0  0  0  0  0  0  0  0  0  0
    0.6638   -0.7493    0.3944 H   0  0  0  0  0  0  0  0  0  0  0  0
    1.6855   -2.6243    1.6674 H   0  0  0  0  0  0  0  0  0  0  0  0
    0.7673   -2.1663    3.1069 H   0  0  0  0  0  0  0  0  0  0  0  0
    2.0194   -1.0921    2.4714 H   0  0  0  0  0  0  0  0  0  0  0  0
    5.9189   -3.7609   -3.8424 H   0  0  0  0  0  0  0  0  0  0  0  0
    1.5611   -5.9807   -4.4458 H   0  0  0  0  0  0  0  0  0  0  0  0
    6.1216   -3.8517   -6.3870 H   0  0  0  0  0  0  0  0  0  0  0  0
    5.0618   -9.8389   -8.0510 H   0  0  0  0  0  0  0  0  0  0  0  0
    7.5804   -6.5895  -11.0111 H   0  0  0  0  0  0  0  0  0  0  0  0
    6.4204   -9.2506  -12.8421 H   0  0  0  0  0  0  0  0  0  0  0  0
    8.8413   -9.8253  -12.9320 H   0  0  0  0  0  0  0  0  0  0  0  0
    9.7510   -9.5955  -10.4916 H   0  0  0  0  0  0  0  0  0  0  0  0
    8.4562  -11.3325   -8.9541 H   0  0  0  0  0  0  0  0  0  0  0  0
    6.7506  -12.6358  -10.4487 H   0  0  0  0  0  0  0  0  0  0  0  0
    7.1040  -11.8807  -13.0087 H   0  0  0  0  0  0  0  0  0  0  0  0
    8.6485  -12.3850  -12.2780 H   0  0  0  0  0  0  0  0  0  0  0  0
    5.1620  -10.9459  -11.3556 H   0  0  0  0  0  0  0  0  0  0  0  0
  1  2  2  0  0  0  0
  2  3  1  0  0  0  0
  3  4  2  0  0  0  0
  3  5  1  0  0  0  0
  5  6  2  0  0  0  0
  6  7  1  0  0  0  0
  7  8  2  0  0  0  0
  8  9  1  0  0  0  0
  9 10  2  0  0  0  0
 10 11  1  0  0  0  0
 11 12  2  0  0  0  0
 12 13  1  0  0  0  0
 13 14  3  0  0  0  0
 12 15  1  0  0  0  0
 15 16  3  0  0  0  0
  8 17  1  0  0  0  0
 17 18  1  0  0  0  0
 18 19  1  0  0  0  0
 19 20  2  0  0  0  0
 20 21  1  0  0  0  0
 21 22  1  0  0  0  0
 21 23  1  0  0  0  0
  1 24  1  0  0  0  0
 24 25  2  0  0  0  0
 25 26  1  0  0  0  0
 25 27  1  0  0  0  0
 27 28  2  0  0  0  0
 28 29  1  0  0  0  0
 29 30  1  0  0  0  0
 29 31  2  0  0  0  0
 28 32  1  0  0  0  0
 32 33  2  0  0  0  0
 33 34  1  0  0  0  0
 34 35  2  0  0  0  0
 35 36  1  0  0  0  0
 36 37  2  0  0  0  0
 37 38  1  0  0  0  0
 38 39  1  0  0  0  0
 39 40  1  0  0  0  0
 38 41  2  0  0  0  0
 33 42  1  0  0  0  0
 42 43  1  0  0  0  0
 43 44  1  0  0  0  0
 44 45  1  0  0  0  0
 45 46  1  0  0  0  0
 46 47  1  0  0  0  0
 47 48  2  0  0  0  0
 48 49  1  0  0  0  0
 49 50  1  0  0  0  0
 47 51  1  0  0  0  0
 51 52  1  0  0  0  0
 52 53  1  0  0  0  0
 53 54  1  0  0  0  0
 54 55  1  0  0  0  0
 55 56  1  0  0  0  0
 56 57  2  0  0  0  0
 57 58  1  0  0  0  0
 58 59  2  0  0  0  0
 59 60  1  0  0  0  0
 60 61  1  0  0  0  0
 61 62  1  0  0  0  0
 60 63  2  0  0  0  0
 55 64  2  0  0  0  0
 64 65  1  0  0  0  0
 65 66  1  0  0  0  0
 66 67  1  0  0  0  0
 67 68  1  0  0  0  0
 68 69  1  0  0  0  0
 69 70  1  0  0  0  0
 70 71  1  0  0  0  0
 71 72  1  0  0  0  0
 72 73  1  0  0  0  0
 73 74  1  0  0  0  0
 71 75  1  0  0  0  0
 75 76  1  0  0  0  0
 68 77  1  0  0  0  0
 77 78  1  0  0  0  0
 64 79  1  0  0  0  0
 79 80  2  0  0  0  0
 80 81  1  0  0  0  0
 80 82  1  0  0  0  0
 82 83  2  0  0  0  0
 83 84  1  0  0  0  0
 84 85  1  0  0  0  0
 84 86  2  0  0  0  0
 83 87  1  0  0  0  0
 87 88  2  0  0  0  0
 88 89  1  0  0  0  0
 89 90  2  0  0  0  0
 89 91  1  0  0  0  0
 91 92  2  0  0  0  0
 92 93  1  0  0  0  0
 93 94  2  0  0  0  0
 94 95  1  0  0  0  0
 95 96  2  0  0  0  0
 96 97  1  0  0  0  0
 97 98  2  0  0  0  0
 98 99  1  0  0  0  0
 99100  3  0  0  0  0
 98101  1  0  0  0  0
101102  3  0  0  0  0
 94103  1  0  0  0  0
103104  1  0  0  0  0
104105  1  0  0  0  0
105106  2  0  0  0  0
106107  1  0  0  0  0
107108  1  0  0  0  0
107109  1  0  0  0  0
 11  2  1  0  0  0  0
 23 17  1  0  0  0  0
 31 24  1  0  0  0  0
 74 32  1  0  0  0  0
 86 79  1  0  0  0  0
 97 88  1  0  0  0  0
109103  1  0  0  0  0
 10  5  1  0  0  0  0
 22 18  1  0  0  0  0
 41 34  1  0  0  0  0
 73 42  2  0  0  0  0
 96 91  1  0  0  0  0
108104  1  0  0  0  0
 23  7  1  0  0  0  0
 72 44  2  0  0  0  0
109 93  1  0  0  0  0
 70 45  2  0  0  0  0
 50 46  2  0  0  0  0
 69 51  2  0  0  0  0
 67 52  2  0  0  0  0
 66 54  2  0  0  0  0
 63 56  1  0  0  0  0
  1110  1  0  0  0  0
  6111  1  0  0  0  0
  9112  1  0  0  0  0
 17113  1  0  0  0  0
 18114  1  0  0  0  0
 19115  1  0  0  0  0
 20116  1  0  0  0  0
 21117  1  0  0  0  0
 22118  1  0  0  0  0
 22119  1  0  0  0  0
 23120  1  0  0  0  0
 27121  1  0  0  0  0
 31122  1  0  0  0  0
 35123  1  0  0  0  0
 36124  1  0  0  0  0
 37125  1  0  0  0  0
 39126  1  0  0  0  0
 39127  1  0  0  0  0
 40128  1  0  0  0  0
 40129  1  0  0  0  0
 40130  1  0  0  0  0
 41131  1  0  0  0  0
 57132  1  0  0  0  0
 58133  1  0  0  0  0
 59134  1  0  0  0  0
 61135  1  0  0  0  0
 61136  1  0  0  0  0
 62137  1  0  0  0  0
 62138  1  0  0  0  0
 62139  1  0  0  0  0
 63140  1  0  0  0  0
 75141  1  0  0  0  0
 75142  1  0  0  0  0
 76143  1  0  0  0  0
 76144  1  0  0  0  0
 76145  1  0  0  0  0
 77146  1  0  0  0  0
 77147  1  0  0  0  0
 78148  1  0  0  0  0
 78149  1  0  0  0  0
 78150  1  0  0  0  0
 82151  1  0  0  0  0
 86152  1  0  0  0  0
 87153  1  0  0  0  0
 92154  1  0  0  0  0
 95155  1  0  0  0  0
103156  1  0  0  0  0
104157  1  0  0  0  0
105158  1  0  0  0  0
106159  1  0  0  0  0
107160  1  0  0  0  0
108161  1  0  0  0  0
108162  1  0  0  0  0
109163  1  0  0  0  0
M  END
