207

C         -6.45960        6.89690       12.42830
C         -5.90450        5.95480       13.22840
C         -4.51900        5.41500       13.10090
O         -3.68370        5.69910       12.27180
C         -4.32670        4.53260       14.26470
C         -3.18320        3.79200       14.56080
C         -3.28330        3.04360       15.70800
C         -4.43150        3.04340       16.51340
C         -5.55990        3.77750       16.24040
C         -5.48550        4.53810       15.06700
C         -6.47800        5.41350       14.45450
C         -7.74470        5.63420       14.92510
C         -8.72270        6.44400       14.30820
N         -9.58150        7.07220       13.87570
C         -8.26980        5.07140       16.10850
N         -8.76260        4.65570       17.05830
C         -3.83910        2.06420       17.49570
C         -4.33210        0.60500       17.39290
C         -3.26540       -0.18880       18.11190
C         -2.18010       -0.19050       17.34850
C         -2.49510        0.60180       16.10030
C         -3.98200        0.25990       15.93960
C         -2.56120        2.06220       16.59670
C         -5.96900        7.34000       11.14490
C         -5.37110        6.45240       10.23440
C         -4.94920        6.93860        9.02210
C         -4.29750        6.21050        7.90050
O         -4.04710        5.03190        7.82390
C         -4.04570        7.26340        6.88040
C         -4.54280        8.49780        7.34370
C         -5.09870        8.29770        8.67420
C         -5.71350        9.16890        9.55580
C         -6.15710        8.67680       10.77270
C         -4.45170        9.61680        6.53580
C         -3.85100        9.50190        5.29170
C         -3.31690        8.28910        4.84180
C         -3.43930        7.14940        5.65460
C         -2.67220        8.17010        3.55380
C         -2.02910        9.11900        2.78450
C         -1.72120       10.49530        3.18390
C         -1.93430       11.54550        2.29680
C         -1.61080       12.83720        2.66910
C         -1.06940       13.08970        3.91680
C         -0.83990       12.05050        4.81110
C         -0.20310       12.31040        6.14600
C          1.31870       12.19240        6.04190
C         -1.16360       10.75780        4.43190
C         -1.58840        8.57530        1.55780
S         -0.70770        9.25680        0.21000
C         -0.71330        7.70110       -0.55090
C         -0.29480        7.09880       -1.74970
C          0.26450        7.64190       -2.92660
C          0.45720        6.78590       -4.06430
N          0.92780        7.44000       -5.11460
S          1.11740        8.99580       -4.70790
N          0.60500        8.89670       -3.17490
C          0.20570        5.40290       -3.93060
C          0.44870        4.32470       -4.80010
S          1.02850        4.03070       -6.40590
C          0.92220        2.31210       -6.10560
C          1.21080        1.18290       -6.90020
C          1.63660        1.27610       -8.29870
C          0.96120        0.57150       -9.29220
C          1.35710        0.69280      -10.60990
C          2.41520        1.51890      -10.94780
C          3.08800        2.24130       -9.97110
C          4.18960        3.19410      -10.33500
C          3.63030        4.60930      -10.49520
C          2.68750        2.11410       -8.64930
C          0.98900        0.01090       -6.20550
S          0.37990        0.29750       -4.57930
C          0.45380        2.00530       -4.82840
C          0.17220        3.15850       -4.08540
N         -0.27540        3.46440       -2.82620
C         -0.26830        4.84740       -2.71070
C         -0.64760        5.72340       -1.66120
N         -1.31550        5.51800       -0.46810
C         -1.34920        6.71200        0.20210
C         -1.86380        7.21670        1.40360
S         -2.71170        6.59680        2.77160
C         -2.20430        4.44730       -0.07790
C         -1.67390        3.65460        1.11590
C         -0.13160        2.46710       -1.78720
C          1.19950        2.62790       -1.05620
C          1.27750       -1.33840       -6.56400
C          0.85310       -2.45420       -5.90340
C          1.36970       -3.66400       -6.42740
C          1.15490       -4.97570       -5.96530
C          0.35030       -5.27450       -4.79790
C         -0.50110       -6.32750       -4.61780
C         -1.08280       -6.34560       -3.33280
Cl        -2.20530       -7.55670       -2.84400
C         -0.68990       -5.32400       -2.51860
C         -1.06650       -5.06880       -1.10090
C         -0.11580       -5.79030       -0.14240
S          0.43430       -4.30690       -3.35020
C          1.78580       -5.99130       -6.67910
C          2.61720       -5.76280       -7.79930
C          2.84140       -4.45090       -8.25430
C          3.71110       -4.13430       -9.37010
C          3.53590       -3.16950      -10.32270
C          4.60600       -3.08100      -11.23410
C          5.61240       -3.96000      -10.97860
C          6.87610       -4.17500      -11.73750
C          6.81670       -5.46180      -12.56350
S          5.23970       -4.93960       -9.59910
C          2.19930       -3.43540       -7.55060
S          2.34590       -1.73190       -7.89470
C          3.13740       -6.98290       -8.32260
C          2.75980       -8.07810       -7.62820
S          1.71300       -7.68700       -6.28560
C          3.14480       -9.50210       -7.85500
C          1.95050      -10.40180       -7.85720
C          2.00000      -11.68250       -7.46990
C          3.22510      -12.34050       -7.09270
C          3.28970      -13.69800       -6.86630
C          2.11830      -14.57100       -7.01650
O          1.13260      -14.30910       -7.67680
N          2.17140      -15.77790       -6.32640
C          0.94770      -16.57320       -6.31350
C          0.07280      -16.22100       -5.11780
C          3.27260      -16.24170       -5.66840
S          3.20180      -17.60180       -4.73690
N          4.44600      -15.56860       -5.84480
C          4.55060      -14.32950       -6.46600
O          5.65000      -13.83550       -6.62890
C          5.68150      -16.13810       -5.31740
C          5.92810      -15.69710       -3.88070
C          4.43110      -11.46320       -6.96200
C          4.09020       -9.99340       -6.75350
H         -7.35950        7.39590       12.76690
H         -2.32000        3.82830       13.91500
H         -6.42920        3.77300       16.87590
H         -3.75440        2.41380       18.52270
H         -5.35850        0.44830       17.71260
H         -3.38820       -0.60660       19.09380
H         -1.21530       -0.61010       17.56520
H         -1.84800        0.44140       15.24230
H         -4.13980       -0.79430       15.71790
H         -4.50060        0.86820       15.20090
H         -1.62210        2.40940       17.02340
H         -5.27060        5.40350       10.46010
H         -5.85340       10.20940        9.30490
H         -6.64000        9.34590       11.47070
H         -4.84670       10.56910        6.85600
H         -3.80060       10.36730        4.64950
H         -3.05460        6.19450        5.32690
H         -2.36460       11.34990        1.32630
H         -1.78230       13.65130        1.98060
H         -0.82020       14.10180        4.20120
H         -0.57160       11.58820        6.87780
H         -0.46400       13.31250        6.49200
H          1.59800       11.19580        5.70750
H          1.70580       12.91380        5.32570
H          1.78210       12.37770        7.00810
H         -0.98040        9.93840        5.11290
H          0.12290       -0.05650       -9.02790
H          0.83300        0.14520      -11.38000
H          2.71800        1.60900      -11.98130
H          4.95130        3.19530       -9.55260
H          4.65910        2.88160      -11.26980
H          2.87950        4.63160      -11.28200
H          4.42480        5.30580      -10.75290
H          3.16410        4.93860       -9.56940
H          3.20660        2.66500       -7.87820
H         -3.16220        4.89940        0.20530
H         -2.38860        3.81270       -0.94580
H         -2.32890        2.81090        1.31650
H         -0.66700        3.28810        0.93800
H         -1.65180        4.28590        1.99990
H         -0.16310        1.49360       -2.28270
H         -0.95870        2.50620       -1.08430
H          1.26130        3.60590       -0.58310
H          2.02560        2.53460       -1.75740
H          1.30220        1.85820       -0.29600
H          0.17870       -2.40220       -5.06800
H         -0.73880       -7.04860       -5.37740
H         -1.03730       -3.99550       -0.90410
H         -2.08570       -5.42610       -0.93850
H         -0.14560       -6.86250       -0.31990
H          0.90440       -5.44260       -0.28910
H         -0.40550       -5.59940        0.88760
H          2.65370       -2.55930      -10.39240
H          4.62920       -2.37990      -12.04940
H          7.03690       -3.32070      -12.39850
H          7.71780       -4.23460      -11.04300
H          6.67110       -6.32050      -11.91190
H          5.99120       -5.41970      -13.27050
H          7.74240       -5.59820      -13.11670
H          3.76750       -7.03200       -9.19140
H          3.65290       -9.56880       -8.82690
H          1.01250       -9.97200       -8.17750
H          1.09880      -12.27250       -7.49270
H          0.42120      -16.35390       -7.24400
H          1.22640      -17.62740       -6.28550
H         -0.83730      -16.81270       -5.14860
H         -0.19380      -15.16700       -5.14310
H          0.59560      -16.43470       -4.18870
H          5.60650      -17.22470       -5.37560
H          6.48860      -15.78650       -5.96250
H          6.86060      -16.12560       -3.52570
H          5.12110      -16.03630       -3.23590
H          5.99770      -14.61330       -3.82640
H          5.07410      -11.81030       -6.15270
H          5.01710      -11.58120       -7.87990
H          3.59440       -9.86350       -5.78820
H          5.00550       -9.40000       -6.74930
