170

C          0.18270       -9.69400       -8.34020
C          0.90310       -9.07510       -9.30360
C          1.85670       -7.95050       -9.05690
O          2.11320       -7.41350       -8.00270
C          2.50960       -7.69220      -10.35010
C          3.47430       -6.72000      -10.60750
C          3.90120       -6.68760      -11.91200
C          3.41330       -7.56720      -12.88990
C          2.47410       -8.53970      -12.64630
C          2.01700       -8.58510      -11.32390
C          1.02770       -9.45930      -10.70470
C          0.30430      -10.42900      -11.34440
C          0.43440      -10.75620      -12.71160
N          0.48600      -11.07830      -13.81210
C         -0.67970      -11.24290      -10.74270
N         -1.49630      -11.93830      -10.33270
C          4.26740       -6.95950      -13.97410
C          3.58020       -6.00300      -14.98030
C          2.39480       -5.40420      -14.26410
C          2.85730       -4.57360      -13.33930
C          4.36420       -4.59590      -13.41310
C          4.55820       -4.81850      -14.92140
C          4.81090       -5.98180      -12.88490
C         -0.00920       -9.17490       -7.00150
C         -0.27780       -7.81140       -6.80110
C         -0.41670       -7.35110       -5.51650
C         -0.66860       -5.96240       -5.04930
O         -0.87750       -4.97890       -5.71730
C         -0.61160       -6.06370       -3.56750
C         -0.40430       -7.40340       -3.18970
C         -0.28960       -8.20800       -4.40400
C         -0.07920       -9.55930       -4.60040
C          0.04230      -10.03230       -5.90050
C         -0.31000       -7.73240       -1.85080
C         -0.39250       -6.71540       -0.90700
C         -0.57430       -5.38900       -1.28160
C         -0.70160       -5.05930       -2.63130
C         -0.57200       -4.29620       -0.25860
C          0.71560       -4.19390        0.50020
C          0.57340       -4.12350        1.82500
S          1.70430       -3.86110        3.12370
C          0.34320       -3.57400        4.34220
C          0.30310       -2.15540        4.86820
C          1.56670       -1.48130        4.96100
C          2.76000       -2.04830        5.32670
C          3.87190       -1.18670        5.21440
C          5.25680       -1.64360        5.55470
C          5.85080       -2.46100        4.40660
C          3.52880        0.04340        4.72560
C          4.38960        1.21660        4.40400
C          4.74090        1.25610        2.91470
S          1.82610        0.15090        4.41250
C         -0.91790       -1.66960        5.24930
C         -2.12580       -2.47230        5.11160
C         -2.17720       -3.58650        4.32180
C         -3.33450       -4.39400        4.06750
C         -4.66950       -4.11240        4.18760
C         -5.51540       -5.19970        3.88320
C         -7.00900       -5.08030        3.90680
C         -7.52730       -4.53020        2.57720
C         -4.82090       -6.32240        3.52430
S         -3.11220       -6.05390        3.57830
C         -5.33590       -7.67690        3.17290
C         -5.34160       -8.59820        4.39540
C         -0.93780       -3.89390        3.63270
C         -0.78220       -4.18140        2.32500
S         -1.89810       -4.50220        1.02600
S         -3.50590       -1.76030        5.94270
C         -2.56330       -0.34350        6.32500
C         -2.89980        0.87990        6.91230
C         -1.83170        1.74630        6.93200
S         -0.39380        1.00500        6.26360
C         -1.24980       -0.44170        5.90110
C         -1.80910        3.14860        7.27070
C         -0.71610        3.93430        6.86600
C         -0.77400        5.29450        7.02860
C          0.20010        6.32680        6.58300
O          1.29760        6.15470        6.11120
C         -0.48970        7.61500        6.85690
C         -1.71540        7.36330        7.50960
C         -1.89540        5.92180        7.60890
C         -2.94180        5.14760        8.07690
C         -2.89100        3.77270        7.90230
C         -2.52060        8.42220        7.88900
C         -2.12490        9.70950        7.55820
C         -0.95960        9.95540        6.82520
C         -0.10640        8.88550        6.50880
C         -0.65030       11.30390        6.40600
C         -0.15810       11.64160        5.19010
C         -0.14920       10.74430        3.99610
O         -0.44960        9.57290        3.94000
C          0.20270       11.60740        2.85560
C          0.30870       11.21140        1.52300
C          0.64820       12.22710        0.66360
C          0.86060       13.54490        1.09460
C          0.76030       13.94870        2.40400
C          0.41940       12.92760        3.29950
C          0.23460       12.97200        4.74500
C          0.46190       14.05460        5.55120
C          0.35440       14.05100        6.95880
N          0.30130       14.12750        8.10320
C          0.85940       15.32740        5.08940
N          1.17380       16.38810        4.78300
C          1.15520       14.03740       -0.30050
C          0.02580       14.81200       -1.01250
C          0.40360       14.73970       -2.47460
C          0.20560       13.49240       -2.88150
C         -0.30930       12.70040       -1.70140
C         -1.11810       13.78980       -0.98540
C          0.92200       12.56860       -0.77950
H         -0.28350      -10.64870       -8.54900
H          3.82110       -6.06590       -9.82290
H          2.11750       -9.21300      -13.40770
H          4.97450       -7.63100      -14.45680
H          3.38120       -6.44090      -15.95460
H          1.37530       -5.67990      -14.46030
H          2.30170       -4.01670      -12.60780
H          4.87970       -3.75300      -12.96050
H          4.22750       -3.96970      -15.51790
H          5.57890       -5.08400      -15.19340
H          5.87380       -6.01510      -12.65370
H         -0.39260       -7.13810       -7.63560
H         -0.00250      -10.24000       -3.76600
H          0.22340      -11.08450       -6.06780
H         -0.16030       -8.75370       -1.53540
H         -0.30880       -6.95270        0.14390
H         -0.85160       -4.03680       -2.94520
H         -0.79040       -3.34190       -0.75310
H          1.64480       -4.14840       -0.03690
H          0.53310       -4.26980        5.17100
H          2.83680       -3.05200        5.70740
H          5.89960       -0.78800        5.76590
H          5.21340       -2.26490        6.45220
H          6.83720       -2.83200        4.67530
H          5.94230       -1.84900        3.51250
H          5.20900       -3.30760        4.17360
H          5.30710        1.16850        4.99370
H          3.86200        2.13550        4.66880
H          5.28170        0.35780        2.62630
H          5.36200        2.12150        2.69770
H          3.83440        1.31890        2.31740
H         -5.04800       -3.14390        4.45870
H         -7.46290       -6.05250        4.10380
H         -7.29610       -4.40350        4.71400
H         -8.61030       -4.43350        2.60170
H         -7.25500       -5.19370        1.75920
H         -7.09490       -3.55220        2.37960
H         -6.34760       -7.59040        2.77300
H         -4.70110       -8.11310        2.39860
H         -5.97310       -8.18550        5.17900
H         -5.71760       -9.58210        4.12590
H         -4.33310       -8.70540        4.78790
H         -3.88770        1.11820        7.25940
H          0.14200        3.48140        6.39190
H         -3.80140        5.60010        8.54810
H         -3.71730        3.17050        8.24740
H         -3.44710        8.25730        8.41810
H         -2.75620       10.54470        7.82670
H          0.83730        9.05330        6.01520
H         -0.88100       12.08610        7.11900
H          0.13850       10.18520        1.23730
H          0.92690       14.96510        2.71920
H          2.13630       14.48480       -0.44770
H         -0.17420       15.79990       -0.60690
H          0.81450       15.56260       -3.02930
H          0.41810       13.06510       -3.84390
H         -0.81470       11.76430       -1.92280
H         -1.44470       13.51460        0.01580
H         -1.97570       14.11690       -1.57080
H          1.74780       12.03480       -1.24590
