199

C          0.44120        1.50290       10.96560
C          1.05790        2.71070       10.85770
C          1.40050        3.41390        9.60680
O          0.95110        3.20650        8.49570
C          2.41850        4.41150        9.97400
C          3.13170        5.23940        9.10820
C          4.04380        6.05220        9.73650
C          4.23860        6.04290       11.12520
C          3.53920        5.23720       11.99180
C          2.60150        4.40400       11.37360
C          1.68970        3.42570       11.95600
C          1.40250        3.26830       13.28340
C          0.39290        2.41840       13.79060
N         -0.44040        1.79770       14.27790
C          2.02150        4.00090       14.31850
N          2.49580        4.56170       15.20040
C          5.31480        7.09750       11.06160
C          4.90730        8.52640       11.47880
C          5.97920        9.40050       10.86830
C          5.79040        9.41270        9.55500
C          4.58820        8.54640        9.25540
C          3.75060        8.81340       10.51270
C          5.09440        7.11130        9.51470
C         -0.16530        0.71120        9.96460
S         -0.62290        1.27140        8.37890
C         -1.34840       -0.24920        8.00310
C         -1.19270       -1.16590        9.02520
C         -1.59850       -2.57930        8.92210
O         -1.83960       -3.11870        7.85720
C         -1.67280       -3.23490       10.23040
C         -2.26560       -4.44800       10.46890
C         -2.97080       -5.34750        9.51890
C         -4.47850       -5.07810        9.52380
S         -2.18750       -4.85110       12.15300
C         -1.30440       -3.41290       12.53320
C         -0.92260       -3.12050       13.93880
C         -1.88010       -2.10110       14.56500
C         -1.11490       -2.64230       11.41270
C         -0.36110       -1.38680       11.39550
O          0.34630       -1.01510       12.31760
C         -0.55250       -0.61750       10.15580
C         -2.05060       -0.45170        6.75820
C         -3.40990       -0.47700        6.55400
C         -4.42390       -0.23400        7.58680
C         -5.39000        0.74230        7.35820
C         -6.31640        1.04140        8.33950
C         -6.29110        0.37790        9.55270
C         -5.35160       -0.61840        9.79040
C         -5.34160       -1.36720       11.09410
C         -6.57010       -2.26770       11.22950
C         -4.43270       -0.91770        8.79700
C         -3.70810       -0.61770        5.17810
S         -5.21490       -0.76700        4.30930
C         -4.32180       -0.89160        2.83110
C         -4.55460       -1.08820        1.45930
C         -5.73220       -1.39830        0.74470
C         -5.63440       -1.70720       -0.65460
N         -6.80050       -2.04770       -1.18010
S         -7.92600       -1.98010       -0.01780
N         -6.96880       -1.51480        1.20240
C         -4.39020       -1.54770       -1.30350
C         -4.04140       -1.59350       -2.66370
S         -4.76440       -1.95350       -4.19370
C         -3.28010       -1.47490       -4.98490
C         -2.89340       -1.41830       -6.33600
C         -3.72170       -1.87390       -7.44950
C         -5.08080       -1.57690       -7.47840
C         -5.84380       -1.94760       -8.57040
C         -5.26180       -2.59680       -9.64440
C         -3.90980       -2.91940       -9.62360
C         -3.27380       -3.65120      -10.77080
C         -3.29570       -5.16110      -10.52740
C         -3.15890       -2.57860       -8.51060
C         -1.60430       -0.91770       -6.46580
S         -0.84660       -0.60030       -4.91220
C         -2.28480       -1.07520       -4.08670
C         -2.71780       -1.15710       -2.75890
N         -2.21250       -0.89820       -1.51020
C         -3.22710       -1.13630       -0.59540
C         -3.28440       -1.05170        0.82000
N         -2.31010       -0.90600        1.79070
C         -2.93880       -0.80800        3.00290
C         -2.58610       -0.67410        4.35450
S         -1.12890       -0.56060        5.27560
C         -0.89530       -1.19420        1.73140
C         -0.03940        0.05120        1.95800
C         -1.07850       -0.00680       -1.39460
C         -1.53670        1.43760       -1.20600
C         -0.83420       -0.67380       -7.63370
S          0.88390       -0.91400       -7.57660
C          1.03240       -0.60550       -9.28850
C         -0.22570       -0.36120       -9.85810
C         -0.47640       -0.26140      -11.30720
O          0.36330       -0.52320      -12.15610
C         -1.84920        0.09350      -11.64000
C         -2.30660        0.23320      -12.92950
C         -1.53080        0.06680      -14.18350
C         -2.31470        0.43270      -15.43480
S         -3.98280        0.65480      -12.94020
C         -4.06970        0.66440      -11.20900
C         -5.33810        1.02830      -10.52870
C         -5.38470        2.53310      -10.24740
C         -2.85690        0.34670      -10.65660
C         -2.59430        0.23920       -9.22270
O         -3.36200        0.64010       -8.36390
C         -1.27030       -0.32170       -8.91350
C          2.23760       -0.49470      -10.00300
C          3.52610       -0.67930       -9.58560
C          3.96030       -1.23980       -8.29850
O          3.27070       -1.47240       -7.32090
C          5.40590       -1.48950       -8.42830
C          6.24610       -2.07090       -7.48010
C          7.55390       -2.18350       -7.88610
C          7.99440       -1.75770       -9.14660
C          7.17760       -1.18320      -10.09120
C          5.84370       -1.04950       -9.69480
C          4.70550       -0.47110      -10.40480
C          4.76460        0.23100      -11.57910
C          3.69130        0.93610      -12.16920
N          2.90430        1.58790      -12.69260
C          5.94210        0.41590      -12.33350
N          6.86250        0.60190      -12.99430
C          9.41870       -2.17520       -8.87920
C         10.41330       -1.04650       -8.53430
C         11.56180       -1.76850       -7.86750
C         11.14660       -2.17030       -6.67310
C          9.71040       -1.72640       -6.51220
C          9.75030       -0.41310       -7.30430
C          8.92870       -2.64780       -7.47280
H          0.44960        1.02110       11.93810
H          2.95840        5.20890        8.04390
H          3.70510        5.23190       13.05630
H          6.28900        6.80270       11.44660
H          4.71760        8.65320       12.54090
H          6.77060        9.86010       11.43050
H          6.39270        9.88440        8.80090
H          4.10740        8.69280        8.29190
H          2.89860        8.14620       10.62940
H          3.41390        9.84710       10.57030
H          5.92250        6.82940        8.86710
H         -2.57710       -5.17700        8.51620
H         -2.78900       -6.38610        9.80350
H         -4.88530       -5.19450       10.52650
H         -4.98030       -5.77680        8.86000
H         -4.68050       -4.06810        9.17570
H         -0.93880       -4.04530       14.51860
H          0.08680       -2.70550       13.95180
H         -2.90770       -2.45550       14.51110
H         -1.61810       -1.94510       15.60740
H         -1.80540       -1.14800       14.04870
H         -5.40030        1.27690        6.42040
H         -7.05780        1.80570        8.15890
H         -7.00590        0.63290       10.32140
H         -5.32830       -0.65360       11.92200
H         -4.43610       -1.97490       11.16050
H         -7.48130       -1.67500       11.22280
H         -6.61760       -2.97290       10.40300
H         -6.52910       -2.82650       12.16180
H         -3.72180       -1.71050        8.96190
H         -5.52670       -1.02510       -6.66630
H         -6.89780       -1.71190       -8.59070
H         -5.85820       -2.85600      -10.50750
H         -2.23960       -3.31920      -10.89200
H         -3.81240       -3.42590      -11.69380
H         -2.83020       -5.68750      -11.35740
H         -4.32010       -5.51170      -10.42270
H         -2.75640       -5.40450       -9.61490
H         -2.11560       -2.85900       -8.47190
H         -0.67620       -1.67740        0.77820
H         -0.67150       -1.91720        2.52440
H         -0.17370        0.41390        2.97340
H         -0.30900        0.85150        1.27480
H          1.01000       -0.19460        1.81970
H         -0.42340       -0.30710       -0.58170
H         -0.51450       -0.09550       -2.32650
H         -2.15190        1.74860       -2.04710
H         -0.67470        2.09660       -1.14540
H         -2.12500        1.53710       -0.29590
H         -1.18730       -0.97160      -14.24000
H         -0.62250        0.67320      -14.10640
H         -2.63590        1.47140      -15.39450
H         -3.19770       -0.19600      -15.53320
H         -1.69460        0.29780      -16.31680
H         -6.18600        0.74390      -11.15530
H         -5.39190        0.49180       -9.57990
H         -5.27770        3.10060      -11.16980
H         -4.57990        2.80290       -9.56900
H         -6.33200        2.79330       -9.78360
H          2.08960       -0.23180      -11.04430
H          5.86360       -2.39180       -6.52380
H          7.52960       -0.86860      -11.05940
H          9.83340       -2.91400       -9.56230
H         10.66200       -0.39030       -9.36380
H         12.50840       -1.95500       -8.33990
H         11.67710       -2.75990       -5.94840
H          9.32070       -1.68890       -5.49840
H          8.77000        0.01720       -7.50060
H         10.38740        0.33300       -6.83220
H          9.01740       -3.70210       -7.21740
