
  xtb     02142201003D
 energy: -280.061004213154 gnorm: 0.000984627402 xtb: 6.4.1 (unknown)
158178  0     0  0            999 V2000
   -6.6052    6.4168   -1.7916 C   0  0  0  0  0  0  0  0  0  0  0  0
   -5.8506    7.4393   -2.2850 C   0  0  0  0  0  0  0  0  0  0  0  0
   -4.3809    7.5167   -2.3261 C   0  0  0  0  0  0  0  0  0  0  0  0
   -3.5856    6.6101   -2.1551 O   0  0  0  0  0  0  0  0  0  0  0  0
   -4.0568    8.9245   -2.6054 C   0  0  0  0  0  0  0  0  0  0  0  0
   -2.7880    9.5009   -2.6419 C   0  0  0  0  0  0  0  0  0  0  0  0
   -2.7945   10.8489   -2.9064 C   0  0  0  0  0  0  0  0  0  0  0  0
   -3.9755   11.5755   -3.1138 C   0  0  0  0  0  0  0  0  0  0  0  0
   -5.2329   11.0210   -3.0796 C   0  0  0  0  0  0  0  0  0  0  0  0
   -5.2497    9.6472   -2.8191 C   0  0  0  0  0  0  0  0  0  0  0  0
   -6.3762    8.7250   -2.7150 C   0  0  0  0  0  0  0  0  0  0  0  0
   -7.6749    8.9943   -3.0507 C   0  0  0  0  0  0  0  0  0  0  0  0
   -8.1361   10.2579   -3.4774 C   0  0  0  0  0  0  0  0  0  0  0  0
   -8.5745   11.2591   -3.8283 N   0  0  0  0  0  0  0  0  0  0  0  0
   -8.7203    8.0437   -3.0964 C   0  0  0  0  0  0  0  0  0  0  0  0
   -9.6179    7.3388   -3.2189 N   0  0  0  0  0  0  0  0  0  0  0  0
   -3.2354   12.8735   -3.3185 C   0  0  0  0  0  0  0  0  0  0  0  0
   -3.0874   13.3605   -4.7757 C   0  0  0  0  0  0  0  0  0  0  0  0
   -1.9456   14.3492   -4.7115 C   0  0  0  0  0  0  0  0  0  0  0  0
   -0.8274   13.6622   -4.5162 C   0  0  0  0  0  0  0  0  0  0  0  0
   -1.1946   12.1974   -4.4452 C   0  0  0  0  0  0  0  0  0  0  0  0
   -2.3708   12.1721   -5.4297 C   0  0  0  0  0  0  0  0  0  0  0  0
   -1.9190   12.0635   -3.0888 C   0  0  0  0  0  0  0  0  0  0  0  0
   -6.2111    5.1381   -1.3468 C   0  0  0  0  0  0  0  0  0  0  0  0
   -4.6241    4.4574   -1.5276 S   0  0  0  0  0  0  0  0  0  0  0  0
   -5.1394    2.9295   -0.8840 C   0  0  0  0  0  0  0  0  0  0  0  0
   -6.4957    2.9395   -0.5411 C   0  0  0  0  0  0  0  0  0  0  0  0
   -7.2896    1.7791   -0.1019 C   0  0  0  0  0  0  0  0  0  0  0  0
   -6.8211    0.6736    0.1252 O   0  0  0  0  0  0  0  0  0  0  0  0
   -8.7218    2.0432   -0.0014 C   0  0  0  0  0  0  0  0  0  0  0  0
   -9.6651    1.0819    0.2728 C   0  0  0  0  0  0  0  0  0  0  0  0
   -9.4417   -0.3669    0.5092 C   0  0  0  0  0  0  0  0  0  0  0  0
  -10.7281   -1.1516    0.7191 C   0  0  0  0  0  0  0  0  0  0  0  0
  -11.2535    1.7701    0.3159 S   0  0  0  0  0  0  0  0  0  0  0  0
  -10.6563    3.3601   -0.0098 C   0  0  0  0  0  0  0  0  0  0  0  0
  -11.5581    4.5342   -0.1067 C   0  0  0  0  0  0  0  0  0  0  0  0
  -13.0321    4.1614   -0.1655 C   0  0  0  0  0  0  0  0  0  0  0  0
   -9.2905    3.3431   -0.1596 C   0  0  0  0  0  0  0  0  0  0  0  0
   -8.4855    4.5197   -0.4404 C   0  0  0  0  0  0  0  0  0  0  0  0
   -8.9290    5.6570   -0.3807 O   0  0  0  0  0  0  0  0  0  0  0  0
   -7.0857    4.2038   -0.7814 C   0  0  0  0  0  0  0  0  0  0  0  0
   -4.1194    1.9393   -0.7850 C   0  0  0  0  0  0  0  0  0  0  0  0
   -4.0161    0.7818   -0.0448 C   0  0  0  0  0  0  0  0  0  0  0  0
   -2.7645    0.1796   -0.1993 C   0  0  0  0  0  0  0  0  0  0  0  0
   -2.0215   -1.2290    0.5018 S   0  0  0  0  0  0  0  0  0  0  0  0
   -0.5202   -0.8658   -0.3288 C   0  0  0  0  0  0  0  0  0  0  0  0
    0.6688   -1.5610   -0.1563 C   0  0  0  0  0  0  0  0  0  0  0  0
    0.7578   -2.7333    0.7002 C   0  0  0  0  0  0  0  0  0  0  0  0
    1.6033   -2.9501    1.7466 C   0  0  0  0  0  0  0  0  0  0  0  0
    1.4266   -4.2257    2.3278 C   0  0  0  0  0  0  0  0  0  0  0  0
    2.3766   -4.7701    3.6521 Cl  0  0  0  0  0  0  0  0  0  0  0  0
    0.4626   -4.9856    1.7326 C   0  0  0  0  0  0  0  0  0  0  0  0
   -0.0082   -6.3484    2.1026 C   0  0  0  0  0  0  0  0  0  0  0  0
   -1.2566   -6.2749    2.9850 C   0  0  0  0  0  0  0  0  0  0  0  0
   -0.2714   -4.1090    0.4346 S   0  0  0  0  0  0  0  0  0  0  0  0
    1.7951   -1.0805   -0.8445 C   0  0  0  0  0  0  0  0  0  0  0  0
    1.6961    0.0629   -1.6793 C   0  0  0  0  0  0  0  0  0  0  0  0
    0.5078    0.7524   -1.8583 C   0  0  0  0  0  0  0  0  0  0  0  0
    0.3801    1.9254   -2.7089 C   0  0  0  0  0  0  0  0  0  0  0  0
    1.3112    3.3642   -2.4210 S   0  0  0  0  0  0  0  0  0  0  0  0
    0.4898    4.2203   -3.6800 C   0  0  0  0  0  0  0  0  0  0  0  0
    0.7576    5.6610   -3.9373 C   0  0  0  0  0  0  0  0  0  0  0  0
   -0.0128    6.5405   -2.9486 C   0  0  0  0  0  0  0  0  0  0  0  0
   -0.4312    3.4103   -4.2763 C   0  0  0  0  0  0  0  0  0  0  0  0
   -0.5001    2.1086   -3.7331 C   0  0  0  0  0  0  0  0  0  0  0  0
   -1.4461    3.9238   -5.5655 Cl  0  0  0  0  0  0  0  0  0  0  0  0
   -0.6115    0.2840   -1.1518 C   0  0  0  0  0  0  0  0  0  0  0  0
   -1.9025    0.8567   -1.0552 C   0  0  0  0  0  0  0  0  0  0  0  0
   -2.6448    2.2696   -1.6912 S   0  0  0  0  0  0  0  0  0  0  0  0
    3.2057    0.4673   -2.4729 S   0  0  0  0  0  0  0  0  0  0  0  0
    3.9829   -0.8819   -1.6992 C   0  0  0  0  0  0  0  0  0  0  0  0
    5.2881   -1.3821   -1.7276 C   0  0  0  0  0  0  0  0  0  0  0  0
    5.4237   -2.4858   -0.9139 C   0  0  0  0  0  0  0  0  0  0  0  0
    3.9219   -2.9174   -0.1245 S   0  0  0  0  0  0  0  0  0  0  0  0
    3.1163   -1.5934   -0.8765 C   0  0  0  0  0  0  0  0  0  0  0  0
    6.5928   -3.2388   -0.6131 C   0  0  0  0  0  0  0  0  0  0  0  0
    7.8252   -3.1652   -1.2331 C   0  0  0  0  0  0  0  0  0  0  0  0
    8.7624   -4.0194   -0.6565 C   0  0  0  0  0  0  0  0  0  0  0  0
   10.4089   -4.2505   -1.1922 S   0  0  0  0  0  0  0  0  0  0  0  0
   10.7721   -2.7095   -2.1052 C   0  0  0  0  0  0  0  0  0  0  0  0
   10.7907   -1.4993   -1.1926 C   0  0  0  0  0  0  0  0  0  0  0  0
    8.2534   -4.7603    0.4290 C   0  0  0  0  0  0  0  0  0  0  0  0
    6.5642   -4.3956    0.6769 S   0  0  0  0  0  0  0  0  0  0  0  0
    9.0518   -5.5892    1.2237 C   0  0  0  0  0  0  0  0  0  0  0  0
    8.7152   -6.3545    2.3116 C   0  0  0  0  0  0  0  0  0  0  0  0
    7.3557   -6.5786    2.8116 C   0  0  0  0  0  0  0  0  0  0  0  0
    6.3209   -6.0859    2.3940 O   0  0  0  0  0  0  0  0  0  0  0  0
    7.4740   -7.5368    3.9224 C   0  0  0  0  0  0  0  0  0  0  0  0
    6.4380   -8.0526    4.6982 C   0  0  0  0  0  0  0  0  0  0  0  0
    6.8537   -8.9273    5.6732 C   0  0  0  0  0  0  0  0  0  0  0  0
    8.1997   -9.2700    5.8566 C   0  0  0  0  0  0  0  0  0  0  0  0
    9.2305   -8.7696    5.0966 C   0  0  0  0  0  0  0  0  0  0  0  0
    8.8315   -7.8696    4.1039 C   0  0  0  0  0  0  0  0  0  0  0  0
    9.6294   -7.1225    3.1312 C   0  0  0  0  0  0  0  0  0  0  0  0
   10.9995   -7.1202    3.0651 C   0  0  0  0  0  0  0  0  0  0  0  0
   11.7840   -6.3395    2.1900 C   0  0  0  0  0  0  0  0  0  0  0  0
   12.5053   -5.7260    1.5392 N   0  0  0  0  0  0  0  0  0  0  0  0
   11.8398   -7.8866    3.8989 C   0  0  0  0  0  0  0  0  0  0  0  0
   12.5866   -8.4796    4.5388 N   0  0  0  0  0  0  0  0  0  0  0  0
    7.8918  -10.1879    7.0135 C   0  0  0  0  0  0  0  0  0  0  0  0
    8.1973   -9.6425    8.4245 C   0  0  0  0  0  0  0  0  0  0  0  0
    7.3713  -10.5189    9.3380 C   0  0  0  0  0  0  0  0  0  0  0  0
    6.0967  -10.1926    9.1661 C   0  0  0  0  0  0  0  0  0  0  0  0
    6.0398   -9.0899    8.1335 C   0  0  0  0  0  0  0  0  0  0  0  0
    7.3522   -8.3623    8.4525 C   0  0  0  0  0  0  0  0  0  0  0  0
    6.3910   -9.8038    6.8107 C   0  0  0  0  0  0  0  0  0  0  0  0
   -7.6684    6.5980   -1.6802 H   0  0  0  0  0  0  0  0  0  0  0  0
   -1.9055    8.9068   -2.4647 H   0  0  0  0  0  0  0  0  0  0  0  0
   -6.1332   11.5937   -3.2273 H   0  0  0  0  0  0  0  0  0  0  0  0
   -3.4828   13.6749   -2.6252 H   0  0  0  0  0  0  0  0  0  0  0  0
   -4.0091   13.7056   -5.2357 H   0  0  0  0  0  0  0  0  0  0  0  0
   -2.0715   15.4149   -4.7577 H   0  0  0  0  0  0  0  0  0  0  0  0
    0.1673   14.0392   -4.3664 H   0  0  0  0  0  0  0  0  0  0  0  0
   -0.3911   11.4834   -4.6052 H   0  0  0  0  0  0  0  0  0  0  0  0
   -2.0584   12.3910   -6.4493 H   0  0  0  0  0  0  0  0  0  0  0  0
   -2.9426   11.2460   -5.4153 H   0  0  0  0  0  0  0  0  0  0  0  0
   -1.2879   12.3246   -2.2413 H   0  0  0  0  0  0  0  0  0  0  0  0
   -8.8800   -0.7706   -0.3393 H   0  0  0  0  0  0  0  0  0  0  0  0
   -8.7840   -0.4752    1.3777 H   0  0  0  0  0  0  0  0  0  0  0  0
  -11.2646   -0.7824    1.5908 H   0  0  0  0  0  0  0  0  0  0  0  0
  -11.3788   -1.0604   -0.1482 H   0  0  0  0  0  0  0  0  0  0  0  0
  -10.5040   -2.2038    0.8727 H   0  0  0  0  0  0  0  0  0  0  0  0
  -11.2706    5.1180   -0.9870 H   0  0  0  0  0  0  0  0  0  0  0  0
  -11.3679    5.1841    0.7542 H   0  0  0  0  0  0  0  0  0  0  0  0
  -13.2330    3.5311   -1.0292 H   0  0  0  0  0  0  0  0  0  0  0  0
  -13.6406    5.0580   -0.2447 H   0  0  0  0  0  0  0  0  0  0  0  0
  -13.3285    3.6208    0.7315 H   0  0  0  0  0  0  0  0  0  0  0  0
   -4.8045    0.3983    0.5730 H   0  0  0  0  0  0  0  0  0  0  0  0
    2.3045   -2.2245    2.1150 H   0  0  0  0  0  0  0  0  0  0  0  0
    0.7923   -6.8600    2.6402 H   0  0  0  0  0  0  0  0  0  0  0  0
   -0.2370   -6.9140    1.1972 H   0  0  0  0  0  0  0  0  0  0  0  0
   -1.5895   -7.2757    3.2475 H   0  0  0  0  0  0  0  0  0  0  0  0
   -2.0605   -5.7654    2.4587 H   0  0  0  0  0  0  0  0  0  0  0  0
   -1.0393   -5.7282    3.8993 H   0  0  0  0  0  0  0  0  0  0  0  0
    0.4473    5.8971   -4.9572 H   0  0  0  0  0  0  0  0  0  0  0  0
    1.8275    5.8591   -3.8437 H   0  0  0  0  0  0  0  0  0  0  0  0
    0.1705    7.5895   -3.1704 H   0  0  0  0  0  0  0  0  0  0  0  0
   -1.0806    6.3433   -3.0129 H   0  0  0  0  0  0  0  0  0  0  0  0
    0.3127    6.3362   -1.9311 H   0  0  0  0  0  0  0  0  0  0  0  0
   -1.1609    1.3453   -4.1006 H   0  0  0  0  0  0  0  0  0  0  0  0
    6.0891   -0.9475   -2.2953 H   0  0  0  0  0  0  0  0  0  0  0  0
    8.0152   -2.5306   -2.0786 H   0  0  0  0  0  0  0  0  0  0  0  0
   10.0553   -2.6092   -2.9189 H   0  0  0  0  0  0  0  0  0  0  0  0
   11.7593   -2.8938   -2.5282 H   0  0  0  0  0  0  0  0  0  0  0  0
    9.8154   -1.3378   -0.7377 H   0  0  0  0  0  0  0  0  0  0  0  0
   11.0599   -0.6121   -1.7624 H   0  0  0  0  0  0  0  0  0  0  0  0
   11.5215   -1.6394   -0.3997 H   0  0  0  0  0  0  0  0  0  0  0  0
   10.0919   -5.5982    0.9175 H   0  0  0  0  0  0  0  0  0  0  0  0
    5.4144   -7.7636    4.5180 H   0  0  0  0  0  0  0  0  0  0  0  0
   10.2593   -9.0488    5.2497 H   0  0  0  0  0  0  0  0  0  0  0  0
    8.1855  -11.2281    6.8860 H   0  0  0  0  0  0  0  0  0  0  0  0
    9.2546   -9.5507    8.6576 H   0  0  0  0  0  0  0  0  0  0  0  0
    7.7809  -11.2982    9.9535 H   0  0  0  0  0  0  0  0  0  0  0  0
    5.2289  -10.6450    9.6093 H   0  0  0  0  0  0  0  0  0  0  0  0
    5.1313   -8.4945    8.1028 H   0  0  0  0  0  0  0  0  0  0  0  0
    7.3375   -7.9006    9.4384 H   0  0  0  0  0  0  0  0  0  0  0  0
    7.6420   -7.6226    7.7085 H   0  0  0  0  0  0  0  0  0  0  0  0
    5.6829  -10.5883    6.5496 H   0  0  0  0  0  0  0  0  0  0  0  0
  1  2  2  0  0  0  0
  2  3  1  0  0  0  0
  3  4  2  0  0  0  0
  3  5  1  0  0  0  0
  5  6  2  0  0  0  0
  6  7  1  0  0  0  0
  7  8  2  0  0  0  0
  8  9  1  0  0  0  0
  9 10  2  0  0  0  0
 10 11  1  0  0  0  0
 11 12  2  0  0  0  0
 12 13  1  0  0  0  0
 13 14  3  0  0  0  0
 12 15  1  0  0  0  0
 15 16  3  0  0  0  0
  8 17  1  0  0  0  0
 17 18  1  0  0  0  0
 18 19  1  0  0  0  0
 19 20  2  0  0  0  0
 20 21  1  0  0  0  0
 21 22  1  0  0  0  0
 21 23  1  0  0  0  0
  1 24  1  0  0  0  0
 24 25  1  0  0  0  0
 25 26  1  0  0  0  0
 26 27  2  0  0  0  0
 27 28  1  0  0  0  0
 28 29  2  0  0  0  0
 28 30  1  0  0  0  0
 30 31  2  0  0  0  0
 31 32  1  0  0  0  0
 32 33  1  0  0  0  0
 31 34  1  0  0  0  0
 34 35  1  0  0  0  0
 35 36  1  0  0  0  0
 36 37  1  0  0  0  0
 35 38  2  0  0  0  0
 38 39  1  0  0  0  0
 39 40  2  0  0  0  0
 39 41  1  0  0  0  0
 26 42  1  0  0  0  0
 42 43  2  0  0  0  0
 43 44  1  0  0  0  0
 44 45  1  0  0  0  0
 45 46  1  0  0  0  0
 46 47  2  0  0  0  0
 47 48  1  0  0  0  0
 48 49  2  0  0  0  0
 49 50  1  0  0  0  0
 50 51  1  0  0  0  0
 50 52  2  0  0  0  0
 52 53  1  0  0  0  0
 53 54  1  0  0  0  0
 52 55  1  0  0  0  0
 47 56  1  0  0  0  0
 56 57  2  0  0  0  0
 57 58  1  0  0  0  0
 58 59  1  0  0  0  0
 59 60  1  0  0  0  0
 60 61  1  0  0  0  0
 61 62  1  0  0  0  0
 62 63  1  0  0  0  0
 61 64  2  0  0  0  0
 64 65  1  0  0  0  0
 64 66  1  0  0  0  0
 58 67  2  0  0  0  0
 67 68  1  0  0  0  0
 68 69  1  0  0  0  0
 57 70  1  0  0  0  0
 70 71  1  0  0  0  0
 71 72  1  0  0  0  0
 72 73  2  0  0  0  0
 73 74  1  0  0  0  0
 74 75  1  0  0  0  0
 73 76  1  0  0  0  0
 76 77  2  0  0  0  0
 77 78  1  0  0  0  0
 78 79  1  0  0  0  0
 79 80  1  0  0  0  0
 80 81  1  0  0  0  0
 78 82  2  0  0  0  0
 82 83  1  0  0  0  0
 82 84  1  0  0  0  0
 84 85  2  0  0  0  0
 85 86  1  0  0  0  0
 86 87  2  0  0  0  0
 86 88  1  0  0  0  0
 88 89  2  0  0  0  0
 89 90  1  0  0  0  0
 90 91  2  0  0  0  0
 91 92  1  0  0  0  0
 92 93  2  0  0  0  0
 93 94  1  0  0  0  0
 94 95  2  0  0  0  0
 95 96  1  0  0  0  0
 96 97  3  0  0  0  0
 95 98  1  0  0  0  0
 98 99  3  0  0  0  0
 91100  1  0  0  0  0
100101  1  0  0  0  0
101102  1  0  0  0  0
102103  2  0  0  0  0
103104  1  0  0  0  0
104105  1  0  0  0  0
104106  1  0  0  0  0
 11  2  1  0  0  0  0
 23 17  1  0  0  0  0
 41 24  2  0  0  0  0
 69 42  1  0  0  0  0
 75 71  2  0  0  0  0
 83 76  1  0  0  0  0
 94 85  1  0  0  0  0
106100  1  0  0  0  0
 10  5  1  0  0  0  0
 22 18  1  0  0  0  0
 41 27  1  0  0  0  0
 68 44  2  0  0  0  0
 93 88  1  0  0  0  0
105101  1  0  0  0  0
 23  7  1  0  0  0  0
 38 30  1  0  0  0  0
 67 46  1  0  0  0  0
106 90  1  0  0  0  0
 55 48  1  0  0  0  0
 75 56  1  0  0  0  0
 65 59  2  0  0  0  0
  1107  1  0  0  0  0
  6108  1  0  0  0  0
  9109  1  0  0  0  0
 17110  1  0  0  0  0
 18111  1  0  0  0  0
 19112  1  0  0  0  0
 20113  1  0  0  0  0
 21114  1  0  0  0  0
 22115  1  0  0  0  0
 22116  1  0  0  0  0
 23117  1  0  0  0  0
 32118  1  0  0  0  0
 32119  1  0  0  0  0
 33120  1  0  0  0  0
 33121  1  0  0  0  0
 33122  1  0  0  0  0
 36123  1  0  0  0  0
 36124  1  0  0  0  0
 37125  1  0  0  0  0
 37126  1  0  0  0  0
 37127  1  0  0  0  0
 43128  1  0  0  0  0
 49129  1  0  0  0  0
 53130  1  0  0  0  0
 53131  1  0  0  0  0
 54132  1  0  0  0  0
 54133  1  0  0  0  0
 54134  1  0  0  0  0
 62135  1  0  0  0  0
 62136  1  0  0  0  0
 63137  1  0  0  0  0
 63138  1  0  0  0  0
 63139  1  0  0  0  0
 65140  1  0  0  0  0
 72141  1  0  0  0  0
 77142  1  0  0  0  0
 80143  1  0  0  0  0
 80144  1  0  0  0  0
 81145  1  0  0  0  0
 81146  1  0  0  0  0
 81147  1  0  0  0  0
 84148  1  0  0  0  0
 89149  1  0  0  0  0
 92150  1  0  0  0  0
100151  1  0  0  0  0
101152  1  0  0  0  0
102153  1  0  0  0  0
103154  1  0  0  0  0
104155  1  0  0  0  0
105156  1  0  0  0  0
105157  1  0  0  0  0
106158  1  0  0  0  0
M  END
