
  xtb     02162216473D
 energy: -347.583346306502 gnorm: 0.000336857386 xtb: 6.4.1 (unknown)
194218  0     0  0            999 V2000
    8.5521  -10.6942    1.3242 C   0  0  0  0  0  0  0  0  0  0  0  0
    9.5268   -9.8080    1.6129 C   0  0  0  0  0  0  0  0  0  0  0  0
   10.9653  -10.1996    1.5199 C   0  0  0  0  0  0  0  0  0  0  0  0
   11.4083  -11.1828    0.9742 O   0  0  0  0  0  0  0  0  0  0  0  0
   11.6995   -9.1693    2.2764 C   0  0  0  0  0  0  0  0  0  0  0  0
   13.0626   -9.1508    2.5716 C   0  0  0  0  0  0  0  0  0  0  0  0
   13.4619   -8.0647    3.3123 C   0  0  0  0  0  0  0  0  0  0  0  0
   12.5693   -7.0765    3.7531 C   0  0  0  0  0  0  0  0  0  0  0  0
   11.2253   -7.0786    3.4702 C   0  0  0  0  0  0  0  0  0  0  0  0
   10.8024   -8.1619    2.6929 C   0  0  0  0  0  0  0  0  0  0  0  0
    9.4822   -8.4530    2.1449 C   0  0  0  0  0  0  0  0  0  0  0  0
    8.4910   -7.5311    1.9521 C   0  0  0  0  0  0  0  0  0  0  0  0
    7.3251   -7.7386    1.1831 C   0  0  0  0  0  0  0  0  0  0  0  0
    6.3868   -7.7891    0.5243 N   0  0  0  0  0  0  0  0  0  0  0  0
    8.5491   -6.2009    2.4208 C   0  0  0  0  0  0  0  0  0  0  0  0
    8.5297   -5.1144    2.7904 N   0  0  0  0  0  0  0  0  0  0  0  0
   13.6535   -6.2927    4.4480 C   0  0  0  0  0  0  0  0  0  0  0  0
   14.1473   -5.0213    3.7256 C   0  0  0  0  0  0  0  0  0  0  0  0
   15.4914   -4.7440    4.3591 C   0  0  0  0  0  0  0  0  0  0  0  0
   16.3375   -5.6731    3.9330 C   0  0  0  0  0  0  0  0  0  0  0  0
   15.5794   -6.5943    3.0041 C   0  0  0  0  0  0  0  0  0  0  0  0
   14.6045   -5.5899    2.3760 C   0  0  0  0  0  0  0  0  0  0  0  0
   14.6502   -7.3875    3.9484 C   0  0  0  0  0  0  0  0  0  0  0  0
    7.1441  -10.5543    1.6284 C   0  0  0  0  0  0  0  0  0  0  0  0
    6.1875  -10.9248    0.6716 C   0  0  0  0  0  0  0  0  0  0  0  0
    4.8686  -10.6283    0.9173 C   0  0  0  0  0  0  0  0  0  0  0  0
    3.6928  -10.7498    0.0102 C   0  0  0  0  0  0  0  0  0  0  0  0
    3.6405  -11.2874   -1.0687 O   0  0  0  0  0  0  0  0  0  0  0  0
    2.5958  -10.0619    0.7439 C   0  0  0  0  0  0  0  0  0  0  0  0
    3.0519   -9.6923    2.0256 C   0  0  0  0  0  0  0  0  0  0  0  0
    4.4631  -10.0301    2.1268 C   0  0  0  0  0  0  0  0  0  0  0  0
    5.3914   -9.7718    3.1186 C   0  0  0  0  0  0  0  0  0  0  0  0
    6.7274  -10.0193    2.8510 C   0  0  0  0  0  0  0  0  0  0  0  0
    2.2090   -9.0193    2.8882 C   0  0  0  0  0  0  0  0  0  0  0  0
    0.9463   -8.6668    2.4381 C   0  0  0  0  0  0  0  0  0  0  0  0
    0.5063   -8.9767    1.1483 C   0  0  0  0  0  0  0  0  0  0  0  0
    1.3448   -9.7159    0.2956 C   0  0  0  0  0  0  0  0  0  0  0  0
   -0.7308   -8.4072    0.6559 C   0  0  0  0  0  0  0  0  0  0  0  0
   -1.5898   -8.8454   -0.3328 C   0  0  0  0  0  0  0  0  0  0  0  0
   -1.5445  -10.1826   -0.9234 C   0  0  0  0  0  0  0  0  0  0  0  0
   -1.7829  -10.3697   -2.2823 C   0  0  0  0  0  0  0  0  0  0  0  0
   -1.6966  -11.6367   -2.8274 C   0  0  0  0  0  0  0  0  0  0  0  0
   -1.3628  -12.7203   -2.0336 C   0  0  0  0  0  0  0  0  0  0  0  0
   -1.1367  -12.5546   -0.6728 C   0  0  0  0  0  0  0  0  0  0  0  0
   -0.7116  -13.7044    0.1939 C   0  0  0  0  0  0  0  0  0  0  0  0
    0.7886  -13.6171    0.4844 C   0  0  0  0  0  0  0  0  0  0  0  0
   -1.2476  -11.2858   -0.1273 C   0  0  0  0  0  0  0  0  0  0  0  0
   -2.5290   -7.8437   -0.6747 C   0  0  0  0  0  0  0  0  0  0  0  0
   -3.7968   -7.7352   -1.8771 S   0  0  0  0  0  0  0  0  0  0  0  0
   -4.0854   -6.0902   -1.4114 C   0  0  0  0  0  0  0  0  0  0  0  0
   -4.8138   -4.9620   -1.8412 C   0  0  0  0  0  0  0  0  0  0  0  0
   -5.6161   -4.6980   -2.9760 C   0  0  0  0  0  0  0  0  0  0  0  0
   -5.9738   -3.3349   -3.2879 C   0  0  0  0  0  0  0  0  0  0  0  0
   -6.6315   -3.2389   -4.4319 N   0  0  0  0  0  0  0  0  0  0  0  0
   -6.8014   -4.7214   -5.0588 S   0  0  0  0  0  0  0  0  0  0  0  0
   -6.0346   -5.5488   -3.8989 N   0  0  0  0  0  0  0  0  0  0  0  0
   -5.6495   -2.3053   -2.3743 C   0  0  0  0  0  0  0  0  0  0  0  0
   -5.8620   -0.9127   -2.3476 C   0  0  0  0  0  0  0  0  0  0  0  0
   -6.4082    0.3571   -3.3938 S   0  0  0  0  0  0  0  0  0  0  0  0
   -5.9903    1.5246   -2.1624 C   0  0  0  0  0  0  0  0  0  0  0  0
   -5.9854    2.9271   -2.1361 C   0  0  0  0  0  0  0  0  0  0  0  0
   -6.4021    3.8087   -3.2394 C   0  0  0  0  0  0  0  0  0  0  0  0
   -7.6436    4.4328   -3.2088 C   0  0  0  0  0  0  0  0  0  0  0  0
   -7.9862    5.3226   -4.2104 C   0  0  0  0  0  0  0  0  0  0  0  0
   -7.0947    5.6014   -5.2303 C   0  0  0  0  0  0  0  0  0  0  0  0
   -5.8569    4.9724   -5.2823 C   0  0  0  0  0  0  0  0  0  0  0  0
   -4.9088    5.2507   -6.4112 C   0  0  0  0  0  0  0  0  0  0  0  0
   -5.2025    4.3277   -7.5952 C   0  0  0  0  0  0  0  0  0  0  0  0
   -5.5264    4.0639   -4.2881 C   0  0  0  0  0  0  0  0  0  0  0  0
   -5.4872    3.4107   -0.9388 C   0  0  0  0  0  0  0  0  0  0  0  0
   -5.0511    2.1242    0.1799 S   0  0  0  0  0  0  0  0  0  0  0  0
   -5.4960    0.9375   -0.9922 C   0  0  0  0  0  0  0  0  0  0  0  0
   -5.4127   -0.4513   -1.1035 C   0  0  0  0  0  0  0  0  0  0  0  0
   -4.9154   -1.4935   -0.3612 N   0  0  0  0  0  0  0  0  0  0  0  0
   -5.0054   -2.6231   -1.1516 C   0  0  0  0  0  0  0  0  0  0  0  0
   -4.4452   -3.9034   -0.9734 C   0  0  0  0  0  0  0  0  0  0  0  0
   -3.4967   -4.3473   -0.0686 N   0  0  0  0  0  0  0  0  0  0  0  0
   -3.2753   -5.6714   -0.3526 C   0  0  0  0  0  0  0  0  0  0  0  0
   -2.3884   -6.6695    0.0634 C   0  0  0  0  0  0  0  0  0  0  0  0
   -1.1146   -6.7880    1.2172 S   0  0  0  0  0  0  0  0  0  0  0  0
   -2.4200   -3.5598    0.4990 C   0  0  0  0  0  0  0  0  0  0  0  0
   -1.2440   -3.4563   -0.4718 C   0  0  0  0  0  0  0  0  0  0  0  0
   -4.9429   -1.4642    1.0871 C   0  0  0  0  0  0  0  0  0  0  0  0
   -6.3377   -1.1200    1.6086 C   0  0  0  0  0  0  0  0  0  0  0  0
   -5.1728    4.7519   -0.5977 C   0  0  0  0  0  0  0  0  0  0  0  0
   -4.6665    5.2105    0.5899 C   0  0  0  0  0  0  0  0  0  0  0  0
   -4.3075    6.5755    0.5682 C   0  0  0  0  0  0  0  0  0  0  0  0
   -3.7569    7.3568    1.6044 C   0  0  0  0  0  0  0  0  0  0  0  0
   -3.4424    6.7792    2.8956 C   0  0  0  0  0  0  0  0  0  0  0  0
   -2.8589    5.5694    3.1545 C   0  0  0  0  0  0  0  0  0  0  0  0
   -2.6747    5.3276    4.5293 C   0  0  0  0  0  0  0  0  0  0  0  0
   -1.9115    3.8989    5.1098 Cl  0  0  0  0  0  0  0  0  0  0  0  0
   -3.1392    6.3365    5.3323 C   0  0  0  0  0  0  0  0  0  0  0  0
   -3.1163    6.4867    7.0718 S   0  0  0  0  0  0  0  0  0  0  0  0
   -3.8041    4.8563    7.5921 C   0  0  0  0  0  0  0  0  0  0  0  0
   -4.7225    5.0528    8.7815 C   0  0  0  0  0  0  0  0  0  0  0  0
   -3.7963    7.6259    4.3746 S   0  0  0  0  0  0  0  0  0  0  0  0
   -3.5042    8.6951    1.3183 C   0  0  0  0  0  0  0  0  0  0  0  0
   -3.7602    9.2765    0.0457 C   0  0  0  0  0  0  0  0  0  0  0  0
   -4.3473    8.5018   -0.9878 C   0  0  0  0  0  0  0  0  0  0  0  0
   -4.6879    9.0667   -2.2740 C   0  0  0  0  0  0  0  0  0  0  0  0
   -4.5201    8.1383   -3.7383 S   0  0  0  0  0  0  0  0  0  0  0  0
   -5.1636    9.4320   -4.6973 C   0  0  0  0  0  0  0  0  0  0  0  0
   -5.3600    9.2139   -6.4204 S   0  0  0  0  0  0  0  0  0  0  0  0
   -4.2936   10.5618   -7.0595 C   0  0  0  0  0  0  0  0  0  0  0  0
   -2.8415   10.3465   -6.6867 C   0  0  0  0  0  0  0  0  0  0  0  0
   -5.4799   10.5081   -3.9094 C   0  0  0  0  0  0  0  0  0  0  0  0
   -5.1996   10.3085   -2.5443 C   0  0  0  0  0  0  0  0  0  0  0  0
   -6.1842   11.9614   -4.4977 Cl  0  0  0  0  0  0  0  0  0  0  0  0
   -4.5811    7.1678   -0.6939 C   0  0  0  0  0  0  0  0  0  0  0  0
   -5.2755    6.0172   -1.8013 S   0  0  0  0  0  0  0  0  0  0  0  0
   -3.2955   10.5950   -0.0119 C   0  0  0  0  0  0  0  0  0  0  0  0
   -2.7236   11.0500    1.1667 C   0  0  0  0  0  0  0  0  0  0  0  0
   -2.7562    9.8200    2.4134 S   0  0  0  0  0  0  0  0  0  0  0  0
   -2.1772   12.3427    1.2653 C   0  0  0  0  0  0  0  0  0  0  0  0
   -1.5716   12.9788    2.3169 C   0  0  0  0  0  0  0  0  0  0  0  0
   -1.3904   12.4262    3.6699 C   0  0  0  0  0  0  0  0  0  0  0  0
   -1.7162   11.3283    4.0715 O   0  0  0  0  0  0  0  0  0  0  0  0
   -0.7284   13.4871    4.4530 C   0  0  0  0  0  0  0  0  0  0  0  0
   -0.3416   13.4887    5.7853 C   0  0  0  0  0  0  0  0  0  0  0  0
   -0.6103   12.1260    6.7872 Cl  0  0  0  0  0  0  0  0  0  0  0  0
    0.2745   14.6256    6.3025 C   0  0  0  0  0  0  0  0  0  0  0  0
    0.4841   15.7197    5.4795 C   0  0  0  0  0  0  0  0  0  0  0  0
    1.3238   17.2541    6.2074 Br  0  0  0  0  0  0  0  0  0  0  0  0
    0.1041   15.7399    4.1411 C   0  0  0  0  0  0  0  0  0  0  0  0
   -0.5072   14.6083    3.6313 C   0  0  0  0  0  0  0  0  0  0  0  0
   -1.0154   14.3154    2.2886 C   0  0  0  0  0  0  0  0  0  0  0  0
   -0.9421   15.1689    1.2180 C   0  0  0  0  0  0  0  0  0  0  0  0
   -1.4059   14.9002   -0.0874 C   0  0  0  0  0  0  0  0  0  0  0  0
   -1.7483   14.7685   -1.1761 N   0  0  0  0  0  0  0  0  0  0  0  0
   -0.3718   16.4591    1.2656 C   0  0  0  0  0  0  0  0  0  0  0  0
    0.0755   17.5157    1.2319 N   0  0  0  0  0  0  0  0  0  0  0  0
    8.8668  -11.6080    0.8311 H   0  0  0  0  0  0  0  0  0  0  0  0
   13.7142   -9.9379    2.2261 H   0  0  0  0  0  0  0  0  0  0  0  0
   10.5467   -6.3194    3.8224 H   0  0  0  0  0  0  0  0  0  0  0  0
   13.5268   -6.1527    5.5197 H   0  0  0  0  0  0  0  0  0  0  0  0
   13.4339   -4.2020    3.7089 H   0  0  0  0  0  0  0  0  0  0  0  0
   15.6688   -3.9590    5.0705 H   0  0  0  0  0  0  0  0  0  0  0  0
   17.3629   -5.8194    4.2174 H   0  0  0  0  0  0  0  0  0  0  0  0
   16.1729   -7.2058    2.3300 H   0  0  0  0  0  0  0  0  0  0  0  0
   13.8071   -6.0476    1.7934 H   0  0  0  0  0  0  0  0  0  0  0  0
   15.1163   -4.8453    1.7688 H   0  0  0  0  0  0  0  0  0  0  0  0
   15.1946   -7.9746    4.6856 H   0  0  0  0  0  0  0  0  0  0  0  0
    6.4893  -11.3575   -0.2700 H   0  0  0  0  0  0  0  0  0  0  0  0
    5.0945   -9.3483    4.0661 H   0  0  0  0  0  0  0  0  0  0  0  0
    7.4716   -9.7961    3.6032 H   0  0  0  0  0  0  0  0  0  0  0  0
    2.5283   -8.7422    3.8814 H   0  0  0  0  0  0  0  0  0  0  0  0
    0.2886   -8.1101    3.0909 H   0  0  0  0  0  0  0  0  0  0  0  0
    1.0385   -9.9606   -0.7090 H   0  0  0  0  0  0  0  0  0  0  0  0
   -2.0126   -9.5231   -2.9110 H   0  0  0  0  0  0  0  0  0  0  0  0
   -1.8782  -11.7776   -3.8825 H   0  0  0  0  0  0  0  0  0  0  0  0
   -1.2782  -13.7035   -2.4730 H   0  0  0  0  0  0  0  0  0  0  0  0
   -0.9302  -14.6490   -0.3070 H   0  0  0  0  0  0  0  0  0  0  0  0
   -1.2624  -13.6822    1.1374 H   0  0  0  0  0  0  0  0  0  0  0  0
    1.0186  -12.7053    1.0321 H   0  0  0  0  0  0  0  0  0  0  0  0
    1.1120  -14.4693    1.0779 H   0  0  0  0  0  0  0  0  0  0  0  0
    1.3550  -13.6037   -0.4439 H   0  0  0  0  0  0  0  0  0  0  0  0
   -1.0964  -11.1479    0.9340 H   0  0  0  0  0  0  0  0  0  0  0  0
   -8.3259    4.2284   -2.3967 H   0  0  0  0  0  0  0  0  0  0  0  0
   -8.9487    5.8117   -4.1856 H   0  0  0  0  0  0  0  0  0  0  0  0
   -7.3540    6.3218   -5.9924 H   0  0  0  0  0  0  0  0  0  0  0  0
   -3.8812    5.0960   -6.0770 H   0  0  0  0  0  0  0  0  0  0  0  0
   -5.0150    6.2901   -6.7269 H   0  0  0  0  0  0  0  0  0  0  0  0
   -4.5138    4.5274   -8.4126 H   0  0  0  0  0  0  0  0  0  0  0  0
   -5.0990    3.2860   -7.2990 H   0  0  0  0  0  0  0  0  0  0  0  0
   -6.2182    4.4823   -7.9514 H   0  0  0  0  0  0  0  0  0  0  0  0
   -4.5646    3.5708   -4.3062 H   0  0  0  0  0  0  0  0  0  0  0  0
   -2.1001   -4.0473    1.4244 H   0  0  0  0  0  0  0  0  0  0  0  0
   -2.7720   -2.5570    0.7250 H   0  0  0  0  0  0  0  0  0  0  0  0
   -0.4622   -2.8413   -0.0354 H   0  0  0  0  0  0  0  0  0  0  0  0
   -1.5688   -3.0011   -1.4053 H   0  0  0  0  0  0  0  0  0  0  0  0
   -0.8306   -4.4375   -0.6886 H   0  0  0  0  0  0  0  0  0  0  0  0
   -4.6696   -2.4511    1.4604 H   0  0  0  0  0  0  0  0  0  0  0  0
   -4.2237   -0.7190    1.4441 H   0  0  0  0  0  0  0  0  0  0  0  0
   -7.0688   -1.8266    1.2217 H   0  0  0  0  0  0  0  0  0  0  0  0
   -6.6285   -0.1168    1.3101 H   0  0  0  0  0  0  0  0  0  0  0  0
   -6.3417   -1.1714    2.6938 H   0  0  0  0  0  0  0  0  0  0  0  0
   -4.5667    4.5785    1.4532 H   0  0  0  0  0  0  0  0  0  0  0  0
   -2.5096    4.8940    2.3956 H   0  0  0  0  0  0  0  0  0  0  0  0
   -4.3417    4.4528    6.7366 H   0  0  0  0  0  0  0  0  0  0  0  0
   -2.9670    4.2057    7.8416 H   0  0  0  0  0  0  0  0  0  0  0  0
   -5.5440    5.7166    8.5228 H   0  0  0  0  0  0  0  0  0  0  0  0
   -5.1307    4.0936    9.0935 H   0  0  0  0  0  0  0  0  0  0  0  0
   -4.1773    5.4876    9.6157 H   0  0  0  0  0  0  0  0  0  0  0  0
   -4.4399   10.5246   -8.1381 H   0  0  0  0  0  0  0  0  0  0  0  0
   -4.6778   11.5040   -6.6742 H   0  0  0  0  0  0  0  0  0  0  0  0
   -2.2300   11.1318   -7.1259 H   0  0  0  0  0  0  0  0  0  0  0  0
   -2.4915    9.3839   -7.0531 H   0  0  0  0  0  0  0  0  0  0  0  0
   -2.7135   10.3737   -5.6061 H   0  0  0  0  0  0  0  0  0  0  0  0
   -5.4350   11.0385   -1.7921 H   0  0  0  0  0  0  0  0  0  0  0  0
   -3.3317   11.2053   -0.8964 H   0  0  0  0  0  0  0  0  0  0  0  0
   -2.2583   12.9025    0.3413 H   0  0  0  0  0  0  0  0  0  0  0  0
    0.5837   14.6491    7.3352 H   0  0  0  0  0  0  0  0  0  0  0  0
    0.2886   16.6165    3.5428 H   0  0  0  0  0  0  0  0  0  0  0  0
  1  2  2  0  0  0  0
  2  3  1  0  0  0  0
  3  4  2  0  0  0  0
  3  5  1  0  0  0  0
  5  6  2  0  0  0  0
  6  7  1  0  0  0  0
  7  8  2  0  0  0  0
  8  9  1  0  0  0  0
  9 10  2  0  0  0  0
 10 11  1  0  0  0  0
 11 12  2  0  0  0  0
 12 13  1  0  0  0  0
 13 14  3  0  0  0  0
 12 15  1  0  0  0  0
 15 16  3  0  0  0  0
  8 17  1  0  0  0  0
 17 18  1  0  0  0  0
 18 19  1  0  0  0  0
 19 20  2  0  0  0  0
 20 21  1  0  0  0  0
 21 22  1  0  0  0  0
 21 23  1  0  0  0  0
  1 24  1  0  0  0  0
 24 25  2  0  0  0  0
 25 26  1  0  0  0  0
 26 27  1  0  0  0  0
 27 28  2  0  0  0  0
 27 29  1  0  0  0  0
 29 30  2  0  0  0  0
 30 31  1  0  0  0  0
 31 32  1  0  0  0  0
 32 33  2  0  0  0  0
 30 34  1  0  0  0  0
 34 35  2  0  0  0  0
 35 36  1  0  0  0  0
 36 37  2  0  0  0  0
 36 38  1  0  0  0  0
 38 39  2  0  0  0  0
 39 40  1  0  0  0  0
 40 41  2  0  0  0  0
 41 42  1  0  0  0  0
 42 43  2  0  0  0  0
 43 44  1  0  0  0  0
 44 45  1  0  0  0  0
 45 46  1  0  0  0  0
 44 47  2  0  0  0  0
 39 48  1  0  0  0  0
 48 49  1  0  0  0  0
 49 50  1  0  0  0  0
 50 51  1  0  0  0  0
 51 52  1  0  0  0  0
 52 53  1  0  0  0  0
 53 54  2  0  0  0  0
 54 55  1  0  0  0  0
 55 56  1  0  0  0  0
 53 57  1  0  0  0  0
 57 58  1  0  0  0  0
 58 59  1  0  0  0  0
 59 60  1  0  0  0  0
 60 61  1  0  0  0  0
 61 62  1  0  0  0  0
 62 63  2  0  0  0  0
 63 64  1  0  0  0  0
 64 65  2  0  0  0  0
 65 66  1  0  0  0  0
 66 67  1  0  0  0  0
 67 68  1  0  0  0  0
 66 69  2  0  0  0  0
 61 70  2  0  0  0  0
 70 71  1  0  0  0  0
 71 72  1  0  0  0  0
 72 73  1  0  0  0  0
 73 74  1  0  0  0  0
 74 75  1  0  0  0  0
 75 76  1  0  0  0  0
 76 77  1  0  0  0  0
 77 78  1  0  0  0  0
 78 79  1  0  0  0  0
 79 80  1  0  0  0  0
 77 81  1  0  0  0  0
 81 82  1  0  0  0  0
 74 83  1  0  0  0  0
 83 84  1  0  0  0  0
 70 85  1  0  0  0  0
 85 86  2  0  0  0  0
 86 87  1  0  0  0  0
 87 88  2  0  0  0  0
 88 89  1  0  0  0  0
 89 90  2  0  0  0  0
 90 91  1  0  0  0  0
 91 92  1  0  0  0  0
 91 93  2  0  0  0  0
 93 94  1  0  0  0  0
 94 95  1  0  0  0  0
 95 96  1  0  0  0  0
 93 97  1  0  0  0  0
 88 98  1  0  0  0  0
 98 99  2  0  0  0  0
 99100  1  0  0  0  0
100101  1  0  0  0  0
101102  1  0  0  0  0
102103  1  0  0  0  0
103104  1  0  0  0  0
104105  1  0  0  0  0
105106  1  0  0  0  0
103107  2  0  0  0  0
107108  1  0  0  0  0
107109  1  0  0  0  0
100110  2  0  0  0  0
110111  1  0  0  0  0
 99112  1  0  0  0  0
112113  2  0  0  0  0
113114  1  0  0  0  0
113115  1  0  0  0  0
115116  2  0  0  0  0
116117  1  0  0  0  0
117118  2  0  0  0  0
117119  1  0  0  0  0
119120  2  0  0  0  0
120121  1  0  0  0  0
120122  1  0  0  0  0
122123  2  0  0  0  0
123124  1  0  0  0  0
123125  1  0  0  0  0
125126  2  0  0  0  0
126127  1  0  0  0  0
127128  2  0  0  0  0
128129  1  0  0  0  0
129130  3  0  0  0  0
128131  1  0  0  0  0
131132  3  0  0  0  0
 11  2  1  0  0  0  0
 23 17  1  0  0  0  0
 33 24  1  0  0  0  0
 80 38  1  0  0  0  0
111 85  1  0  0  0  0
127116  1  0  0  0  0
 10  5  1  0  0  0  0
 22 18  1  0  0  0  0
 31 26  2  0  0  0  0
 47 40  1  0  0  0  0
 79 48  2  0  0  0  0
110 87  1  0  0  0  0
126119  1  0  0  0  0
 23  7  1  0  0  0  0
 37 29  1  0  0  0  0
 78 50  2  0  0  0  0
 97 89  1  0  0  0  0
114 98  1  0  0  0  0
 76 51  2  0  0  0  0
108101  2  0  0  0  0
 56 52  2  0  0  0  0
 75 57  2  0  0  0  0
 73 58  2  0  0  0  0
 72 60  2  0  0  0  0
 69 62  1  0  0  0  0
  1133  1  0  0  0  0
  6134  1  0  0  0  0
  9135  1  0  0  0  0
 17136  1  0  0  0  0
 18137  1  0  0  0  0
 19138  1  0  0  0  0
 20139  1  0  0  0  0
 21140  1  0  0  0  0
 22141  1  0  0  0  0
 22142  1  0  0  0  0
 23143  1  0  0  0  0
 25144  1  0  0  0  0
 32145  1  0  0  0  0
 33146  1  0  0  0  0
 34147  1  0  0  0  0
 35148  1  0  0  0  0
 37149  1  0  0  0  0
 41150  1  0  0  0  0
 42151  1  0  0  0  0
 43152  1  0  0  0  0
 45153  1  0  0  0  0
 45154  1  0  0  0  0
 46155  1  0  0  0  0
 46156  1  0  0  0  0
 46157  1  0  0  0  0
 47158  1  0  0  0  0
 63159  1  0  0  0  0
 64160  1  0  0  0  0
 65161  1  0  0  0  0
 67162  1  0  0  0  0
 67163  1  0  0  0  0
 68164  1  0  0  0  0
 68165  1  0  0  0  0
 68166  1  0  0  0  0
 69167  1  0  0  0  0
 81168  1  0  0  0  0
 81169  1  0  0  0  0
 82170  1  0  0  0  0
 82171  1  0  0  0  0
 82172  1  0  0  0  0
 83173  1  0  0  0  0
 83174  1  0  0  0  0
 84175  1  0  0  0  0
 84176  1  0  0  0  0
 84177  1  0  0  0  0
 86178  1  0  0  0  0
 90179  1  0  0  0  0
 95180  1  0  0  0  0
 95181  1  0  0  0  0
 96182  1  0  0  0  0
 96183  1  0  0  0  0
 96184  1  0  0  0  0
105185  1  0  0  0  0
105186  1  0  0  0  0
106187  1  0  0  0  0
106188  1  0  0  0  0
106189  1  0  0  0  0
108190  1  0  0  0  0
112191  1  0  0  0  0
115192  1  0  0  0  0
122193  1  0  0  0  0
125194  1  0  0  0  0
M  END
