193

C         12.18700       -0.80470        0.24690
C         12.43750       -2.13390        0.17990
C         11.41270       -3.21060        0.20760
O         10.24270       -3.11260        0.50430
C         12.14110       -4.46070       -0.08040
C         11.58950       -5.72660       -0.26930
C         12.51330       -6.70630       -0.54060
C         13.88940       -6.44900       -0.61350
C         14.44820       -5.20900       -0.42030
C         13.52390       -4.19540       -0.14190
C         13.74260       -2.77380        0.10890
C         14.96380       -2.17160        0.25720
C         15.17560       -0.80520        0.53760
N         15.44040        0.28710        0.77530
C         16.20140       -2.84650        0.19350
N         17.24390       -3.32650        0.16040
C         14.22290       -7.88720       -0.92380
C         14.79030       -8.73060        0.23730
C         14.56570      -10.15720       -0.20950
C         13.26320      -10.40120       -0.14110
C         12.58550       -9.14360        0.35340
C         13.67770       -8.60440        1.28600
C         12.68910       -8.17370       -0.84290
C         10.90550       -0.15490        0.12210
C         10.65310        0.95450        0.93610
C          9.45860        1.64660        0.88950
O          9.10830        2.67170        1.70570
C         10.04170        3.20280        2.62550
C         10.10250        2.40710        3.92590
C          8.49840        1.25700       -0.07060
C          8.75950        0.17330       -0.90310
C          9.94200       -0.54710       -0.83230
O         10.29490       -1.53330       -1.68860
C          9.36220       -2.03710       -2.62560
C          8.27080       -2.88990       -1.98670
C          7.23250        1.95050       -0.19640
C          6.95240        3.29750       -0.15110
C          7.95260        4.36080       -0.06060
C          9.12980        4.30040       -0.80190
C         10.06370        5.31220       -0.69410
C          9.83300        6.39130        0.14230
C          8.65550        6.47700        0.87350
C          8.40960        7.62420        1.81160
C          8.85310        7.26290        3.23080
C          7.72260        5.45700        0.76250
C          5.56430        3.53760       -0.27170
S          4.61830        5.00620       -0.32560
C          3.18900        4.05070       -0.52970
C          1.80940        4.22330       -0.71880
C          1.04990        5.39870       -0.90130
C         -0.34890        5.28000       -1.18940
N         -0.92860        6.45420       -1.38440
S          0.19270        7.61120       -1.21690
N          1.45960        6.65750       -0.88870
C         -0.93890        3.99810       -1.17460
C         -2.28540        3.61690       -1.26750
S         -3.84240        4.33500       -1.49940
C         -4.58080        2.77210       -1.23230
C         -5.91990        2.33700       -1.21360
C         -7.06560        3.17810       -1.55820
C         -8.12420        2.67200       -2.30760
C         -9.24320        3.45040       -2.53610
C         -9.32080        4.73040       -2.01820
C         -8.25460        5.27110       -1.30740
C         -8.33940        6.66560       -0.75800
C         -8.25980        7.70830       -1.87350
C         -7.12650        4.49450       -1.10380
C         -5.99660        0.98580       -0.89730
S         -4.41600        0.23920       -0.72330
C         -3.64580        1.75920       -0.99640
C         -2.33340        2.24160       -1.03150
N         -1.07030        1.75780       -0.82770
C         -0.18290        2.81440       -0.92380
C          1.23050        2.92290       -0.79740
N          2.25660        1.99680       -0.70970
C          3.43100        2.67700       -0.54360
C          4.79660        2.38340       -0.41560
S          5.79330        0.97180       -0.41760
C          2.30130        0.57450       -0.95380
C          2.52390       -0.22210        0.33250
C         -0.91190        0.38480       -0.41120
C         -1.04240       -0.58590       -1.58520
C         -7.14460        0.16410       -0.72860
S         -7.17030       -1.45120       -1.36570
C         -8.87270       -1.69620       -0.97580
C         -9.35740       -0.54190       -0.37120
S        -10.93330       -0.02350        0.08050
C        -10.30750        1.54450        0.59530
C        -11.17920        2.59580        0.99370
C        -12.55650        2.56300        1.14950
C        -13.13210        3.81480        1.40250
C        -12.19740        4.81720        1.43280
C        -12.42650        6.24850        1.61710
O        -13.49920        6.75100        1.84270
O        -11.27490        6.92640        1.49260
C        -11.33860        8.34740        1.61640
C        -11.71250        9.00230        0.29420
S        -10.59630        4.22300        1.18130
Cl       -13.48000        1.12410        1.03100
C         -8.93850        1.60490        0.48020
C         -8.38620        0.47870       -0.18110
Cl        -7.99680        2.82100        1.22420
C         -9.45010       -2.90450       -1.38880
C        -10.64190       -3.46090       -0.99380
C        -11.39640       -3.09830        0.20920
O        -11.09110       -2.26440        1.04870
C        -12.52810       -4.03730        0.28850
C        -13.52120       -4.07070        1.26390
C        -14.42510       -5.09390        1.10530
C        -14.34380       -6.01990        0.05720
C        -13.37010       -5.99610       -0.91330
C        -12.44110       -4.96050       -0.77260
C        -11.28160       -4.61600       -1.59360
C        -10.91340       -5.24460       -2.75520
C         -9.84260       -4.86090       -3.58950
N         -9.00470       -4.60650       -4.33330
C        -11.56910       -6.36900       -3.29870
N        -12.04520       -7.28610       -3.79960
C        -15.55630       -6.78300        0.53030
C        -15.28810       -8.10980        1.27180
C        -16.57610       -8.37390        2.01790
C        -16.65630       -7.49480        3.00850
C        -15.42360       -6.62200        2.94900
C        -14.40160       -7.64370        2.43400
C        -15.64900       -5.74780        1.69690
H         13.01820       -0.13020        0.41280
H         10.52350       -5.88230       -0.20820
H         15.50780       -5.02710       -0.48560
H         14.73680       -8.06170       -1.86720
H         15.79900       -8.46550        0.54170
H         15.34470      -10.80270       -0.57050
H         12.73700      -11.29090       -0.43370
H         11.58560       -9.25560        0.76410
H         13.84460       -9.25460        2.14310
H         13.50510       -7.58620        1.62970
H         12.18000       -8.53980       -1.73270
H         11.41780        1.22660        1.64640
H          9.67380        4.21350        2.82430
H         11.03240        3.28560        2.16410
H         10.42580        1.38480        3.74620
H          9.11740        2.37800        4.38440
H         10.79790        2.88190        4.61240
H          8.00780       -0.07950       -1.63420
H          9.97320       -2.65580       -3.28980
H          8.93040       -1.22010       -3.21830
H          7.58900       -2.28510       -1.39510
H          7.70900       -3.40360       -2.76220
H          8.72650       -3.62100       -1.32500
H          9.30640        3.46360       -1.46190
H         10.97790        5.26130       -1.26750
H         10.57060        7.17710        0.22260
H          8.96200        8.50330        1.47480
H          7.34600        7.87030        1.81960
H          9.91510        7.02560        3.24760
H          8.67350        8.09410        3.90870
H          8.30080        6.39760        3.59130
H          6.81070        5.50600        1.33940
H         -8.06760        1.67400       -2.71610
H        -10.06560        3.04800       -3.10930
H        -10.21570        5.31700       -2.16630
H         -7.52350        6.83090       -0.05260
H         -9.28180        6.77560       -0.21580
H         -7.32120        7.60890       -2.41430
H         -8.31420        8.71290       -1.45980
H         -9.07570        7.57920       -2.58120
H         -6.30340        4.89390       -0.52980
H          1.39530        0.26760       -1.46850
H          3.14540        0.38510       -1.62660
H          3.52160       -0.03550        0.71970
H          2.42840       -1.28490        0.12860
H          1.80980        0.05530        1.10510
H         -1.71030        0.16800        0.30740
H          0.03590        0.26890        0.10510
H         -0.35610       -0.33450       -2.39120
H         -2.05220       -0.55610       -1.98530
H         -0.83640       -1.59830       -1.24980
H        -14.18360        3.98050        1.54570
H        -12.07350        8.60230        2.38660
H        -10.33930        8.64800        1.93810
H        -12.70990        8.68940       -0.00520
H        -11.00430        8.72110       -0.48150
H        -11.70300       10.08230        0.40870
H         -8.84990       -3.45920       -2.09930
H        -13.54450       -3.33830        2.05560
H        -13.32160       -6.71660       -1.71240
H        -16.38220       -6.84920       -0.17530
H        -14.91170       -8.91350        0.64490
H        -17.29910       -9.11210        1.72400
H        -17.45960       -7.35160        3.70730
H        -15.17030       -6.07020        3.85030
H        -14.21580       -8.43880        3.15430
H        -13.45490       -7.20610        2.12270
H        -16.53640       -5.12170        1.76840
