
  xtb     02202217283D
 energy: -358.075386048171 gnorm: 0.000994002025 xtb: 6.4.1 (unknown)
212236  0     0  0            999 V2000
    0.2239   -8.8807   -9.7099 C   0  0  0  0  0  0  0  0  0  0  0  0
   -0.7379   -9.8371   -9.7366 C   0  0  0  0  0  0  0  0  0  0  0  0
   -0.5935  -11.0496  -10.5891 C   0  0  0  0  0  0  0  0  0  0  0  0
    0.4237  -11.4616  -11.0978 O   0  0  0  0  0  0  0  0  0  0  0  0
   -1.9603  -11.5935  -10.7187 C   0  0  0  0  0  0  0  0  0  0  0  0
   -2.3717  -12.6652  -11.5097 C   0  0  0  0  0  0  0  0  0  0  0  0
   -3.7168  -12.9360  -11.4325 C   0  0  0  0  0  0  0  0  0  0  0  0
   -4.5998  -12.1862  -10.6424 C   0  0  0  0  0  0  0  0  0  0  0  0
   -4.2116  -11.1285   -9.8561 C   0  0  0  0  0  0  0  0  0  0  0  0
   -2.8428  -10.8509   -9.9043 C   0  0  0  0  0  0  0  0  0  0  0  0
   -2.0655   -9.8719   -9.1545 C   0  0  0  0  0  0  0  0  0  0  0  0
   -2.4298   -9.3091   -7.9593 C   0  0  0  0  0  0  0  0  0  0  0  0
   -3.7263   -9.3755   -7.4152 C   0  0  0  0  0  0  0  0  0  0  0  0
   -4.7754   -9.3670   -6.9479 N   0  0  0  0  0  0  0  0  0  0  0  0
   -1.5088   -8.6644   -7.1055 C   0  0  0  0  0  0  0  0  0  0  0  0
   -0.7713   -8.2040   -6.3556 N   0  0  0  0  0  0  0  0  0  0  0  0
   -5.7928  -13.0154  -11.0461 C   0  0  0  0  0  0  0  0  0  0  0  0
   -6.2933  -14.0435  -10.0092 C   0  0  0  0  0  0  0  0  0  0  0  0
   -7.1180  -15.0106  -10.8274 C   0  0  0  0  0  0  0  0  0  0  0  0
   -6.2823  -15.7245  -11.5708 C   0  0  0  0  0  0  0  0  0  0  0  0
   -4.8786  -15.2521  -11.2673 C   0  0  0  0  0  0  0  0  0  0  0  0
   -5.0366  -14.8942   -9.7838 C   0  0  0  0  0  0  0  0  0  0  0  0
   -4.8085  -13.8555  -11.9216 C   0  0  0  0  0  0  0  0  0  0  0  0
    0.0896   -7.5384   -9.2610 C   0  0  0  0  0  0  0  0  0  0  0  0
    1.0866   -6.7253   -8.7932 C   0  0  0  0  0  0  0  0  0  0  0  0
    0.6362   -5.4627   -8.3473 C   0  0  0  0  0  0  0  0  0  0  0  0
    1.3781   -4.4359   -7.7179 C   0  0  0  0  0  0  0  0  0  0  0  0
    2.7679   -4.6079   -7.3701 C   0  0  0  0  0  0  0  0  0  0  0  0
    3.3752   -5.7345   -6.8843 C   0  0  0  0  0  0  0  0  0  0  0  0
    4.7550   -5.6313   -6.6322 C   0  0  0  0  0  0  0  0  0  0  0  0
    5.3089   -4.4153   -6.9240 C   0  0  0  0  0  0  0  0  0  0  0  0
    7.0179   -4.0800   -6.7827 S   0  0  0  0  0  0  0  0  0  0  0  0
    7.0612   -2.2612   -6.9492 C   0  0  0  0  0  0  0  0  0  0  0  0
    6.5698   -1.5569   -5.7009 C   0  0  0  0  0  0  0  0  0  0  0  0
    4.0142   -3.2086   -7.5714 Se  0  0  0  0  0  2  0  0  0  0  0  0
    0.6797   -3.2699   -7.4224 C   0  0  0  0  0  0  0  0  0  0  0  0
   -0.7033   -3.1036   -7.6667 C   0  0  0  0  0  0  0  0  0  0  0  0
   -1.4594   -4.1504   -8.2319 C   0  0  0  0  0  0  0  0  0  0  0  0
   -2.8992   -4.0546   -8.3675 C   0  0  0  0  0  0  0  0  0  0  0  0
   -3.7695   -3.5221   -7.4528 C   0  0  0  0  0  0  0  0  0  0  0  0
   -5.1312   -3.5624   -7.8074 C   0  0  0  0  0  0  0  0  0  0  0  0
   -5.3920   -4.1336   -9.0152 C   0  0  0  0  0  0  0  0  0  0  0  0
   -6.9900   -4.4048   -9.6942 S   0  0  0  0  0  0  0  0  0  0  0  0
   -7.4444   -5.9172   -8.7543 C   0  0  0  0  0  0  0  0  0  0  0  0
   -6.5913   -7.1088   -9.1337 C   0  0  0  0  0  0  0  0  0  0  0  0
   -3.8164   -4.6960   -9.8782 Se  0  0  0  0  0  2  0  0  0  0  0  0
   -0.7510   -5.2905   -8.5818 C   0  0  0  0  0  0  0  0  0  0  0  0
   -1.4608   -6.7111   -9.2845 S   0  0  0  0  0  0  0  0  0  0  0  0
   -1.1739   -1.8426   -7.2445 C   0  0  0  0  0  0  0  0  0  0  0  0
   -0.2204   -1.0680   -6.6483 C   0  0  0  0  0  0  0  0  0  0  0  0
    1.3403   -1.8683   -6.6215 S   0  0  0  0  0  0  0  0  0  0  0  0
   -0.4237    0.1735   -5.9793 C   0  0  0  0  0  0  0  0  0  0  0  0
   -1.5376    0.9928   -6.0356 C   0  0  0  0  0  0  0  0  0  0  0  0
   -2.6352    0.8357   -6.9968 C   0  0  0  0  0  0  0  0  0  0  0  0
   -2.3862    0.8428   -8.3666 C   0  0  0  0  0  0  0  0  0  0  0  0
   -3.4233    0.6273   -9.2537 C   0  0  0  0  0  0  0  0  0  0  0  0
   -4.7064    0.3999   -8.7859 C   0  0  0  0  0  0  0  0  0  0  0  0
   -4.9746    0.4109   -7.4232 C   0  0  0  0  0  0  0  0  0  0  0  0
   -6.3738    0.2197   -6.9145 C   0  0  0  0  0  0  0  0  0  0  0  0
   -7.0712    1.5733   -6.7657 C   0  0  0  0  0  0  0  0  0  0  0  0
   -3.9322    0.6422   -6.5369 C   0  0  0  0  0  0  0  0  0  0  0  0
   -1.5018    1.9725   -5.0267 C   0  0  0  0  0  0  0  0  0  0  0  0
   -2.6437    3.2008   -4.5345 S   0  0  0  0  0  0  0  0  0  0  0  0
   -1.6098    3.5878   -3.1993 C   0  0  0  0  0  0  0  0  0  0  0  0
   -1.6321    4.3642   -2.0301 C   0  0  0  0  0  0  0  0  0  0  0  0
   -2.6445    5.1908   -1.4974 C   0  0  0  0  0  0  0  0  0  0  0  0
   -2.4967    5.6899   -0.1614 C   0  0  0  0  0  0  0  0  0  0  0  0
   -3.5469    6.3912    0.2362 N   0  0  0  0  0  0  0  0  0  0  0  0
   -4.6253    6.4272   -0.9708 S   0  0  0  0  0  0  0  0  0  0  0  0
   -3.7972    5.5428   -2.0454 N   0  0  0  0  0  0  0  0  0  0  0  0
   -1.3059    5.4111    0.5429 C   0  0  0  0  0  0  0  0  0  0  0  0
   -0.9063    5.7548    1.8446 C   0  0  0  0  0  0  0  0  0  0  0  0
   -1.5492    6.5253    3.2566 S   0  0  0  0  0  0  0  0  0  0  0  0
   -0.0592    6.1673    4.0947 C   0  0  0  0  0  0  0  0  0  0  0  0
    0.3546    6.3643    5.4222 C   0  0  0  0  0  0  0  0  0  0  0  0
   -0.4223    7.0490    6.4707 C   0  0  0  0  0  0  0  0  0  0  0  0
   -0.1652    8.3859    6.7496 C   0  0  0  0  0  0  0  0  0  0  0  0
   -0.8205    9.0067    7.7970 C   0  0  0  0  0  0  0  0  0  0  0  0
   -1.7167    8.2961    8.5750 C   0  0  0  0  0  0  0  0  0  0  0  0
   -1.9971    6.9634    8.2959 C   0  0  0  0  0  0  0  0  0  0  0  0
   -2.9854    6.2093    9.1371 C   0  0  0  0  0  0  0  0  0  0  0  0
   -4.4131    6.4627    8.6513 C   0  0  0  0  0  0  0  0  0  0  0  0
   -1.3579    6.3531    7.2267 C   0  0  0  0  0  0  0  0  0  0  0  0
    1.6180    5.8519    5.6417 C   0  0  0  0  0  0  0  0  0  0  0  0
    2.3197    5.1475    4.1915 S   0  0  0  0  0  0  0  0  0  0  0  0
    0.8837    5.5110    3.2987 C   0  0  0  0  0  0  0  0  0  0  0  0
    0.3932    5.2726    2.0092 C   0  0  0  0  0  0  0  0  0  0  0  0
    0.8107    4.6360    0.8705 N   0  0  0  0  0  0  0  0  0  0  0  0
   -0.2328    4.6822   -0.0442 C   0  0  0  0  0  0  0  0  0  0  0  0
   -0.4356    4.0756   -1.3133 C   0  0  0  0  0  0  0  0  0  0  0  0
    0.2916    3.1511   -2.0466 N   0  0  0  0  0  0  0  0  0  0  0  0
   -0.4323    2.8388   -3.1650 C   0  0  0  0  0  0  0  0  0  0  0  0
   -0.3664    1.9139   -4.2150 C   0  0  0  0  0  0  0  0  0  0  0  0
    0.7014    0.6522   -4.7194 S   0  0  0  0  0  0  0  0  0  0  0  0
    1.3916    2.2992   -1.6595 C   0  0  0  0  0  0  0  0  0  0  0  0
    0.9960    1.3533   -0.5279 C   0  0  0  0  0  0  0  0  0  0  0  0
    2.2281    4.4361    0.6607 C   0  0  0  0  0  0  0  0  0  0  0  0
    2.7673    5.3586   -0.4296 C   0  0  0  0  0  0  0  0  0  0  0  0
    2.3243    5.7579    6.8732 C   0  0  0  0  0  0  0  0  0  0  0  0
    3.6245    5.3886    7.0741 C   0  0  0  0  0  0  0  0  0  0  0  0
    3.9947    5.3152    8.4390 C   0  0  0  0  0  0  0  0  0  0  0  0
    5.2430    4.9518    8.9871 C   0  0  0  0  0  0  0  0  0  0  0  0
    6.3532    4.5032    8.1754 C   0  0  0  0  0  0  0  0  0  0  0  0
    7.6837    4.7495    8.3758 C   0  0  0  0  0  0  0  0  0  0  0  0
    8.5771    4.1076    7.4983 C   0  0  0  0  0  0  0  0  0  0  0  0
    7.9911    3.2974    6.5676 C   0  0  0  0  0  0  0  0  0  0  0  0
    8.8736    2.3934    5.3615 S   0  0  0  0  0  0  0  0  0  0  0  0
    7.4988    1.4939    4.5532 C   0  0  0  0  0  0  0  0  0  0  0  0
    8.0353    0.5885    3.4640 C   0  0  0  0  0  0  0  0  0  0  0  0
    6.1166    3.3126    6.7284 Se  0  0  0  0  0  2  0  0  0  0  0  0
    5.3401    5.0138   10.3759 C   0  0  0  0  0  0  0  0  0  0  0  0
    4.2583    5.3605   11.2300 C   0  0  0  0  0  0  0  0  0  0  0  0
    2.9863    5.6574   10.6816 C   0  0  0  0  0  0  0  0  0  0  0  0
    1.8197    5.8905   11.5009 C   0  0  0  0  0  0  0  0  0  0  0  0
    1.5243    5.3275   12.7167 C   0  0  0  0  0  0  0  0  0  0  0  0
    0.3112    5.7238   13.3095 C   0  0  0  0  0  0  0  0  0  0  0  0
   -0.4128    6.6243   12.5819 C   0  0  0  0  0  0  0  0  0  0  0  0
   -1.9520    7.3690   12.9604 S   0  0  0  0  0  0  0  0  0  0  0  0
   -2.7640    6.0871   13.9845 C   0  0  0  0  0  0  0  0  0  0  0  0
   -3.0536    4.8269   13.1943 C   0  0  0  0  0  0  0  0  0  0  0  0
    0.4212    7.0495   10.9581 Se  0  0  0  0  0  2  0  0  0  0  0  0
    2.9196    5.6624    9.2918 C   0  0  0  0  0  0  0  0  0  0  0  0
    1.4858    6.0410    8.3838 S   0  0  0  0  0  0  0  0  0  0  0  0
    4.6295    5.3496   12.5892 C   0  0  0  0  0  0  0  0  0  0  0  0
    5.9232    4.9564   12.8142 C   0  0  0  0  0  0  0  0  0  0  0  0
    6.7614    4.6295   11.2987 S   0  0  0  0  0  0  0  0  0  0  0  0
    6.6801    4.8048   14.0016 C   0  0  0  0  0  0  0  0  0  0  0  0
    6.3089    4.8036   15.3148 C   0  0  0  0  0  0  0  0  0  0  0  0
    7.3470    4.6673   16.2654 C   0  0  0  0  0  0  0  0  0  0  0  0
    8.2045    4.5431   17.0172 N   0  0  0  0  0  0  0  0  0  0  0  0
    4.9518    4.8579   15.9007 C   0  0  0  0  0  0  0  0  0  0  0  0
    3.9030    4.7817   15.3040 O   0  0  0  0  0  0  0  0  0  0  0  0
    5.0382    4.9780   17.2306 O   0  0  0  0  0  0  0  0  0  0  0  0
    3.8190    4.9799   17.9685 C   0  0  0  0  0  0  0  0  0  0  0  0
    3.3143    3.5643   18.2108 C   0  0  0  0  0  0  0  0  0  0  0  0
    1.1876   -9.1561  -10.1257 H   0  0  0  0  0  0  0  0  0  0  0  0
   -1.6644  -13.2130  -12.1125 H   0  0  0  0  0  0  0  0  0  0  0  0
   -4.8959  -10.5488   -9.2585 H   0  0  0  0  0  0  0  0  0  0  0  0
   -6.6011  -12.4787  -11.5390 H   0  0  0  0  0  0  0  0  0  0  0  0
   -6.7695  -13.6112   -9.1335 H   0  0  0  0  0  0  0  0  0  0  0  0
   -8.1918  -15.0371  -10.8222 H   0  0  0  0  0  0  0  0  0  0  0  0
   -6.5187  -16.4665  -12.3107 H   0  0  0  0  0  0  0  0  0  0  0  0
   -4.0676  -15.9230  -11.5375 H   0  0  0  0  0  0  0  0  0  0  0  0
   -5.2376  -15.7698   -9.1687 H   0  0  0  0  0  0  0  0  0  0  0  0
   -4.1958  -14.3428   -9.3672 H   0  0  0  0  0  0  0  0  0  0  0  0
   -4.9613  -13.8823  -12.9989 H   0  0  0  0  0  0  0  0  0  0  0  0
    2.1119   -7.0447   -8.7477 H   0  0  0  0  0  0  0  0  0  0  0  0
    2.8172   -6.6236   -6.6431 H   0  0  0  0  0  0  0  0  0  0  0  0
    5.3378   -6.4435   -6.2334 H   0  0  0  0  0  0  0  0  0  0  0  0
    6.4589   -2.0026   -7.8258 H   0  0  0  0  0  0  0  0  0  0  0  0
    8.1062   -2.0279   -7.1510 H   0  0  0  0  0  0  0  0  0  0  0  0
    7.1683   -1.8481   -4.8410 H   0  0  0  0  0  0  0  0  0  0  0  0
    6.6438   -0.4796   -5.8333 H   0  0  0  0  0  0  0  0  0  0  0  0
    5.5277   -1.8081   -5.5019 H   0  0  0  0  0  0  0  0  0  0  0  0
   -3.4429   -3.1501   -6.4966 H   0  0  0  0  0  0  0  0  0  0  0  0
   -5.9113   -3.1845   -7.1687 H   0  0  0  0  0  0  0  0  0  0  0  0
   -7.3526   -5.6777   -7.6955 H   0  0  0  0  0  0  0  0  0  0  0  0
   -8.4922   -6.0808   -9.0018 H   0  0  0  0  0  0  0  0  0  0  0  0
   -5.5417   -6.9201   -8.9059 H   0  0  0  0  0  0  0  0  0  0  0  0
   -6.9045   -7.9826   -8.5664 H   0  0  0  0  0  0  0  0  0  0  0  0
   -6.6830   -7.3218  -10.1968 H   0  0  0  0  0  0  0  0  0  0  0  0
   -2.1903   -1.5263   -7.3686 H   0  0  0  0  0  0  0  0  0  0  0  0
   -1.3804    1.0054   -8.7251 H   0  0  0  0  0  0  0  0  0  0  0  0
   -3.2293    0.6269  -10.3161 H   0  0  0  0  0  0  0  0  0  0  0  0
   -5.5079    0.2095   -9.4847 H   0  0  0  0  0  0  0  0  0  0  0  0
   -6.9377   -0.4043   -7.6109 H   0  0  0  0  0  0  0  0  0  0  0  0
   -6.3504   -0.2800   -5.9437 H   0  0  0  0  0  0  0  0  0  0  0  0
   -7.1212    2.0795   -7.7270 H   0  0  0  0  0  0  0  0  0  0  0  0
   -6.5219    2.2074   -6.0733 H   0  0  0  0  0  0  0  0  0  0  0  0
   -8.0829    1.4404   -6.3898 H   0  0  0  0  0  0  0  0  0  0  0  0
   -4.1223    0.6442   -5.4729 H   0  0  0  0  0  0  0  0  0  0  0  0
    0.5598    8.9255    6.1577 H   0  0  0  0  0  0  0  0  0  0  0  0
   -0.6162   10.0437    8.0186 H   0  0  0  0  0  0  0  0  0  0  0  0
   -2.2014    8.7756    9.4142 H   0  0  0  0  0  0  0  0  0  0  0  0
   -2.7698    5.1399    9.0920 H   0  0  0  0  0  0  0  0  0  0  0  0
   -2.8925    6.5363   10.1758 H   0  0  0  0  0  0  0  0  0  0  0  0
   -4.5210    6.1482    7.6156 H   0  0  0  0  0  0  0  0  0  0  0  0
   -4.6509    7.5221    8.7132 H   0  0  0  0  0  0  0  0  0  0  0  0
   -5.1275    5.9106    9.2580 H   0  0  0  0  0  0  0  0  0  0  0  0
   -1.5558    5.3149    6.9998 H   0  0  0  0  0  0  0  0  0  0  0  0
    1.6558    1.7114   -2.5422 H   0  0  0  0  0  0  0  0  0  0  0  0
    2.2647    2.8974   -1.4010 H   0  0  0  0  0  0  0  0  0  0  0  0
    1.8477    0.7451   -0.2352 H   0  0  0  0  0  0  0  0  0  0  0  0
    0.6395    1.9051    0.3387 H   0  0  0  0  0  0  0  0  0  0  0  0
    0.1987    0.6932   -0.8612 H   0  0  0  0  0  0  0  0  0  0  0  0
    2.4473    3.3893    0.4478 H   0  0  0  0  0  0  0  0  0  0  0  0
    2.7161    4.6763    1.6087 H   0  0  0  0  0  0  0  0  0  0  0  0
    2.6182    6.3971   -0.1433 H   0  0  0  0  0  0  0  0  0  0  0  0
    3.8314    5.1870   -0.5687 H   0  0  0  0  0  0  0  0  0  0  0  0
    2.2562    5.1928   -1.3752 H   0  0  0  0  0  0  0  0  0  0  0  0
    4.2977    5.2074    6.2523 H   0  0  0  0  0  0  0  0  0  0  0  0
    8.0329    5.4285    9.1349 H   0  0  0  0  0  0  0  0  0  0  0  0
    9.6438    4.2373    7.5540 H   0  0  0  0  0  0  0  0  0  0  0  0
    6.9863    0.9207    5.3306 H   0  0  0  0  0  0  0  0  0  0  0  0
    6.8153    2.2462    4.1474 H   0  0  0  0  0  0  0  0  0  0  0  0
    8.7248   -0.1405    3.8829 H   0  0  0  0  0  0  0  0  0  0  0  0
    8.5634    1.1698    2.7118 H   0  0  0  0  0  0  0  0  0  0  0  0
    7.2142    0.0590    2.9859 H   0  0  0  0  0  0  0  0  0  0  0  0
    2.1532    4.5925   13.1884 H   0  0  0  0  0  0  0  0  0  0  0  0
   -0.0024    5.3381   14.2643 H   0  0  0  0  0  0  0  0  0  0  0  0
   -2.1308    5.8946   14.8490 H   0  0  0  0  0  0  0  0  0  0  0  0
   -3.6843    6.5644   14.3198 H   0  0  0  0  0  0  0  0  0  0  0  0
   -3.5549    4.1000   13.8303 H   0  0  0  0  0  0  0  0  0  0  0  0
   -2.1311    4.3859   12.8217 H   0  0  0  0  0  0  0  0  0  0  0  0
   -3.6967    5.0508   12.3463 H   0  0  0  0  0  0  0  0  0  0  0  0
    3.9761    5.6509   13.3835 H   0  0  0  0  0  0  0  0  0  0  0  0
    7.7412    4.6545   13.8241 H   0  0  0  0  0  0  0  0  0  0  0  0
    3.0712    5.5626   17.4192 H   0  0  0  0  0  0  0  0  0  0  0  0
    4.0627    5.4773   18.9091 H   0  0  0  0  0  0  0  0  0  0  0  0
    2.4349    3.5948   18.8477 H   0  0  0  0  0  0  0  0  0  0  0  0
    3.0506    3.0946   17.2660 H   0  0  0  0  0  0  0  0  0  0  0  0
    4.0862    2.9721   18.6964 H   0  0  0  0  0  0  0  0  0  0  0  0
  1  2  2  0  0  0  0
  2  3  1  0  0  0  0
  3  4  2  0  0  0  0
  3  5  1  0  0  0  0
  5  6  2  0  0  0  0
  6  7  1  0  0  0  0
  7  8  2  0  0  0  0
  8  9  1  0  0  0  0
  9 10  2  0  0  0  0
 10 11  1  0  0  0  0
 11 12  2  0  0  0  0
 12 13  1  0  0  0  0
 13 14  3  0  0  0  0
 12 15  1  0  0  0  0
 15 16  3  0  0  0  0
  8 17  1  0  0  0  0
 17 18  1  0  0  0  0
 18 19  1  0  0  0  0
 19 20  2  0  0  0  0
 20 21  1  0  0  0  0
 21 22  1  0  0  0  0
 21 23  1  0  0  0  0
  1 24  1  0  0  0  0
 24 25  2  0  0  0  0
 25 26  1  0  0  0  0
 26 27  2  0  0  0  0
 27 28  1  0  0  0  0
 28 29  2  0  0  0  0
 29 30  1  0  0  0  0
 30 31  2  0  0  0  0
 31 32  1  0  0  0  0
 32 33  1  0  0  0  0
 33 34  1  0  0  0  0
 31 35  1  0  0  0  0
 27 36  1  0  0  0  0
 36 37  2  0  0  0  0
 37 38  1  0  0  0  0
 38 39  1  0  0  0  0
 39 40  2  0  0  0  0
 40 41  1  0  0  0  0
 41 42  2  0  0  0  0
 42 43  1  0  0  0  0
 43 44  1  0  0  0  0
 44 45  1  0  0  0  0
 42 46  1  0  0  0  0
 38 47  2  0  0  0  0
 47 48  1  0  0  0  0
 37 49  1  0  0  0  0
 49 50  2  0  0  0  0
 50 51  1  0  0  0  0
 50 52  1  0  0  0  0
 52 53  2  0  0  0  0
 53 54  1  0  0  0  0
 54 55  2  0  0  0  0
 55 56  1  0  0  0  0
 56 57  2  0  0  0  0
 57 58  1  0  0  0  0
 58 59  1  0  0  0  0
 59 60  1  0  0  0  0
 58 61  2  0  0  0  0
 53 62  1  0  0  0  0
 62 63  1  0  0  0  0
 63 64  1  0  0  0  0
 64 65  1  0  0  0  0
 65 66  1  0  0  0  0
 66 67  1  0  0  0  0
 67 68  2  0  0  0  0
 68 69  1  0  0  0  0
 69 70  1  0  0  0  0
 67 71  1  0  0  0  0
 71 72  1  0  0  0  0
 72 73  1  0  0  0  0
 73 74  1  0  0  0  0
 74 75  1  0  0  0  0
 75 76  1  0  0  0  0
 76 77  2  0  0  0  0
 77 78  1  0  0  0  0
 78 79  2  0  0  0  0
 79 80  1  0  0  0  0
 80 81  1  0  0  0  0
 81 82  1  0  0  0  0
 80 83  2  0  0  0  0
 75 84  2  0  0  0  0
 84 85  1  0  0  0  0
 85 86  1  0  0  0  0
 86 87  1  0  0  0  0
 87 88  1  0  0  0  0
 88 89  1  0  0  0  0
 89 90  1  0  0  0  0
 90 91  1  0  0  0  0
 91 92  1  0  0  0  0
 92 93  1  0  0  0  0
 93 94  1  0  0  0  0
 91 95  1  0  0  0  0
 95 96  1  0  0  0  0
 88 97  1  0  0  0  0
 97 98  1  0  0  0  0
 84 99  1  0  0  0  0
 99100  2  0  0  0  0
100101  1  0  0  0  0
101102  2  0  0  0  0
102103  1  0  0  0  0
103104  2  0  0  0  0
104105  1  0  0  0  0
105106  2  0  0  0  0
106107  1  0  0  0  0
107108  1  0  0  0  0
108109  1  0  0  0  0
106110  1  0  0  0  0
102111  1  0  0  0  0
111112  2  0  0  0  0
112113  1  0  0  0  0
113114  1  0  0  0  0
114115  2  0  0  0  0
115116  1  0  0  0  0
116117  2  0  0  0  0
117118  1  0  0  0  0
118119  1  0  0  0  0
119120  1  0  0  0  0
117121  1  0  0  0  0
113122  2  0  0  0  0
122123  1  0  0  0  0
112124  1  0  0  0  0
124125  2  0  0  0  0
125126  1  0  0  0  0
125127  1  0  0  0  0
127128  2  0  0  0  0
128129  1  0  0  0  0
129130  3  0  0  0  0
128131  1  0  0  0  0
131132  2  0  0  0  0
131133  1  0  0  0  0
133134  1  0  0  0  0
134135  1  0  0  0  0
 11  2  1  0  0  0  0
 23 17  1  0  0  0  0
 48 24  1  0  0  0  0
 94 52  1  0  0  0  0
123 99  1  0  0  0  0
 10  5  1  0  0  0  0
 22 18  1  0  0  0  0
 47 26  1  0  0  0  0
 61 54  1  0  0  0  0
 93 62  2  0  0  0  0
122101  1  0  0  0  0
 23  7  1  0  0  0  0
 35 28  1  0  0  0  0
 51 36  1  0  0  0  0
 92 64  2  0  0  0  0
110103  1  0  0  0  0
126111  1  0  0  0  0
 46 39  1  0  0  0  0
 90 65  2  0  0  0  0
121114  1  0  0  0  0
 70 66  2  0  0  0  0
 89 71  2  0  0  0  0
 87 72  2  0  0  0  0
 86 74  2  0  0  0  0
 83 76  1  0  0  0  0
  1136  1  0  0  0  0
  6137  1  0  0  0  0
  9138  1  0  0  0  0
 17139  1  0  0  0  0
 18140  1  0  0  0  0
 19141  1  0  0  0  0
 20142  1  0  0  0  0
 21143  1  0  0  0  0
 22144  1  0  0  0  0
 22145  1  0  0  0  0
 23146  1  0  0  0  0
 25147  1  0  0  0  0
 29148  1  0  0  0  0
 30149  1  0  0  0  0
 33150  1  0  0  0  0
 33151  1  0  0  0  0
 34152  1  0  0  0  0
 34153  1  0  0  0  0
 34154  1  0  0  0  0
 40155  1  0  0  0  0
 41156  1  0  0  0  0
 44157  1  0  0  0  0
 44158  1  0  0  0  0
 45159  1  0  0  0  0
 45160  1  0  0  0  0
 45161  1  0  0  0  0
 49162  1  0  0  0  0
 55163  1  0  0  0  0
 56164  1  0  0  0  0
 57165  1  0  0  0  0
 59166  1  0  0  0  0
 59167  1  0  0  0  0
 60168  1  0  0  0  0
 60169  1  0  0  0  0
 60170  1  0  0  0  0
 61171  1  0  0  0  0
 77172  1  0  0  0  0
 78173  1  0  0  0  0
 79174  1  0  0  0  0
 81175  1  0  0  0  0
 81176  1  0  0  0  0
 82177  1  0  0  0  0
 82178  1  0  0  0  0
 82179  1  0  0  0  0
 83180  1  0  0  0  0
 95181  1  0  0  0  0
 95182  1  0  0  0  0
 96183  1  0  0  0  0
 96184  1  0  0  0  0
 96185  1  0  0  0  0
 97186  1  0  0  0  0
 97187  1  0  0  0  0
 98188  1  0  0  0  0
 98189  1  0  0  0  0
 98190  1  0  0  0  0
100191  1  0  0  0  0
104192  1  0  0  0  0
105193  1  0  0  0  0
108194  1  0  0  0  0
108195  1  0  0  0  0
109196  1  0  0  0  0
109197  1  0  0  0  0
109198  1  0  0  0  0
115199  1  0  0  0  0
116200  1  0  0  0  0
119201  1  0  0  0  0
119202  1  0  0  0  0
120203  1  0  0  0  0
120204  1  0  0  0  0
120205  1  0  0  0  0
124206  1  0  0  0  0
127207  1  0  0  0  0
134208  1  0  0  0  0
134209  1  0  0  0  0
135210  1  0  0  0  0
135211  1  0  0  0  0
135212  1  0  0  0  0
M  END
