
  xtb     02132206153D
 energy: -312.300625392159 gnorm: 0.000676424685 xtb: 6.4.1 (unknown)
185208  0     0  0            999 V2000
    0.8851   -6.3951   -7.8106 C   0  0  0  0  0  0  0  0  0  0  0  0
    0.7391   -5.6176   -8.9116 C   0  0  0  0  0  0  0  0  0  0  0  0
    0.6416   -6.2303  -10.2673 C   0  0  0  0  0  0  0  0  0  0  0  0
    0.9001   -7.3717  -10.5684 O   0  0  0  0  0  0  0  0  0  0  0  0
    0.1024   -5.1642  -11.1341 C   0  0  0  0  0  0  0  0  0  0  0  0
   -0.2675   -5.2777  -12.4729 C   0  0  0  0  0  0  0  0  0  0  0  0
   -0.7408   -4.1121  -13.0257 C   0  0  0  0  0  0  0  0  0  0  0  0
   -0.8358   -2.9141  -12.3034 C   0  0  0  0  0  0  0  0  0  0  0  0
   -0.4631   -2.7825  -10.9876 C   0  0  0  0  0  0  0  0  0  0  0  0
    0.0110   -3.9603  -10.4027 C   0  0  0  0  0  0  0  0  0  0  0  0
    0.5275   -4.1902   -9.0575 C   0  0  0  0  0  0  0  0  0  0  0  0
    0.9585   -3.2214   -8.1902 C   0  0  0  0  0  0  0  0  0  0  0  0
    1.7301   -3.4831   -7.0378 C   0  0  0  0  0  0  0  0  0  0  0  0
    2.4086   -3.6257   -6.1228 N   0  0  0  0  0  0  0  0  0  0  0  0
    0.7573   -1.8393   -8.3747 C   0  0  0  0  0  0  0  0  0  0  0  0
    0.5943   -0.7049   -8.4481 N   0  0  0  0  0  0  0  0  0  0  0  0
   -1.3912   -2.1544  -13.4812 C   0  0  0  0  0  0  0  0  0  0  0  0
   -2.9124   -1.8638  -13.5066 C   0  0  0  0  0  0  0  0  0  0  0  0
   -3.5747   -2.9511  -12.6975 C   0  0  0  0  0  0  0  0  0  0  0  0
   -3.4790   -4.0819  -13.3837 C   0  0  0  0  0  0  0  0  0  0  0  0
   -2.7520   -3.7795  -14.6706 C   0  0  0  0  0  0  0  0  0  0  0  0
   -3.2433   -2.3457  -14.9282 C   0  0  0  0  0  0  0  0  0  0  0  0
   -1.2804   -3.4866  -14.2880 C   0  0  0  0  0  0  0  0  0  0  0  0
    0.6052   -6.0310   -6.4641 C   0  0  0  0  0  0  0  0  0  0  0  0
   -0.7209   -4.9702   -6.0795 S   0  0  0  0  0  0  0  0  0  0  0  0
   -0.4098   -5.0822   -4.3630 C   0  0  0  0  0  0  0  0  0  0  0  0
    0.6804   -5.9248   -4.1245 C   0  0  0  0  0  0  0  0  0  0  0  0
    1.2089   -6.2565   -2.8122 C   0  0  0  0  0  0  0  0  0  0  0  0
    0.7863   -5.7580   -1.7720 O   0  0  0  0  0  0  0  0  0  0  0  0
    2.2832   -7.2469   -2.8178 C   0  0  0  0  0  0  0  0  0  0  0  0
    2.8949   -7.7291   -1.6864 C   0  0  0  0  0  0  0  0  0  0  0  0
    2.6012   -7.4317   -0.2602 C   0  0  0  0  0  0  0  0  0  0  0  0
    1.4039   -8.2503    0.2321 C   0  0  0  0  0  0  0  0  0  0  0  0
    4.1260   -8.8753   -2.0906 S   0  0  0  0  0  0  0  0  0  0  0  0
    3.8407   -8.6985   -3.7878 C   0  0  0  0  0  0  0  0  0  0  0  0
    4.6780   -9.4367   -4.7672 C   0  0  0  0  0  0  0  0  0  0  0  0
    5.8687   -8.5787   -5.2064 C   0  0  0  0  0  0  0  0  0  0  0  0
    2.8361   -7.7933   -4.0220 C   0  0  0  0  0  0  0  0  0  0  0  0
    2.3702   -7.3973   -5.3485 C   0  0  0  0  0  0  0  0  0  0  0  0
    2.8650   -7.7918   -6.3913 O   0  0  0  0  0  0  0  0  0  0  0  0
    1.2264   -6.4764   -5.3137 C   0  0  0  0  0  0  0  0  0  0  0  0
   -1.2032   -4.2980   -3.4909 C   0  0  0  0  0  0  0  0  0  0  0  0
   -2.3729   -3.6254   -3.8564 C   0  0  0  0  0  0  0  0  0  0  0  0
   -3.1369   -3.8384   -5.0902 C   0  0  0  0  0  0  0  0  0  0  0  0
   -3.6807   -5.0904   -5.3717 C   0  0  0  0  0  0  0  0  0  0  0  0
   -4.4322   -5.2694   -6.5158 C   0  0  0  0  0  0  0  0  0  0  0  0
   -4.6448   -4.2106   -7.3826 C   0  0  0  0  0  0  0  0  0  0  0  0
   -4.1260   -2.9527   -7.1060 C   0  0  0  0  0  0  0  0  0  0  0  0
   -4.3186   -1.8103   -8.0602 C   0  0  0  0  0  0  0  0  0  0  0  0
   -3.0838   -1.6572   -8.9501 C   0  0  0  0  0  0  0  0  0  0  0  0
   -3.3779   -2.7755   -5.9511 C   0  0  0  0  0  0  0  0  0  0  0  0
   -2.7919   -2.7378   -2.8658 C   0  0  0  0  0  0  0  0  0  0  0  0
   -4.1608   -1.6516   -2.7533 S   0  0  0  0  0  0  0  0  0  0  0  0
   -3.5974   -1.1599   -1.1910 C   0  0  0  0  0  0  0  0  0  0  0  0
   -3.9573   -0.2796   -0.1581 C   0  0  0  0  0  0  0  0  0  0  0  0
   -5.0969    0.5314    0.0417 C   0  0  0  0  0  0  0  0  0  0  0  0
   -5.2176    1.2746    1.2661 C   0  0  0  0  0  0  0  0  0  0  0  0
   -6.3583    1.9407    1.3421 N   0  0  0  0  0  0  0  0  0  0  0  0
   -7.2065    1.6637   -0.0093 S   0  0  0  0  0  0  0  0  0  0  0  0
   -6.1498    0.6819   -0.7454 N   0  0  0  0  0  0  0  0  0  0  0  0
   -4.1297    1.2886    2.1680 C   0  0  0  0  0  0  0  0  0  0  0  0
   -3.8633    2.0844    3.2933 C   0  0  0  0  0  0  0  0  0  0  0  0
   -4.6395    3.3008    4.2495 S   0  0  0  0  0  0  0  0  0  0  0  0
   -3.1560    3.5023    5.1524 C   0  0  0  0  0  0  0  0  0  0  0  0
   -2.7871    4.3869    6.1834 C   0  0  0  0  0  0  0  0  0  0  0  0
   -3.7042    5.4025    6.7076 C   0  0  0  0  0  0  0  0  0  0  0  0
   -4.9937    5.0388    7.0820 C   0  0  0  0  0  0  0  0  0  0  0  0
   -5.8769    6.0051    7.5252 C   0  0  0  0  0  0  0  0  0  0  0  0
   -5.4934    7.3329    7.5826 C   0  0  0  0  0  0  0  0  0  0  0  0
   -4.2110    7.7183    7.2063 C   0  0  0  0  0  0  0  0  0  0  0  0
   -3.7846    9.1623    7.2160 C   0  0  0  0  0  0  0  0  0  0  0  0
   -4.2637    9.9480    8.4348 C   0  0  0  0  0  0  0  0  0  0  0  0
   -3.3259    6.7405    6.7747 C   0  0  0  0  0  0  0  0  0  0  0  0
   -1.4629    4.2009    6.5491 C   0  0  0  0  0  0  0  0  0  0  0  0
   -0.6732    2.9473    5.6055 S   0  0  0  0  0  0  0  0  0  0  0  0
   -2.1283    2.6570    4.7235 C   0  0  0  0  0  0  0  0  0  0  0  0
   -2.5396    1.8328    3.6692 C   0  0  0  0  0  0  0  0  0  0  0  0
   -1.9924    0.8847    2.8462 N   0  0  0  0  0  0  0  0  0  0  0  0
   -2.9556    0.5233    1.9238 C   0  0  0  0  0  0  0  0  0  0  0  0
   -2.9393   -0.3798    0.8319 C   0  0  0  0  0  0  0  0  0  0  0  0
   -2.0293   -1.3447    0.4412 N   0  0  0  0  0  0  0  0  0  0  0  0
   -2.4244   -1.8074   -0.7880 C   0  0  0  0  0  0  0  0  0  0  0  0
   -1.9606   -2.7220   -1.7392 C   0  0  0  0  0  0  0  0  0  0  0  0
   -0.6803   -3.8728   -1.8649 S   0  0  0  0  0  0  0  0  0  0  0  0
   -1.1990   -2.1880    1.2737 C   0  0  0  0  0  0  0  0  0  0  0  0
   -1.8996   -3.5081    1.5946 C   0  0  0  0  0  0  0  0  0  0  0  0
   -0.5598    0.6877    2.8110 C   0  0  0  0  0  0  0  0  0  0  0  0
   -0.0593   -0.1331    3.9996 C   0  0  0  0  0  0  0  0  0  0  0  0
   -0.6969    4.8302    7.5663 C   0  0  0  0  0  0  0  0  0  0  0  0
   -1.1505    5.5205    8.6761 C   0  0  0  0  0  0  0  0  0  0  0  0
   -0.1111    5.9748    9.4771 C   0  0  0  0  0  0  0  0  0  0  0  0
   -0.3364    6.8334   10.9931 S   0  0  0  0  0  0  0  0  0  0  0  0
   -1.3696    8.2272   10.4129 C   0  0  0  0  0  0  0  0  0  0  0  0
   -0.5677    9.1511    9.5186 C   0  0  0  0  0  0  0  0  0  0  0  0
    1.1671    5.6467    8.9967 C   0  0  0  0  0  0  0  0  0  0  0  0
    1.0368    4.6968    7.5409 S   0  0  0  0  0  0  0  0  0  0  0  0
    2.3408    6.1604    9.5542 C   0  0  0  0  0  0  0  0  0  0  0  0
    3.6455    5.9359    9.1987 C   0  0  0  0  0  0  0  0  0  0  0  0
    4.1166    4.8859    8.2914 C   0  0  0  0  0  0  0  0  0  0  0  0
    3.4421    4.1655    7.5747 O   0  0  0  0  0  0  0  0  0  0  0  0
    5.5835    4.8530    8.4335 C   0  0  0  0  0  0  0  0  0  0  0  0
    6.4680    3.9762    7.8114 C   0  0  0  0  0  0  0  0  0  0  0  0
    7.7859    4.1846    8.1408 C   0  0  0  0  0  0  0  0  0  0  0  0
    8.1951    5.1877    9.0289 C   0  0  0  0  0  0  0  0  0  0  0  0
    7.3323    6.0596    9.6507 C   0  0  0  0  0  0  0  0  0  0  0  0
    5.9875    5.8694    9.3241 C   0  0  0  0  0  0  0  0  0  0  0  0
    4.7999    6.6040    9.7561 C   0  0  0  0  0  0  0  0  0  0  0  0
    4.7902    7.7796   10.4638 C   0  0  0  0  0  0  0  0  0  0  0  0
    3.6394    8.5595   10.7014 C   0  0  0  0  0  0  0  0  0  0  0  0
    2.7573    9.2706   10.8932 N   0  0  0  0  0  0  0  0  0  0  0  0
    5.9423    8.4066   10.9787 C   0  0  0  0  0  0  0  0  0  0  0  0
    6.8413    8.9601   11.4312 N   0  0  0  0  0  0  0  0  0  0  0  0
    9.6530    4.8276    8.8889 C   0  0  0  0  0  0  0  0  0  0  0  0
   10.5367    5.7360    7.9986 C   0  0  0  0  0  0  0  0  0  0  0  0
    9.6165    6.3684    6.9842 C   0  0  0  0  0  0  0  0  0  0  0  0
    9.2292    5.4198    6.1420 C   0  0  0  0  0  0  0  0  0  0  0  0
    9.8802    4.1285    6.5723 C   0  0  0  0  0  0  0  0  0  0  0  0
   11.2102    4.6665    7.1237 C   0  0  0  0  0  0  0  0  0  0  0  0
    9.1969    3.7106    7.8980 C   0  0  0  0  0  0  0  0  0  0  0  0
    1.2089   -7.4180   -7.9775 H   0  0  0  0  0  0  0  0  0  0  0  0
   -0.1678   -6.2154  -12.9969 H   0  0  0  0  0  0  0  0  0  0  0  0
   -0.5327   -1.8544  -10.4456 H   0  0  0  0  0  0  0  0  0  0  0  0
   -0.8023   -1.3035  -13.8178 H   0  0  0  0  0  0  0  0  0  0  0  0
   -3.1803   -0.8427  -13.2486 H   0  0  0  0  0  0  0  0  0  0  0  0
   -3.9853   -2.8012  -11.7167 H   0  0  0  0  0  0  0  0  0  0  0  0
   -3.7901   -5.0671  -13.0890 H   0  0  0  0  0  0  0  0  0  0  0  0
   -2.8749   -4.5023  -15.4728 H   0  0  0  0  0  0  0  0  0  0  0  0
   -2.6817   -1.8273  -15.7040 H   0  0  0  0  0  0  0  0  0  0  0  0
   -4.3080   -2.2992  -15.1517 H   0  0  0  0  0  0  0  0  0  0  0  0
   -0.6158   -3.5056  -15.1495 H   0  0  0  0  0  0  0  0  0  0  0  0
    3.4785   -7.6636    0.3467 H   0  0  0  0  0  0  0  0  0  0  0  0
    2.3634   -6.3708   -0.1627 H   0  0  0  0  0  0  0  0  0  0  0  0
    0.5120   -7.9699   -0.3214 H   0  0  0  0  0  0  0  0  0  0  0  0
    1.2323   -8.0559    1.2873 H   0  0  0  0  0  0  0  0  0  0  0  0
    1.5856   -9.3145    0.0971 H   0  0  0  0  0  0  0  0  0  0  0  0
    4.0737   -9.6709   -5.6452 H   0  0  0  0  0  0  0  0  0  0  0  0
    5.0387  -10.3637   -4.3168 H   0  0  0  0  0  0  0  0  0  0  0  0
    6.4877   -9.1364   -5.9036 H   0  0  0  0  0  0  0  0  0  0  0  0
    6.4743   -8.2949   -4.3481 H   0  0  0  0  0  0  0  0  0  0  0  0
    5.5121   -7.6797   -5.7017 H   0  0  0  0  0  0  0  0  0  0  0  0
   -3.5130   -5.9109   -4.6891 H   0  0  0  0  0  0  0  0  0  0  0  0
   -4.8566   -6.2384   -6.7335 H   0  0  0  0  0  0  0  0  0  0  0  0
   -5.2285   -4.3614   -8.2794 H   0  0  0  0  0  0  0  0  0  0  0  0
   -5.1966   -1.9922   -8.6831 H   0  0  0  0  0  0  0  0  0  0  0  0
   -4.4788   -0.8852   -7.5037 H   0  0  0  0  0  0  0  0  0  0  0  0
   -2.8821   -2.5880   -9.4782 H   0  0  0  0  0  0  0  0  0  0  0  0
   -2.2119   -1.4091   -8.3491 H   0  0  0  0  0  0  0  0  0  0  0  0
   -3.2343   -0.8654   -9.6804 H   0  0  0  0  0  0  0  0  0  0  0  0
   -2.9657   -1.8037   -5.7209 H   0  0  0  0  0  0  0  0  0  0  0  0
   -5.2948    4.0035    7.0340 H   0  0  0  0  0  0  0  0  0  0  0  0
   -6.8764    5.7216    7.8200 H   0  0  0  0  0  0  0  0  0  0  0  0
   -6.2038    8.0740    7.9143 H   0  0  0  0  0  0  0  0  0  0  0  0
   -2.6946    9.2073    7.1636 H   0  0  0  0  0  0  0  0  0  0  0  0
   -4.1725    9.6423    6.3118 H   0  0  0  0  0  0  0  0  0  0  0  0
   -3.8132   10.9380    8.4369 H   0  0  0  0  0  0  0  0  0  0  0  0
   -3.9846    9.4408    9.3556 H   0  0  0  0  0  0  0  0  0  0  0  0
   -5.3430   10.0733    8.4254 H   0  0  0  0  0  0  0  0  0  0  0  0
   -2.3286    7.0200    6.4640 H   0  0  0  0  0  0  0  0  0  0  0  0
   -0.2669   -2.3883    0.7366 H   0  0  0  0  0  0  0  0  0  0  0  0
   -0.9819   -1.6767    2.2041 H   0  0  0  0  0  0  0  0  0  0  0  0
   -2.0758   -4.0834    0.6905 H   0  0  0  0  0  0  0  0  0  0  0  0
   -1.2744   -4.0979    2.2590 H   0  0  0  0  0  0  0  0  0  0  0  0
   -2.8534   -3.3198    2.0836 H   0  0  0  0  0  0  0  0  0  0  0  0
   -0.0870    1.6757    2.8509 H   0  0  0  0  0  0  0  0  0  0  0  0
   -0.2891    0.2307    1.8586 H   0  0  0  0  0  0  0  0  0  0  0  0
   -0.1775    0.4306    4.9206 H   0  0  0  0  0  0  0  0  0  0  0  0
   -0.6084   -1.0661    4.1062 H   0  0  0  0  0  0  0  0  0  0  0  0
    0.9953   -0.3585    3.8696 H   0  0  0  0  0  0  0  0  0  0  0  0
   -2.1916    5.6558    8.9056 H   0  0  0  0  0  0  0  0  0  0  0  0
   -1.6831    8.7317   11.3258 H   0  0  0  0  0  0  0  0  0  0  0  0
   -2.2406    7.8146    9.9050 H   0  0  0  0  0  0  0  0  0  0  0  0
   -0.2802    8.6393    8.6013 H   0  0  0  0  0  0  0  0  0  0  0  0
    0.3369    9.4787   10.0269 H   0  0  0  0  0  0  0  0  0  0  0  0
   -1.1618   10.0249    9.2604 H   0  0  0  0  0  0  0  0  0  0  0  0
    2.1578    6.8332   10.3851 H   0  0  0  0  0  0  0  0  0  0  0  0
    6.1108    3.2150    7.1354 H   0  0  0  0  0  0  0  0  0  0  0  0
    7.6603    6.8229   10.3368 H   0  0  0  0  0  0  0  0  0  0  0  0
   10.1597    4.5230    9.8025 H   0  0  0  0  0  0  0  0  0  0  0  0
   11.1836    6.4145    8.5481 H   0  0  0  0  0  0  0  0  0  0  0  0
    9.3058    7.3962    7.0169 H   0  0  0  0  0  0  0  0  0  0  0  0
    8.5299    5.4966    5.3301 H   0  0  0  0  0  0  0  0  0  0  0  0
    9.9301    3.3428    5.8228 H   0  0  0  0  0  0  0  0  0  0  0  0
   11.7728    3.9295    7.6951 H   0  0  0  0  0  0  0  0  0  0  0  0
   11.8449    5.0944    6.3491 H   0  0  0  0  0  0  0  0  0  0  0  0
    9.4061    2.6762    8.1646 H   0  0  0  0  0  0  0  0  0  0  0  0
  1  2  2  0  0  0  0
  2  3  1  0  0  0  0
  3  4  2  0  0  0  0
  3  5  1  0  0  0  0
  5  6  2  0  0  0  0
  6  7  1  0  0  0  0
  7  8  2  0  0  0  0
  8  9  1  0  0  0  0
  9 10  2  0  0  0  0
 10 11  1  0  0  0  0
 11 12  2  0  0  0  0
 12 13  1  0  0  0  0
 13 14  3  0  0  0  0
 12 15  1  0  0  0  0
 15 16  3  0  0  0  0
  8 17  1  0  0  0  0
 17 18  1  0  0  0  0
 18 19  1  0  0  0  0
 19 20  2  0  0  0  0
 20 21  1  0  0  0  0
 21 22  1  0  0  0  0
 21 23  1  0  0  0  0
  1 24  1  0  0  0  0
 24 25  1  0  0  0  0
 25 26  1  0  0  0  0
 26 27  2  0  0  0  0
 27 28  1  0  0  0  0
 28 29  2  0  0  0  0
 28 30  1  0  0  0  0
 30 31  2  0  0  0  0
 31 32  1  0  0  0  0
 32 33  1  0  0  0  0
 31 34  1  0  0  0  0
 34 35  1  0  0  0  0
 35 36  1  0  0  0  0
 36 37  1  0  0  0  0
 35 38  2  0  0  0  0
 38 39  1  0  0  0  0
 39 40  2  0  0  0  0
 39 41  1  0  0  0  0
 26 42  1  0  0  0  0
 42 43  2  0  0  0  0
 43 44  1  0  0  0  0
 44 45  2  0  0  0  0
 45 46  1  0  0  0  0
 46 47  2  0  0  0  0
 47 48  1  0  0  0  0
 48 49  1  0  0  0  0
 49 50  1  0  0  0  0
 48 51  2  0  0  0  0
 43 52  1  0  0  0  0
 52 53  1  0  0  0  0
 53 54  1  0  0  0  0
 54 55  1  0  0  0  0
 55 56  1  0  0  0  0
 56 57  1  0  0  0  0
 57 58  2  0  0  0  0
 58 59  1  0  0  0  0
 59 60  1  0  0  0  0
 57 61  1  0  0  0  0
 61 62  1  0  0  0  0
 62 63  1  0  0  0  0
 63 64  1  0  0  0  0
 64 65  1  0  0  0  0
 65 66  1  0  0  0  0
 66 67  2  0  0  0  0
 67 68  1  0  0  0  0
 68 69  2  0  0  0  0
 69 70  1  0  0  0  0
 70 71  1  0  0  0  0
 71 72  1  0  0  0  0
 70 73  2  0  0  0  0
 65 74  2  0  0  0  0
 74 75  1  0  0  0  0
 75 76  1  0  0  0  0
 76 77  1  0  0  0  0
 77 78  1  0  0  0  0
 78 79  1  0  0  0  0
 79 80  1  0  0  0  0
 80 81  1  0  0  0  0
 81 82  1  0  0  0  0
 82 83  1  0  0  0  0
 83 84  1  0  0  0  0
 81 85  1  0  0  0  0
 85 86  1  0  0  0  0
 78 87  1  0  0  0  0
 87 88  1  0  0  0  0
 74 89  1  0  0  0  0
 89 90  2  0  0  0  0
 90 91  1  0  0  0  0
 91 92  1  0  0  0  0
 92 93  1  0  0  0  0
 93 94  1  0  0  0  0
 91 95  2  0  0  0  0
 95 96  1  0  0  0  0
 95 97  1  0  0  0  0
 97 98  2  0  0  0  0
 98 99  1  0  0  0  0
 99100  2  0  0  0  0
 99101  1  0  0  0  0
101102  2  0  0  0  0
102103  1  0  0  0  0
103104  2  0  0  0  0
104105  1  0  0  0  0
105106  2  0  0  0  0
106107  1  0  0  0  0
107108  2  0  0  0  0
108109  1  0  0  0  0
109110  3  0  0  0  0
108111  1  0  0  0  0
111112  3  0  0  0  0
104113  1  0  0  0  0
113114  1  0  0  0  0
114115  1  0  0  0  0
115116  2  0  0  0  0
116117  1  0  0  0  0
117118  1  0  0  0  0
117119  1  0  0  0  0
 11  2  1  0  0  0  0
 23 17  1  0  0  0  0
 41 24  2  0  0  0  0
 84 42  1  0  0  0  0
 96 89  1  0  0  0  0
107 98  1  0  0  0  0
119113  1  0  0  0  0
 10  5  1  0  0  0  0
 22 18  1  0  0  0  0
 41 27  1  0  0  0  0
 51 44  1  0  0  0  0
 83 52  2  0  0  0  0
106101  1  0  0  0  0
118114  1  0  0  0  0
 23  7  1  0  0  0  0
 38 30  1  0  0  0  0
 82 54  2  0  0  0  0
119103  1  0  0  0  0
 80 55  2  0  0  0  0
 60 56  2  0  0  0  0
 79 61  2  0  0  0  0
 77 62  2  0  0  0  0
 76 64  2  0  0  0  0
 73 66  1  0  0  0  0
  1120  1  0  0  0  0
  6121  1  0  0  0  0
  9122  1  0  0  0  0
 17123  1  0  0  0  0
 18124  1  0  0  0  0
 19125  1  0  0  0  0
 20126  1  0  0  0  0
 21127  1  0  0  0  0
 22128  1  0  0  0  0
 22129  1  0  0  0  0
 23130  1  0  0  0  0
 32131  1  0  0  0  0
 32132  1  0  0  0  0
 33133  1  0  0  0  0
 33134  1  0  0  0  0
 33135  1  0  0  0  0
 36136  1  0  0  0  0
 36137  1  0  0  0  0
 37138  1  0  0  0  0
 37139  1  0  0  0  0
 37140  1  0  0  0  0
 45141  1  0  0  0  0
 46142  1  0  0  0  0
 47143  1  0  0  0  0
 49144  1  0  0  0  0
 49145  1  0  0  0  0
 50146  1  0  0  0  0
 50147  1  0  0  0  0
 50148  1  0  0  0  0
 51149  1  0  0  0  0
 67150  1  0  0  0  0
 68151  1  0  0  0  0
 69152  1  0  0  0  0
 71153  1  0  0  0  0
 71154  1  0  0  0  0
 72155  1  0  0  0  0
 72156  1  0  0  0  0
 72157  1  0  0  0  0
 73158  1  0  0  0  0
 85159  1  0  0  0  0
 85160  1  0  0  0  0
 86161  1  0  0  0  0
 86162  1  0  0  0  0
 86163  1  0  0  0  0
 87164  1  0  0  0  0
 87165  1  0  0  0  0
 88166  1  0  0  0  0
 88167  1  0  0  0  0
 88168  1  0  0  0  0
 90169  1  0  0  0  0
 93170  1  0  0  0  0
 93171  1  0  0  0  0
 94172  1  0  0  0  0
 94173  1  0  0  0  0
 94174  1  0  0  0  0
 97175  1  0  0  0  0
102176  1  0  0  0  0
105177  1  0  0  0  0
113178  1  0  0  0  0
114179  1  0  0  0  0
115180  1  0  0  0  0
116181  1  0  0  0  0
117182  1  0  0  0  0
118183  1  0  0  0  0
118184  1  0  0  0  0
119185  1  0  0  0  0
M  END
