
  xtb     02122221243D
 energy: -363.549389662889 gnorm: 0.000750881921 xtb: 6.4.1 (unknown)
218244  0     0  0            999 V2000
   10.2097    7.3258    3.5640 C   0  0  0  0  0  0  0  0  0  0  0  0
   10.7086    6.1464    3.9986 C   0  0  0  0  0  0  0  0  0  0  0  0
   10.3413    4.8136    3.4392 C   0  0  0  0  0  0  0  0  0  0  0  0
    9.8371    4.5873    2.3621 O   0  0  0  0  0  0  0  0  0  0  0  0
   10.7915    3.8348    4.4427 C   0  0  0  0  0  0  0  0  0  0  0  0
   10.5322    2.4664    4.4560 C   0  0  0  0  0  0  0  0  0  0  0  0
   11.0501    1.8090    5.5456 C   0  0  0  0  0  0  0  0  0  0  0  0
   11.7758    2.4625    6.5524 C   0  0  0  0  0  0  0  0  0  0  0  0
   12.0480    3.8090    6.5481 C   0  0  0  0  0  0  0  0  0  0  0  0
   11.5324    4.4969    5.4449 C   0  0  0  0  0  0  0  0  0  0  0  0
   11.6117    5.9141    5.1144 C   0  0  0  0  0  0  0  0  0  0  0  0
   12.4292    6.8376    5.7080 C   0  0  0  0  0  0  0  0  0  0  0  0
   12.5485    8.1754    5.2816 C   0  0  0  0  0  0  0  0  0  0  0  0
   12.7050    9.2670    4.9597 N   0  0  0  0  0  0  0  0  0  0  0  0
   13.3109    6.5562    6.7729 C   0  0  0  0  0  0  0  0  0  0  0  0
   14.0471    6.3967    7.6389 N   0  0  0  0  0  0  0  0  0  0  0  0
   11.9791    1.1928    7.3402 C   0  0  0  0  0  0  0  0  0  0  0  0
   13.3680    0.5120    7.2661 C   0  0  0  0  0  0  0  0  0  0  0  0
   13.9693    0.9101    5.9410 C   0  0  0  0  0  0  0  0  0  0  0  0
   13.2875    0.2929    4.9854 C   0  0  0  0  0  0  0  0  0  0  0  0
   12.2128   -0.5342    5.6470 C   0  0  0  0  0  0  0  0  0  0  0  0
   12.9348   -0.9276    6.9457 C   0  0  0  0  0  0  0  0  0  0  0  0
   11.1753    0.4648    6.2170 C   0  0  0  0  0  0  0  0  0  0  0  0
    9.0887    7.3916    2.6405 C   0  0  0  0  0  0  0  0  0  0  0  0
    7.9829    6.5619    2.9675 C   0  0  0  0  0  0  0  0  0  0  0  0
    6.8378    6.4406    2.1142 C   0  0  0  0  0  0  0  0  0  0  0  0
    6.0007    5.6085    2.6948 N   0  0  0  0  0  0  0  0  0  0  0  0
    6.5758    5.2382    3.8415 O   0  0  0  0  0  0  0  0  0  0  0  0
    7.7707    5.8063    4.0246 N   0  0  0  0  0  0  0  0  0  0  0  0
    6.7240    7.1925    0.9176 C   0  0  0  0  0  0  0  0  0  0  0  0
    7.7383    8.1171    0.6886 C   0  0  0  0  0  0  0  0  0  0  0  0
    7.5597    8.9334   -0.3730 O   0  0  0  0  0  0  0  0  0  0  0  0
    7.9957   10.2874   -0.3913 C   0  0  0  0  0  0  0  0  0  0  0  0
    9.0418   10.5112   -1.4740 C   0  0  0  0  0  0  0  0  0  0  0  0
    8.9489    8.1479    1.4871 C   0  0  0  0  0  0  0  0  0  0  0  0
    9.9215    8.8750    0.8949 O   0  0  0  0  0  0  0  0  0  0  0  0
   11.1175    9.2313    1.5572 C   0  0  0  0  0  0  0  0  0  0  0  0
   10.9278   10.4316    2.4776 C   0  0  0  0  0  0  0  0  0  0  0  0
    5.5668    7.0106    0.0855 C   0  0  0  0  0  0  0  0  0  0  0  0
    5.3853    7.2355   -1.2695 C   0  0  0  0  0  0  0  0  0  0  0  0
    6.4227    7.5223   -2.2589 C   0  0  0  0  0  0  0  0  0  0  0  0
    7.6322    6.8314   -2.2430 C   0  0  0  0  0  0  0  0  0  0  0  0
    8.5716    7.0670   -3.2269 C   0  0  0  0  0  0  0  0  0  0  0  0
    8.3152    7.9800   -4.2362 C   0  0  0  0  0  0  0  0  0  0  0  0
    7.1111    8.6713   -4.2718 C   0  0  0  0  0  0  0  0  0  0  0  0
    6.7937    9.6204   -5.3917 C   0  0  0  0  0  0  0  0  0  0  0  0
    5.9709    8.9082   -6.4671 C   0  0  0  0  0  0  0  0  0  0  0  0
    6.1722    8.4316   -3.2798 C   0  0  0  0  0  0  0  0  0  0  0  0
    4.0505    6.9830   -1.6504 C   0  0  0  0  0  0  0  0  0  0  0  0
    3.2230    7.0469   -3.1910 S   0  0  0  0  0  0  0  0  0  0  0  0
    1.8050    6.3968   -2.4374 C   0  0  0  0  0  0  0  0  0  0  0  0
    0.5081    5.9713   -2.7799 C   0  0  0  0  0  0  0  0  0  0  0  0
   -0.2503    6.0541   -3.9692 C   0  0  0  0  0  0  0  0  0  0  0  0
   -1.5878    5.5213   -3.9865 C   0  0  0  0  0  0  0  0  0  0  0  0
   -2.1928    5.7154   -5.1468 N   0  0  0  0  0  0  0  0  0  0  0  0
   -1.1736    6.4947   -6.1355 S   0  0  0  0  0  0  0  0  0  0  0  0
    0.0828    6.6142   -5.1207 N   0  0  0  0  0  0  0  0  0  0  0  0
   -2.0523    4.7951   -2.8657 C   0  0  0  0  0  0  0  0  0  0  0  0
   -3.1411    3.9217   -2.6994 C   0  0  0  0  0  0  0  0  0  0  0  0
   -4.4997    3.3325   -3.6004 S   0  0  0  0  0  0  0  0  0  0  0  0
   -4.7922    2.1533   -2.3436 C   0  0  0  0  0  0  0  0  0  0  0  0
   -5.6866    1.0710   -2.2477 C   0  0  0  0  0  0  0  0  0  0  0  0
   -6.6621    0.7306   -3.2921 C   0  0  0  0  0  0  0  0  0  0  0  0
   -6.6402   -0.5200   -3.9043 C   0  0  0  0  0  0  0  0  0  0  0  0
   -7.5866   -0.8359   -4.8599 C   0  0  0  0  0  0  0  0  0  0  0  0
   -8.5478    0.0918   -5.2209 C   0  0  0  0  0  0  0  0  0  0  0  0
   -8.5611    1.3566   -4.6470 C   0  0  0  0  0  0  0  0  0  0  0  0
   -9.6181    2.3539   -5.0262 C   0  0  0  0  0  0  0  0  0  0  0  0
  -10.9062    2.0891   -4.2450 C   0  0  0  0  0  0  0  0  0  0  0  0
   -7.6125    1.6657   -3.6824 C   0  0  0  0  0  0  0  0  0  0  0  0
   -5.4717    0.3488   -1.0864 C   0  0  0  0  0  0  0  0  0  0  0  0
   -4.1685    1.0045   -0.1130 S   0  0  0  0  0  0  0  0  0  0  0  0
   -3.8942    2.2494   -1.2774 C   0  0  0  0  0  0  0  0  0  0  0  0
   -2.9595    3.2725   -1.4739 C   0  0  0  0  0  0  0  0  0  0  0  0
   -1.8334    3.7449   -0.8547 N   0  0  0  0  0  0  0  0  0  0  0  0
   -1.2619    4.6840   -1.6899 C   0  0  0  0  0  0  0  0  0  0  0  0
   -0.0511    5.4118   -1.5998 C   0  0  0  0  0  0  0  0  0  0  0  0
    0.8382    5.5780   -0.5536 N   0  0  0  0  0  0  0  0  0  0  0  0
    1.9682    6.1575   -1.0703 C   0  0  0  0  0  0  0  0  0  0  0  0
    3.2435    6.5126   -0.6148 C   0  0  0  0  0  0  0  0  0  0  0  0
    4.1126    6.4171    0.8734 S   0  0  0  0  0  0  0  0  0  0  0  0
    0.5242    5.7243    0.8511 C   0  0  0  0  0  0  0  0  0  0  0  0
    0.4821    7.1970    1.2578 C   0  0  0  0  0  0  0  0  0  0  0  0
   -1.2554    3.0251    0.2583 C   0  0  0  0  0  0  0  0  0  0  0  0
   -2.0173    3.2699    1.5601 C   0  0  0  0  0  0  0  0  0  0  0  0
   -6.1243   -0.8421   -0.6558 C   0  0  0  0  0  0  0  0  0  0  0  0
   -7.3167   -1.3485   -1.0857 C   0  0  0  0  0  0  0  0  0  0  0  0
   -7.5889   -2.6462   -0.5976 C   0  0  0  0  0  0  0  0  0  0  0  0
   -8.6319   -3.4942   -1.0027 C   0  0  0  0  0  0  0  0  0  0  0  0
   -9.6220   -3.0276   -1.9845 C   0  0  0  0  0  0  0  0  0  0  0  0
  -10.3906   -1.8934   -1.7413 C   0  0  0  0  0  0  0  0  0  0  0  0
  -11.2964   -1.4467   -2.6860 C   0  0  0  0  0  0  0  0  0  0  0  0
  -11.4410   -2.1194   -3.8863 C   0  0  0  0  0  0  0  0  0  0  0  0
  -10.6807   -3.2524   -4.1267 C   0  0  0  0  0  0  0  0  0  0  0  0
  -10.8741   -4.1481   -5.6598 S   0  0  0  0  0  0  0  0  0  0  0  0
  -12.4486   -4.9960   -5.2659 C   0  0  0  0  0  0  0  0  0  0  0  0
  -12.2794   -6.0214   -4.1628 C   0  0  0  0  0  0  0  0  0  0  0  0
   -9.7744   -3.7079   -3.1871 C   0  0  0  0  0  0  0  0  0  0  0  0
   -8.6189   -4.7814   -0.4965 C   0  0  0  0  0  0  0  0  0  0  0  0
   -7.6294   -5.2339    0.4171 C   0  0  0  0  0  0  0  0  0  0  0  0
   -6.5739   -4.3882    0.8134 C   0  0  0  0  0  0  0  0  0  0  0  0
   -5.4962   -4.8802    1.6804 C   0  0  0  0  0  0  0  0  0  0  0  0
   -5.0848   -4.1472    2.7909 C   0  0  0  0  0  0  0  0  0  0  0  0
   -4.0802   -4.6298    3.6102 C   0  0  0  0  0  0  0  0  0  0  0  0
   -3.4734   -5.8430    3.3396 C   0  0  0  0  0  0  0  0  0  0  0  0
   -3.8835   -6.5782    2.2364 C   0  0  0  0  0  0  0  0  0  0  0  0
   -3.1341   -8.1420    1.8346 S   0  0  0  0  0  0  0  0  0  0  0  0
   -3.3632   -9.0412    3.4118 C   0  0  0  0  0  0  0  0  0  0  0  0
   -4.8308   -9.2731    3.7148 C   0  0  0  0  0  0  0  0  0  0  0  0
   -4.8773   -6.0963    1.4010 C   0  0  0  0  0  0  0  0  0  0  0  0
   -6.5809   -3.1101    0.2868 C   0  0  0  0  0  0  0  0  0  0  0  0
   -5.3242   -1.9155    0.4819 S   0  0  0  0  0  0  0  0  0  0  0  0
   -7.8329   -6.5759    0.7891 C   0  0  0  0  0  0  0  0  0  0  0  0
   -8.8893   -7.1776    0.1549 C   0  0  0  0  0  0  0  0  0  0  0  0
   -9.7623   -6.0442   -0.8680 S   0  0  0  0  0  0  0  0  0  0  0  0
   -9.2987   -8.5295    0.2622 C   0  0  0  0  0  0  0  0  0  0  0  0
   -8.4460   -9.5627    0.5308 C   0  0  0  0  0  0  0  0  0  0  0  0
   -6.9725   -9.5203    0.3261 C   0  0  0  0  0  0  0  0  0  0  0  0
   -6.2907   -8.5865   -0.0390 O   0  0  0  0  0  0  0  0  0  0  0  0
   -6.4988  -10.8977    0.5336 C   0  0  0  0  0  0  0  0  0  0  0  0
   -5.1762  -11.3312    0.4616 C   0  0  0  0  0  0  0  0  0  0  0  0
   -5.0189  -12.6718    0.7157 C   0  0  0  0  0  0  0  0  0  0  0  0
   -6.0984  -13.5204    0.9996 C   0  0  0  0  0  0  0  0  0  0  0  0
   -7.4073  -13.1043    1.0648 C   0  0  0  0  0  0  0  0  0  0  0  0
   -7.5904  -11.7386    0.8272 C   0  0  0  0  0  0  0  0  0  0  0  0
   -8.8085  -10.9322    0.8382 C   0  0  0  0  0  0  0  0  0  0  0  0
  -10.0614  -11.3797    1.1708 C   0  0  0  0  0  0  0  0  0  0  0  0
  -10.3719  -12.7161    1.4954 C   0  0  0  0  0  0  0  0  0  0  0  0
  -10.6944  -13.7839    1.7679 N   0  0  0  0  0  0  0  0  0  0  0  0
  -11.2112  -10.5677    1.2603 C   0  0  0  0  0  0  0  0  0  0  0  0
  -12.1855   -9.9708    1.3775 N   0  0  0  0  0  0  0  0  0  0  0  0
   -5.2093  -14.7298    1.1497 C   0  0  0  0  0  0  0  0  0  0  0  0
   -4.8988  -15.2213    2.5851 C   0  0  0  0  0  0  0  0  0  0  0  0
   -5.0218  -14.0175    3.4858 C   0  0  0  0  0  0  0  0  0  0  0  0
   -4.0018  -13.2112    3.2245 C   0  0  0  0  0  0  0  0  0  0  0  0
   -3.1709  -13.8541    2.1421 C   0  0  0  0  0  0  0  0  0  0  0  0
   -3.3685  -15.3370    2.4952 C   0  0  0  0  0  0  0  0  0  0  0  0
   -4.0074  -13.7823    0.8404 C   0  0  0  0  0  0  0  0  0  0  0  0
   10.5470    8.2453    4.0239 H   0  0  0  0  0  0  0  0  0  0  0  0
    9.9605    2.0033    3.6672 H   0  0  0  0  0  0  0  0  0  0  0  0
   12.5996    4.3013    7.3321 H   0  0  0  0  0  0  0  0  0  0  0  0
   11.5667    1.1874    8.3471 H   0  0  0  0  0  0  0  0  0  0  0  0
   13.9926    0.6645    8.1420 H   0  0  0  0  0  0  0  0  0  0  0  0
   14.7666    1.6223    5.8359 H   0  0  0  0  0  0  0  0  0  0  0  0
   13.4010    0.3862    3.9213 H   0  0  0  0  0  0  0  0  0  0  0  0
   11.7865   -1.3351    5.0486 H   0  0  0  0  0  0  0  0  0  0  0  0
   12.2738   -1.3592    7.6960 H   0  0  0  0  0  0  0  0  0  0  0  0
   13.7793   -1.5928    6.7730 H   0  0  0  0  0  0  0  0  0  0  0  0
   10.2400   -0.0197    6.4906 H   0  0  0  0  0  0  0  0  0  0  0  0
    8.3619   10.6042    0.5878 H   0  0  0  0  0  0  0  0  0  0  0  0
    7.0963   10.8698   -0.6287 H   0  0  0  0  0  0  0  0  0  0  0  0
    8.6456   10.1870   -2.4325 H   0  0  0  0  0  0  0  0  0  0  0  0
    9.2935   11.5669   -1.5267 H   0  0  0  0  0  0  0  0  0  0  0  0
    9.9371    9.9373   -1.2576 H   0  0  0  0  0  0  0  0  0  0  0  0
   11.8101    9.4842    0.7495 H   0  0  0  0  0  0  0  0  0  0  0  0
   11.5207    8.3704    2.1034 H   0  0  0  0  0  0  0  0  0  0  0  0
   11.8248   10.5837    3.0701 H   0  0  0  0  0  0  0  0  0  0  0  0
   10.0889   10.2715    3.1524 H   0  0  0  0  0  0  0  0  0  0  0  0
   10.7289   11.3262    1.8922 H   0  0  0  0  0  0  0  0  0  0  0  0
    7.8259    6.1066   -1.4663 H   0  0  0  0  0  0  0  0  0  0  0  0
    9.5098    6.5318   -3.2112 H   0  0  0  0  0  0  0  0  0  0  0  0
    9.0557    8.1566   -5.0037 H   0  0  0  0  0  0  0  0  0  0  0  0
    6.2232   10.4689   -5.0079 H   0  0  0  0  0  0  0  0  0  0  0  0
    7.7174   10.0001   -5.8336 H   0  0  0  0  0  0  0  0  0  0  0  0
    6.5309    8.0707   -6.8773 H   0  0  0  0  0  0  0  0  0  0  0  0
    5.7268    9.5928   -7.2762 H   0  0  0  0  0  0  0  0  0  0  0  0
    5.0458    8.5250   -6.0427 H   0  0  0  0  0  0  0  0  0  0  0  0
    5.2378    8.9738   -3.2917 H   0  0  0  0  0  0  0  0  0  0  0  0
   -5.8858   -1.2397   -3.6230 H   0  0  0  0  0  0  0  0  0  0  0  0
   -7.5787   -1.8105   -5.3246 H   0  0  0  0  0  0  0  0  0  0  0  0
   -9.2883   -0.1670   -5.9635 H   0  0  0  0  0  0  0  0  0  0  0  0
   -9.8260    2.2800   -6.0955 H   0  0  0  0  0  0  0  0  0  0  0  0
   -9.2663    3.3653   -4.8152 H   0  0  0  0  0  0  0  0  0  0  0  0
  -11.6733    2.8099   -4.5186 H   0  0  0  0  0  0  0  0  0  0  0  0
  -10.7218    2.1663   -3.1754 H   0  0  0  0  0  0  0  0  0  0  0  0
  -11.2745    1.0883   -4.4580 H   0  0  0  0  0  0  0  0  0  0  0  0
   -7.6167    2.6415   -3.2176 H   0  0  0  0  0  0  0  0  0  0  0  0
    1.2852    5.2016    1.4395 H   0  0  0  0  0  0  0  0  0  0  0  0
   -0.4516    5.2879    1.0395 H   0  0  0  0  0  0  0  0  0  0  0  0
    0.1873    7.2769    2.3006 H   0  0  0  0  0  0  0  0  0  0  0  0
    1.4571    7.6604    1.1391 H   0  0  0  0  0  0  0  0  0  0  0  0
   -0.2394    7.7356    0.6467 H   0  0  0  0  0  0  0  0  0  0  0  0
   -0.2036    3.2955    0.3496 H   0  0  0  0  0  0  0  0  0  0  0  0
   -1.3057    1.9551    0.0252 H   0  0  0  0  0  0  0  0  0  0  0  0
   -1.5058    2.7755    2.3808 H   0  0  0  0  0  0  0  0  0  0  0  0
   -3.0225    2.8639    1.4872 H   0  0  0  0  0  0  0  0  0  0  0  0
   -2.0991    4.3306    1.7866 H   0  0  0  0  0  0  0  0  0  0  0  0
   -7.9686   -0.8295   -1.7620 H   0  0  0  0  0  0  0  0  0  0  0  0
  -10.2850   -1.3714   -0.8015 H   0  0  0  0  0  0  0  0  0  0  0  0
  -11.8914   -0.5679   -2.4863 H   0  0  0  0  0  0  0  0  0  0  0  0
  -12.1382   -1.7722   -4.6344 H   0  0  0  0  0  0  0  0  0  0  0  0
  -13.1767   -4.2310   -4.9957 H   0  0  0  0  0  0  0  0  0  0  0  0
  -12.7486   -5.4657   -6.2017 H   0  0  0  0  0  0  0  0  0  0  0  0
  -11.9672   -5.5443   -3.2352 H   0  0  0  0  0  0  0  0  0  0  0  0
  -11.5282   -6.7570   -4.4414 H   0  0  0  0  0  0  0  0  0  0  0  0
  -13.2225   -6.5352   -3.9873 H   0  0  0  0  0  0  0  0  0  0  0  0
   -9.1780   -4.5822   -3.3988 H   0  0  0  0  0  0  0  0  0  0  0  0
   -5.5665   -3.2090    3.0225 H   0  0  0  0  0  0  0  0  0  0  0  0
   -3.7650   -4.0549    4.4685 H   0  0  0  0  0  0  0  0  0  0  0  0
   -2.6820   -6.2080    3.9770 H   0  0  0  0  0  0  0  0  0  0  0  0
   -2.8730   -8.4814    4.2074 H   0  0  0  0  0  0  0  0  0  0  0  0
   -2.8343   -9.9821    3.2630 H   0  0  0  0  0  0  0  0  0  0  0  0
   -5.3489   -8.3224    3.8318 H   0  0  0  0  0  0  0  0  0  0  0  0
   -4.9396   -9.8414    4.6372 H   0  0  0  0  0  0  0  0  0  0  0  0
   -5.3015   -9.8281    2.9056 H   0  0  0  0  0  0  0  0  0  0  0  0
   -5.1602   -6.6725    0.5339 H   0  0  0  0  0  0  0  0  0  0  0  0
   -7.2456   -7.0739    1.5367 H   0  0  0  0  0  0  0  0  0  0  0  0
  -10.3470   -8.7326    0.0840 H   0  0  0  0  0  0  0  0  0  0  0  0
   -4.3785  -10.6394    0.2378 H   0  0  0  0  0  0  0  0  0  0  0  0
   -8.2251  -13.7723    1.2774 H   0  0  0  0  0  0  0  0  0  0  0  0
   -5.4014  -15.5508    0.4620 H   0  0  0  0  0  0  0  0  0  0  0  0
   -5.4515  -16.1061    2.8888 H   0  0  0  0  0  0  0  0  0  0  0  0
   -5.8437  -13.8542    4.1582 H   0  0  0  0  0  0  0  0  0  0  0  0
   -3.8022  -12.2399    3.6375 H   0  0  0  0  0  0  0  0  0  0  0  0
   -2.1502  -13.4941    2.0422 H   0  0  0  0  0  0  0  0  0  0  0  0
   -2.9100  -15.6091    3.4448 H   0  0  0  0  0  0  0  0  0  0  0  0
   -3.0299  -16.0173    1.7151 H   0  0  0  0  0  0  0  0  0  0  0  0
   -3.4107  -13.9863   -0.0465 H   0  0  0  0  0  0  0  0  0  0  0  0
  1  2  2  0  0  0  0
  2  3  1  0  0  0  0
  3  4  2  0  0  0  0
  3  5  1  0  0  0  0
  5  6  2  0  0  0  0
  6  7  1  0  0  0  0
  7  8  2  0  0  0  0
  8  9  1  0  0  0  0
  9 10  2  0  0  0  0
 10 11  1  0  0  0  0
 11 12  2  0  0  0  0
 12 13  1  0  0  0  0
 13 14  3  0  0  0  0
 12 15  1  0  0  0  0
 15 16  3  0  0  0  0
  8 17  1  0  0  0  0
 17 18  1  0  0  0  0
 18 19  1  0  0  0  0
 19 20  2  0  0  0  0
 20 21  1  0  0  0  0
 21 22  1  0  0  0  0
 21 23  1  0  0  0  0
  1 24  1  0  0  0  0
 24 25  1  0  0  0  0
 25 26  1  0  0  0  0
 26 27  2  0  0  0  0
 27 28  1  0  0  0  0
 28 29  1  0  0  0  0
 26 30  1  0  0  0  0
 30 31  2  0  0  0  0
 31 32  1  0  0  0  0
 32 33  1  0  0  0  0
 33 34  1  0  0  0  0
 31 35  1  0  0  0  0
 35 36  1  0  0  0  0
 36 37  1  0  0  0  0
 37 38  1  0  0  0  0
 30 39  1  0  0  0  0
 39 40  2  0  0  0  0
 40 41  1  0  0  0  0
 41 42  2  0  0  0  0
 42 43  1  0  0  0  0
 43 44  2  0  0  0  0
 44 45  1  0  0  0  0
 45 46  1  0  0  0  0
 46 47  1  0  0  0  0
 45 48  2  0  0  0  0
 40 49  1  0  0  0  0
 49 50  1  0  0  0  0
 50 51  1  0  0  0  0
 51 52  1  0  0  0  0
 52 53  1  0  0  0  0
 53 54  1  0  0  0  0
 54 55  2  0  0  0  0
 55 56  1  0  0  0  0
 56 57  1  0  0  0  0
 54 58  1  0  0  0  0
 58 59  1  0  0  0  0
 59 60  1  0  0  0  0
 60 61  1  0  0  0  0
 61 62  1  0  0  0  0
 62 63  1  0  0  0  0
 63 64  2  0  0  0  0
 64 65  1  0  0  0  0
 65 66  2  0  0  0  0
 66 67  1  0  0  0  0
 67 68  1  0  0  0  0
 68 69  1  0  0  0  0
 67 70  2  0  0  0  0
 62 71  2  0  0  0  0
 71 72  1  0  0  0  0
 72 73  1  0  0  0  0
 73 74  1  0  0  0  0
 74 75  1  0  0  0  0
 75 76  1  0  0  0  0
 76 77  1  0  0  0  0
 77 78  1  0  0  0  0
 78 79  1  0  0  0  0
 79 80  1  0  0  0  0
 80 81  1  0  0  0  0
 78 82  1  0  0  0  0
 82 83  1  0  0  0  0
 75 84  1  0  0  0  0
 84 85  1  0  0  0  0
 71 86  1  0  0  0  0
 86 87  2  0  0  0  0
 87 88  1  0  0  0  0
 88 89  2  0  0  0  0
 89 90  1  0  0  0  0
 90 91  2  0  0  0  0
 91 92  1  0  0  0  0
 92 93  2  0  0  0  0
 93 94  1  0  0  0  0
 94 95  1  0  0  0  0
 95 96  1  0  0  0  0
 96 97  1  0  0  0  0
 94 98  2  0  0  0  0
 89 99  1  0  0  0  0
 99100  2  0  0  0  0
100101  1  0  0  0  0
101102  1  0  0  0  0
102103  2  0  0  0  0
103104  1  0  0  0  0
104105  2  0  0  0  0
105106  1  0  0  0  0
106107  1  0  0  0  0
107108  1  0  0  0  0
108109  1  0  0  0  0
106110  2  0  0  0  0
101111  2  0  0  0  0
111112  1  0  0  0  0
100113  1  0  0  0  0
113114  2  0  0  0  0
114115  1  0  0  0  0
114116  1  0  0  0  0
116117  2  0  0  0  0
117118  1  0  0  0  0
118119  2  0  0  0  0
118120  1  0  0  0  0
120121  2  0  0  0  0
121122  1  0  0  0  0
122123  2  0  0  0  0
123124  1  0  0  0  0
124125  2  0  0  0  0
125126  1  0  0  0  0
126127  2  0  0  0  0
127128  1  0  0  0  0
128129  3  0  0  0  0
127130  1  0  0  0  0
130131  3  0  0  0  0
123132  1  0  0  0  0
132133  1  0  0  0  0
133134  1  0  0  0  0
134135  2  0  0  0  0
135136  1  0  0  0  0
136137  1  0  0  0  0
136138  1  0  0  0  0
 11  2  1  0  0  0  0
 23 17  1  0  0  0  0
 35 24  2  0  0  0  0
 81 39  1  0  0  0  0
112 86  1  0  0  0  0
126117  1  0  0  0  0
138132  1  0  0  0  0
 10  5  1  0  0  0  0
 22 18  1  0  0  0  0
 29 25  2  0  0  0  0
 48 41  1  0  0  0  0
 80 49  2  0  0  0  0
111 88  1  0  0  0  0
125120  1  0  0  0  0
137133  1  0  0  0  0
 23  7  1  0  0  0  0
 79 51  2  0  0  0  0
 98 90  1  0  0  0  0
115 99  1  0  0  0  0
138122  1  0  0  0  0
 77 52  2  0  0  0  0
110102  1  0  0  0  0
 57 53  2  0  0  0  0
 76 58  2  0  0  0  0
 74 59  2  0  0  0  0
 73 61  2  0  0  0  0
 70 63  1  0  0  0  0
  1139  1  0  0  0  0
  6140  1  0  0  0  0
  9141  1  0  0  0  0
 17142  1  0  0  0  0
 18143  1  0  0  0  0
 19144  1  0  0  0  0
 20145  1  0  0  0  0
 21146  1  0  0  0  0
 22147  1  0  0  0  0
 22148  1  0  0  0  0
 23149  1  0  0  0  0
 33150  1  0  0  0  0
 33151  1  0  0  0  0
 34152  1  0  0  0  0
 34153  1  0  0  0  0
 34154  1  0  0  0  0
 37155  1  0  0  0  0
 37156  1  0  0  0  0
 38157  1  0  0  0  0
 38158  1  0  0  0  0
 38159  1  0  0  0  0
 42160  1  0  0  0  0
 43161  1  0  0  0  0
 44162  1  0  0  0  0
 46163  1  0  0  0  0
 46164  1  0  0  0  0
 47165  1  0  0  0  0
 47166  1  0  0  0  0
 47167  1  0  0  0  0
 48168  1  0  0  0  0
 64169  1  0  0  0  0
 65170  1  0  0  0  0
 66171  1  0  0  0  0
 68172  1  0  0  0  0
 68173  1  0  0  0  0
 69174  1  0  0  0  0
 69175  1  0  0  0  0
 69176  1  0  0  0  0
 70177  1  0  0  0  0
 82178  1  0  0  0  0
 82179  1  0  0  0  0
 83180  1  0  0  0  0
 83181  1  0  0  0  0
 83182  1  0  0  0  0
 84183  1  0  0  0  0
 84184  1  0  0  0  0
 85185  1  0  0  0  0
 85186  1  0  0  0  0
 85187  1  0  0  0  0
 87188  1  0  0  0  0
 91189  1  0  0  0  0
 92190  1  0  0  0  0
 93191  1  0  0  0  0
 96192  1  0  0  0  0
 96193  1  0  0  0  0
 97194  1  0  0  0  0
 97195  1  0  0  0  0
 97196  1  0  0  0  0
 98197  1  0  0  0  0
103198  1  0  0  0  0
104199  1  0  0  0  0
105200  1  0  0  0  0
108201  1  0  0  0  0
108202  1  0  0  0  0
109203  1  0  0  0  0
109204  1  0  0  0  0
109205  1  0  0  0  0
110206  1  0  0  0  0
113207  1  0  0  0  0
116208  1  0  0  0  0
121209  1  0  0  0  0
124210  1  0  0  0  0
132211  1  0  0  0  0
133212  1  0  0  0  0
134213  1  0  0  0  0
135214  1  0  0  0  0
136215  1  0  0  0  0
137216  1  0  0  0  0
137217  1  0  0  0  0
138218  1  0  0  0  0
M  END
