251

C          2.67280       12.42640        5.43090
C          1.71660       11.96840        6.27770
C          1.28370       12.77540        7.45160
O          1.52230       13.94430        7.65360
C          0.55860       11.83310        8.32620
C          0.04620       12.08550        9.59820
C         -0.57480       11.00530       10.17800
C         -0.67500        9.75760        9.54630
C         -0.17940        9.49290        8.29280
C          0.44660       10.58300        7.68060
C          1.02240       10.69460        6.34410
C          0.72470        9.87200        5.29030
C          1.04670       10.14570        3.94370
N          1.20250       10.32760        2.82070
C         -0.02640        8.68350        5.39600
N         -0.61050        7.69520        5.41590
C         -1.41550        9.13880       10.70470
C         -0.59990        8.21690       11.63550
C         -1.42770        8.15670       12.89880
C         -1.33570        9.33710       13.49800
C         -0.44330       10.21500       12.65010
C          0.52080        9.15660       12.09880
C         -1.30610       10.52910       11.40940
C          3.41380       11.62840        4.51550
C          3.77230       10.31630        4.66940
C          4.42750        9.76660        3.54970
C          4.87300        8.43650        3.38610
C          4.87820        7.48620        4.47600
C          4.54820        6.16070        4.43230
C          4.72240        5.43810        5.62850
C          5.21900        6.15790        6.67610
S          5.43110        5.51560        8.28780
C          6.73040        6.62240        8.94220
C          8.07190        6.37920        8.28250
Se         5.48360        7.96400        6.20110
C          5.28000        8.08870        2.10490
C          5.31640        9.00000        1.01950
C          4.98790       10.35780        1.21900
C          5.12200       11.34630        0.17130
C          4.27940       12.38330       -0.11180
C          4.70360       13.26550       -1.12530
C          5.91600       12.97450       -1.67920
S          6.61640       13.85980       -3.01480
C          8.39500       13.51510       -2.77240
C          8.94950       14.21310       -1.54780
Se         6.65250       11.40620       -0.93310
C          4.52200       10.69750        2.48550
S          3.94200       12.26590        2.97380
C          5.63110        8.35360       -0.20060
C          5.85820        7.01150       -0.07140
S          5.75710        6.49310        1.59970
C          5.96380        6.01840       -1.08570
S          6.31790        4.36500       -0.63090
C          5.90880        3.83970       -2.21010
C          5.63280        2.57910       -2.82100
C          5.05730        2.84660       -4.08430
C          5.07900        4.34210       -4.38040
C          5.55250        4.88030       -3.04630
C          5.60700        6.12400       -2.41830
C          3.67860        4.93430       -4.64810
C          3.07760        4.73160       -6.03300
C          6.12650        4.71970       -5.45570
C          6.25210        3.75460       -6.62880
C          4.48070        1.81070       -4.78530
C          4.47320        0.54390       -4.20470
C          3.70200       -0.62290       -4.58070
C          3.90300       -1.61460       -3.60630
C          4.94280       -1.17500       -2.59160
C          6.21580       -2.02390       -2.83360
C          7.53860       -1.34920       -2.48900
C          4.34970       -1.34020       -1.17580
C          5.30450       -1.26640        0.00960
C          5.13260        0.27250       -2.99020
C          5.72820        1.29800       -2.29120
C          3.16690       -2.77740       -3.62520
C          2.16190       -2.87570       -4.57890
C          1.09540       -3.81720       -4.69130
C          0.20280       -3.44220       -5.67540
C          0.71270       -2.21600       -6.39760
C          1.93800       -1.87830       -5.55490
C          2.75470       -0.77030       -5.59330
C         -0.39000       -1.14080       -6.32890
C         -0.10830        0.18650       -7.02210
C          1.17230       -2.55280       -7.82940
C          0.05750       -3.03780       -8.74700
C         -0.99490       -4.16100       -5.61350
C         -1.01000       -5.05770       -4.56600
S          0.52730       -5.11380       -3.72720
C         -2.12420       -5.77990       -4.03970
C         -2.46080       -5.90690       -2.69760
N         -1.80750       -5.32160       -1.62460
C         -1.31270       -4.01560       -1.70470
C         -0.14560       -3.66100       -1.02710
C          0.39950       -2.40530       -1.19170
C         -0.19400       -1.46470       -2.02670
C          0.45380       -0.13370       -2.25590
C         -1.38430       -1.80660       -2.65370
C         -1.94220       -3.06040       -2.49840
C         -1.73000       -6.05020       -0.42600
C         -1.46750       -7.41750       -0.45620
C         -1.40930       -8.13900        0.71940
C         -1.61400       -7.52450        1.94900
C         -1.53090       -8.31070        3.22070
C         -1.87300       -6.15870        1.96860
C         -1.93240       -5.42480        0.80090
C         -3.64010       -6.66950       -2.54720
S         -4.56570       -7.14130       -1.17460
C         -5.77150       -7.90350       -2.21970
C         -5.46550       -7.73320       -3.57990
N         -6.20450       -8.19670       -4.63390
C         -7.60690       -8.18380       -4.60710
C         -8.28960       -7.10100       -4.05440
C         -9.66860       -7.09800       -4.01710
C        -10.40270       -8.16060       -4.53410
C        -11.89690       -8.15650       -4.45190
C         -9.71360       -9.22520       -5.10180
C         -8.33280       -9.24440       -5.14040
C         -5.53490       -8.68320       -5.77340
C         -6.00210       -8.37710       -7.04650
C         -5.33690       -8.85740       -8.15800
C         -4.19780       -9.64150       -8.02780
C         -3.46030      -10.14330       -9.23090
C         -3.74490       -9.94610       -6.74810
C         -4.40250       -9.48110       -5.62800
C         -4.22500       -7.07140       -3.73600
S         -3.30770       -6.52610       -5.10220
C         -6.85980       -8.56790       -1.63200
C         -6.90560       -9.10110       -0.37130
C         -8.20240       -9.29360        0.31560
O         -9.30820       -9.22220       -0.17850
C         -7.86020       -9.53180        1.73540
C         -8.73430       -9.63130        2.81540
C         -8.10990       -9.80960        4.02750
C         -6.71770       -9.87840        4.16260
C         -5.84230       -9.79110        3.10580
C         -6.45910       -9.61900        1.86530
C         -5.86350       -9.50580        0.53530
C         -4.62380       -9.98600        0.18440
C         -3.71950      -10.55570        1.09660
N         -2.94880      -11.04450        1.79550
C         -4.17810      -10.08500       -1.14700
N         -3.79750      -10.22930       -2.22200
C         -6.78910      -10.04030        5.66090
C         -6.46680       -8.79150        6.50820
C         -7.07360       -9.10240        7.85720
C         -8.39280       -9.03930        7.73010
C         -8.69960       -8.68430        6.29310
C         -7.49700       -7.78430        5.98110
C         -8.34230       -9.96610        5.51100
H          2.91500       13.48140        5.49280
H          0.14110       13.06060       10.04960
H         -0.25790        8.52890        7.81780
H         -2.40440        8.74600       10.47660
H         -0.30870        7.26750       11.19470
H         -2.02050        7.30870       13.18750
H         -1.83670        9.67200       14.38720
H         -0.00910       11.08470       13.13570
H          1.13390        8.71120       12.88050
H          1.16030        9.51480       11.29410
H         -2.22300       11.06290       11.65230
H          3.55050        9.76380        5.56750
H          4.15100        5.69690        3.54600
H          4.49210        4.39040        5.71420
H          6.38460        7.65040        8.79310
H          6.76570        6.40790       10.00960
H          8.82220        7.03630        8.71720
H          8.01560        6.57980        7.21290
H          8.38310        5.34700        8.42490
H          3.33350       12.50510        0.38740
H          4.12360       14.11650       -1.43740
H          8.50740       12.42820       -2.70610
H          8.87320       13.86960       -3.68480
H         10.01340       14.00580       -1.45370
H          8.44830       13.86180       -0.64640
H          8.80600       15.28830       -1.62650
H          5.62970        8.84910       -1.15580
H          5.34850        7.06260       -2.87380
H          3.74230        6.01010       -4.46710
H          2.99830        4.51780       -3.90030
H          3.69510        5.18820       -6.80150
H          2.09880        5.20690       -6.06470
H          2.94210        3.68000       -6.26410
H          7.10220        4.77460       -4.96540
H          5.89080        5.72100       -5.82210
H          7.00140        4.13000       -7.32320
H          5.31620        3.64550       -7.16680
H          6.56860        2.77310       -6.28470
H          3.99690        1.96280       -5.73620
H          6.11560       -2.95490       -2.27250
H          6.24300       -2.28700       -3.89470
H          7.58590       -1.05610       -1.44560
H          7.68810       -0.46380       -3.10220
H          8.35610       -2.04060       -2.68540
H          3.85750       -2.31450       -1.13930
H          3.57520       -0.57760       -1.05650
H          4.73720       -1.41430        0.92720
H          5.79590       -0.30130        0.07900
H          6.05970       -2.04570       -0.04340
H          6.20830        1.15560       -1.33720
H          3.30330       -3.56740       -2.90250
H          2.64430       -0.00540       -6.34510
H         -1.29530       -1.57420       -6.75780
H         -0.58830       -0.95230       -5.27150
H          0.18210        0.04300       -8.05930
H          0.67170        0.74070       -6.50920
H         -1.01070        0.79510       -7.00720
H          1.93530       -3.33220       -7.75420
H          1.64980       -1.67150       -8.26100
H          0.47110       -3.30080       -9.71830
H         -0.69460       -2.26790       -8.89730
H         -0.42310       -3.91990       -8.33190
H         -1.85760       -4.00380       -6.23640
H          0.34200       -4.39030       -0.39760
H          1.31490       -2.15240       -0.67740
H         -0.24530        0.56980       -2.70180
H          1.30390       -0.24720       -2.93050
H          0.82290        0.28410       -1.32130
H         -1.89070       -1.08110       -3.27470
H         -2.86600       -3.30620       -3.00130
H         -1.30550       -7.91020       -1.40420
H         -1.19830       -9.19740        0.68220
H         -1.80530       -9.34890        3.04780
H         -2.18370       -7.88740        3.98150
H         -0.51020       -8.29190        3.60460
H         -2.03890       -5.66180        2.91400
H         -2.14260       -4.36560        0.83000
H         -7.73000       -6.26900       -3.65180
H        -10.18630       -6.25760       -3.57860
H        -12.20810       -8.35020       -3.42530
H        -12.32610       -8.92400       -5.09070
H        -12.29730       -7.18740       -4.74420
H        -10.26440      -10.06030       -5.50920
H         -7.80800      -10.08390       -5.57150
H         -6.88280       -7.76170       -7.15910
H         -5.70720       -8.61150       -9.14280
H         -2.52910       -9.59010       -9.35510
H         -3.20820      -11.19580       -9.11560
H         -4.05430      -10.02020      -10.13300
H         -2.86810      -10.56530       -6.62790
H         -4.05470       -9.74250       -4.63950
H         -7.79270       -8.60320       -2.18360
H         -9.80200       -9.57070        2.67340
H         -4.77130       -9.83500        3.21650
H         -6.34750      -10.95130        6.06070
H         -5.42230       -8.49180        6.49900
H         -6.50170       -9.38300        8.72240
H         -9.14280       -9.25660        8.46800
H         -9.68980       -8.28600        6.08850
H         -7.38370       -7.54580        4.92530
H         -7.50920       -6.86430        6.56360
H         -8.93510      -10.82800        5.81240
