
  xtb     02152222073D
 energy: -334.252425198965 gnorm: 0.000283985903 xtb: 6.4.1 (unknown)
191214  0     0  0            999 V2000
    2.0206    5.2960   -8.6978 C   0  0  0  0  0  0  0  0  0  0  0  0
    1.5638    6.2885   -7.9086 C   0  0  0  0  0  0  0  0  0  0  0  0
    0.9078    7.4940   -8.5011 C   0  0  0  0  0  0  0  0  0  0  0  0
    0.9976    7.8819   -9.6405 O   0  0  0  0  0  0  0  0  0  0  0  0
    0.0803    8.0473   -7.4120 C   0  0  0  0  0  0  0  0  0  0  0  0
   -0.8530    9.0790   -7.5055 C   0  0  0  0  0  0  0  0  0  0  0  0
   -1.5028    9.3573   -6.3274 C   0  0  0  0  0  0  0  0  0  0  0  0
   -1.2425    8.6666   -5.1347 C   0  0  0  0  0  0  0  0  0  0  0  0
   -0.3214    7.6541   -5.0241 C   0  0  0  0  0  0  0  0  0  0  0  0
    0.3474    7.3504   -6.2136 C   0  0  0  0  0  0  0  0  0  0  0  0
    1.3856    6.3593   -6.4658 C   0  0  0  0  0  0  0  0  0  0  0  0
    2.1820    5.7807   -5.5159 C   0  0  0  0  0  0  0  0  0  0  0  0
    3.3042    4.9769   -5.8032 C   0  0  0  0  0  0  0  0  0  0  0  0
    4.2386    4.3294   -5.9623 N   0  0  0  0  0  0  0  0  0  0  0  0
    1.9657    5.8857   -4.1275 C   0  0  0  0  0  0  0  0  0  0  0  0
    1.8161    5.8919   -2.9890 N   0  0  0  0  0  0  0  0  0  0  0  0
   -2.2650    9.4571   -4.3589 C   0  0  0  0  0  0  0  0  0  0  0  0
   -3.6193    8.7730   -4.0477 C   0  0  0  0  0  0  0  0  0  0  0  0
   -3.8380    7.7442   -5.1294 C   0  0  0  0  0  0  0  0  0  0  0  0
   -4.0862    8.3923   -6.2597 C   0  0  0  0  0  0  0  0  0  0  0  0
   -4.0422    9.8708   -5.9626 C   0  0  0  0  0  0  0  0  0  0  0  0
   -4.5809    9.8739   -4.5228 C   0  0  0  0  0  0  0  0  0  0  0  0
   -2.5589   10.2234   -5.6871 C   0  0  0  0  0  0  0  0  0  0  0  0
    2.3023    3.9440   -8.2756 C   0  0  0  0  0  0  0  0  0  0  0  0
    3.3328    3.2078   -8.8320 C   0  0  0  0  0  0  0  0  0  0  0  0
    4.0828    3.7540   -9.7995 F   0  0  0  0  0  0  0  0  0  0  0  0
    3.6816    1.9318   -8.3631 C   0  0  0  0  0  0  0  0  0  0  0  0
    4.7565    1.3367   -8.8983 F   0  0  0  0  0  0  0  0  0  0  0  0
    2.9727    1.3197   -7.3557 C   0  0  0  0  0  0  0  0  0  0  0  0
    1.8670    2.0234   -6.8152 C   0  0  0  0  0  0  0  0  0  0  0  0
    1.1744    1.4469   -5.8106 N   0  0  0  0  0  0  0  0  0  0  0  0
    0.1805    2.1050   -5.2785 C   0  0  0  0  0  0  0  0  0  0  0  0
   -0.4863    1.5853   -4.2564 O   0  0  0  0  0  0  0  0  0  0  0  0
   -0.0201    0.3182   -3.7896 C   0  0  0  0  0  0  0  0  0  0  0  0
   -0.8438   -0.0769   -2.5790 C   0  0  0  0  0  0  0  0  0  0  0  0
   -0.2301    3.3852   -5.7870 C   0  0  0  0  0  0  0  0  0  0  0  0
    0.4403    3.9410   -6.7524 N   0  0  0  0  0  0  0  0  0  0  0  0
    1.5191    3.3113   -7.2716 C   0  0  0  0  0  0  0  0  0  0  0  0
   -1.4081    4.0887   -5.2122 C   0  0  0  0  0  0  0  0  0  0  0  0
    3.2896    0.0516   -6.6984 C   0  0  0  0  0  0  0  0  0  0  0  0
    2.8727   -1.2155   -7.0204 C   0  0  0  0  0  0  0  0  0  0  0  0
    2.2430   -1.5820   -8.2911 C   0  0  0  0  0  0  0  0  0  0  0  0
    1.0674   -2.3284   -8.2896 C   0  0  0  0  0  0  0  0  0  0  0  0
    0.4528   -2.6472   -9.4850 C   0  0  0  0  0  0  0  0  0  0  0  0
    0.9972   -2.2263  -10.6864 C   0  0  0  0  0  0  0  0  0  0  0  0
    2.1773   -1.4951  -10.7068 C   0  0  0  0  0  0  0  0  0  0  0  0
    2.7654   -1.0001  -11.9969 C   0  0  0  0  0  0  0  0  0  0  0  0
    2.3998    0.4684  -12.2220 C   0  0  0  0  0  0  0  0  0  0  0  0
    2.7923   -1.1827   -9.5030 C   0  0  0  0  0  0  0  0  0  0  0  0
    3.0372   -2.0963   -5.9224 C   0  0  0  0  0  0  0  0  0  0  0  0
    2.6253   -3.7751   -5.6604 S   0  0  0  0  0  0  0  0  0  0  0  0
    3.0953   -3.6172   -3.9984 C   0  0  0  0  0  0  0  0  0  0  0  0
    3.0537   -4.3525   -2.7949 C   0  0  0  0  0  0  0  0  0  0  0  0
    2.7365   -5.6910   -2.4692 C   0  0  0  0  0  0  0  0  0  0  0  0
    2.7903   -6.1168   -1.0908 C   0  0  0  0  0  0  0  0  0  0  0  0
    2.5145   -7.4033   -0.9520 N   0  0  0  0  0  0  0  0  0  0  0  0
    2.2106   -8.0287   -2.4143 S   0  0  0  0  0  0  0  0  0  0  0  0
    2.4134   -6.6803   -3.2864 N   0  0  0  0  0  0  0  0  0  0  0  0
    3.0113   -5.1544   -0.0782 C   0  0  0  0  0  0  0  0  0  0  0  0
    2.8365   -5.1705    1.3203 C   0  0  0  0  0  0  0  0  0  0  0  0
    2.3732   -6.2664    2.5805 S   0  0  0  0  0  0  0  0  0  0  0  0
    2.2768   -4.9241    3.7009 C   0  0  0  0  0  0  0  0  0  0  0  0
    1.8560   -4.8041    5.0431 C   0  0  0  0  0  0  0  0  0  0  0  0
    1.4755   -5.9245    5.8986 C   0  0  0  0  0  0  0  0  0  0  0  0
    1.8272   -5.9432    7.2469 C   0  0  0  0  0  0  0  0  0  0  0  0
    1.4597   -7.0107    8.0415 C   0  0  0  0  0  0  0  0  0  0  0  0
    0.7507   -8.0721    7.5044 C   0  0  0  0  0  0  0  0  0  0  0  0
    0.4045   -8.0778    6.1599 C   0  0  0  0  0  0  0  0  0  0  0  0
   -0.3144   -9.2460    5.5480 C   0  0  0  0  0  0  0  0  0  0  0  0
    0.6822  -10.1767    4.8542 C   0  0  0  0  0  0  0  0  0  0  0  0
    0.7754   -7.0022    5.3679 C   0  0  0  0  0  0  0  0  0  0  0  0
    1.9017   -3.4859    5.4584 C   0  0  0  0  0  0  0  0  0  0  0  0
    2.5182   -2.4008    4.2273 S   0  0  0  0  0  0  0  0  0  0  0  0
    2.6413   -3.7099    3.1164 C   0  0  0  0  0  0  0  0  0  0  0  0
    2.9587   -3.8503    1.7614 C   0  0  0  0  0  0  0  0  0  0  0  0
    3.2475   -3.0169    0.7095 N   0  0  0  0  0  0  0  0  0  0  0  0
    3.2833   -3.8068   -0.4251 C   0  0  0  0  0  0  0  0  0  0  0  0
    3.4681   -3.4558   -1.7784 C   0  0  0  0  0  0  0  0  0  0  0  0
    3.8457   -2.2514   -2.3427 N   0  0  0  0  0  0  0  0  0  0  0  0
    3.5867   -2.3472   -3.6871 C   0  0  0  0  0  0  0  0  0  0  0  0
    3.5617   -1.4825   -4.7886 C   0  0  0  0  0  0  0  0  0  0  0  0
    3.8878    0.1906   -5.0598 S   0  0  0  0  0  0  0  0  0  0  0  0
    4.8766   -1.3631   -1.8428 C   0  0  0  0  0  0  0  0  0  0  0  0
    6.1896   -1.5561   -2.6004 C   0  0  0  0  0  0  0  0  0  0  0  0
    2.8430   -1.6278    0.7857 C   0  0  0  0  0  0  0  0  0  0  0  0
    1.3197   -1.5019    0.8017 C   0  0  0  0  0  0  0  0  0  0  0  0
    1.3413   -2.8877    6.6457 C   0  0  0  0  0  0  0  0  0  0  0  0
    1.9534   -1.8238    7.2927 C   0  0  0  0  0  0  0  0  0  0  0  0
    3.1828   -1.4270    6.9111 F   0  0  0  0  0  0  0  0  0  0  0  0
    1.3284   -1.1264    8.3262 C   0  0  0  0  0  0  0  0  0  0  0  0
    1.9627   -0.0742    8.8689 F   0  0  0  0  0  0  0  0  0  0  0  0
    0.0434   -1.4325    8.7409 C   0  0  0  0  0  0  0  0  0  0  0  0
   -0.5736   -2.5739    8.1617 C   0  0  0  0  0  0  0  0  0  0  0  0
   -1.7674   -2.9841    8.6363 N   0  0  0  0  0  0  0  0  0  0  0  0
   -2.3575   -3.9862    8.0430 C   0  0  0  0  0  0  0  0  0  0  0  0
   -3.5291   -4.4308    8.4890 O   0  0  0  0  0  0  0  0  0  0  0  0
   -4.0805   -3.7418    9.6080 C   0  0  0  0  0  0  0  0  0  0  0  0
   -5.3930   -4.4090    9.9752 C   0  0  0  0  0  0  0  0  0  0  0  0
   -1.7799   -4.6319    6.8976 C   0  0  0  0  0  0  0  0  0  0  0  0
   -0.6034   -4.2751    6.4809 N   0  0  0  0  0  0  0  0  0  0  0  0
    0.0541   -3.2780    7.1105 C   0  0  0  0  0  0  0  0  0  0  0  0
   -2.5084   -5.7202    6.1921 C   0  0  0  0  0  0  0  0  0  0  0  0
   -0.6600   -0.6247    9.7062 C   0  0  0  0  0  0  0  0  0  0  0  0
   -1.9447   -0.2361    9.5280 C   0  0  0  0  0  0  0  0  0  0  0  0
   -2.6514   -0.2649    8.2149 C   0  0  0  0  0  0  0  0  0  0  0  0
   -2.2591   -0.7133    7.1595 O   0  0  0  0  0  0  0  0  0  0  0  0
   -3.8970    0.4955    8.4211 C   0  0  0  0  0  0  0  0  0  0  0  0
   -4.8623    0.7794    7.4560 C   0  0  0  0  0  0  0  0  0  0  0  0
   -5.8973    1.5587    7.9113 C   0  0  0  0  0  0  0  0  0  0  0  0
   -5.9657    2.0320    9.2296 C   0  0  0  0  0  0  0  0  0  0  0  0
   -5.0252    1.7555   10.1927 C   0  0  0  0  0  0  0  0  0  0  0  0
   -3.9641    0.9562    9.7516 C   0  0  0  0  0  0  0  0  0  0  0  0
   -2.7952    0.4669   10.4740 C   0  0  0  0  0  0  0  0  0  0  0  0
   -2.5809    0.5631   11.8219 C   0  0  0  0  0  0  0  0  0  0  0  0
   -1.4888   -0.0206   12.5003 C   0  0  0  0  0  0  0  0  0  0  0  0
   -0.6474   -0.4875   13.1259 N   0  0  0  0  0  0  0  0  0  0  0  0
   -3.4462    1.2188   12.7227 C   0  0  0  0  0  0  0  0  0  0  0  0
   -4.1083    1.7376   13.5039 N   0  0  0  0  0  0  0  0  0  0  0  0
   -7.2520    2.7793    8.9779 C   0  0  0  0  0  0  0  0  0  0  0  0
   -7.1357    4.3072    8.7908 C   0  0  0  0  0  0  0  0  0  0  0  0
   -8.4264    4.6859    8.1005 C   0  0  0  0  0  0  0  0  0  0  0  0
   -8.3660    4.2327    6.8549 C   0  0  0  0  0  0  0  0  0  0  0  0
   -7.0335    3.5401    6.6823 C   0  0  0  0  0  0  0  0  0  0  0  0
   -6.1656    4.4043    7.6062 C   0  0  0  0  0  0  0  0  0  0  0  0
   -7.1787    2.2460    7.5111 C   0  0  0  0  0  0  0  0  0  0  0  0
    2.1322    5.5170   -9.7535 H   0  0  0  0  0  0  0  0  0  0  0  0
   -1.0222    9.5900   -8.4403 H   0  0  0  0  0  0  0  0  0  0  0  0
   -0.1330    7.1250   -4.1047 H   0  0  0  0  0  0  0  0  0  0  0  0
   -1.8842   10.0276   -3.5144 H   0  0  0  0  0  0  0  0  0  0  0  0
   -3.7240    8.4236   -3.0241 H   0  0  0  0  0  0  0  0  0  0  0  0
   -3.7386    6.6852   -4.9773 H   0  0  0  0  0  0  0  0  0  0  0  0
   -4.2337    7.9830   -7.2420 H   0  0  0  0  0  0  0  0  0  0  0  0
   -4.5339   10.5196   -6.6824 H   0  0  0  0  0  0  0  0  0  0  0  0
   -4.4408   10.8237   -4.0089 H   0  0  0  0  0  0  0  0  0  0  0  0
   -5.6261    9.5743   -4.4639 H   0  0  0  0  0  0  0  0  0  0  0  0
   -2.3769   11.2958   -5.7087 H   0  0  0  0  0  0  0  0  0  0  0  0
    1.0437    0.4031   -3.5410 H   0  0  0  0  0  0  0  0  0  0  0  0
   -0.1178   -0.4142   -4.5988 H   0  0  0  0  0  0  0  0  0  0  0  0
   -0.7217    0.6548   -1.7851 H   0  0  0  0  0  0  0  0  0  0  0  0
   -0.5184   -1.0492   -2.2211 H   0  0  0  0  0  0  0  0  0  0  0  0
   -1.8965   -0.1311   -2.8427 H   0  0  0  0  0  0  0  0  0  0  0  0
   -2.2733    3.4284   -5.2162 H   0  0  0  0  0  0  0  0  0  0  0  0
   -1.2012    4.3528   -4.1754 H   0  0  0  0  0  0  0  0  0  0  0  0
   -1.6177    4.9877   -5.7854 H   0  0  0  0  0  0  0  0  0  0  0  0
    0.6344   -2.6469   -7.3534 H   0  0  0  0  0  0  0  0  0  0  0  0
   -0.4594   -3.2259   -9.4806 H   0  0  0  0  0  0  0  0  0  0  0  0
    0.5068   -2.4761  -11.6164 H   0  0  0  0  0  0  0  0  0  0  0  0
    3.8527   -1.0957  -11.9667 H   0  0  0  0  0  0  0  0  0  0  0  0
    2.3912   -1.5981  -12.8299 H   0  0  0  0  0  0  0  0  0  0  0  0
    1.3188    0.5919  -12.2432 H   0  0  0  0  0  0  0  0  0  0  0  0
    2.8091    0.8219  -13.1652 H   0  0  0  0  0  0  0  0  0  0  0  0
    2.7990    1.0858  -11.4207 H   0  0  0  0  0  0  0  0  0  0  0  0
    3.7294   -0.6499   -9.5128 H   0  0  0  0  0  0  0  0  0  0  0  0
    2.3968   -5.1264    7.6650 H   0  0  0  0  0  0  0  0  0  0  0  0
    1.7327   -7.0201    9.0868 H   0  0  0  0  0  0  0  0  0  0  0  0
    0.4685   -8.9041    8.1339 H   0  0  0  0  0  0  0  0  0  0  0  0
   -0.8506   -9.8004    6.3208 H   0  0  0  0  0  0  0  0  0  0  0  0
   -1.0414   -8.8907    4.8146 H   0  0  0  0  0  0  0  0  0  0  0  0
    1.2159   -9.6423    4.0718 H   0  0  0  0  0  0  0  0  0  0  0  0
    0.1658  -11.0235    4.4082 H   0  0  0  0  0  0  0  0  0  0  0  0
    1.4101  -10.5513    5.5704 H   0  0  0  0  0  0  0  0  0  0  0  0
    0.4964   -6.9930    4.3248 H   0  0  0  0  0  0  0  0  0  0  0  0
    4.5413   -0.3260   -1.9530 H   0  0  0  0  0  0  0  0  0  0  0  0
    5.0498   -1.5884   -0.7902 H   0  0  0  0  0  0  0  0  0  0  0  0
    6.0778   -1.2854   -3.6463 H   0  0  0  0  0  0  0  0  0  0  0  0
    6.9571   -0.9250   -2.1612 H   0  0  0  0  0  0  0  0  0  0  0  0
    6.5110   -2.5936   -2.5383 H   0  0  0  0  0  0  0  0  0  0  0  0
    3.2289   -1.0777   -0.0676 H   0  0  0  0  0  0  0  0  0  0  0  0
    3.2627   -1.2079    1.7041 H   0  0  0  0  0  0  0  0  0  0  0  0
    0.8988   -1.9954    1.6734 H   0  0  0  0  0  0  0  0  0  0  0  0
    0.8991   -1.9562   -0.0933 H   0  0  0  0  0  0  0  0  0  0  0  0
    1.0392   -0.4529    0.8288 H   0  0  0  0  0  0  0  0  0  0  0  0
   -4.2297   -2.6897    9.3363 H   0  0  0  0  0  0  0  0  0  0  0  0
   -3.3662   -3.7775   10.4383 H   0  0  0  0  0  0  0  0  0  0  0  0
   -5.8350   -3.9019   10.8278 H   0  0  0  0  0  0  0  0  0  0  0  0
   -5.2234   -5.4514   10.2300 H   0  0  0  0  0  0  0  0  0  0  0  0
   -6.0832   -4.3642    9.1371 H   0  0  0  0  0  0  0  0  0  0  0  0
   -2.6240   -6.5735    6.8586 H   0  0  0  0  0  0  0  0  0  0  0  0
   -3.5033   -5.3810    5.9107 H   0  0  0  0  0  0  0  0  0  0  0  0
   -1.9470   -6.0199    5.3133 H   0  0  0  0  0  0  0  0  0  0  0  0
   -0.1017   -0.3049   10.5768 H   0  0  0  0  0  0  0  0  0  0  0  0
   -4.7649    0.4013    6.4502 H   0  0  0  0  0  0  0  0  0  0  0  0
   -5.0882    2.1300   11.2008 H   0  0  0  0  0  0  0  0  0  0  0  0
   -8.0988    2.4902    9.5973 H   0  0  0  0  0  0  0  0  0  0  0  0
   -6.8831    4.8581    9.6925 H   0  0  0  0  0  0  0  0  0  0  0  0
   -9.2454    5.1800    8.5891 H   0  0  0  0  0  0  0  0  0  0  0  0
   -9.1245    4.2722    6.0952 H   0  0  0  0  0  0  0  0  0  0  0  0
   -6.6871    3.3917    5.6630 H   0  0  0  0  0  0  0  0  0  0  0  0
   -5.1788    3.9901    7.8041 H   0  0  0  0  0  0  0  0  0  0  0  0
   -6.0650    5.4246    7.2400 H   0  0  0  0  0  0  0  0  0  0  0  0
   -7.9756    1.5973    7.1523 H   0  0  0  0  0  0  0  0  0  0  0  0
  1  2  2  0  0  0  0
  2  3  1  0  0  0  0
  3  4  2  0  0  0  0
  3  5  1  0  0  0  0
  5  6  2  0  0  0  0
  6  7  1  0  0  0  0
  7  8  2  0  0  0  0
  8  9  1  0  0  0  0
  9 10  2  0  0  0  0
 10 11  1  0  0  0  0
 11 12  2  0  0  0  0
 12 13  1  0  0  0  0
 13 14  3  0  0  0  0
 12 15  1  0  0  0  0
 15 16  3  0  0  0  0
  8 17  1  0  0  0  0
 17 18  1  0  0  0  0
 18 19  1  0  0  0  0
 19 20  2  0  0  0  0
 20 21  1  0  0  0  0
 21 22  1  0  0  0  0
 21 23  1  0  0  0  0
  1 24  1  0  0  0  0
 24 25  2  0  0  0  0
 25 26  1  0  0  0  0
 25 27  1  0  0  0  0
 27 28  1  0  0  0  0
 27 29  2  0  0  0  0
 29 30  1  0  0  0  0
 30 31  2  0  0  0  0
 31 32  1  0  0  0  0
 32 33  1  0  0  0  0
 33 34  1  0  0  0  0
 34 35  1  0  0  0  0
 32 36  2  0  0  0  0
 36 37  1  0  0  0  0
 37 38  2  0  0  0  0
 36 39  1  0  0  0  0
 29 40  1  0  0  0  0
 40 41  2  0  0  0  0
 41 42  1  0  0  0  0
 42 43  2  0  0  0  0
 43 44  1  0  0  0  0
 44 45  2  0  0  0  0
 45 46  1  0  0  0  0
 46 47  1  0  0  0  0
 47 48  1  0  0  0  0
 46 49  2  0  0  0  0
 41 50  1  0  0  0  0
 50 51  1  0  0  0  0
 51 52  1  0  0  0  0
 52 53  1  0  0  0  0
 53 54  1  0  0  0  0
 54 55  1  0  0  0  0
 55 56  2  0  0  0  0
 56 57  1  0  0  0  0
 57 58  1  0  0  0  0
 55 59  1  0  0  0  0
 59 60  1  0  0  0  0
 60 61  1  0  0  0  0
 61 62  1  0  0  0  0
 62 63  1  0  0  0  0
 63 64  1  0  0  0  0
 64 65  2  0  0  0  0
 65 66  1  0  0  0  0
 66 67  2  0  0  0  0
 67 68  1  0  0  0  0
 68 69  1  0  0  0  0
 69 70  1  0  0  0  0
 68 71  2  0  0  0  0
 63 72  2  0  0  0  0
 72 73  1  0  0  0  0
 73 74  1  0  0  0  0
 74 75  1  0  0  0  0
 75 76  1  0  0  0  0
 76 77  1  0  0  0  0
 77 78  1  0  0  0  0
 78 79  1  0  0  0  0
 79 80  1  0  0  0  0
 80 81  1  0  0  0  0
 81 82  1  0  0  0  0
 79 83  1  0  0  0  0
 83 84  1  0  0  0  0
 76 85  1  0  0  0  0
 85 86  1  0  0  0  0
 72 87  1  0  0  0  0
 87 88  2  0  0  0  0
 88 89  1  0  0  0  0
 88 90  1  0  0  0  0
 90 91  1  0  0  0  0
 90 92  2  0  0  0  0
 92 93  1  0  0  0  0
 93 94  2  0  0  0  0
 94 95  1  0  0  0  0
 95 96  1  0  0  0  0
 96 97  1  0  0  0  0
 97 98  1  0  0  0  0
 95 99  2  0  0  0  0
 99100  1  0  0  0  0
100101  2  0  0  0  0
 99102  1  0  0  0  0
 92103  1  0  0  0  0
103104  2  0  0  0  0
104105  1  0  0  0  0
105106  2  0  0  0  0
105107  1  0  0  0  0
107108  2  0  0  0  0
108109  1  0  0  0  0
109110  2  0  0  0  0
110111  1  0  0  0  0
111112  2  0  0  0  0
112113  1  0  0  0  0
113114  2  0  0  0  0
114115  1  0  0  0  0
115116  3  0  0  0  0
114117  1  0  0  0  0
117118  3  0  0  0  0
110119  1  0  0  0  0
119120  1  0  0  0  0
120121  1  0  0  0  0
121122  2  0  0  0  0
122123  1  0  0  0  0
123124  1  0  0  0  0
123125  1  0  0  0  0
 11  2  1  0  0  0  0
 23 17  1  0  0  0  0
 38 24  1  0  0  0  0
 82 40  1  0  0  0  0
101 87  1  0  0  0  0
113104  1  0  0  0  0
125119  1  0  0  0  0
 10  5  1  0  0  0  0
 22 18  1  0  0  0  0
 38 30  1  0  0  0  0
 49 42  1  0  0  0  0
 81 50  2  0  0  0  0
101 93  1  0  0  0  0
112107  1  0  0  0  0
124120  1  0  0  0  0
 23  7  1  0  0  0  0
 80 52  2  0  0  0  0
125109  1  0  0  0  0
 78 53  2  0  0  0  0
 58 54  2  0  0  0  0
 77 59  2  0  0  0  0
 75 60  2  0  0  0  0
 74 62  2  0  0  0  0
 71 64  1  0  0  0  0
  1126  1  0  0  0  0
  6127  1  0  0  0  0
  9128  1  0  0  0  0
 17129  1  0  0  0  0
 18130  1  0  0  0  0
 19131  1  0  0  0  0
 20132  1  0  0  0  0
 21133  1  0  0  0  0
 22134  1  0  0  0  0
 22135  1  0  0  0  0
 23136  1  0  0  0  0
 34137  1  0  0  0  0
 34138  1  0  0  0  0
 35139  1  0  0  0  0
 35140  1  0  0  0  0
 35141  1  0  0  0  0
 39142  1  0  0  0  0
 39143  1  0  0  0  0
 39144  1  0  0  0  0
 43145  1  0  0  0  0
 44146  1  0  0  0  0
 45147  1  0  0  0  0
 47148  1  0  0  0  0
 47149  1  0  0  0  0
 48150  1  0  0  0  0
 48151  1  0  0  0  0
 48152  1  0  0  0  0
 49153  1  0  0  0  0
 65154  1  0  0  0  0
 66155  1  0  0  0  0
 67156  1  0  0  0  0
 69157  1  0  0  0  0
 69158  1  0  0  0  0
 70159  1  0  0  0  0
 70160  1  0  0  0  0
 70161  1  0  0  0  0
 71162  1  0  0  0  0
 83163  1  0  0  0  0
 83164  1  0  0  0  0
 84165  1  0  0  0  0
 84166  1  0  0  0  0
 84167  1  0  0  0  0
 85168  1  0  0  0  0
 85169  1  0  0  0  0
 86170  1  0  0  0  0
 86171  1  0  0  0  0
 86172  1  0  0  0  0
 97173  1  0  0  0  0
 97174  1  0  0  0  0
 98175  1  0  0  0  0
 98176  1  0  0  0  0
 98177  1  0  0  0  0
102178  1  0  0  0  0
102179  1  0  0  0  0
102180  1  0  0  0  0
103181  1  0  0  0  0
108182  1  0  0  0  0
111183  1  0  0  0  0
119184  1  0  0  0  0
120185  1  0  0  0  0
121186  1  0  0  0  0
122187  1  0  0  0  0
123188  1  0  0  0  0
124189  1  0  0  0  0
124190  1  0  0  0  0
125191  1  0  0  0  0
M  END
