183

C          9.57120       -2.45250       -5.52460
C         10.17440       -2.02330       -6.65560
C          9.47710       -1.55520       -7.89160
O          8.40390       -1.92010       -8.31620
C         10.47690       -0.72900       -8.59930
C         10.26590        0.10040       -9.69830
C         11.39350        0.75230      -10.13550
C         12.64870        0.58280       -9.53430
C         12.87730       -0.24440       -8.46210
C         11.73890       -0.91270       -7.99690
C         11.59910       -1.83560       -6.87520
C         12.61880       -2.41670       -6.17220
C         12.43670       -3.33850       -5.11910
N         12.36030       -4.09630       -4.26010
C         13.98810       -2.21110       -6.44100
N         15.11620       -2.08790       -6.61490
C         13.32240        1.54250      -10.48340
C         14.16280        0.91760      -11.61690
C         14.28770        2.03260      -12.63000
C         13.10020        2.19540      -13.19920
C         12.15280        1.19260      -12.58100
C         13.12560        0.03490      -12.32290
C         11.92350        1.73220      -11.15320
C          8.17440       -2.26410       -5.25260
C          7.48840       -1.12190       -5.70480
N          8.07420       -0.09710       -6.38260
C          7.25810        0.84670       -6.65610
C          7.58590        2.03470       -7.47950
C          6.83490        1.95940       -8.81120
S          5.61610        0.60520       -6.06860
C          6.11790       -0.92850       -5.42700
C          5.35670       -1.84520       -4.69920
C          6.06500       -2.93390       -4.16640
C          7.43830       -3.12480       -4.44120
S          7.98720       -4.57640       -3.67040
C          6.34830       -4.79630       -3.03190
C          6.03810       -5.95120       -2.15600
C          6.85400       -5.90220       -0.86370
N          5.51190       -3.89680       -3.37760
C          3.94590       -1.69370       -4.45230
C          2.96720       -1.22550       -5.30750
C          3.16550       -0.95710       -6.73130
C          3.94800       -1.80730       -7.51120
C          4.15920       -1.52010       -8.84490
C          3.58380       -0.39730       -9.41630
C          2.78070        0.44700       -8.66100
C          2.10650        1.63790       -9.27940
C          0.65140        1.30820       -9.61760
C          2.57580        0.15590       -7.32070
C          1.72890       -1.11190       -4.64200
S          0.15630       -0.54680       -5.15320
C         -0.44060       -0.83030       -3.55350
C         -1.59600       -0.58580       -2.79330
C         -2.78510        0.11560       -3.09360
C         -3.68140        0.45850       -2.02290
N         -4.70260        1.19240       -2.43500
S         -4.55830        1.42440       -4.03100
N         -3.18110        0.60340       -4.25840
C         -3.41610       -0.03020       -0.72460
C         -4.10000        0.10780        0.49640
S         -5.45080        0.96950        1.15310
C         -5.10770        0.26330        2.71380
C         -5.68670        0.44610        3.98020
C         -6.83890        1.33040        4.20590
C         -8.06620        1.01420        3.63540
C         -9.15210        1.84240        3.84710
C         -9.01890        2.98390        4.61690
C         -7.79470        3.32290        5.17680
C         -7.63230        4.58220        5.97610
C         -7.14000        5.72550        5.08740
C         -6.70630        2.49330        4.95400
C         -5.04950       -0.31630        4.94420
S         -3.71420       -1.25660        4.27160
C         -4.01420       -0.60760        2.70080
C         -3.43210       -0.68780        1.43240
N         -2.35350       -1.30380        0.84680
C         -2.30400       -0.87730       -0.47060
C         -1.31680       -1.03620       -1.47370
N         -0.01660       -1.50240       -1.43230
C          0.51510       -1.36730       -2.68680
C          1.76300       -1.52050       -3.30780
S          3.33820       -2.07140       -2.85750
C          0.84790       -1.74810       -0.30030
C          1.28620       -3.21040       -0.21850
C         -1.87880       -2.56190        1.38220
C         -2.99370       -3.60740        1.41370
C         -5.33490       -0.44750        6.32720
C         -4.78030       -1.39380        7.17460
C         -5.24160       -1.28550        8.47890
S         -4.82160       -2.37460        9.78970
C         -2.99460       -2.34060        9.69820
C         -2.46340       -0.96650       10.05260
C         -6.14330       -0.22400        8.66760
S         -6.47090        0.57610        7.15020
C         -6.54240        0.21460        9.93120
C         -7.33380        1.28230       10.27430
C         -8.17520        2.05960        9.36090
O         -8.22290        1.98460        8.14410
C         -8.98390        2.95270       10.21070
C         -9.95300        3.85950        9.79080
C        -10.54710        4.55750       10.81500
C        -10.20400        4.36560       12.15950
C         -9.24410        3.47840       12.58720
C         -8.62580        2.76060       11.56090
C         -7.55060        1.77100       11.61670
C         -6.80070        1.46120       12.72410
C         -5.63660        0.66530       12.70950
N         -4.64950        0.07950       12.77120
C         -7.04600        1.96360       14.01740
N         -7.19740        2.32600       15.09680
C        -11.20480        5.38470       12.64350
C        -12.52670        4.86380       13.25960
C        -12.78250        3.50960       12.64640
C        -13.10570        3.69570       11.37360
C        -13.07370        5.17960       11.10310
C        -13.53410        5.71380       12.46880
C        -11.58440        5.60200       11.14470
H         10.15040       -2.90920       -4.73120
H          9.28540        0.20540      -10.13510
H         13.84570       -0.36340       -8.00510
H         13.80180        2.40510      -10.02440
H         15.08550        0.44520      -11.29170
H         15.18270        2.60640      -12.78350
H         12.80530        2.93250      -13.92300
H         11.24490        0.97090      -13.13570
H         13.51050       -0.39310      -13.24700
H         12.71720       -0.75670      -11.69740
H         11.46990        2.72180      -11.14020
H          7.29920        2.94500       -6.94830
H          8.66380        2.04490       -7.65020
H          7.06380        1.02350       -9.31510
H          7.12360        2.78810       -9.45250
H          5.76070        2.00030       -8.64320
H          6.26590       -6.87660       -2.69110
H          4.97030       -5.92780       -1.93350
H          6.63090       -4.99340       -0.30990
H          6.61370       -6.75850       -0.23940
H          7.91840       -5.92190       -1.08610
H          4.38950       -2.68830       -7.06890
H          4.78130       -2.17210       -9.43930
H          3.75960       -0.17530      -10.45930
H          2.13010        2.47820       -8.58200
H          2.63300        1.93260      -10.18950
H          0.16000        2.16970      -10.06380
H          0.10920        1.02440       -8.71860
H          0.60610        0.47920      -10.32040
H          1.97410        0.81990       -6.71770
H         -8.16740        0.11570        3.04440
H        -10.10880        1.59210        3.41250
H         -9.87640        3.61910        4.78680
H         -6.91720        4.41090        6.78270
H         -8.58800        4.85760        6.42480
H         -7.01790        6.63620        5.66930
H         -6.18360        5.47030        4.63670
H         -7.85270        5.91640        4.28800
H         -5.74250        2.75010        5.37040
H          0.34390       -1.42310        0.61030
H          1.74270       -1.12760       -0.42560
H          1.85060       -3.37320        0.69530
H          0.43520       -3.88810       -0.23140
H          1.92250       -3.45600       -1.06430
H         -1.50350       -2.38930        2.39620
H         -1.07680       -2.93540        0.75520
H         -3.39640       -3.75710        0.41410
H         -2.59670       -4.55160        1.77650
H         -3.80100       -3.29800        2.07130
H         -4.08370       -2.14250        6.83890
H         -2.69160       -2.65690        8.70100
H         -2.67860       -3.08720       10.42540
H         -2.83770       -0.65790       11.02650
H         -1.37600       -0.98620       10.08300
H         -2.77730       -0.23190        9.31250
H         -6.12570       -0.37580       10.74010
H        -10.18610        3.97400        8.74370
H         -8.99050        3.34220       13.62540
H        -10.79620        6.22980       13.19400
H        -12.56980        4.91540       14.34420
H        -12.64960        2.58070       13.16940
H        -13.29640        2.95330       10.62080
H        -13.61570        5.51950       10.22430
H        -13.38470        6.78610       12.58800
H        -14.56870        5.45920       12.69380
H        -11.42050        6.58930       10.71670
