
  xtb     02142205593D
 energy: -388.944521017841 gnorm: 0.000611175354 xtb: 6.4.1 (unknown)
243270  0     0  0            999 V2000
   -6.0800   11.9417    1.0260 C   0  0  0  0  0  0  0  0  0  0  0  0
   -5.7413   12.6803    2.1237 C   0  0  0  0  0  0  0  0  0  0  0  0
   -5.1671   12.1820    3.3851 C   0  0  0  0  0  0  0  0  0  0  0  0
   -5.0990   11.0294    3.7717 O   0  0  0  0  0  0  0  0  0  0  0  0
   -4.6552   13.3658    4.0941 C   0  0  0  0  0  0  0  0  0  0  0  0
   -3.9535   13.3786    5.2974 C   0  0  0  0  0  0  0  0  0  0  0  0
   -3.5752   14.6333    5.7094 C   0  0  0  0  0  0  0  0  0  0  0  0
   -3.8660   15.7913    4.9746 C   0  0  0  0  0  0  0  0  0  0  0  0
   -4.5616   15.7930    3.7887 C   0  0  0  0  0  0  0  0  0  0  0  0
   -4.9651   14.5268    3.3559 C   0  0  0  0  0  0  0  0  0  0  0  0
   -5.7234   14.1321    2.1716 C   0  0  0  0  0  0  0  0  0  0  0  0
   -6.3801   14.9766    1.3173 C   0  0  0  0  0  0  0  0  0  0  0  0
   -7.2472   14.5715    0.2775 C   0  0  0  0  0  0  0  0  0  0  0  0
   -8.0103   14.3413   -0.5488 N   0  0  0  0  0  0  0  0  0  0  0  0
   -6.3428   16.3835    1.4124 C   0  0  0  0  0  0  0  0  0  0  0  0
   -6.3490   17.5314    1.4335 N   0  0  0  0  0  0  0  0  0  0  0  0
   -3.1801   16.6914    5.9717 C   0  0  0  0  0  0  0  0  0  0  0  0
   -4.0721   17.5065    6.9402 C   0  0  0  0  0  0  0  0  0  0  0  0
   -5.3585   16.7327    7.0895 C   0  0  0  0  0  0  0  0  0  0  0  0
   -5.0923   15.6361    7.7863 C   0  0  0  0  0  0  0  0  0  0  0  0
   -3.6212   15.6487    8.1214 C   0  0  0  0  0  0  0  0  0  0  0  0
   -3.3913   17.1606    8.2743 C   0  0  0  0  0  0  0  0  0  0  0  0
   -2.8630   15.4022    6.7933 C   0  0  0  0  0  0  0  0  0  0  0  0
   -6.1247   10.5430    0.8658 C   0  0  0  0  0  0  0  0  0  0  0  0
   -5.9867    9.3917    2.1642 S   0  0  0  0  0  0  0  0  0  0  0  0
   -6.2735    8.0489    1.0939 C   0  0  0  0  0  0  0  0  0  0  0  0
   -6.4742    8.4908   -0.2250 C   0  0  0  0  0  0  0  0  0  0  0  0
   -6.8084    7.6289   -1.3494 C   0  0  0  0  0  0  0  0  0  0  0  0
   -6.7814    6.4024   -1.2934 O   0  0  0  0  0  0  0  0  0  0  0  0
   -7.2065    8.3408   -2.5603 C   0  0  0  0  0  0  0  0  0  0  0  0
   -7.7449    7.7561   -3.6790 C   0  0  0  0  0  0  0  0  0  0  0  0
   -8.0143    6.3195   -3.9449 C   0  0  0  0  0  0  0  0  0  0  0  0
   -6.7522    5.6193   -4.4572 C   0  0  0  0  0  0  0  0  0  0  0  0
   -8.0767    8.9416   -4.8973 S   0  0  0  0  0  0  0  0  0  0  0  0
   -7.4741   10.2320   -3.9141 C   0  0  0  0  0  0  0  0  0  0  0  0
   -7.4472   11.6364   -4.3918 C   0  0  0  0  0  0  0  0  0  0  0  0
   -8.2459   11.8563   -5.6681 C   0  0  0  0  0  0  0  0  0  0  0  0
   -7.0583    9.7563   -2.6945 C   0  0  0  0  0  0  0  0  0  0  0  0
   -6.5135   10.5952   -1.6351 C   0  0  0  0  0  0  0  0  0  0  0  0
   -6.1941   11.7612   -1.8132 O   0  0  0  0  0  0  0  0  0  0  0  0
   -6.3817    9.8957   -0.3462 C   0  0  0  0  0  0  0  0  0  0  0  0
   -6.1702    6.7439    1.6326 C   0  0  0  0  0  0  0  0  0  0  0  0
   -6.0774    6.4522    2.9967 C   0  0  0  0  0  0  0  0  0  0  0  0
   -6.3618    7.3897    4.0904 C   0  0  0  0  0  0  0  0  0  0  0  0
   -7.6490    7.8909    4.2674 C   0  0  0  0  0  0  0  0  0  0  0  0
   -7.9052    8.7655    5.3045 C   0  0  0  0  0  0  0  0  0  0  0  0
   -6.8880    9.1466    6.1627 C   0  0  0  0  0  0  0  0  0  0  0  0
   -5.6034    8.6462    6.0054 C   0  0  0  0  0  0  0  0  0  0  0  0
   -4.5060    9.0190    6.9587 C   0  0  0  0  0  0  0  0  0  0  0  0
   -4.3732    7.9635    8.0580 C   0  0  0  0  0  0  0  0  0  0  0  0
   -5.3542    7.7543    4.9732 C   0  0  0  0  0  0  0  0  0  0  0  0
   -5.6953    5.1301    3.2210 C   0  0  0  0  0  0  0  0  0  0  0  0
   -5.3772    4.2258    4.6870 S   0  0  0  0  0  0  0  0  0  0  0  0
   -4.9523    2.8605    3.7091 C   0  0  0  0  0  0  0  0  0  0  0  0
   -4.4892    1.5454    3.8607 C   0  0  0  0  0  0  0  0  0  0  0  0
   -4.2762    0.7668    5.0190 C   0  0  0  0  0  0  0  0  0  0  0  0
   -3.8361   -0.5899    4.8704 C   0  0  0  0  0  0  0  0  0  0  0  0
   -3.7132   -1.2138    6.0313 N   0  0  0  0  0  0  0  0  0  0  0  0
   -4.1159   -0.1799    7.2121 S   0  0  0  0  0  0  0  0  0  0  0  0
   -4.4595    1.1033    6.2859 N   0  0  0  0  0  0  0  0  0  0  0  0
   -3.5274   -1.0673    3.5781 C   0  0  0  0  0  0  0  0  0  0  0  0
   -2.9102   -2.2588    3.1684 C   0  0  0  0  0  0  0  0  0  0  0  0
   -2.2786   -3.7152    3.8607 S   0  0  0  0  0  0  0  0  0  0  0  0
   -1.6613   -4.1633    2.2880 C   0  0  0  0  0  0  0  0  0  0  0  0
   -0.8933   -5.2583    1.8449 C   0  0  0  0  0  0  0  0  0  0  0  0
   -0.5129   -6.3708    2.7182 C   0  0  0  0  0  0  0  0  0  0  0  0
   -0.8023   -7.6848    2.3597 C   0  0  0  0  0  0  0  0  0  0  0  0
   -0.4911   -8.7161    3.2243 C   0  0  0  0  0  0  0  0  0  0  0  0
    0.1029   -8.4474    4.4451 C   0  0  0  0  0  0  0  0  0  0  0  0
    0.4058   -7.1433    4.8137 C   0  0  0  0  0  0  0  0  0  0  0  0
    1.0099   -6.8390    6.1540 C   0  0  0  0  0  0  0  0  0  0  0  0
   -0.0864   -6.4758    7.1576 C   0  0  0  0  0  0  0  0  0  0  0  0
    0.0871   -6.1114    3.9442 C   0  0  0  0  0  0  0  0  0  0  0  0
   -0.5794   -5.1416    0.5045 C   0  0  0  0  0  0  0  0  0  0  0  0
   -1.2877   -3.7042   -0.2280 S   0  0  0  0  0  0  0  0  0  0  0  0
   -1.9621   -3.2343    1.2909 C   0  0  0  0  0  0  0  0  0  0  0  0
   -2.6861   -2.1465    1.7945 C   0  0  0  0  0  0  0  0  0  0  0  0
   -3.1811   -0.9582    1.3323 N   0  0  0  0  0  0  0  0  0  0  0  0
   -3.7002   -0.2647    2.4140 C   0  0  0  0  0  0  0  0  0  0  0  0
   -4.2903    1.0205    2.5499 C   0  0  0  0  0  0  0  0  0  0  0  0
   -4.6778    1.9848    1.6342 N   0  0  0  0  0  0  0  0  0  0  0  0
   -5.0704    3.0934    2.3359 C   0  0  0  0  0  0  0  0  0  0  0  0
   -5.5003    4.3931    2.0465 C   0  0  0  0  0  0  0  0  0  0  0  0
   -5.8694    5.3212    0.6379 S   0  0  0  0  0  0  0  0  0  0  0  0
   -5.0714    1.8552    0.2483 C   0  0  0  0  0  0  0  0  0  0  0  0
   -6.1514    0.7906    0.0726 C   0  0  0  0  0  0  0  0  0  0  0  0
   -2.8225   -0.5065    0.0076 C   0  0  0  0  0  0  0  0  0  0  0  0
   -1.7755    0.6038    0.0538 C   0  0  0  0  0  0  0  0  0  0  0  0
    0.3429   -5.8816   -0.2855 C   0  0  0  0  0  0  0  0  0  0  0  0
    0.5962   -5.6662   -1.6119 C   0  0  0  0  0  0  0  0  0  0  0  0
    1.6930   -6.3977   -2.1139 C   0  0  0  0  0  0  0  0  0  0  0  0
    2.2199   -6.3750   -3.4210 C   0  0  0  0  0  0  0  0  0  0  0  0
    1.6798   -5.5179   -4.4565 C   0  0  0  0  0  0  0  0  0  0  0  0
    1.4781   -5.8089   -5.7786 C   0  0  0  0  0  0  0  0  0  0  0  0
    0.9395   -4.7322   -6.5042 C   0  0  0  0  0  0  0  0  0  0  0  0
    0.7388   -3.6018   -5.7640 C   0  0  0  0  0  0  0  0  0  0  0  0
    0.0567   -1.9230   -6.2837 Si  0  0  0  0  0  4  0  0  0  0  0  0
   -1.0907   -1.2053   -4.9205 C   0  0  0  0  0  0  0  0  0  0  0  0
   -1.9214   -2.2326   -4.1560 C   0  0  0  0  0  0  0  0  0  0  0  0
    1.5491   -0.7463   -6.5128 C   0  0  0  0  0  0  0  0  0  0  0  0
    1.1504    0.6661   -6.9251 C   0  0  0  0  0  0  0  0  0  0  0  0
   -0.8714   -2.1424   -7.9418 C   0  0  0  0  0  0  0  0  0  0  0  0
   -2.1224   -3.0103   -7.8493 C   0  0  0  0  0  0  0  0  0  0  0  0
    1.2329   -3.8704   -4.1268 S   0  0  0  0  0  0  0  0  0  0  0  0
    3.3217   -7.1885   -3.6540 C   0  0  0  0  0  0  0  0  0  0  0  0
    3.9113   -8.0094   -2.6550 C   0  0  0  0  0  0  0  0  0  0  0  0
    3.3453   -8.0713   -1.3574 C   0  0  0  0  0  0  0  0  0  0  0  0
    3.8680   -8.9658   -0.3522 C   0  0  0  0  0  0  0  0  0  0  0  0
    4.3610  -10.2352   -0.5232 C   0  0  0  0  0  0  0  0  0  0  0  0
    4.7573  -10.8380    0.6800 C   0  0  0  0  0  0  0  0  0  0  0  0
    4.5851  -10.0474    1.7815 C   0  0  0  0  0  0  0  0  0  0  0  0
    4.9054  -10.3950    3.6059 Si  0  0  0  0  0  4  0  0  0  0  0  0
    5.8453  -12.0537    3.7394 C   0  0  0  0  0  0  0  0  0  0  0  0
    6.1599  -12.4409    5.1803 C   0  0  0  0  0  0  0  0  0  0  0  0
    5.9114   -8.9324    4.3165 C   0  0  0  0  0  0  0  0  0  0  0  0
    7.2708   -8.7628    3.6454 C   0  0  0  0  0  0  0  0  0  0  0  0
    3.1965  -10.4662    4.4642 C   0  0  0  0  0  0  0  0  0  0  0  0
    2.2771  -11.5234    3.8608 C   0  0  0  0  0  0  0  0  0  0  0  0
    3.9002   -8.5257    1.3303 S   0  0  0  0  0  0  0  0  0  0  0  0
    2.2676   -7.2287   -1.1192 C   0  0  0  0  0  0  0  0  0  0  0  0
    1.4336   -7.0623    0.4066 S   0  0  0  0  0  0  0  0  0  0  0  0
    5.1024   -8.6126   -3.0984 C   0  0  0  0  0  0  0  0  0  0  0  0
    5.4304   -8.3106   -4.3985 C   0  0  0  0  0  0  0  0  0  0  0  0
    4.2176   -7.2640   -5.1394 S   0  0  0  0  0  0  0  0  0  0  0  0
    6.5247   -8.6740   -5.2133 C   0  0  0  0  0  0  0  0  0  0  0  0
    7.7047   -9.2948   -4.9143 C   0  0  0  0  0  0  0  0  0  0  0  0
    8.2484   -9.6798   -3.5903 C   0  0  0  0  0  0  0  0  0  0  0  0
    7.6732   -9.7732   -2.5247 O   0  0  0  0  0  0  0  0  0  0  0  0
    9.6831   -9.9447   -3.8087 C   0  0  0  0  0  0  0  0  0  0  0  0
   10.6311  -10.2389   -2.8303 C   0  0  0  0  0  0  0  0  0  0  0  0
   11.9029  -10.4134   -3.3195 C   0  0  0  0  0  0  0  0  0  0  0  0
   12.2103  -10.3074   -4.6829 C   0  0  0  0  0  0  0  0  0  0  0  0
   11.2836  -10.0296   -5.6589 C   0  0  0  0  0  0  0  0  0  0  0  0
    9.9818   -9.8461   -5.1810 C   0  0  0  0  0  0  0  0  0  0  0  0
    8.7493   -9.5370   -5.8988 C   0  0  0  0  0  0  0  0  0  0  0  0
    8.6020   -9.5526   -7.2609 C   0  0  0  0  0  0  0  0  0  0  0  0
    7.3899   -9.3706   -7.9615 C   0  0  0  0  0  0  0  0  0  0  0  0
    6.4514   -9.2651   -8.6153 N   0  0  0  0  0  0  0  0  0  0  0  0
    9.6483   -9.8116   -8.1711 C   0  0  0  0  0  0  0  0  0  0  0  0
   10.4484  -10.0102   -8.9705 N   0  0  0  0  0  0  0  0  0  0  0  0
   13.6765  -10.5791   -4.4556 C   0  0  0  0  0  0  0  0  0  0  0  0
   14.6176   -9.3564   -4.4979 C   0  0  0  0  0  0  0  0  0  0  0  0
   15.8618   -9.8327   -3.7838 C   0  0  0  0  0  0  0  0  0  0  0  0
   15.5717   -9.9361   -2.4932 C   0  0  0  0  0  0  0  0  0  0  0  0
   14.1266   -9.5307   -2.3131 C   0  0  0  0  0  0  0  0  0  0  0  0
   14.0146   -8.4613   -3.4074 C   0  0  0  0  0  0  0  0  0  0  0  0
   13.3338  -10.6996   -2.9360 C   0  0  0  0  0  0  0  0  0  0  0  0
   -6.3127   12.4849    0.1167 H   0  0  0  0  0  0  0  0  0  0  0  0
   -3.7442   12.4608    5.8246 H   0  0  0  0  0  0  0  0  0  0  0  0
   -4.7720   16.6908    3.2316 H   0  0  0  0  0  0  0  0  0  0  0  0
   -2.3420   17.2716    5.5908 H   0  0  0  0  0  0  0  0  0  0  0  0
   -4.1711   18.5582    6.6856 H   0  0  0  0  0  0  0  0  0  0  0  0
   -6.2882   17.0248    6.6375 H   0  0  0  0  0  0  0  0  0  0  0  0
   -5.7560   14.8281    8.0328 H   0  0  0  0  0  0  0  0  0  0  0  0
   -3.3105   15.0093    8.9437 H   0  0  0  0  0  0  0  0  0  0  0  0
   -3.9113   17.5810    9.1337 H   0  0  0  0  0  0  0  0  0  0  0  0
   -2.3386   17.4381    8.3092 H   0  0  0  0  0  0  0  0  0  0  0  0
   -1.8181   15.1438    6.9548 H   0  0  0  0  0  0  0  0  0  0  0  0
   -8.3252    5.8395   -3.0149 H   0  0  0  0  0  0  0  0  0  0  0  0
   -8.8124    6.2280   -4.6843 H   0  0  0  0  0  0  0  0  0  0  0  0
   -6.9721    4.5797   -4.6840 H   0  0  0  0  0  0  0  0  0  0  0  0
   -6.3843    6.1049   -5.3586 H   0  0  0  0  0  0  0  0  0  0  0  0
   -5.9793    5.6531   -3.6940 H   0  0  0  0  0  0  0  0  0  0  0  0
   -6.4020   11.9246   -4.5477 H   0  0  0  0  0  0  0  0  0  0  0  0
   -7.8149   12.2813   -3.5874 H   0  0  0  0  0  0  0  0  0  0  0  0
   -8.2006   12.9016   -5.9609 H   0  0  0  0  0  0  0  0  0  0  0  0
   -7.8465   11.2521   -6.4808 H   0  0  0  0  0  0  0  0  0  0  0  0
   -9.2887   11.5849   -5.5184 H   0  0  0  0  0  0  0  0  0  0  0  0
   -8.4355    7.5963    3.5877 H   0  0  0  0  0  0  0  0  0  0  0  0
   -8.9029    9.1564    5.4426 H   0  0  0  0  0  0  0  0  0  0  0  0
   -7.0950    9.8438    6.9621 H   0  0  0  0  0  0  0  0  0  0  0  0
   -4.7239    9.9885    7.4112 H   0  0  0  0  0  0  0  0  0  0  0  0
   -3.5623    9.0978    6.4156 H   0  0  0  0  0  0  0  0  0  0  0  0
   -3.5705    8.2248    8.7440 H   0  0  0  0  0  0  0  0  0  0  0  0
   -4.1577    6.9899    7.6239 H   0  0  0  0  0  0  0  0  0  0  0  0
   -5.3005    7.8867    8.6215 H   0  0  0  0  0  0  0  0  0  0  0  0
   -4.3589    7.3586    4.8321 H   0  0  0  0  0  0  0  0  0  0  0  0
   -1.2865   -7.8884    1.4158 H   0  0  0  0  0  0  0  0  0  0  0  0
   -0.7201   -9.7348    2.9485 H   0  0  0  0  0  0  0  0  0  0  0  0
    0.3280   -9.2570    5.1236 H   0  0  0  0  0  0  0  0  0  0  0  0
    1.5635   -7.7067    6.5182 H   0  0  0  0  0  0  0  0  0  0  0  0
    1.7058   -6.0025    6.0635 H   0  0  0  0  0  0  0  0  0  0  0  0
    0.3468   -6.2454    8.1281 H   0  0  0  0  0  0  0  0  0  0  0  0
   -0.6454   -5.6098    6.8107 H   0  0  0  0  0  0  0  0  0  0  0  0
   -0.7806   -7.3050    7.2747 H   0  0  0  0  0  0  0  0  0  0  0  0
    0.3157   -5.0914    4.2178 H   0  0  0  0  0  0  0  0  0  0  0  0
   -4.2061    1.6583   -0.3850 H   0  0  0  0  0  0  0  0  0  0  0  0
   -5.4722    2.8270   -0.0503 H   0  0  0  0  0  0  0  0  0  0  0  0
   -6.4251    0.7103   -0.9759 H   0  0  0  0  0  0  0  0  0  0  0  0
   -5.8110   -0.1807    0.4245 H   0  0  0  0  0  0  0  0  0  0  0  0
   -7.0370    1.0648    0.6412 H   0  0  0  0  0  0  0  0  0  0  0  0
   -3.7111   -0.1998   -0.5444 H   0  0  0  0  0  0  0  0  0  0  0  0
   -2.4030   -1.3716   -0.5123 H   0  0  0  0  0  0  0  0  0  0  0  0
   -0.8614    0.2308    0.5094 H   0  0  0  0  0  0  0  0  0  0  0  0
   -2.1252    1.4514    0.6384 H   0  0  0  0  0  0  0  0  0  0  0  0
   -1.5470    0.9394   -0.9542 H   0  0  0  0  0  0  0  0  0  0  0  0
    0.0071   -4.9880   -2.2014 H   0  0  0  0  0  0  0  0  0  0  0  0
    1.6761   -6.7758   -6.2057 H   0  0  0  0  0  0  0  0  0  0  0  0
    0.7017   -4.7907   -7.5510 H   0  0  0  0  0  0  0  0  0  0  0  0
   -1.7660   -0.4809   -5.3799 H   0  0  0  0  0  0  0  0  0  0  0  0
   -0.4860   -0.6496   -4.2017 H   0  0  0  0  0  0  0  0  0  0  0  0
   -2.5183   -2.8364   -4.8337 H   0  0  0  0  0  0  0  0  0  0  0  0
   -2.5937   -1.7387   -3.4557 H   0  0  0  0  0  0  0  0  0  0  0  0
   -1.2768   -2.8979   -3.5884 H   0  0  0  0  0  0  0  0  0  0  0  0
    2.1171   -0.6973   -5.5826 H   0  0  0  0  0  0  0  0  0  0  0  0
    2.2259   -1.1562   -7.2634 H   0  0  0  0  0  0  0  0  0  0  0  0
    0.6274    0.6532   -7.8779 H   0  0  0  0  0  0  0  0  0  0  0  0
    0.4937    1.1126   -6.1825 H   0  0  0  0  0  0  0  0  0  0  0  0
    2.0280    1.3016   -7.0294 H   0  0  0  0  0  0  0  0  0  0  0  0
   -0.1928   -2.5748   -8.6782 H   0  0  0  0  0  0  0  0  0  0  0  0
   -1.1539   -1.1625   -8.3277 H   0  0  0  0  0  0  0  0  0  0  0  0
   -2.8644   -2.5431   -7.2069 H   0  0  0  0  0  0  0  0  0  0  0  0
   -1.8827   -3.9884   -7.4394 H   0  0  0  0  0  0  0  0  0  0  0  0
   -2.5686   -3.1514   -8.8324 H   0  0  0  0  0  0  0  0  0  0  0  0
    4.3940  -10.7332   -1.4755 H   0  0  0  0  0  0  0  0  0  0  0  0
    5.1627  -11.8321    0.7369 H   0  0  0  0  0  0  0  0  0  0  0  0
    5.2572  -12.8498    3.2814 H   0  0  0  0  0  0  0  0  0  0  0  0
    6.7770  -11.9972    3.1755 H   0  0  0  0  0  0  0  0  0  0  0  0
    6.6979  -13.3866    5.2201 H   0  0  0  0  0  0  0  0  0  0  0  0
    5.2445  -12.5474    5.7570 H   0  0  0  0  0  0  0  0  0  0  0  0
    6.7740  -11.6810    5.6568 H   0  0  0  0  0  0  0  0  0  0  0  0
    5.3375   -8.0134    4.1866 H   0  0  0  0  0  0  0  0  0  0  0  0
    6.0561   -9.0569    5.3902 H   0  0  0  0  0  0  0  0  0  0  0  0
    7.7972   -7.8992    4.0483 H   0  0  0  0  0  0  0  0  0  0  0  0
    7.1510   -8.6198    2.5742 H   0  0  0  0  0  0  0  0  0  0  0  0
    7.8905   -9.6420    3.8028 H   0  0  0  0  0  0  0  0  0  0  0  0
    2.7155   -9.4906    4.3744 H   0  0  0  0  0  0  0  0  0  0  0  0
    3.3141  -10.6608    5.5309 H   0  0  0  0  0  0  0  0  0  0  0  0
    2.7109  -12.5152    3.9606 H   0  0  0  0  0  0  0  0  0  0  0  0
    2.1183  -11.3263    2.8033 H   0  0  0  0  0  0  0  0  0  0  0  0
    1.3076  -11.5269    4.3557 H   0  0  0  0  0  0  0  0  0  0  0  0
    5.7335   -9.2169   -2.4749 H   0  0  0  0  0  0  0  0  0  0  0  0
    6.4070   -8.3481   -6.2408 H   0  0  0  0  0  0  0  0  0  0  0  0
   10.3494  -10.3113   -1.7914 H   0  0  0  0  0  0  0  0  0  0  0  0
   11.5361   -9.9510   -6.7030 H   0  0  0  0  0  0  0  0  0  0  0  0
   14.0842  -11.4476   -4.9692 H   0  0  0  0  0  0  0  0  0  0  0  0
   14.7550   -8.9219   -5.4842 H   0  0  0  0  0  0  0  0  0  0  0  0
   16.7779  -10.0904   -4.2822 H   0  0  0  0  0  0  0  0  0  0  0  0
   16.1972  -10.2973   -1.6980 H   0  0  0  0  0  0  0  0  0  0  0  0
   13.8173   -9.2544   -1.3086 H   0  0  0  0  0  0  0  0  0  0  0  0
   12.9949   -8.1391   -3.6104 H   0  0  0  0  0  0  0  0  0  0  0  0
   14.6361   -7.5921   -3.1984 H   0  0  0  0  0  0  0  0  0  0  0  0
   13.5119  -11.6497   -2.4358 H   0  0  0  0  0  0  0  0  0  0  0  0
  1  2  2  0  0  0  0
  2  3  1  0  0  0  0
  3  4  2  0  0  0  0
  3  5  1  0  0  0  0
  5  6  2  0  0  0  0
  6  7  1  0  0  0  0
  7  8  2  0  0  0  0
  8  9  1  0  0  0  0
  9 10  2  0  0  0  0
 10 11  1  0  0  0  0
 11 12  2  0  0  0  0
 12 13  1  0  0  0  0
 13 14  3  0  0  0  0
 12 15  1  0  0  0  0
 15 16  3  0  0  0  0
  8 17  1  0  0  0  0
 17 18  1  0  0  0  0
 18 19  1  0  0  0  0
 19 20  2  0  0  0  0
 20 21  1  0  0  0  0
 21 22  1  0  0  0  0
 21 23  1  0  0  0  0
  1 24  1  0  0  0  0
 24 25  1  0  0  0  0
 25 26  1  0  0  0  0
 26 27  2  0  0  0  0
 27 28  1  0  0  0  0
 28 29  2  0  0  0  0
 28 30  1  0  0  0  0
 30 31  2  0  0  0  0
 31 32  1  0  0  0  0
 32 33  1  0  0  0  0
 31 34  1  0  0  0  0
 34 35  1  0  0  0  0
 35 36  1  0  0  0  0
 36 37  1  0  0  0  0
 35 38  2  0  0  0  0
 38 39  1  0  0  0  0
 39 40  2  0  0  0  0
 39 41  1  0  0  0  0
 26 42  1  0  0  0  0
 42 43  2  0  0  0  0
 43 44  1  0  0  0  0
 44 45  2  0  0  0  0
 45 46  1  0  0  0  0
 46 47  2  0  0  0  0
 47 48  1  0  0  0  0
 48 49  1  0  0  0  0
 49 50  1  0  0  0  0
 48 51  2  0  0  0  0
 43 52  1  0  0  0  0
 52 53  1  0  0  0  0
 53 54  1  0  0  0  0
 54 55  1  0  0  0  0
 55 56  1  0  0  0  0
 56 57  1  0  0  0  0
 57 58  2  0  0  0  0
 58 59  1  0  0  0  0
 59 60  1  0  0  0  0
 57 61  1  0  0  0  0
 61 62  1  0  0  0  0
 62 63  1  0  0  0  0
 63 64  1  0  0  0  0
 64 65  1  0  0  0  0
 65 66  1  0  0  0  0
 66 67  2  0  0  0  0
 67 68  1  0  0  0  0
 68 69  2  0  0  0  0
 69 70  1  0  0  0  0
 70 71  1  0  0  0  0
 71 72  1  0  0  0  0
 70 73  2  0  0  0  0
 65 74  2  0  0  0  0
 74 75  1  0  0  0  0
 75 76  1  0  0  0  0
 76 77  1  0  0  0  0
 77 78  1  0  0  0  0
 78 79  1  0  0  0  0
 79 80  1  0  0  0  0
 80 81  1  0  0  0  0
 81 82  1  0  0  0  0
 82 83  1  0  0  0  0
 83 84  1  0  0  0  0
 81 85  1  0  0  0  0
 85 86  1  0  0  0  0
 78 87  1  0  0  0  0
 87 88  1  0  0  0  0
 74 89  1  0  0  0  0
 89 90  2  0  0  0  0
 90 91  1  0  0  0  0
 91 92  2  0  0  0  0
 92 93  1  0  0  0  0
 93 94  2  0  0  0  0
 94 95  1  0  0  0  0
 95 96  2  0  0  0  0
 96 97  1  0  0  0  0
 97 98  1  0  0  0  0
 98 99  1  0  0  0  0
 97100  1  0  0  0  0
100101  1  0  0  0  0
 97102  1  0  0  0  0
102103  1  0  0  0  0
 96104  1  0  0  0  0
 92105  1  0  0  0  0
105106  2  0  0  0  0
106107  1  0  0  0  0
107108  1  0  0  0  0
108109  2  0  0  0  0
109110  1  0  0  0  0
110111  2  0  0  0  0
111112  1  0  0  0  0
112113  1  0  0  0  0
113114  1  0  0  0  0
112115  1  0  0  0  0
115116  1  0  0  0  0
112117  1  0  0  0  0
117118  1  0  0  0  0
111119  1  0  0  0  0
107120  2  0  0  0  0
120121  1  0  0  0  0
106122  1  0  0  0  0
122123  2  0  0  0  0
123124  1  0  0  0  0
123125  1  0  0  0  0
125126  2  0  0  0  0
126127  1  0  0  0  0
127128  2  0  0  0  0
127129  1  0  0  0  0
129130  2  0  0  0  0
130131  1  0  0  0  0
131132  2  0  0  0  0
132133  1  0  0  0  0
133134  2  0  0  0  0
134135  1  0  0  0  0
135136  2  0  0  0  0
136137  1  0  0  0  0
137138  3  0  0  0  0
136139  1  0  0  0  0
139140  3  0  0  0  0
132141  1  0  0  0  0
141142  1  0  0  0  0
142143  1  0  0  0  0
143144  2  0  0  0  0
144145  1  0  0  0  0
145146  1  0  0  0  0
145147  1  0  0  0  0
 11  2  1  0  0  0  0
 23 17  1  0  0  0  0
 41 24  2  0  0  0  0
 84 42  1  0  0  0  0
121 89  1  0  0  0  0
135126  1  0  0  0  0
147141  1  0  0  0  0
 10  5  1  0  0  0  0
 22 18  1  0  0  0  0
 41 27  1  0  0  0  0
 51 44  1  0  0  0  0
 83 52  2  0  0  0  0
120 91  1  0  0  0  0
134129  1  0  0  0  0
146142  1  0  0  0  0
 23  7  1  0  0  0  0
 38 30  1  0  0  0  0
 82 54  2  0  0  0  0
104 93  1  0  0  0  0
124105  1  0  0  0  0
147131  1  0  0  0  0
 80 55  2  0  0  0  0
119108  1  0  0  0  0
 60 56  2  0  0  0  0
 79 61  2  0  0  0  0
 77 62  2  0  0  0  0
 76 64  2  0  0  0  0
 73 66  1  0  0  0  0
  1148  1  0  0  0  0
  6149  1  0  0  0  0
  9150  1  0  0  0  0
 17151  1  0  0  0  0
 18152  1  0  0  0  0
 19153  1  0  0  0  0
 20154  1  0  0  0  0
 21155  1  0  0  0  0
 22156  1  0  0  0  0
 22157  1  0  0  0  0
 23158  1  0  0  0  0
 32159  1  0  0  0  0
 32160  1  0  0  0  0
 33161  1  0  0  0  0
 33162  1  0  0  0  0
 33163  1  0  0  0  0
 36164  1  0  0  0  0
 36165  1  0  0  0  0
 37166  1  0  0  0  0
 37167  1  0  0  0  0
 37168  1  0  0  0  0
 45169  1  0  0  0  0
 46170  1  0  0  0  0
 47171  1  0  0  0  0
 49172  1  0  0  0  0
 49173  1  0  0  0  0
 50174  1  0  0  0  0
 50175  1  0  0  0  0
 50176  1  0  0  0  0
 51177  1  0  0  0  0
 67178  1  0  0  0  0
 68179  1  0  0  0  0
 69180  1  0  0  0  0
 71181  1  0  0  0  0
 71182  1  0  0  0  0
 72183  1  0  0  0  0
 72184  1  0  0  0  0
 72185  1  0  0  0  0
 73186  1  0  0  0  0
 85187  1  0  0  0  0
 85188  1  0  0  0  0
 86189  1  0  0  0  0
 86190  1  0  0  0  0
 86191  1  0  0  0  0
 87192  1  0  0  0  0
 87193  1  0  0  0  0
 88194  1  0  0  0  0
 88195  1  0  0  0  0
 88196  1  0  0  0  0
 90197  1  0  0  0  0
 94198  1  0  0  0  0
 95199  1  0  0  0  0
 98200  1  0  0  0  0
 98201  1  0  0  0  0
 99202  1  0  0  0  0
 99203  1  0  0  0  0
 99204  1  0  0  0  0
100205  1  0  0  0  0
100206  1  0  0  0  0
101207  1  0  0  0  0
101208  1  0  0  0  0
101209  1  0  0  0  0
102210  1  0  0  0  0
102211  1  0  0  0  0
103212  1  0  0  0  0
103213  1  0  0  0  0
103214  1  0  0  0  0
109215  1  0  0  0  0
110216  1  0  0  0  0
113217  1  0  0  0  0
113218  1  0  0  0  0
114219  1  0  0  0  0
114220  1  0  0  0  0
114221  1  0  0  0  0
115222  1  0  0  0  0
115223  1  0  0  0  0
116224  1  0  0  0  0
116225  1  0  0  0  0
116226  1  0  0  0  0
117227  1  0  0  0  0
117228  1  0  0  0  0
118229  1  0  0  0  0
118230  1  0  0  0  0
118231  1  0  0  0  0
122232  1  0  0  0  0
125233  1  0  0  0  0
130234  1  0  0  0  0
133235  1  0  0  0  0
141236  1  0  0  0  0
142237  1  0  0  0  0
143238  1  0  0  0  0
144239  1  0  0  0  0
145240  1  0  0  0  0
146241  1  0  0  0  0
146242  1  0  0  0  0
147243  1  0  0  0  0
M  END
