
  xtb     02262204493D
 energy: -315.598368552253 gnorm: 0.000630374108 xtb: 6.4.1 (unknown)
192212  0     0  0            999 V2000
    5.3442   -7.5188   -3.8352 C   0  0  0  0  0  0  0  0  0  0  0  0
    6.1712   -6.9837   -4.7745 C   0  0  0  0  0  0  0  0  0  0  0  0
    6.5048   -5.5426   -4.9115 C   0  0  0  0  0  0  0  0  0  0  0  0
    6.2985   -4.6371   -4.1272 O   0  0  0  0  0  0  0  0  0  0  0  0
    7.0925   -5.3986   -6.2526 C   0  0  0  0  0  0  0  0  0  0  0  0
    7.4899   -4.2086   -6.8595 C   0  0  0  0  0  0  0  0  0  0  0  0
    8.0045   -4.3698   -8.1225 C   0  0  0  0  0  0  0  0  0  0  0  0
    8.1181   -5.6239   -8.7391 C   0  0  0  0  0  0  0  0  0  0  0  0
    7.7355   -6.8055   -8.1498 C   0  0  0  0  0  0  0  0  0  0  0  0
    7.2049   -6.6638   -6.8642 C   0  0  0  0  0  0  0  0  0  0  0  0
    6.6863   -7.6709   -5.9444 C   0  0  0  0  0  0  0  0  0  0  0  0
    6.7432   -9.0275   -6.1196 C   0  0  0  0  0  0  0  0  0  0  0  0
    6.2929   -9.9823   -5.1822 C   0  0  0  0  0  0  0  0  0  0  0  0
    5.9533  -10.8214   -4.4760 N   0  0  0  0  0  0  0  0  0  0  0  0
    7.2881   -9.6615   -7.2559 C   0  0  0  0  0  0  0  0  0  0  0  0
    7.7066  -10.2379   -8.1561 N   0  0  0  0  0  0  0  0  0  0  0  0
    8.6942   -5.0378  -10.0035 C   0  0  0  0  0  0  0  0  0  0  0  0
    7.7547   -4.9047  -11.2277 C   0  0  0  0  0  0  0  0  0  0  0  0
    6.3532   -4.7874  -10.6818 C   0  0  0  0  0  0  0  0  0  0  0  0
    6.2443   -3.6019  -10.0972 C   0  0  0  0  0  0  0  0  0  0  0  0
    7.5703   -2.8956  -10.2378 C   0  0  0  0  0  0  0  0  0  0  0  0
    8.0226   -3.4383  -11.6028 C   0  0  0  0  0  0  0  0  0  0  0  0
    8.5678   -3.6415   -9.3166 C   0  0  0  0  0  0  0  0  0  0  0  0
    4.8702   -6.8453   -2.6802 C   0  0  0  0  0  0  0  0  0  0  0  0
    3.2406   -7.1472   -2.1349 S   0  0  0  0  0  0  0  0  0  0  0  0
    3.3482   -5.9052   -0.9153 C   0  0  0  0  0  0  0  0  0  0  0  0
    4.6251   -5.3290   -0.9171 C   0  0  0  0  0  0  0  0  0  0  0  0
    5.0564   -4.2296   -0.0610 C   0  0  0  0  0  0  0  0  0  0  0  0
    4.3352   -3.7226    0.7930 O   0  0  0  0  0  0  0  0  0  0  0  0
    6.4009   -3.7333   -0.3378 C   0  0  0  0  0  0  0  0  0  0  0  0
    6.9514   -2.6160    0.2429 C   0  0  0  0  0  0  0  0  0  0  0  0
    6.3526   -1.6824    1.2333 C   0  0  0  0  0  0  0  0  0  0  0  0
    5.3827   -0.7090    0.5571 C   0  0  0  0  0  0  0  0  0  0  0  0
    8.5397   -2.3214   -0.3751 S   0  0  0  0  0  0  0  0  0  0  0  0
    8.4902   -3.7263   -1.3872 C   0  0  0  0  0  0  0  0  0  0  0  0
    9.6600   -4.1012   -2.2209 C   0  0  0  0  0  0  0  0  0  0  0  0
   10.5945   -5.0361   -1.4476 C   0  0  0  0  0  0  0  0  0  0  0  0
    7.2920   -4.3748   -1.2560 C   0  0  0  0  0  0  0  0  0  0  0  0
    6.9352   -5.6134   -1.9440 C   0  0  0  0  0  0  0  0  0  0  0  0
    7.7454   -6.3813   -2.4270 O   0  0  0  0  0  0  0  0  0  0  0  0
    5.4847   -5.8962   -1.8891 C   0  0  0  0  0  0  0  0  0  0  0  0
    2.1729   -5.5532   -0.2015 C   0  0  0  0  0  0  0  0  0  0  0  0
    0.9974   -6.3064   -0.1266 C   0  0  0  0  0  0  0  0  0  0  0  0
    0.8839   -7.7291   -0.4503 C   0  0  0  0  0  0  0  0  0  0  0  0
   -0.1694   -8.1896   -1.2337 C   0  0  0  0  0  0  0  0  0  0  0  0
   -0.2790   -9.5392   -1.5124 C   0  0  0  0  0  0  0  0  0  0  0  0
    0.6494  -10.4337   -1.0115 C   0  0  0  0  0  0  0  0  0  0  0  0
    1.7003   -9.9933   -0.2143 C   0  0  0  0  0  0  0  0  0  0  0  0
    2.6778  -10.9699    0.3722 C   0  0  0  0  0  0  0  0  0  0  0  0
    2.1641  -11.5013    1.7117 C   0  0  0  0  0  0  0  0  0  0  0  0
    1.8025   -8.6408    0.0662 C   0  0  0  0  0  0  0  0  0  0  0  0
   -0.0701   -5.5441    0.3603 C   0  0  0  0  0  0  0  0  0  0  0  0
   -1.7582   -5.9074    0.6589 S   0  0  0  0  0  0  0  0  0  0  0  0
   -1.9971   -4.2628    1.1479 C   0  0  0  0  0  0  0  0  0  0  0  0
   -3.0468   -3.3951    1.4872 C   0  0  0  0  0  0  0  0  0  0  0  0
   -4.4484   -3.5763    1.4997 C   0  0  0  0  0  0  0  0  0  0  0  0
   -5.2999   -2.4271    1.6403 C   0  0  0  0  0  0  0  0  0  0  0  0
   -6.5836   -2.7355    1.5478 N   0  0  0  0  0  0  0  0  0  0  0  0
   -6.7132   -4.3325    1.3145 S   0  0  0  0  0  0  0  0  0  0  0  0
   -5.1352   -4.6923    1.3152 N   0  0  0  0  0  0  0  0  0  0  0  0
   -4.7144   -1.1649    1.8846 C   0  0  0  0  0  0  0  0  0  0  0  0
   -5.2693    0.1106    2.0849 C   0  0  0  0  0  0  0  0  0  0  0  0
   -6.8141    0.8955    2.0598 S   0  0  0  0  0  0  0  0  0  0  0  0
   -6.0213    2.4120    2.4212 C   0  0  0  0  0  0  0  0  0  0  0  0
   -6.4959    3.7196    2.5954 C   0  0  0  0  0  0  0  0  0  0  0  0
   -7.9191    4.0764    2.5378 C   0  0  0  0  0  0  0  0  0  0  0  0
   -8.6397    3.8906    1.3644 C   0  0  0  0  0  0  0  0  0  0  0  0
   -9.9775    4.2383    1.3196 C   0  0  0  0  0  0  0  0  0  0  0  0
  -10.6008    4.7605    2.4384 C   0  0  0  0  0  0  0  0  0  0  0  0
   -9.8997    4.9309    3.6267 C   0  0  0  0  0  0  0  0  0  0  0  0
  -10.5915    5.4404    4.8581 C   0  0  0  0  0  0  0  0  0  0  0  0
  -11.2353    4.2825    5.6233 C   0  0  0  0  0  0  0  0  0  0  0  0
   -8.5596    4.5793    3.6662 C   0  0  0  0  0  0  0  0  0  0  0  0
   -5.4593    4.6102    2.8446 C   0  0  0  0  0  0  0  0  0  0  0  0
   -3.8899    3.8100    2.9003 S   0  0  0  0  0  0  0  0  0  0  0  0
   -4.6352    2.2914    2.5641 C   0  0  0  0  0  0  0  0  0  0  0  0
   -4.2089    0.9753    2.3740 C   0  0  0  0  0  0  0  0  0  0  0  0
   -3.0202    0.2918    2.3605 N   0  0  0  0  0  0  0  0  0  0  0  0
   -3.3056   -1.0200    2.0213 C   0  0  0  0  0  0  0  0  0  0  0  0
   -2.4655   -2.1110    1.6915 C   0  0  0  0  0  0  0  0  0  0  0  0
   -1.1087   -2.1965    1.4491 N   0  0  0  0  0  0  0  0  0  0  0  0
   -0.8276   -3.4947    1.1170 C   0  0  0  0  0  0  0  0  0  0  0  0
    0.2760   -4.2216    0.6603 C   0  0  0  0  0  0  0  0  0  0  0  0
    1.9595   -3.9306    0.4330 S   0  0  0  0  0  0  0  0  0  0  0  0
   -0.1482   -1.1546    1.1573 C   0  0  0  0  0  0  0  0  0  0  0  0
    0.9775   -1.0919    2.1903 C   0  0  0  0  0  0  0  0  0  0  0  0
   -1.9040    0.7952    3.1326 C   0  0  0  0  0  0  0  0  0  0  0  0
   -2.2785    0.9823    4.6028 C   0  0  0  0  0  0  0  0  0  0  0  0
   -5.5242    6.0223    2.9509 C   0  0  0  0  0  0  0  0  0  0  0  0
   -4.4805    6.9026    3.2386 C   0  0  0  0  0  0  0  0  0  0  0  0
   -3.1085    6.4574    3.5511 C   0  0  0  0  0  0  0  0  0  0  0  0
   -2.1353    6.4563    2.5493 C   0  0  0  0  0  0  0  0  0  0  0  0
   -0.8608    6.0018    2.8518 C   0  0  0  0  0  0  0  0  0  0  0  0
   -0.5328    5.5526    4.1213 C   0  0  0  0  0  0  0  0  0  0  0  0
    0.8615    5.0901    4.4328 C   0  0  0  0  0  0  0  0  0  0  0  0
    1.7307    6.2717    4.8674 C   0  0  0  0  0  0  0  0  0  0  0  0
   -1.5078    5.5801    5.1074 C   0  0  0  0  0  0  0  0  0  0  0  0
   -2.7934    6.0227    4.8421 C   0  0  0  0  0  0  0  0  0  0  0  0
   -3.8122    6.0620    5.9466 C   0  0  0  0  0  0  0  0  0  0  0  0
   -3.8380    7.4410    6.6083 C   0  0  0  0  0  0  0  0  0  0  0  0
   -2.4341    6.9432    1.1588 C   0  0  0  0  0  0  0  0  0  0  0  0
   -1.9725    8.3901    0.9753 C   0  0  0  0  0  0  0  0  0  0  0  0
   -4.8696    8.2373    3.1955 C   0  0  0  0  0  0  0  0  0  0  0  0
   -6.2049    8.4310    2.8739 C   0  0  0  0  0  0  0  0  0  0  0  0
   -6.9932    6.8867    2.6278 S   0  0  0  0  0  0  0  0  0  0  0  0
   -6.8985    9.6487    2.7546 C   0  0  0  0  0  0  0  0  0  0  0  0
   -6.3847   10.9272    2.8328 C   0  0  0  0  0  0  0  0  0  0  0  0
   -5.0460   11.2950    3.0143 C   0  0  0  0  0  0  0  0  0  0  0  0
   -3.9353   11.5489    3.1558 N   0  0  0  0  0  0  0  0  0  0  0  0
   -7.4762   11.8533    2.6688 C   0  0  0  0  0  0  0  0  0  0  0  0
   -7.4380   13.2226    2.6681 C   0  0  0  0  0  0  0  0  0  0  0  0
   -6.2531   13.9601    2.8382 C   0  0  0  0  0  0  0  0  0  0  0  0
   -5.3198   14.6142    2.9710 N   0  0  0  0  0  0  0  0  0  0  0  0
   -8.6168   13.9733    2.4887 C   0  0  0  0  0  0  0  0  0  0  0  0
   -9.5741   14.5885    2.3445 N   0  0  0  0  0  0  0  0  0  0  0  0
   -8.6272   11.1868    2.5026 O   0  0  0  0  0  0  0  0  0  0  0  0
   -8.3894    9.7721    2.5174 C   0  0  0  0  0  0  0  0  0  0  0  0
   -9.2186    9.1676    3.6534 C   0  0  0  0  0  0  0  0  0  0  0  0
   -8.8245    9.2183    1.1575 C   0  0  0  0  0  0  0  0  0  0  0  0
    4.9289   -8.5054   -4.0013 H   0  0  0  0  0  0  0  0  0  0  0  0
    7.3852   -3.2646   -6.3475 H   0  0  0  0  0  0  0  0  0  0  0  0
    7.8254   -7.7614   -8.6383 H   0  0  0  0  0  0  0  0  0  0  0  0
    9.6885   -5.3829  -10.2790 H   0  0  0  0  0  0  0  0  0  0  0  0
    7.9085   -5.6553  -11.9980 H   0  0  0  0  0  0  0  0  0  0  0  0
    5.6255   -5.5765  -10.7256 H   0  0  0  0  0  0  0  0  0  0  0  0
    5.4074   -3.2028   -9.5545 H   0  0  0  0  0  0  0  0  0  0  0  0
    7.5555   -1.8166  -10.1078 H   0  0  0  0  0  0  0  0  0  0  0  0
    9.0679   -3.2314  -11.8275 H   0  0  0  0  0  0  0  0  0  0  0  0
    7.3945   -3.0921  -12.4222 H   0  0  0  0  0  0  0  0  0  0  0  0
    9.4794   -3.0725   -9.1452 H   0  0  0  0  0  0  0  0  0  0  0  0
    7.1480   -1.1235    1.7298 H   0  0  0  0  0  0  0  0  0  0  0  0
    5.8018   -2.2620    1.9766 H   0  0  0  0  0  0  0  0  0  0  0  0
    4.9952   -0.0073    1.2908 H   0  0  0  0  0  0  0  0  0  0  0  0
    4.5492   -1.2573    0.1267 H   0  0  0  0  0  0  0  0  0  0  0  0
    5.8861   -0.1520   -0.2299 H   0  0  0  0  0  0  0  0  0  0  0  0
    9.3009   -4.6202   -3.1118 H   0  0  0  0  0  0  0  0  0  0  0  0
   10.2025   -3.2021   -2.5209 H   0  0  0  0  0  0  0  0  0  0  0  0
   11.4633   -5.2762   -2.0541 H   0  0  0  0  0  0  0  0  0  0  0  0
   10.0722   -5.9584   -1.2083 H   0  0  0  0  0  0  0  0  0  0  0  0
   10.9293   -4.5658   -0.5252 H   0  0  0  0  0  0  0  0  0  0  0  0
   -0.8859   -7.4886   -1.6342 H   0  0  0  0  0  0  0  0  0  0  0  0
   -1.0935   -9.8941   -2.1261 H   0  0  0  0  0  0  0  0  0  0  0  0
    0.5606  -11.4860   -1.2389 H   0  0  0  0  0  0  0  0  0  0  0  0
    3.6431  -10.4828    0.5232 H   0  0  0  0  0  0  0  0  0  0  0  0
    2.8215  -11.8048   -0.3161 H   0  0  0  0  0  0  0  0  0  0  0  0
    1.2064  -11.9997    1.5794 H   0  0  0  0  0  0  0  0  0  0  0  0
    2.0289  -10.6840    2.4168 H   0  0  0  0  0  0  0  0  0  0  0  0
    2.8704  -12.2119    2.1343 H   0  0  0  0  0  0  0  0  0  0  0  0
    2.6044   -8.2831    0.6977 H   0  0  0  0  0  0  0  0  0  0  0  0
   -8.1469    3.4883    0.4922 H   0  0  0  0  0  0  0  0  0  0  0  0
  -10.5359    4.1018    0.4056 H   0  0  0  0  0  0  0  0  0  0  0  0
  -11.6443    5.0363    2.3937 H   0  0  0  0  0  0  0  0  0  0  0  0
  -11.3636    6.1598    4.5779 H   0  0  0  0  0  0  0  0  0  0  0  0
   -9.8726    5.9449    5.5071 H   0  0  0  0  0  0  0  0  0  0  0  0
  -11.7359    4.6491    6.5162 H   0  0  0  0  0  0  0  0  0  0  0  0
  -11.9663    3.7756    4.9977 H   0  0  0  0  0  0  0  0  0  0  0  0
  -10.4796    3.5587    5.9198 H   0  0  0  0  0  0  0  0  0  0  0  0
   -7.9997    4.6981    4.5839 H   0  0  0  0  0  0  0  0  0  0  0  0
    0.2956   -1.3800    0.1810 H   0  0  0  0  0  0  0  0  0  0  0  0
   -0.6739   -0.2033    1.0699 H   0  0  0  0  0  0  0  0  0  0  0  0
    1.6172   -1.9655    2.1028 H   0  0  0  0  0  0  0  0  0  0  0  0
    1.5829   -0.2069    2.0160 H   0  0  0  0  0  0  0  0  0  0  0  0
    0.5915   -1.0596    3.2069 H   0  0  0  0  0  0  0  0  0  0  0  0
   -1.5897    1.7553    2.7092 H   0  0  0  0  0  0  0  0  0  0  0  0
   -1.0864    0.0858    3.0781 H   0  0  0  0  0  0  0  0  0  0  0  0
   -3.0513    1.7363    4.7190 H   0  0  0  0  0  0  0  0  0  0  0  0
   -2.6370    0.0447    5.0224 H   0  0  0  0  0  0  0  0  0  0  0  0
   -1.4018    1.3033    5.1587 H   0  0  0  0  0  0  0  0  0  0  0  0
   -0.1109    5.9895    2.0732 H   0  0  0  0  0  0  0  0  0  0  0  0
    0.8361    4.3481    5.2336 H   0  0  0  0  0  0  0  0  0  0  0  0
    1.3034    4.6250    3.5489 H   0  0  0  0  0  0  0  0  0  0  0  0
    1.7746    7.0187    4.0783 H   0  0  0  0  0  0  0  0  0  0  0  0
    2.7422    5.9398    5.0894 H   0  0  0  0  0  0  0  0  0  0  0  0
    1.3148    6.7396    5.7565 H   0  0  0  0  0  0  0  0  0  0  0  0
   -1.2646    5.2402    6.1045 H   0  0  0  0  0  0  0  0  0  0  0  0
   -3.5611    5.3094    6.6968 H   0  0  0  0  0  0  0  0  0  0  0  0
   -4.8058    5.8304    5.5568 H   0  0  0  0  0  0  0  0  0  0  0  0
   -4.5454    7.4528    7.4344 H   0  0  0  0  0  0  0  0  0  0  0  0
   -2.8520    7.6929    6.9914 H   0  0  0  0  0  0  0  0  0  0  0  0
   -4.1301    8.2042    5.8907 H   0  0  0  0  0  0  0  0  0  0  0  0
   -3.5041    6.8747    0.9532 H   0  0  0  0  0  0  0  0  0  0  0  0
   -1.9117    6.3096    0.4381 H   0  0  0  0  0  0  0  0  0  0  0  0
   -2.4998    9.0547    1.6548 H   0  0  0  0  0  0  0  0  0  0  0  0
   -2.1615    8.7203   -0.0435 H   0  0  0  0  0  0  0  0  0  0  0  0
   -0.9072    8.4751    1.1753 H   0  0  0  0  0  0  0  0  0  0  0  0
   -4.1954    9.0476    3.4030 H   0  0  0  0  0  0  0  0  0  0  0  0
   -9.1516    8.0838    3.6371 H   0  0  0  0  0  0  0  0  0  0  0  0
   -8.8666    9.5370    4.6146 H   0  0  0  0  0  0  0  0  0  0  0  0
  -10.2560    9.4646    3.5252 H   0  0  0  0  0  0  0  0  0  0  0  0
   -8.1990    9.6285    0.3671 H   0  0  0  0  0  0  0  0  0  0  0  0
   -8.7556    8.1349    1.1445 H   0  0  0  0  0  0  0  0  0  0  0  0
   -9.8543    9.5137    0.9748 H   0  0  0  0  0  0  0  0  0  0  0  0
  1  2  2  0  0  0  0
  2  3  1  0  0  0  0
  3  4  2  0  0  0  0
  3  5  1  0  0  0  0
  5  6  2  0  0  0  0
  6  7  1  0  0  0  0
  7  8  2  0  0  0  0
  8  9  1  0  0  0  0
  9 10  2  0  0  0  0
 10 11  1  0  0  0  0
 11 12  2  0  0  0  0
 12 13  1  0  0  0  0
 13 14  3  0  0  0  0
 12 15  1  0  0  0  0
 15 16  3  0  0  0  0
  8 17  1  0  0  0  0
 17 18  1  0  0  0  0
 18 19  1  0  0  0  0
 19 20  2  0  0  0  0
 20 21  1  0  0  0  0
 21 22  1  0  0  0  0
 21 23  1  0  0  0  0
  1 24  1  0  0  0  0
 24 25  1  0  0  0  0
 25 26  1  0  0  0  0
 26 27  2  0  0  0  0
 27 28  1  0  0  0  0
 28 29  2  0  0  0  0
 28 30  1  0  0  0  0
 30 31  2  0  0  0  0
 31 32  1  0  0  0  0
 32 33  1  0  0  0  0
 31 34  1  0  0  0  0
 34 35  1  0  0  0  0
 35 36  1  0  0  0  0
 36 37  1  0  0  0  0
 35 38  2  0  0  0  0
 38 39  1  0  0  0  0
 39 40  2  0  0  0  0
 39 41  1  0  0  0  0
 26 42  1  0  0  0  0
 42 43  2  0  0  0  0
 43 44  1  0  0  0  0
 44 45  2  0  0  0  0
 45 46  1  0  0  0  0
 46 47  2  0  0  0  0
 47 48  1  0  0  0  0
 48 49  1  0  0  0  0
 49 50  1  0  0  0  0
 48 51  2  0  0  0  0
 43 52  1  0  0  0  0
 52 53  1  0  0  0  0
 53 54  1  0  0  0  0
 54 55  1  0  0  0  0
 55 56  1  0  0  0  0
 56 57  1  0  0  0  0
 57 58  2  0  0  0  0
 58 59  1  0  0  0  0
 59 60  1  0  0  0  0
 57 61  1  0  0  0  0
 61 62  1  0  0  0  0
 62 63  1  0  0  0  0
 63 64  1  0  0  0  0
 64 65  1  0  0  0  0
 65 66  1  0  0  0  0
 66 67  2  0  0  0  0
 67 68  1  0  0  0  0
 68 69  2  0  0  0  0
 69 70  1  0  0  0  0
 70 71  1  0  0  0  0
 71 72  1  0  0  0  0
 70 73  2  0  0  0  0
 65 74  2  0  0  0  0
 74 75  1  0  0  0  0
 75 76  1  0  0  0  0
 76 77  1  0  0  0  0
 77 78  1  0  0  0  0
 78 79  1  0  0  0  0
 79 80  1  0  0  0  0
 80 81  1  0  0  0  0
 81 82  1  0  0  0  0
 82 83  1  0  0  0  0
 83 84  1  0  0  0  0
 81 85  1  0  0  0  0
 85 86  1  0  0  0  0
 78 87  1  0  0  0  0
 87 88  1  0  0  0  0
 74 89  1  0  0  0  0
 89 90  2  0  0  0  0
 90 91  1  0  0  0  0
 91 92  2  0  0  0  0
 92 93  1  0  0  0  0
 93 94  2  0  0  0  0
 94 95  1  0  0  0  0
 95 96  1  0  0  0  0
 94 97  1  0  0  0  0
 97 98  2  0  0  0  0
 98 99  1  0  0  0  0
 99100  1  0  0  0  0
 92101  1  0  0  0  0
101102  1  0  0  0  0
 90103  1  0  0  0  0
103104  2  0  0  0  0
104105  1  0  0  0  0
104106  1  0  0  0  0
106107  2  0  0  0  0
107108  1  0  0  0  0
108109  3  0  0  0  0
107110  1  0  0  0  0
110111  2  0  0  0  0
111112  1  0  0  0  0
112113  3  0  0  0  0
111114  1  0  0  0  0
114115  3  0  0  0  0
110116  1  0  0  0  0
116117  1  0  0  0  0
117118  1  0  0  0  0
117119  1  0  0  0  0
 11  2  1  0  0  0  0
 23 17  1  0  0  0  0
 41 24  2  0  0  0  0
 84 42  1  0  0  0  0
105 89  1  0  0  0  0
117106  1  0  0  0  0
 10  5  1  0  0  0  0
 22 18  1  0  0  0  0
 41 27  1  0  0  0  0
 51 44  1  0  0  0  0
 83 52  2  0  0  0  0
 98 91  1  0  0  0  0
 23  7  1  0  0  0  0
 38 30  1  0  0  0  0
 82 54  2  0  0  0  0
 80 55  2  0  0  0  0
 60 56  2  0  0  0  0
 79 61  2  0  0  0  0
 77 62  2  0  0  0  0
 76 64  2  0  0  0  0
 73 66  1  0  0  0  0
  1120  1  0  0  0  0
  6121  1  0  0  0  0
  9122  1  0  0  0  0
 17123  1  0  0  0  0
 18124  1  0  0  0  0
 19125  1  0  0  0  0
 20126  1  0  0  0  0
 21127  1  0  0  0  0
 22128  1  0  0  0  0
 22129  1  0  0  0  0
 23130  1  0  0  0  0
 32131  1  0  0  0  0
 32132  1  0  0  0  0
 33133  1  0  0  0  0
 33134  1  0  0  0  0
 33135  1  0  0  0  0
 36136  1  0  0  0  0
 36137  1  0  0  0  0
 37138  1  0  0  0  0
 37139  1  0  0  0  0
 37140  1  0  0  0  0
 45141  1  0  0  0  0
 46142  1  0  0  0  0
 47143  1  0  0  0  0
 49144  1  0  0  0  0
 49145  1  0  0  0  0
 50146  1  0  0  0  0
 50147  1  0  0  0  0
 50148  1  0  0  0  0
 51149  1  0  0  0  0
 67150  1  0  0  0  0
 68151  1  0  0  0  0
 69152  1  0  0  0  0
 71153  1  0  0  0  0
 71154  1  0  0  0  0
 72155  1  0  0  0  0
 72156  1  0  0  0  0
 72157  1  0  0  0  0
 73158  1  0  0  0  0
 85159  1  0  0  0  0
 85160  1  0  0  0  0
 86161  1  0  0  0  0
 86162  1  0  0  0  0
 86163  1  0  0  0  0
 87164  1  0  0  0  0
 87165  1  0  0  0  0
 88166  1  0  0  0  0
 88167  1  0  0  0  0
 88168  1  0  0  0  0
 93169  1  0  0  0  0
 95170  1  0  0  0  0
 95171  1  0  0  0  0
 96172  1  0  0  0  0
 96173  1  0  0  0  0
 96174  1  0  0  0  0
 97175  1  0  0  0  0
 99176  1  0  0  0  0
 99177  1  0  0  0  0
100178  1  0  0  0  0
100179  1  0  0  0  0
100180  1  0  0  0  0
101181  1  0  0  0  0
101182  1  0  0  0  0
102183  1  0  0  0  0
102184  1  0  0  0  0
102185  1  0  0  0  0
103186  1  0  0  0  0
118187  1  0  0  0  0
118188  1  0  0  0  0
118189  1  0  0  0  0
119190  1  0  0  0  0
119191  1  0  0  0  0
119192  1  0  0  0  0
M  END
