
  xtb     02162206043D
 energy: -316.591946182502 gnorm: 0.000465379318 xtb: 6.4.1 (unknown)
187211  0     0  0            999 V2000
   -0.0189    2.7086  -10.1141 C   0  0  0  0  0  0  0  0  0  0  0  0
   -0.7526    3.8307  -10.3630 C   0  0  0  0  0  0  0  0  0  0  0  0
   -1.8684    4.3535   -9.5549 C   0  0  0  0  0  0  0  0  0  0  0  0
   -2.5198    3.7580   -8.7169 O   0  0  0  0  0  0  0  0  0  0  0  0
   -2.0262    5.7629   -9.9521 C   0  0  0  0  0  0  0  0  0  0  0  0
   -2.8820    6.7037   -9.3831 C   0  0  0  0  0  0  0  0  0  0  0  0
   -2.7785    7.9586   -9.9330 C   0  0  0  0  0  0  0  0  0  0  0  0
   -1.8902    8.2588  -10.9752 C   0  0  0  0  0  0  0  0  0  0  0  0
   -1.0520    7.3375  -11.5571 C   0  0  0  0  0  0  0  0  0  0  0  0
   -1.1406    6.0542  -11.0115 C   0  0  0  0  0  0  0  0  0  0  0  0
   -0.4145    4.8360  -11.3558 C   0  0  0  0  0  0  0  0  0  0  0  0
    0.3694    4.6423  -12.4606 C   0  0  0  0  0  0  0  0  0  0  0  0
    0.9245    3.4009  -12.8452 C   0  0  0  0  0  0  0  0  0  0  0  0
    1.3631    2.4238  -13.2585 N   0  0  0  0  0  0  0  0  0  0  0  0
    0.6596    5.6441  -13.4102 C   0  0  0  0  0  0  0  0  0  0  0  0
    0.9336    6.4198  -14.2110 N   0  0  0  0  0  0  0  0  0  0  0  0
   -2.2925    9.7113  -11.0066 C   0  0  0  0  0  0  0  0  0  0  0  0
   -1.3366   10.7373  -10.3480 C   0  0  0  0  0  0  0  0  0  0  0  0
   -0.5743    9.9932   -9.2798 C   0  0  0  0  0  0  0  0  0  0  0  0
   -1.4215    9.7116   -8.2989 C   0  0  0  0  0  0  0  0  0  0  0  0
   -2.7728   10.2592   -8.6871 C   0  0  0  0  0  0  0  0  0  0  0  0
   -2.3426   11.5060   -9.4764 C   0  0  0  0  0  0  0  0  0  0  0  0
   -3.2874    9.3762   -9.8510 C   0  0  0  0  0  0  0  0  0  0  0  0
   -0.2144    1.7073   -9.1414 C   0  0  0  0  0  0  0  0  0  0  0  0
   -1.6720    1.4838   -8.2148 S   0  0  0  0  0  0  0  0  0  0  0  0
   -1.0295    0.0653   -7.4365 C   0  0  0  0  0  0  0  0  0  0  0  0
    0.2733   -0.2074   -7.8734 C   0  0  0  0  0  0  0  0  0  0  0  0
    1.0769   -1.3459   -7.4423 C   0  0  0  0  0  0  0  0  0  0  0  0
    0.7976   -2.0440   -6.4740 O   0  0  0  0  0  0  0  0  0  0  0  0
    2.2459   -1.6008   -8.2800 C   0  0  0  0  0  0  0  0  0  0  0  0
    3.0079   -2.7411   -8.2361 C   0  0  0  0  0  0  0  0  0  0  0  0
    2.8682   -3.9219   -7.3455 C   0  0  0  0  0  0  0  0  0  0  0  0
    3.5804   -3.6789   -6.0114 C   0  0  0  0  0  0  0  0  0  0  0  0
    4.2947   -2.6651   -9.3921 S   0  0  0  0  0  0  0  0  0  0  0  0
    3.8258   -1.0853   -9.9246 C   0  0  0  0  0  0  0  0  0  0  0  0
    4.6141   -0.3771  -10.9642 C   0  0  0  0  0  0  0  0  0  0  0  0
    5.6776    0.5158  -10.3174 C   0  0  0  0  0  0  0  0  0  0  0  0
    2.7153   -0.6537   -9.2447 C   0  0  0  0  0  0  0  0  0  0  0  0
    2.0597    0.6346   -9.4575 C   0  0  0  0  0  0  0  0  0  0  0  0
    2.5771    1.5509  -10.0764 O   0  0  0  0  0  0  0  0  0  0  0  0
    0.7223    0.7127   -8.8464 C   0  0  0  0  0  0  0  0  0  0  0  0
   -1.8107   -0.5616   -6.4308 C   0  0  0  0  0  0  0  0  0  0  0  0
   -3.1952   -0.4442   -6.2861 C   0  0  0  0  0  0  0  0  0  0  0  0
   -4.1058    0.0528   -7.3184 C   0  0  0  0  0  0  0  0  0  0  0  0
   -5.0826    0.9894   -6.9987 C   0  0  0  0  0  0  0  0  0  0  0  0
   -5.9382    1.4519   -7.9806 C   0  0  0  0  0  0  0  0  0  0  0  0
   -5.8335    0.9812   -9.2764 C   0  0  0  0  0  0  0  0  0  0  0  0
   -4.8743    0.0315   -9.6101 C   0  0  0  0  0  0  0  0  0  0  0  0
   -4.7944   -0.5189  -11.0052 C   0  0  0  0  0  0  0  0  0  0  0  0
   -5.7343   -1.7157  -11.1637 C   0  0  0  0  0  0  0  0  0  0  0  0
   -4.0211   -0.4302   -8.6221 C   0  0  0  0  0  0  0  0  0  0  0  0
   -3.6207   -0.9107   -5.0375 C   0  0  0  0  0  0  0  0  0  0  0  0
   -5.1940   -1.0297   -4.2756 S   0  0  0  0  0  0  0  0  0  0  0  0
   -4.4299   -1.6416   -2.8450 C   0  0  0  0  0  0  0  0  0  0  0  0
   -4.7656   -2.0287   -1.5337 C   0  0  0  0  0  0  0  0  0  0  0  0
   -5.9865   -2.2541   -0.8556 C   0  0  0  0  0  0  0  0  0  0  0  0
   -5.9630   -2.7530    0.4986 C   0  0  0  0  0  0  0  0  0  0  0  0
   -7.1776   -2.9798    0.9710 N   0  0  0  0  0  0  0  0  0  0  0  0
   -8.2582   -2.5968   -0.1724 S   0  0  0  0  0  0  0  0  0  0  0  0
   -7.2184   -2.1248   -1.3198 N   0  0  0  0  0  0  0  0  0  0  0  0
   -4.7269   -2.8454    1.1808 C   0  0  0  0  0  0  0  0  0  0  0  0
   -4.3780   -3.0463    2.5313 C   0  0  0  0  0  0  0  0  0  0  0  0
   -5.1269   -3.4291    4.0459 S   0  0  0  0  0  0  0  0  0  0  0  0
   -3.5986   -3.1655    4.8549 C   0  0  0  0  0  0  0  0  0  0  0  0
   -3.1975   -3.2115    6.2102 C   0  0  0  0  0  0  0  0  0  0  0  0
   -4.0403   -3.7086    7.2971 C   0  0  0  0  0  0  0  0  0  0  0  0
   -5.3999   -3.4116    7.3407 C   0  0  0  0  0  0  0  0  0  0  0  0
   -6.1856   -3.9279    8.3534 C   0  0  0  0  0  0  0  0  0  0  0  0
   -5.6312   -4.7456    9.3222 C   0  0  0  0  0  0  0  0  0  0  0  0
   -4.2768   -5.0571    9.2923 C   0  0  0  0  0  0  0  0  0  0  0  0
   -3.6760   -5.9780   10.3153 C   0  0  0  0  0  0  0  0  0  0  0  0
   -3.7421   -7.4280    9.8322 C   0  0  0  0  0  0  0  0  0  0  0  0
   -3.4932   -4.5356    8.2745 C   0  0  0  0  0  0  0  0  0  0  0  0
   -1.8740   -2.8410    6.3478 C   0  0  0  0  0  0  0  0  0  0  0  0
   -1.0908   -2.5271    4.8042 S   0  0  0  0  0  0  0  0  0  0  0  0
   -2.5733   -2.8214    3.9743 C   0  0  0  0  0  0  0  0  0  0  0  0
   -3.0126   -2.7701    2.6469 C   0  0  0  0  0  0  0  0  0  0  0  0
   -2.4814   -2.4611    1.4201 N   0  0  0  0  0  0  0  0  0  0  0  0
   -3.5216   -2.5195    0.5106 C   0  0  0  0  0  0  0  0  0  0  0  0
   -3.5343   -2.2982   -0.8818 C   0  0  0  0  0  0  0  0  0  0  0  0
   -2.4944   -2.1792   -1.7800 N   0  0  0  0  0  0  0  0  0  0  0  0
   -3.0399   -1.7636   -2.9686 C   0  0  0  0  0  0  0  0  0  0  0  0
   -2.5748   -1.3621   -4.2239 C   0  0  0  0  0  0  0  0  0  0  0  0
   -1.0584   -1.3281   -5.0403 S   0  0  0  0  0  0  0  0  0  0  0  0
   -1.2411   -2.9050   -1.7389 C   0  0  0  0  0  0  0  0  0  0  0  0
   -1.2654   -4.1090   -2.6796 C   0  0  0  0  0  0  0  0  0  0  0  0
   -1.3135   -1.6080    1.3348 C   0  0  0  0  0  0  0  0  0  0  0  0
   -1.5978   -0.2263    1.9233 C   0  0  0  0  0  0  0  0  0  0  0  0
   -1.0949   -2.5761    7.5219 C   0  0  0  0  0  0  0  0  0  0  0  0
   -1.4282   -1.8315    8.6352 C   0  0  0  0  0  0  0  0  0  0  0  0
   -2.7356   -1.1525    8.8952 C   0  0  0  0  0  0  0  0  0  0  0  0
   -3.3721   -1.6112   10.2060 C   0  0  0  0  0  0  0  0  0  0  0  0
   -0.3111   -1.6792    9.4763 C   0  0  0  0  0  0  0  0  0  0  0  0
    0.8664   -2.2787    9.0111 C   0  0  0  0  0  0  0  0  0  0  0  0
    0.5894   -3.0892    7.5105 S   0  0  0  0  0  0  0  0  0  0  0  0
    1.9884   -2.0470    9.7965 C   0  0  0  0  0  0  0  0  0  0  0  0
    1.6943   -1.2496   10.8893 C   0  0  0  0  0  0  0  0  0  0  0  0
   -0.0239   -0.8291   10.9433 S   0  0  0  0  0  0  0  0  0  0  0  0
    2.4889   -0.7136   11.9222 C   0  0  0  0  0  0  0  0  0  0  0  0
    3.8467   -0.6436   12.0673 C   0  0  0  0  0  0  0  0  0  0  0  0
    4.9009   -1.0112   11.0938 C   0  0  0  0  0  0  0  0  0  0  0  0
    4.8081   -1.6783   10.0832 O   0  0  0  0  0  0  0  0  0  0  0  0
    6.1396   -0.3825   11.5893 C   0  0  0  0  0  0  0  0  0  0  0  0
    7.3759   -0.3674   10.9464 C   0  0  0  0  0  0  0  0  0  0  0  0
    8.3503    0.3212   11.6270 C   0  0  0  0  0  0  0  0  0  0  0  0
    8.1151    0.9461   12.8594 C   0  0  0  0  0  0  0  0  0  0  0  0
    6.9041    0.9291   13.5092 C   0  0  0  0  0  0  0  0  0  0  0  0
    5.8964    0.2350   12.8311 C   0  0  0  0  0  0  0  0  0  0  0  0
    4.5001    0.0089   13.1915 C   0  0  0  0  0  0  0  0  0  0  0  0
    3.9384    0.3013   14.4068 C   0  0  0  0  0  0  0  0  0  0  0  0
    2.6201   -0.0146   14.8001 C   0  0  0  0  0  0  0  0  0  0  0  0
    1.5746   -0.2536   15.2114 N   0  0  0  0  0  0  0  0  0  0  0  0
    4.6241    0.9236   15.4711 C   0  0  0  0  0  0  0  0  0  0  0  0
    5.1156    1.4299   16.3771 N   0  0  0  0  0  0  0  0  0  0  0  0
    9.5271    1.4688   12.9541 C   0  0  0  0  0  0  0  0  0  0  0  0
    9.7312    2.9626   12.6234 C   0  0  0  0  0  0  0  0  0  0  0  0
   11.2098    3.0695   12.3276 C   0  0  0  0  0  0  0  0  0  0  0  0
   11.4318    2.4778   11.1609 C   0  0  0  0  0  0  0  0  0  0  0  0
   10.1070    1.9605   10.6488 C   0  0  0  0  0  0  0  0  0  0  0  0
    9.1708    3.0450   11.1976 C   0  0  0  0  0  0  0  0  0  0  0  0
    9.7891    0.7715   11.5807 C   0  0  0  0  0  0  0  0  0  0  0  0
    0.8926    2.5774  -10.6870 H   0  0  0  0  0  0  0  0  0  0  0  0
   -3.5477    6.4321   -8.5788 H   0  0  0  0  0  0  0  0  0  0  0  0
   -0.3722    7.5814  -12.3566 H   0  0  0  0  0  0  0  0  0  0  0  0
   -2.7036   10.0733  -11.9467 H   0  0  0  0  0  0  0  0  0  0  0  0
   -0.7396   11.3125  -11.0505 H   0  0  0  0  0  0  0  0  0  0  0  0
    0.4574    9.7074   -9.3693 H   0  0  0  0  0  0  0  0  0  0  0  0
   -1.2393    9.1433   -7.4056 H   0  0  0  0  0  0  0  0  0  0  0  0
   -3.4845   10.4001   -7.8778 H   0  0  0  0  0  0  0  0  0  0  0  0
   -3.1523   11.9601  -10.0461 H   0  0  0  0  0  0  0  0  0  0  0  0
   -1.8674   12.2583   -8.8488 H   0  0  0  0  0  0  0  0  0  0  0  0
   -4.3504    9.5137  -10.0387 H   0  0  0  0  0  0  0  0  0  0  0  0
    1.8082   -4.0923   -7.1470 H   0  0  0  0  0  0  0  0  0  0  0  0
    3.2912   -4.8016   -7.8344 H   0  0  0  0  0  0  0  0  0  0  0  0
    3.1187   -2.8402   -5.4975 H   0  0  0  0  0  0  0  0  0  0  0  0
    3.4971   -4.5608   -5.3823 H   0  0  0  0  0  0  0  0  0  0  0  0
    4.6339   -3.4617   -6.1739 H   0  0  0  0  0  0  0  0  0  0  0  0
    3.9422    0.2520  -11.5518 H   0  0  0  0  0  0  0  0  0  0  0  0
    5.0947   -1.1055  -11.6203 H   0  0  0  0  0  0  0  0  0  0  0  0
    6.3397   -0.0718   -9.6846 H   0  0  0  0  0  0  0  0  0  0  0  0
    5.1964    1.2817   -9.7152 H   0  0  0  0  0  0  0  0  0  0  0  0
    6.2684    1.0016  -11.0886 H   0  0  0  0  0  0  0  0  0  0  0  0
   -5.1527    1.3668   -5.9901 H   0  0  0  0  0  0  0  0  0  0  0  0
   -6.6888    2.1877   -7.7333 H   0  0  0  0  0  0  0  0  0  0  0  0
   -6.5010    1.3526  -10.0407 H   0  0  0  0  0  0  0  0  0  0  0  0
   -5.0728    0.2552  -11.7232 H   0  0  0  0  0  0  0  0  0  0  0  0
   -3.7712   -0.8326  -11.2221 H   0  0  0  0  0  0  0  0  0  0  0  0
   -5.4689   -2.5005  -10.4588 H   0  0  0  0  0  0  0  0  0  0  0  0
   -6.7624   -1.4176  -10.9712 H   0  0  0  0  0  0  0  0  0  0  0  0
   -5.6716   -2.1180  -12.1722 H   0  0  0  0  0  0  0  0  0  0  0  0
   -3.2746   -1.1753   -8.8625 H   0  0  0  0  0  0  0  0  0  0  0  0
   -5.8344   -2.7666    6.5923 H   0  0  0  0  0  0  0  0  0  0  0  0
   -7.2385   -3.6911    8.3864 H   0  0  0  0  0  0  0  0  0  0  0  0
   -6.2523   -5.1461   10.1102 H   0  0  0  0  0  0  0  0  0  0  0  0
   -4.2183   -5.8870   11.2585 H   0  0  0  0  0  0  0  0  0  0  0  0
   -2.6335   -5.7049   10.4927 H   0  0  0  0  0  0  0  0  0  0  0  0
   -3.3097   -8.0956   10.5737 H   0  0  0  0  0  0  0  0  0  0  0  0
   -4.7748   -7.7222    9.6589 H   0  0  0  0  0  0  0  0  0  0  0  0
   -3.1934   -7.5414    8.8998 H   0  0  0  0  0  0  0  0  0  0  0  0
   -2.4422   -4.7840    8.2316 H   0  0  0  0  0  0  0  0  0  0  0  0
   -1.0794   -3.2642   -0.7227 H   0  0  0  0  0  0  0  0  0  0  0  0
   -0.4286   -2.2311   -2.0299 H   0  0  0  0  0  0  0  0  0  0  0  0
   -2.1098   -4.7535   -2.4446 H   0  0  0  0  0  0  0  0  0  0  0  0
   -0.3471   -4.6774   -2.5614 H   0  0  0  0  0  0  0  0  0  0  0  0
   -1.3400   -3.7919   -3.7155 H   0  0  0  0  0  0  0  0  0  0  0  0
   -0.4996   -2.0888    1.8860 H   0  0  0  0  0  0  0  0  0  0  0  0
   -1.0232   -1.4873    0.2942 H   0  0  0  0  0  0  0  0  0  0  0  0
   -2.4259    0.2417    1.3951 H   0  0  0  0  0  0  0  0  0  0  0  0
   -0.7173    0.4017    1.8214 H   0  0  0  0  0  0  0  0  0  0  0  0
   -1.8518   -0.2969    2.9774 H   0  0  0  0  0  0  0  0  0  0  0  0
   -2.5492   -0.0754    8.9531 H   0  0  0  0  0  0  0  0  0  0  0  0
   -3.4184   -1.3364    8.0667 H   0  0  0  0  0  0  0  0  0  0  0  0
   -4.3238   -1.1067   10.3498 H   0  0  0  0  0  0  0  0  0  0  0  0
   -3.5496   -2.6830   10.1889 H   0  0  0  0  0  0  0  0  0  0  0  0
   -2.7261   -1.3759   11.0484 H   0  0  0  0  0  0  0  0  0  0  0  0
    2.9750   -2.4142    9.5856 H   0  0  0  0  0  0  0  0  0  0  0  0
    1.9022   -0.2269   12.6935 H   0  0  0  0  0  0  0  0  0  0  0  0
    7.5123   -0.8627    9.9978 H   0  0  0  0  0  0  0  0  0  0  0  0
    6.7391    1.4153   14.4560 H   0  0  0  0  0  0  0  0  0  0  0  0
   10.0973    1.1429   13.8218 H   0  0  0  0  0  0  0  0  0  0  0  0
    9.3285    3.6510   13.3613 H   0  0  0  0  0  0  0  0  0  0  0  0
   11.9266    3.5013   13.0011 H   0  0  0  0  0  0  0  0  0  0  0  0
   12.3710    2.3163   10.6650 H   0  0  0  0  0  0  0  0  0  0  0  0
   10.0462    1.7363    9.5871 H   0  0  0  0  0  0  0  0  0  0  0  0
    8.1132    2.7992   11.1210 H   0  0  0  0  0  0  0  0  0  0  0  0
    9.3528    4.0158   10.7395 H   0  0  0  0  0  0  0  0  0  0  0  0
   10.5351   -0.0194   11.5315 H   0  0  0  0  0  0  0  0  0  0  0  0
  1  2  2  0  0  0  0
  2  3  1  0  0  0  0
  3  4  2  0  0  0  0
  3  5  1  0  0  0  0
  5  6  2  0  0  0  0
  6  7  1  0  0  0  0
  7  8  2  0  0  0  0
  8  9  1  0  0  0  0
  9 10  2  0  0  0  0
 10 11  1  0  0  0  0
 11 12  2  0  0  0  0
 12 13  1  0  0  0  0
 13 14  3  0  0  0  0
 12 15  1  0  0  0  0
 15 16  3  0  0  0  0
  8 17  1  0  0  0  0
 17 18  1  0  0  0  0
 18 19  1  0  0  0  0
 19 20  2  0  0  0  0
 20 21  1  0  0  0  0
 21 22  1  0  0  0  0
 21 23  1  0  0  0  0
  1 24  1  0  0  0  0
 24 25  1  0  0  0  0
 25 26  1  0  0  0  0
 26 27  2  0  0  0  0
 27 28  1  0  0  0  0
 28 29  2  0  0  0  0
 28 30  1  0  0  0  0
 30 31  2  0  0  0  0
 31 32  1  0  0  0  0
 32 33  1  0  0  0  0
 31 34  1  0  0  0  0
 34 35  1  0  0  0  0
 35 36  1  0  0  0  0
 36 37  1  0  0  0  0
 35 38  2  0  0  0  0
 38 39  1  0  0  0  0
 39 40  2  0  0  0  0
 39 41  1  0  0  0  0
 26 42  1  0  0  0  0
 42 43  2  0  0  0  0
 43 44  1  0  0  0  0
 44 45  2  0  0  0  0
 45 46  1  0  0  0  0
 46 47  2  0  0  0  0
 47 48  1  0  0  0  0
 48 49  1  0  0  0  0
 49 50  1  0  0  0  0
 48 51  2  0  0  0  0
 43 52  1  0  0  0  0
 52 53  1  0  0  0  0
 53 54  1  0  0  0  0
 54 55  1  0  0  0  0
 55 56  1  0  0  0  0
 56 57  1  0  0  0  0
 57 58  2  0  0  0  0
 58 59  1  0  0  0  0
 59 60  1  0  0  0  0
 57 61  1  0  0  0  0
 61 62  1  0  0  0  0
 62 63  1  0  0  0  0
 63 64  1  0  0  0  0
 64 65  1  0  0  0  0
 65 66  1  0  0  0  0
 66 67  2  0  0  0  0
 67 68  1  0  0  0  0
 68 69  2  0  0  0  0
 69 70  1  0  0  0  0
 70 71  1  0  0  0  0
 71 72  1  0  0  0  0
 70 73  2  0  0  0  0
 65 74  2  0  0  0  0
 74 75  1  0  0  0  0
 75 76  1  0  0  0  0
 76 77  1  0  0  0  0
 77 78  1  0  0  0  0
 78 79  1  0  0  0  0
 79 80  1  0  0  0  0
 80 81  1  0  0  0  0
 81 82  1  0  0  0  0
 82 83  1  0  0  0  0
 83 84  1  0  0  0  0
 81 85  1  0  0  0  0
 85 86  1  0  0  0  0
 78 87  1  0  0  0  0
 87 88  1  0  0  0  0
 74 89  1  0  0  0  0
 89 90  2  0  0  0  0
 90 91  1  0  0  0  0
 91 92  1  0  0  0  0
 90 93  1  0  0  0  0
 93 94  2  0  0  0  0
 94 95  1  0  0  0  0
 94 96  1  0  0  0  0
 96 97  2  0  0  0  0
 97 98  1  0  0  0  0
 97 99  1  0  0  0  0
 99100  2  0  0  0  0
100101  1  0  0  0  0
101102  2  0  0  0  0
101103  1  0  0  0  0
103104  2  0  0  0  0
104105  1  0  0  0  0
105106  2  0  0  0  0
106107  1  0  0  0  0
107108  2  0  0  0  0
108109  1  0  0  0  0
109110  2  0  0  0  0
110111  1  0  0  0  0
111112  3  0  0  0  0
110113  1  0  0  0  0
113114  3  0  0  0  0
106115  1  0  0  0  0
115116  1  0  0  0  0
116117  1  0  0  0  0
117118  2  0  0  0  0
118119  1  0  0  0  0
119120  1  0  0  0  0
119121  1  0  0  0  0
 11  2  1  0  0  0  0
 23 17  1  0  0  0  0
 41 24  2  0  0  0  0
 84 42  1  0  0  0  0
 95 89  1  0  0  0  0
109100  1  0  0  0  0
121115  1  0  0  0  0
 10  5  1  0  0  0  0
 22 18  1  0  0  0  0
 41 27  1  0  0  0  0
 51 44  1  0  0  0  0
 83 52  2  0  0  0  0
 98 93  1  0  0  0  0
108103  1  0  0  0  0
120116  1  0  0  0  0
 23  7  1  0  0  0  0
 38 30  1  0  0  0  0
 82 54  2  0  0  0  0
121105  1  0  0  0  0
 80 55  2  0  0  0  0
 60 56  2  0  0  0  0
 79 61  2  0  0  0  0
 77 62  2  0  0  0  0
 76 64  2  0  0  0  0
 73 66  1  0  0  0  0
  1122  1  0  0  0  0
  6123  1  0  0  0  0
  9124  1  0  0  0  0
 17125  1  0  0  0  0
 18126  1  0  0  0  0
 19127  1  0  0  0  0
 20128  1  0  0  0  0
 21129  1  0  0  0  0
 22130  1  0  0  0  0
 22131  1  0  0  0  0
 23132  1  0  0  0  0
 32133  1  0  0  0  0
 32134  1  0  0  0  0
 33135  1  0  0  0  0
 33136  1  0  0  0  0
 33137  1  0  0  0  0
 36138  1  0  0  0  0
 36139  1  0  0  0  0
 37140  1  0  0  0  0
 37141  1  0  0  0  0
 37142  1  0  0  0  0
 45143  1  0  0  0  0
 46144  1  0  0  0  0
 47145  1  0  0  0  0
 49146  1  0  0  0  0
 49147  1  0  0  0  0
 50148  1  0  0  0  0
 50149  1  0  0  0  0
 50150  1  0  0  0  0
 51151  1  0  0  0  0
 67152  1  0  0  0  0
 68153  1  0  0  0  0
 69154  1  0  0  0  0
 71155  1  0  0  0  0
 71156  1  0  0  0  0
 72157  1  0  0  0  0
 72158  1  0  0  0  0
 72159  1  0  0  0  0
 73160  1  0  0  0  0
 85161  1  0  0  0  0
 85162  1  0  0  0  0
 86163  1  0  0  0  0
 86164  1  0  0  0  0
 86165  1  0  0  0  0
 87166  1  0  0  0  0
 87167  1  0  0  0  0
 88168  1  0  0  0  0
 88169  1  0  0  0  0
 88170  1  0  0  0  0
 91171  1  0  0  0  0
 91172  1  0  0  0  0
 92173  1  0  0  0  0
 92174  1  0  0  0  0
 92175  1  0  0  0  0
 96176  1  0  0  0  0
 99177  1  0  0  0  0
104178  1  0  0  0  0
107179  1  0  0  0  0
115180  1  0  0  0  0
116181  1  0  0  0  0
117182  1  0  0  0  0
118183  1  0  0  0  0
119184  1  0  0  0  0
120185  1  0  0  0  0
120186  1  0  0  0  0
121187  1  0  0  0  0
M  END
