
  xtb     02132220413D
 energy: -329.234813820195 gnorm: 0.000571935471 xtb: 6.4.1 (unknown)
186208  0     0  0            999 V2000
   -6.5886   -6.1437    4.7560 C   0  0  0  0  0  0  0  0  0  0  0  0
   -5.5091   -6.7360    5.3423 C   0  0  0  0  0  0  0  0  0  0  0  0
   -4.1065   -6.3020    5.2408 C   0  0  0  0  0  0  0  0  0  0  0  0
   -3.6317   -5.5157    4.4409 O   0  0  0  0  0  0  0  0  0  0  0  0
   -3.3893   -6.9968    6.3230 C   0  0  0  0  0  0  0  0  0  0  0  0
   -2.0535   -6.8328    6.6865 C   0  0  0  0  0  0  0  0  0  0  0  0
   -1.6679   -7.5982    7.7604 C   0  0  0  0  0  0  0  0  0  0  0  0
   -2.5461   -8.4613    8.4305 C   0  0  0  0  0  0  0  0  0  0  0  0
   -3.8640   -8.6367    8.0814 C   0  0  0  0  0  0  0  0  0  0  0  0
   -4.2758   -7.8720    6.9859 C   0  0  0  0  0  0  0  0  0  0  0  0
   -5.5782   -7.7973    6.3315 C   0  0  0  0  0  0  0  0  0  0  0  0
   -6.6393   -8.6359    6.5405 C   0  0  0  0  0  0  0  0  0  0  0  0
   -6.6564   -9.6656    7.5046 C   0  0  0  0  0  0  0  0  0  0  0  0
   -6.7304  -10.5170    8.2710 N   0  0  0  0  0  0  0  0  0  0  0  0
   -7.8261   -8.6463    5.7731 C   0  0  0  0  0  0  0  0  0  0  0  0
   -8.7951   -8.7658    5.1694 N   0  0  0  0  0  0  0  0  0  0  0  0
   -1.4906   -8.9029    9.4128 C   0  0  0  0  0  0  0  0  0  0  0  0
   -0.8620  -10.2917    9.1714 C   0  0  0  0  0  0  0  0  0  0  0  0
    0.4269  -10.2462    9.9598 C   0  0  0  0  0  0  0  0  0  0  0  0
    1.2598   -9.4316    9.3247 C   0  0  0  0  0  0  0  0  0  0  0  0
    0.5479   -8.9128    8.0960 C   0  0  0  0  0  0  0  0  0  0  0  0
   -0.3070  -10.1386    7.7494 C   0  0  0  0  0  0  0  0  0  0  0  0
   -0.5104   -7.9434    8.6643 C   0  0  0  0  0  0  0  0  0  0  0  0
   -6.6392   -5.1114    3.7992 C   0  0  0  0  0  0  0  0  0  0  0  0
   -5.2859   -4.5388    2.8640 S   0  0  0  0  0  0  0  0  0  0  0  0
   -6.3103   -3.5048    1.9197 C   0  0  0  0  0  0  0  0  0  0  0  0
   -7.6351   -3.5495    2.3524 C   0  0  0  0  0  0  0  0  0  0  0  0
   -8.7123   -2.6716    1.8669 C   0  0  0  0  0  0  0  0  0  0  0  0
   -8.5135   -1.6570    1.2213 O   0  0  0  0  0  0  0  0  0  0  0  0
  -10.0422   -3.1337    2.2631 C   0  0  0  0  0  0  0  0  0  0  0  0
  -11.2208   -2.6972    1.7182 C   0  0  0  0  0  0  0  0  0  0  0  0
  -11.4303   -1.6696    0.6691 C   0  0  0  0  0  0  0  0  0  0  0  0
  -11.4744   -0.2675    1.2833 C   0  0  0  0  0  0  0  0  0  0  0  0
  -12.5747   -3.5020    2.4418 S   0  0  0  0  0  0  0  0  0  0  0  0
  -11.5607   -4.4078    3.5106 C   0  0  0  0  0  0  0  0  0  0  0  0
  -12.1176   -5.3552    4.5079 C   0  0  0  0  0  0  0  0  0  0  0  0
  -13.5941   -5.6567    4.2970 C   0  0  0  0  0  0  0  0  0  0  0  0
  -10.2368   -4.1160    3.2841 C   0  0  0  0  0  0  0  0  0  0  0  0
   -9.1351   -4.7171    4.0230 C   0  0  0  0  0  0  0  0  0  0  0  0
   -9.2974   -5.3607    5.0488 O   0  0  0  0  0  0  0  0  0  0  0  0
   -7.8200   -4.4724    3.4034 C   0  0  0  0  0  0  0  0  0  0  0  0
   -5.7107   -2.7498    0.8708 C   0  0  0  0  0  0  0  0  0  0  0  0
   -6.1876   -2.3711   -0.3741 C   0  0  0  0  0  0  0  0  0  0  0  0
   -7.4595   -2.7729   -0.9690 C   0  0  0  0  0  0  0  0  0  0  0  0
   -7.9874   -4.0464   -0.7600 C   0  0  0  0  0  0  0  0  0  0  0  0
   -9.1800   -4.4050   -1.3558 C   0  0  0  0  0  0  0  0  0  0  0  0
   -9.8387   -3.5228   -2.1974 C   0  0  0  0  0  0  0  0  0  0  0  0
   -9.3081   -2.2648   -2.4504 C   0  0  0  0  0  0  0  0  0  0  0  0
   -9.9773   -1.3060   -3.3948 C   0  0  0  0  0  0  0  0  0  0  0  0
  -10.8257   -0.2740   -2.6507 C   0  0  0  0  0  0  0  0  0  0  0  0
   -8.1322   -1.8958   -1.8137 C   0  0  0  0  0  0  0  0  0  0  0  0
   -5.2278   -1.6041   -1.0683 C   0  0  0  0  0  0  0  0  0  0  0  0
   -5.2379   -0.8423   -2.6423 S   0  0  0  0  0  0  0  0  0  0  0  0
   -3.6255   -0.2865   -2.3610 C   0  0  0  0  0  0  0  0  0  0  0  0
   -2.6304    0.4587   -3.0087 C   0  0  0  0  0  0  0  0  0  0  0  0
   -2.6115    1.0302   -4.2988 C   0  0  0  0  0  0  0  0  0  0  0  0
   -1.4226    1.6945   -4.7408 C   0  0  0  0  0  0  0  0  0  0  0  0
   -1.5277    2.1538   -5.9782 N   0  0  0  0  0  0  0  0  0  0  0  0
   -3.0012    1.7824   -6.5368 S   0  0  0  0  0  0  0  0  0  0  0  0
   -3.5610    1.0223   -5.2216 N   0  0  0  0  0  0  0  0  0  0  0  0
   -0.3425    1.8215   -3.8416 C   0  0  0  0  0  0  0  0  0  0  0  0
    0.8744    2.5033   -3.9780 C   0  0  0  0  0  0  0  0  0  0  0  0
    1.7255    3.4365   -5.1583 S   0  0  0  0  0  0  0  0  0  0  0  0
    2.9951    3.7094   -3.9894 C   0  0  0  0  0  0  0  0  0  0  0  0
    4.2132    4.4075   -4.0590 C   0  0  0  0  0  0  0  0  0  0  0  0
    4.7108    5.0782   -5.2574 C   0  0  0  0  0  0  0  0  0  0  0  0
    3.8421    5.8457   -6.0284 C   0  0  0  0  0  0  0  0  0  0  0  0
    4.3224    6.5350   -7.1266 C   0  0  0  0  0  0  0  0  0  0  0  0
    5.6646    6.4773   -7.4559 C   0  0  0  0  0  0  0  0  0  0  0  0
    6.5429    5.7012   -6.7078 C   0  0  0  0  0  0  0  0  0  0  0  0
    7.9932    5.6021   -7.0803 C   0  0  0  0  0  0  0  0  0  0  0  0
    8.2122    4.4653   -8.0800 C   0  0  0  0  0  0  0  0  0  0  0  0
    6.0505    4.9880   -5.6269 C   0  0  0  0  0  0  0  0  0  0  0  0
    4.8990    4.3297   -2.8546 C   0  0  0  0  0  0  0  0  0  0  0  0
    4.0638    3.3459   -1.6619 S   0  0  0  0  0  0  0  0  0  0  0  0
    2.7578    3.0835   -2.7603 C   0  0  0  0  0  0  0  0  0  0  0  0
    1.5383    2.3981   -2.7526 C   0  0  0  0  0  0  0  0  0  0  0  0
    0.7909    1.6579   -1.8760 N   0  0  0  0  0  0  0  0  0  0  0  0
   -0.3802    1.2878   -2.5197 C   0  0  0  0  0  0  0  0  0  0  0  0
   -1.5134    0.5247   -2.1253 C   0  0  0  0  0  0  0  0  0  0  0  0
   -1.8319   -0.1902   -0.9789 N   0  0  0  0  0  0  0  0  0  0  0  0
   -3.1037   -0.6753   -1.1263 C   0  0  0  0  0  0  0  0  0  0  0  0
   -4.0211   -1.4329   -0.3857 C   0  0  0  0  0  0  0  0  0  0  0  0
   -4.0574   -2.2170    1.1504 S   0  0  0  0  0  0  0  0  0  0  0  0
   -0.9803   -0.7594    0.0417 C   0  0  0  0  0  0  0  0  0  0  0  0
    0.0534   -1.7087   -0.5601 C   0  0  0  0  0  0  0  0  0  0  0  0
    1.1241    1.6860   -0.4700 C   0  0  0  0  0  0  0  0  0  0  0  0
    0.1676    2.5830    0.3124 C   0  0  0  0  0  0  0  0  0  0  0  0
    6.1646    4.8793   -2.5219 C   0  0  0  0  0  0  0  0  0  0  0  0
    7.2803    3.9446   -1.5682 S   0  0  0  0  0  0  0  0  0  0  0  0
    8.5559    5.1146   -1.8078 C   0  0  0  0  0  0  0  0  0  0  0  0
    8.0981    6.1863   -2.5625 C   0  0  0  0  0  0  0  0  0  0  0  0
    8.9745    7.2812   -3.0142 C   0  0  0  0  0  0  0  0  0  0  0  0
   10.1531    7.3495   -2.7092 O   0  0  0  0  0  0  0  0  0  0  0  0
    8.2962    8.2400   -3.8804 C   0  0  0  0  0  0  0  0  0  0  0  0
    8.9279    9.2523   -4.5605 C   0  0  0  0  0  0  0  0  0  0  0  0
   10.3635    9.6303   -4.5436 C   0  0  0  0  0  0  0  0  0  0  0  0
   10.6654   10.5477   -3.3544 C   0  0  0  0  0  0  0  0  0  0  0  0
    7.7973   10.1719   -5.4903 S   0  0  0  0  0  0  0  0  0  0  0  0
    6.4575    9.2151   -4.9494 C   0  0  0  0  0  0  0  0  0  0  0  0
    5.0713    9.5256   -5.3789 C   0  0  0  0  0  0  0  0  0  0  0  0
    5.0048   10.2112   -6.7372 C   0  0  0  0  0  0  0  0  0  0  0  0
    6.8823    8.2126   -4.1143 C   0  0  0  0  0  0  0  0  0  0  0  0
    6.0049    7.1855   -3.5597 C   0  0  0  0  0  0  0  0  0  0  0  0
    4.7872    7.2523   -3.5735 O   0  0  0  0  0  0  0  0  0  0  0  0
    6.7414    6.0740   -2.9392 C   0  0  0  0  0  0  0  0  0  0  0  0
    9.8353    4.9545   -1.2255 C   0  0  0  0  0  0  0  0  0  0  0  0
   10.4516    3.7844   -0.9026 C   0  0  0  0  0  0  0  0  0  0  0  0
   11.5462    3.7617    0.1063 C   0  0  0  0  0  0  0  0  0  0  0  0
   12.1336    4.7122    0.5606 O   0  0  0  0  0  0  0  0  0  0  0  0
   11.6981    2.3334    0.4667 C   0  0  0  0  0  0  0  0  0  0  0  0
   12.4828    1.7424    1.4466 C   0  0  0  0  0  0  0  0  0  0  0  0
   13.5143    2.6806    2.4401 Cl  0  0  0  0  0  0  0  0  0  0  0  0
   12.4202    0.3610    1.6163 C   0  0  0  0  0  0  0  0  0  0  0  0
   11.5782   -0.3893    0.8120 C   0  0  0  0  0  0  0  0  0  0  0  0
   11.4940   -2.2622    1.0834 Br  0  0  0  0  0  0  0  0  0  0  0  0
   10.7895    0.1774   -0.1839 C   0  0  0  0  0  0  0  0  0  0  0  0
   10.8623    1.5477   -0.3511 C   0  0  0  0  0  0  0  0  0  0  0  0
   10.1930    2.4238   -1.3134 C   0  0  0  0  0  0  0  0  0  0  0  0
    9.6746    2.0212   -2.5166 C   0  0  0  0  0  0  0  0  0  0  0  0
    9.2929    2.9124   -3.5405 C   0  0  0  0  0  0  0  0  0  0  0  0
    9.0139    3.5923   -4.4227 N   0  0  0  0  0  0  0  0  0  0  0  0
    9.5416    0.6731   -2.9070 C   0  0  0  0  0  0  0  0  0  0  0  0
    9.3965   -0.4075   -3.2651 N   0  0  0  0  0  0  0  0  0  0  0  0
   -7.5705   -6.4645    5.0869 H   0  0  0  0  0  0  0  0  0  0  0  0
   -1.4131   -6.1504    6.1499 H   0  0  0  0  0  0  0  0  0  0  0  0
   -4.5312   -9.2959    8.6113 H   0  0  0  0  0  0  0  0  0  0  0  0
   -1.7091   -8.7111   10.4615 H   0  0  0  0  0  0  0  0  0  0  0  0
   -1.5251  -11.1306    9.3637 H   0  0  0  0  0  0  0  0  0  0  0  0
    0.5753  -10.7508   10.8964 H   0  0  0  0  0  0  0  0  0  0  0  0
    2.2430   -9.1197    9.6248 H   0  0  0  0  0  0  0  0  0  0  0  0
    1.1709   -8.4968    7.3088 H   0  0  0  0  0  0  0  0  0  0  0  0
   -1.0677   -9.9505    6.9938 H   0  0  0  0  0  0  0  0  0  0  0  0
    0.2995  -10.9918    7.4506 H   0  0  0  0  0  0  0  0  0  0  0  0
   -0.0740   -7.1117    9.2144 H   0  0  0  0  0  0  0  0  0  0  0  0
  -12.3652   -1.8718    0.1421 H   0  0  0  0  0  0  0  0  0  0  0  0
  -10.5973   -1.7175   -0.0348 H   0  0  0  0  0  0  0  0  0  0  0  0
  -12.2587   -0.2011    2.0346 H   0  0  0  0  0  0  0  0  0  0  0  0
  -10.5175   -0.0435    1.7466 H   0  0  0  0  0  0  0  0  0  0  0  0
  -11.6676    0.4697    0.5089 H   0  0  0  0  0  0  0  0  0  0  0  0
  -11.9593   -4.9323    5.5058 H   0  0  0  0  0  0  0  0  0  0  0  0
  -11.5261   -6.2757    4.4792 H   0  0  0  0  0  0  0  0  0  0  0  0
  -14.1868   -4.7472    4.3755 H   0  0  0  0  0  0  0  0  0  0  0  0
  -13.9419   -6.3611    5.0476 H   0  0  0  0  0  0  0  0  0  0  0  0
  -13.7594   -6.0907    3.3133 H   0  0  0  0  0  0  0  0  0  0  0  0
   -7.4554   -4.7575   -0.1455 H   0  0  0  0  0  0  0  0  0  0  0  0
   -9.5913   -5.3883   -1.1792 H   0  0  0  0  0  0  0  0  0  0  0  0
  -10.7620   -3.8216   -2.6727 H   0  0  0  0  0  0  0  0  0  0  0  0
  -10.6104   -1.8586   -4.0917 H   0  0  0  0  0  0  0  0  0  0  0  0
   -9.2100   -0.7849   -3.9713 H   0  0  0  0  0  0  0  0  0  0  0  0
  -10.2244    0.2442   -1.9075 H   0  0  0  0  0  0  0  0  0  0  0  0
  -11.2242    0.4589   -3.3485 H   0  0  0  0  0  0  0  0  0  0  0  0
  -11.6584   -0.7578   -2.1462 H   0  0  0  0  0  0  0  0  0  0  0  0
   -7.7406   -0.9027   -1.9699 H   0  0  0  0  0  0  0  0  0  0  0  0
    2.8047    5.9292   -5.7451 H   0  0  0  0  0  0  0  0  0  0  0  0
    3.6456    7.1321   -7.7201 H   0  0  0  0  0  0  0  0  0  0  0  0
    6.0382    7.0338   -8.3041 H   0  0  0  0  0  0  0  0  0  0  0  0
    8.3249    6.5443   -7.5233 H   0  0  0  0  0  0  0  0  0  0  0  0
    8.5897    5.4081   -6.1882 H   0  0  0  0  0  0  0  0  0  0  0  0
    7.6167    4.6240   -8.9768 H   0  0  0  0  0  0  0  0  0  0  0  0
    9.2605    4.4071   -8.3621 H   0  0  0  0  0  0  0  0  0  0  0  0
    7.9208    3.5171   -7.6354 H   0  0  0  0  0  0  0  0  0  0  0  0
    6.7254    4.3525   -5.0710 H   0  0  0  0  0  0  0  0  0  0  0  0
   -1.6348   -1.3214    0.7125 H   0  0  0  0  0  0  0  0  0  0  0  0
   -0.5123    0.0244    0.6365 H   0  0  0  0  0  0  0  0  0  0  0  0
    0.6917   -2.1080    0.2233 H   0  0  0  0  0  0  0  0  0  0  0  0
   -0.4488   -2.5382   -1.0525 H   0  0  0  0  0  0  0  0  0  0  0  0
    0.6723   -1.2025   -1.2977 H   0  0  0  0  0  0  0  0  0  0  0  0
    2.1363    2.0923   -0.3992 H   0  0  0  0  0  0  0  0  0  0  0  0
    1.1570    0.6758   -0.0632 H   0  0  0  0  0  0  0  0  0  0  0  0
    0.4231    2.5678    1.3685 H   0  0  0  0  0  0  0  0  0  0  0  0
    0.2431    3.6066   -0.0469 H   0  0  0  0  0  0  0  0  0  0  0  0
   -0.8634    2.2578    0.1928 H   0  0  0  0  0  0  0  0  0  0  0  0
   10.9663    8.7252   -4.4468 H   0  0  0  0  0  0  0  0  0  0  0  0
   10.6192   10.1398   -5.4746 H   0  0  0  0  0  0  0  0  0  0  0  0
   10.0477   11.4426   -3.3940 H   0  0  0  0  0  0  0  0  0  0  0  0
   11.7109   10.8419   -3.3719 H   0  0  0  0  0  0  0  0  0  0  0  0
   10.4694   10.0218   -2.4240 H   0  0  0  0  0  0  0  0  0  0  0  0
    4.5008    8.5934   -5.3843 H   0  0  0  0  0  0  0  0  0  0  0  0
    4.6119   10.1688   -4.6202 H   0  0  0  0  0  0  0  0  0  0  0  0
    5.4569    9.5829   -7.5007 H   0  0  0  0  0  0  0  0  0  0  0  0
    5.5319   11.1632   -6.7154 H   0  0  0  0  0  0  0  0  0  0  0  0
    3.9695   10.3970   -7.0103 H   0  0  0  0  0  0  0  0  0  0  0  0
   10.3600    5.8680   -0.9626 H   0  0  0  0  0  0  0  0  0  0  0  0
   13.0230   -0.1157    2.3727 H   0  0  0  0  0  0  0  0  0  0  0  0
   10.1438   -0.4411   -0.7858 H   0  0  0  0  0  0  0  0  0  0  0  0
  1  2  2  0  0  0  0
  2  3  1  0  0  0  0
  3  4  2  0  0  0  0
  3  5  1  0  0  0  0
  5  6  2  0  0  0  0
  6  7  1  0  0  0  0
  7  8  2  0  0  0  0
  8  9  1  0  0  0  0
  9 10  2  0  0  0  0
 10 11  1  0  0  0  0
 11 12  2  0  0  0  0
 12 13  1  0  0  0  0
 13 14  3  0  0  0  0
 12 15  1  0  0  0  0
 15 16  3  0  0  0  0
  8 17  1  0  0  0  0
 17 18  1  0  0  0  0
 18 19  1  0  0  0  0
 19 20  2  0  0  0  0
 20 21  1  0  0  0  0
 21 22  1  0  0  0  0
 21 23  1  0  0  0  0
  1 24  1  0  0  0  0
 24 25  1  0  0  0  0
 25 26  1  0  0  0  0
 26 27  2  0  0  0  0
 27 28  1  0  0  0  0
 28 29  2  0  0  0  0
 28 30  1  0  0  0  0
 30 31  2  0  0  0  0
 31 32  1  0  0  0  0
 32 33  1  0  0  0  0
 31 34  1  0  0  0  0
 34 35  1  0  0  0  0
 35 36  1  0  0  0  0
 36 37  1  0  0  0  0
 35 38  2  0  0  0  0
 38 39  1  0  0  0  0
 39 40  2  0  0  0  0
 39 41  1  0  0  0  0
 26 42  1  0  0  0  0
 42 43  2  0  0  0  0
 43 44  1  0  0  0  0
 44 45  2  0  0  0  0
 45 46  1  0  0  0  0
 46 47  2  0  0  0  0
 47 48  1  0  0  0  0
 48 49  1  0  0  0  0
 49 50  1  0  0  0  0
 48 51  2  0  0  0  0
 43 52  1  0  0  0  0
 52 53  1  0  0  0  0
 53 54  1  0  0  0  0
 54 55  1  0  0  0  0
 55 56  1  0  0  0  0
 56 57  1  0  0  0  0
 57 58  2  0  0  0  0
 58 59  1  0  0  0  0
 59 60  1  0  0  0  0
 57 61  1  0  0  0  0
 61 62  1  0  0  0  0
 62 63  1  0  0  0  0
 63 64  1  0  0  0  0
 64 65  1  0  0  0  0
 65 66  1  0  0  0  0
 66 67  2  0  0  0  0
 67 68  1  0  0  0  0
 68 69  2  0  0  0  0
 69 70  1  0  0  0  0
 70 71  1  0  0  0  0
 71 72  1  0  0  0  0
 70 73  2  0  0  0  0
 65 74  2  0  0  0  0
 74 75  1  0  0  0  0
 75 76  1  0  0  0  0
 76 77  1  0  0  0  0
 77 78  1  0  0  0  0
 78 79  1  0  0  0  0
 79 80  1  0  0  0  0
 80 81  1  0  0  0  0
 81 82  1  0  0  0  0
 82 83  1  0  0  0  0
 83 84  1  0  0  0  0
 81 85  1  0  0  0  0
 85 86  1  0  0  0  0
 78 87  1  0  0  0  0
 87 88  1  0  0  0  0
 74 89  1  0  0  0  0
 89 90  1  0  0  0  0
 90 91  1  0  0  0  0
 91 92  2  0  0  0  0
 92 93  1  0  0  0  0
 93 94  2  0  0  0  0
 93 95  1  0  0  0  0
 95 96  2  0  0  0  0
 96 97  1  0  0  0  0
 97 98  1  0  0  0  0
 96 99  1  0  0  0  0
 99100  1  0  0  0  0
100101  1  0  0  0  0
101102  1  0  0  0  0
100103  2  0  0  0  0
103104  1  0  0  0  0
104105  2  0  0  0  0
104106  1  0  0  0  0
 91107  1  0  0  0  0
107108  2  0  0  0  0
108109  1  0  0  0  0
109110  2  0  0  0  0
109111  1  0  0  0  0
111112  2  0  0  0  0
112113  1  0  0  0  0
112114  1  0  0  0  0
114115  2  0  0  0  0
115116  1  0  0  0  0
115117  1  0  0  0  0
117118  2  0  0  0  0
118119  1  0  0  0  0
119120  2  0  0  0  0
120121  1  0  0  0  0
121122  3  0  0  0  0
120123  1  0  0  0  0
123124  3  0  0  0  0
 11  2  1  0  0  0  0
 23 17  1  0  0  0  0
 41 24  2  0  0  0  0
 84 42  1  0  0  0  0
106 89  2  0  0  0  0
119108  1  0  0  0  0
 10  5  1  0  0  0  0
 22 18  1  0  0  0  0
 41 27  1  0  0  0  0
 51 44  1  0  0  0  0
 83 52  2  0  0  0  0
106 92  1  0  0  0  0
118111  1  0  0  0  0
 23  7  1  0  0  0  0
 38 30  1  0  0  0  0
 82 54  2  0  0  0  0
103 95  1  0  0  0  0
 80 55  2  0  0  0  0
 60 56  2  0  0  0  0
 79 61  2  0  0  0  0
 77 62  2  0  0  0  0
 76 64  2  0  0  0  0
 73 66  1  0  0  0  0
  1125  1  0  0  0  0
  6126  1  0  0  0  0
  9127  1  0  0  0  0
 17128  1  0  0  0  0
 18129  1  0  0  0  0
 19130  1  0  0  0  0
 20131  1  0  0  0  0
 21132  1  0  0  0  0
 22133  1  0  0  0  0
 22134  1  0  0  0  0
 23135  1  0  0  0  0
 32136  1  0  0  0  0
 32137  1  0  0  0  0
 33138  1  0  0  0  0
 33139  1  0  0  0  0
 33140  1  0  0  0  0
 36141  1  0  0  0  0
 36142  1  0  0  0  0
 37143  1  0  0  0  0
 37144  1  0  0  0  0
 37145  1  0  0  0  0
 45146  1  0  0  0  0
 46147  1  0  0  0  0
 47148  1  0  0  0  0
 49149  1  0  0  0  0
 49150  1  0  0  0  0
 50151  1  0  0  0  0
 50152  1  0  0  0  0
 50153  1  0  0  0  0
 51154  1  0  0  0  0
 67155  1  0  0  0  0
 68156  1  0  0  0  0
 69157  1  0  0  0  0
 71158  1  0  0  0  0
 71159  1  0  0  0  0
 72160  1  0  0  0  0
 72161  1  0  0  0  0
 72162  1  0  0  0  0
 73163  1  0  0  0  0
 85164  1  0  0  0  0
 85165  1  0  0  0  0
 86166  1  0  0  0  0
 86167  1  0  0  0  0
 86168  1  0  0  0  0
 87169  1  0  0  0  0
 87170  1  0  0  0  0
 88171  1  0  0  0  0
 88172  1  0  0  0  0
 88173  1  0  0  0  0
 97174  1  0  0  0  0
 97175  1  0  0  0  0
 98176  1  0  0  0  0
 98177  1  0  0  0  0
 98178  1  0  0  0  0
101179  1  0  0  0  0
101180  1  0  0  0  0
102181  1  0  0  0  0
102182  1  0  0  0  0
102183  1  0  0  0  0
107184  1  0  0  0  0
114185  1  0  0  0  0
117186  1  0  0  0  0
M  END
