174

C         -5.88660        0.65610      -11.82950
C         -6.28930       -0.38230      -12.60230
C         -5.73240       -1.76580      -12.57520
O         -4.99720       -2.26410      -11.75160
C         -6.20270       -2.40360      -13.81810
C         -5.88740       -3.68820      -14.25960
C         -6.47460       -4.02930      -15.45340
C         -7.31260       -3.15620      -16.16240
C         -7.63130       -1.88830      -15.74060
C         -7.04520       -1.52110      -14.52390
C         -7.16050       -0.28240      -13.76600
C         -8.01370        0.75210      -14.03930
C         -8.87360        0.80450      -15.15700
N         -9.59240        0.91380      -16.04510
C         -8.18990        1.88930      -13.22080
N         -8.40990        2.82660      -12.59550
C         -7.54170       -4.15010      -17.27310
C         -6.75920       -3.91380      -18.58220
C         -6.80360       -5.25600      -19.27640
C         -6.01220       -6.08340      -18.60580
C         -5.41910       -5.31440      -17.44720
C         -5.30830       -3.92280      -18.08360
C         -6.60930       -5.12360      -16.48290
C         -5.10360        0.59680      -10.61990
C         -4.21610        1.65180      -10.33720
C         -3.47800        1.60680       -9.18030
C         -2.47570        2.57640       -8.65740
O         -2.09600        3.59990       -9.17320
C         -2.06000        2.00460       -7.34750
C         -2.74390        0.79080       -7.13080
C         -3.62100        0.54360       -8.26380
C         -4.52000       -0.47530       -8.51800
C         -5.25320       -0.44050       -9.69290
C         -2.51660        0.06970       -5.97440
C         -1.64810        0.59150       -5.02960
C         -0.99890        1.81630       -5.21420
C         -1.18580        2.51590       -6.41940
C         -0.16160        2.34530       -4.16080
C          0.10300        3.65830       -3.82790
C         -0.48280        4.84250       -4.46220
C          0.32370        5.93080       -4.77830
C         -0.23150        7.04830       -5.37420
C         -1.58500        7.08990       -5.65480
C         -2.40810        6.01710       -5.33140
C         -3.88500        6.07780       -5.59360
C         -4.61380        6.71840       -4.41080
C         -1.84860        4.90470       -4.72470
C          0.95970        3.74190       -2.70780
S          1.55450        5.09110       -1.76920
C          2.27480        3.97470       -0.65740
C          2.97090        3.98480        0.56700
C          3.49400        5.02040        1.37280
C          4.15730        4.68120        2.60460
N          4.63020        5.74670        3.23110
S          4.27330        7.06090        2.35580
N          3.49680        6.32350        1.14200
C          4.15250        3.33730        3.04330
C          4.47010        2.74900        4.27980
S          5.08620        3.20540        5.83260
C          4.74740        1.59050        6.41690
C          4.89090        0.97780        7.67680
C          5.53350        1.64990        8.80750
C          6.52090        0.99980        9.54600
C          7.15890        1.66360       10.57500
C          6.82340        2.97290       10.87660
C          5.84810        3.63880       10.14560
C          5.44860        5.04390       10.49190
C          4.26580        5.03770       11.46260
C          5.21150        2.96790        9.11190
C          4.44220       -0.33480        7.65490
S          3.94330       -0.83760        6.05060
C          4.21450        0.75110        5.43630
C          4.05840        1.41460        4.21420
N          3.53930        1.13600        2.97570
C          3.59030        2.30890        2.24030
C          3.13630        2.62590        0.93970
N          2.64060        1.81220       -0.06470
C          2.08870        2.63620       -1.01410
C          1.33440        2.50470       -2.18580
S          0.64280        1.20740       -3.08870
C          3.13510        0.49700       -0.41240
C          3.99430        0.53370       -1.67550
C          2.64870        0.00390        2.81660
C          1.19050        0.43970        2.70840
C          4.20190       -1.22500        8.75690
C          4.10450       -2.61690        8.54400
O          4.26830       -3.07710        7.25720
C          3.21020       -3.87790        6.72950
C          3.64480       -4.37270        5.36100
C          3.89740       -3.47770        9.62010
O          3.91770       -4.84090        9.47940
C          5.13230       -5.40080        8.97560
C          6.27580       -5.26580        9.97240
C          3.55650       -2.95270       10.89270
C          3.60960       -1.56340       11.07520
C          3.96620       -0.73010       10.04890
C          3.24310       -3.89320       11.91830
C          2.46170       -3.75750       13.02980
C          1.48830       -2.67710       13.31590
O          1.32380       -1.62270       12.74420
C          0.66550       -3.18140       14.44160
C         -0.41610       -2.56780       15.04190
C         -1.04270       -3.24030       16.07830
F         -2.09550       -2.68380       16.69030
C         -0.58830       -4.49390       16.48950
F         -1.21680       -5.12310       17.48930
C          0.49790       -5.10960       15.88640
C          1.13070       -4.44150       14.84890
C          2.27660       -4.80520       14.01920
C          3.06860       -5.90830       14.19950
C          4.23760       -6.20320       13.46680
N          5.21530       -6.51420       12.94960
C          2.83650       -6.89430       15.18200
N          2.69440       -7.72950       15.95630
H         -6.14040        1.65910      -12.15340
H         -5.24060       -4.32830      -13.68010
H         -8.27510       -1.22780      -16.29690
H         -8.57660       -4.44090      -17.44230
H         -7.08660       -3.05300      -19.15860
H         -7.42840       -5.47300      -20.12260
H         -5.84390       -7.12990      -18.78000
H         -4.52470       -5.72980      -16.99070
H         -4.59180       -3.90120      -18.90290
H         -5.07630       -3.12840      -17.37660
H         -7.02200       -6.06460      -16.12440
H         -4.10200        2.47440      -11.02780
H         -4.65890       -1.28290       -7.81580
H         -5.98150       -1.21220       -9.88020
H         -3.01280       -0.87200       -5.79600
H         -1.48050        0.04880       -4.10990
H         -0.65760        3.43490       -6.61640
H          1.38330        5.89120       -4.57480
H          0.39830        7.88860       -5.62580
H         -2.01000        7.96140       -6.13100
H         -4.07430        6.66350       -6.49490
H         -4.27260        5.06960       -5.75550
H         -5.68350        6.76260       -4.60160
H         -4.24820        7.72900       -4.24360
H         -4.44550        6.14030       -3.50470
H         -2.47980        4.07000       -4.45290
H          6.78790       -0.01760        9.30100
H          7.92680        1.15960       11.14300
H          7.32850        3.48520       11.68270
H          6.29000        5.56520       10.95210
H          5.16740        5.58110        9.58410
H          3.40990        4.53820       11.01430
H          4.52890        4.51010       12.37690
H          3.97910        6.05480       11.71880
H          4.44500        3.47330        8.54260
H          2.28900       -0.18340       -0.55720
H          3.75880        0.14600        0.40750
H          4.41830       -0.45100       -1.85290
H          4.80640        1.24770       -1.55620
H          3.40660        0.81500       -2.54410
H          2.92490       -0.60500        1.95450
H          2.77960       -0.61430        3.70800
H          0.91160        1.03270        3.57630
H          1.02700        1.03670        1.81530
H          0.54950       -0.43640        2.66460
H          2.99060       -4.72050        7.39200
H          2.30570       -3.26030        6.64450
H          2.84080       -4.94470        4.90720
H          3.88960       -3.52720        4.72420
H          4.52400       -5.00520        5.45050
H          4.89140       -6.45270        8.80580
H          5.41000       -4.93570        8.02420
H          7.16330       -5.74500        9.56910
H          6.02060       -5.73980       10.91750
H          6.49610       -4.21510       10.15470
H          3.39190       -1.14800       12.04340
H          4.01370        0.33270       10.21820
H          3.63920       -4.88350       11.72400
H         -0.76390       -1.59960       14.71850
H          0.80650       -6.08050       16.23750
