
  xtb     02232207403D
 energy: -300.747522751866 gnorm: 0.000382789398 xtb: 6.4.1 (unknown)
174194  0     0  0            999 V2000
   -1.4164   -1.5649   -9.5679 C   0  0  0  0  0  0  0  0  0  0  0  0
   -2.6608   -2.1003   -9.6641 C   0  0  0  0  0  0  0  0  0  0  0  0
   -3.3155   -2.2305  -10.9936 C   0  0  0  0  0  0  0  0  0  0  0  0
   -2.7879   -2.1213  -12.0774 O   0  0  0  0  0  0  0  0  0  0  0  0
   -4.7461   -2.4587  -10.7054 C   0  0  0  0  0  0  0  0  0  0  0  0
   -5.7902   -2.5274  -11.6246 C   0  0  0  0  0  0  0  0  0  0  0  0
   -7.0263   -2.7207  -11.0561 C   0  0  0  0  0  0  0  0  0  0  0  0
   -7.2161   -2.8348   -9.6722 C   0  0  0  0  0  0  0  0  0  0  0  0
   -6.1950   -2.7810   -8.7537 C   0  0  0  0  0  0  0  0  0  0  0  0
   -4.9288   -2.5883   -9.3124 C   0  0  0  0  0  0  0  0  0  0  0  0
   -3.6207   -2.5223   -8.6656 C   0  0  0  0  0  0  0  0  0  0  0  0
   -3.3267   -3.0070   -7.4163 C   0  0  0  0  0  0  0  0  0  0  0  0
   -2.0131   -3.2026   -6.9400 C   0  0  0  0  0  0  0  0  0  0  0  0
   -0.9766   -3.4480   -6.5115 N   0  0  0  0  0  0  0  0  0  0  0  0
   -4.2905   -3.4238   -6.4786 C   0  0  0  0  0  0  0  0  0  0  0  0
   -5.0303   -3.7288   -5.6542 N   0  0  0  0  0  0  0  0  0  0  0  0
   -8.7098   -2.9900   -9.8092 C   0  0  0  0  0  0  0  0  0  0  0  0
   -9.5964   -1.7613   -9.4879 C   0  0  0  0  0  0  0  0  0  0  0  0
   -8.7487   -0.5402   -9.7442 C   0  0  0  0  0  0  0  0  0  0  0  0
   -8.5701   -0.4383  -11.0545 C   0  0  0  0  0  0  0  0  0  0  0  0
   -9.2941   -1.5892  -11.7081 C   0  0  0  0  0  0  0  0  0  0  0  0
  -10.4815   -1.7444  -10.7445 C   0  0  0  0  0  0  0  0  0  0  0  0
   -8.4981   -2.8691  -11.3512 C   0  0  0  0  0  0  0  0  0  0  0  0
   -0.7644   -1.0153   -8.4187 C   0  0  0  0  0  0  0  0  0  0  0  0
   -1.4878   -0.4568   -7.3573 C   0  0  0  0  0  0  0  0  0  0  0  0
   -0.8660    0.0890   -6.2568 C   0  0  0  0  0  0  0  0  0  0  0  0
   -1.5124    0.6279   -5.1877 O   0  0  0  0  0  0  0  0  0  0  0  0
   -2.8998    0.4225   -5.0121 C   0  0  0  0  0  0  0  0  0  0  0  0
   -3.7469    1.4735   -5.7231 C   0  0  0  0  0  0  0  0  0  0  0  0
    0.5486    0.1066   -6.1950 C   0  0  0  0  0  0  0  0  0  0  0  0
    1.2685   -0.4627   -7.2452 C   0  0  0  0  0  0  0  0  0  0  0  0
    0.6487   -0.9942   -8.3623 C   0  0  0  0  0  0  0  0  0  0  0  0
    1.2934   -1.5314   -9.4210 O   0  0  0  0  0  0  0  0  0  0  0  0
    2.7077   -1.6074   -9.4304 C   0  0  0  0  0  0  0  0  0  0  0  0
    3.2355   -2.7688   -8.5952 C   0  0  0  0  0  0  0  0  0  0  0  0
    1.2298    0.6472   -5.0476 C   0  0  0  0  0  0  0  0  0  0  0  0
    2.5562    1.0332   -4.9350 C   0  0  0  0  0  0  0  0  0  0  0  0
    3.5085    1.2047   -6.0371 C   0  0  0  0  0  0  0  0  0  0  0  0
    4.7827    0.6526   -5.9522 C   0  0  0  0  0  0  0  0  0  0  0  0
    5.6765    0.8194   -6.9944 C   0  0  0  0  0  0  0  0  0  0  0  0
    5.3125    1.5387   -8.1183 C   0  0  0  0  0  0  0  0  0  0  0  0
    4.0487    2.1119   -8.2125 C   0  0  0  0  0  0  0  0  0  0  0  0
    3.6677    2.9330   -9.4111 C   0  0  0  0  0  0  0  0  0  0  0  0
    4.0511    4.3984   -9.1975 C   0  0  0  0  0  0  0  0  0  0  0  0
    3.1591    1.9459   -7.1634 C   0  0  0  0  0  0  0  0  0  0  0  0
    2.8970    1.3252   -3.6007 C   0  0  0  0  0  0  0  0  0  0  0  0
    4.3896    1.8439   -2.8494 S   0  0  0  0  0  0  0  0  0  0  0  0
    3.5813    1.8551   -1.3183 C   0  0  0  0  0  0  0  0  0  0  0  0
    3.8555    2.1354    0.0292 C   0  0  0  0  0  0  0  0  0  0  0  0
    5.0211    2.6348    0.6489 C   0  0  0  0  0  0  0  0  0  0  0  0
    4.9917    2.9153    2.0546 C   0  0  0  0  0  0  0  0  0  0  0  0
    6.1333    3.4204    2.4953 N   0  0  0  0  0  0  0  0  0  0  0  0
    7.1596    3.5289    1.2472 S   0  0  0  0  0  0  0  0  0  0  0  0
    6.1859    2.9370    0.0968 N   0  0  0  0  0  0  0  0  0  0  0  0
    3.8306    2.5921    2.7888 C   0  0  0  0  0  0  0  0  0  0  0  0
    3.5780    2.6399    4.1689 C   0  0  0  0  0  0  0  0  0  0  0  0
    4.3689    3.1202    5.6315 S   0  0  0  0  0  0  0  0  0  0  0  0
    2.9788    2.5677    6.5343 C   0  0  0  0  0  0  0  0  0  0  0  0
    2.7004    2.5101    7.9172 C   0  0  0  0  0  0  0  0  0  0  0  0
    3.6715    2.9049    8.9407 C   0  0  0  0  0  0  0  0  0  0  0  0
    4.3595    4.1082    8.8250 C   0  0  0  0  0  0  0  0  0  0  0  0
    5.2737    4.4723    9.7962 C   0  0  0  0  0  0  0  0  0  0  0  0
    5.5108    3.6442   10.8781 C   0  0  0  0  0  0  0  0  0  0  0  0
    4.8441    2.4304   11.0006 C   0  0  0  0  0  0  0  0  0  0  0  0
    5.1368    1.5070   12.1472 C   0  0  0  0  0  0  0  0  0  0  0  0
    6.3222    0.5991   11.8133 C   0  0  0  0  0  0  0  0  0  0  0  0
    3.9345    2.0666   10.0214 C   0  0  0  0  0  0  0  0  0  0  0  0
    1.4562    1.9633    8.1570 C   0  0  0  0  0  0  0  0  0  0  0  0
    0.6397    1.4851    6.6748 S   0  0  0  0  0  0  0  0  0  0  0  0
    1.9686    2.0460    5.7260 C   0  0  0  0  0  0  0  0  0  0  0  0
    2.3114    2.0889    4.3683 C   0  0  0  0  0  0  0  0  0  0  0  0
    1.7595    1.7290    3.1679 N   0  0  0  0  0  0  0  0  0  0  0  0
    2.6768    2.0302    2.1722 C   0  0  0  0  0  0  0  0  0  0  0  0
    2.6559    1.8918    0.7579 C   0  0  0  0  0  0  0  0  0  0  0  0
    1.6749    1.5070   -0.1436 N   0  0  0  0  0  0  0  0  0  0  0  0
    2.2366    1.4890   -1.3919 C   0  0  0  0  0  0  0  0  0  0  0  0
    1.8384    1.1886   -2.7022 C   0  0  0  0  0  0  0  0  0  0  0  0
    0.3860    0.7201   -3.5122 S   0  0  0  0  0  0  0  0  0  0  0  0
    0.2349    1.5146   -0.0208 C   0  0  0  0  0  0  0  0  0  0  0  0
   -0.2836    2.8905    0.3911 C   0  0  0  0  0  0  0  0  0  0  0  0
    0.6214    0.8383    3.1522 C   0  0  0  0  0  0  0  0  0  0  0  0
    1.0193   -0.5739    2.7293 C   0  0  0  0  0  0  0  0  0  0  0  0
    0.7664    1.7684    9.4113 C   0  0  0  0  0  0  0  0  0  0  0  0
    1.0323    2.6046   10.5183 C   0  0  0  0  0  0  0  0  0  0  0  0
    0.4167    2.3934   11.7289 C   0  0  0  0  0  0  0  0  0  0  0  0
    0.7442    3.2627   12.8740 C   0  0  0  0  0  0  0  0  0  0  0  0
    1.5350    4.1774   12.8360 O   0  0  0  0  0  0  0  0  0  0  0  0
    0.0733    2.9613   14.0442 N   0  0  0  0  0  0  0  0  0  0  0  0
   -0.8586    1.9703   14.2816 C   0  0  0  0  0  0  0  0  0  0  0  0
   -1.3690    1.8514   15.3718 O   0  0  0  0  0  0  0  0  0  0  0  0
   -1.1629    1.1108   13.1209 C   0  0  0  0  0  0  0  0  0  0  0  0
   -2.0719    0.0864   13.2467 C   0  0  0  0  0  0  0  0  0  0  0  0
   -2.3638   -0.7548   12.1541 C   0  0  0  0  0  0  0  0  0  0  0  0
   -1.7728   -0.4989   10.9288 C   0  0  0  0  0  0  0  0  0  0  0  0
   -0.8414    0.5407   10.7677 C   0  0  0  0  0  0  0  0  0  0  0  0
   -0.1845    0.7727    9.5463 C   0  0  0  0  0  0  0  0  0  0  0  0
   -0.5219    1.3509   11.8880 C   0  0  0  0  0  0  0  0  0  0  0  0
   -3.3063   -1.8347   12.3379 C   0  0  0  0  0  0  0  0  0  0  0  0
   -3.3552   -3.0310   11.7134 C   0  0  0  0  0  0  0  0  0  0  0  0
   -4.6040   -3.8503   11.7975 C   0  0  0  0  0  0  0  0  0  0  0  0
   -5.5173   -3.6943   12.5704 O   0  0  0  0  0  0  0  0  0  0  0  0
   -4.4927   -4.8322   10.7015 C   0  0  0  0  0  0  0  0  0  0  0  0
   -5.4317   -5.7421   10.2504 C   0  0  0  0  0  0  0  0  0  0  0  0
   -5.1102   -6.5445    9.1681 C   0  0  0  0  0  0  0  0  0  0  0  0
   -3.8667   -6.4155    8.5602 C   0  0  0  0  0  0  0  0  0  0  0  0
   -3.4618   -7.5068    7.0597 Br  0  0  0  0  0  0  0  0  0  0  0  0
   -2.9076   -5.5140    9.0054 C   0  0  0  0  0  0  0  0  0  0  0  0
   -3.2277   -4.7197   10.0941 C   0  0  0  0  0  0  0  0  0  0  0  0
   -2.4417   -3.7170   10.8123 C   0  0  0  0  0  0  0  0  0  0  0  0
   -1.0786   -3.6275   10.7982 C   0  0  0  0  0  0  0  0  0  0  0  0
   -0.3201   -2.8160   11.6706 C   0  0  0  0  0  0  0  0  0  0  0  0
    0.3631   -2.2205   12.3737 N   0  0  0  0  0  0  0  0  0  0  0  0
   -0.2516   -4.3905    9.9447 C   0  0  0  0  0  0  0  0  0  0  0  0
    0.4592   -4.9681    9.2543 N   0  0  0  0  0  0  0  0  0  0  0  0
   -0.8631   -1.4990  -10.4986 H   0  0  0  0  0  0  0  0  0  0  0  0
   -5.6034   -2.4355  -12.6831 H   0  0  0  0  0  0  0  0  0  0  0  0
   -6.3515   -2.8688   -7.6909 H   0  0  0  0  0  0  0  0  0  0  0  0
   -9.1300   -3.9163   -9.4226 H   0  0  0  0  0  0  0  0  0  0  0  0
  -10.0960   -1.8052   -8.5238 H   0  0  0  0  0  0  0  0  0  0  0  0
   -8.3308    0.0729   -8.9670 H   0  0  0  0  0  0  0  0  0  0  0  0
   -7.9731    0.2761  -11.5906 H   0  0  0  0  0  0  0  0  0  0  0  0
   -9.5187   -1.4767  -12.7654 H   0  0  0  0  0  0  0  0  0  0  0  0
  -11.1596   -0.8927  -10.7709 H   0  0  0  0  0  0  0  0  0  0  0  0
  -11.0425   -2.6661  -10.8922 H   0  0  0  0  0  0  0  0  0  0  0  0
   -8.7777   -3.7184  -11.9714 H   0  0  0  0  0  0  0  0  0  0  0  0
   -2.5621   -0.4335   -7.4413 H   0  0  0  0  0  0  0  0  0  0  0  0
   -3.1794   -0.5911   -5.3239 H   0  0  0  0  0  0  0  0  0  0  0  0
   -3.0518    0.5017   -3.9314 H   0  0  0  0  0  0  0  0  0  0  0  0
   -3.6005    1.4414   -6.7999 H   0  0  0  0  0  0  0  0  0  0  0  0
   -4.7970    1.2990   -5.5055 H   0  0  0  0  0  0  0  0  0  0  0  0
   -3.4727    2.4648   -5.3713 H   0  0  0  0  0  0  0  0  0  0  0  0
    2.3394   -0.4939   -7.1573 H   0  0  0  0  0  0  0  0  0  0  0  0
    3.1493   -0.6561   -9.1081 H   0  0  0  0  0  0  0  0  0  0  0  0
    2.9579   -1.7649  -10.4833 H   0  0  0  0  0  0  0  0  0  0  0  0
    4.3192   -2.8029   -8.6642 H   0  0  0  0  0  0  0  0  0  0  0  0
    2.8252   -3.7046   -8.9655 H   0  0  0  0  0  0  0  0  0  0  0  0
    2.9504   -2.6618   -7.5519 H   0  0  0  0  0  0  0  0  0  0  0  0
    5.0613    0.0795   -5.0811 H   0  0  0  0  0  0  0  0  0  0  0  0
    6.6618    0.3822   -6.9296 H   0  0  0  0  0  0  0  0  0  0  0  0
    6.0132    1.6592   -8.9319 H   0  0  0  0  0  0  0  0  0  0  0  0
    4.1798    2.5527  -10.2975 H   0  0  0  0  0  0  0  0  0  0  0  0
    2.5912    2.8622   -9.5812 H   0  0  0  0  0  0  0  0  0  0  0  0
    5.1226    4.4889   -9.0338 H   0  0  0  0  0  0  0  0  0  0  0  0
    3.5377    4.8002   -8.3269 H   0  0  0  0  0  0  0  0  0  0  0  0
    3.7804    4.9932  -10.0668 H   0  0  0  0  0  0  0  0  0  0  0  0
    2.1732    2.3857   -7.2200 H   0  0  0  0  0  0  0  0  0  0  0  0
    4.1617    4.7623    7.9893 H   0  0  0  0  0  0  0  0  0  0  0  0
    5.7996    5.4115    9.7099 H   0  0  0  0  0  0  0  0  0  0  0  0
    6.2187    3.9408   11.6382 H   0  0  0  0  0  0  0  0  0  0  0  0
    4.2597    0.8923   12.3602 H   0  0  0  0  0  0  0  0  0  0  0  0
    5.3692    2.0918   13.0391 H   0  0  0  0  0  0  0  0  0  0  0  0
    7.2099    1.1941   11.6101 H   0  0  0  0  0  0  0  0  0  0  0  0
    6.5341   -0.0703   12.6435 H   0  0  0  0  0  0  0  0  0  0  0  0
    6.1029    0.0006   10.9318 H   0  0  0  0  0  0  0  0  0  0  0  0
    3.4205    1.1181   10.0954 H   0  0  0  0  0  0  0  0  0  0  0  0
   -0.1588    1.2623   -1.0085 H   0  0  0  0  0  0  0  0  0  0  0  0
   -0.0997    0.7361    0.6650 H   0  0  0  0  0  0  0  0  0  0  0  0
   -0.0244    3.6254   -0.3675 H   0  0  0  0  0  0  0  0  0  0  0  0
   -1.3653    2.8652    0.4936 H   0  0  0  0  0  0  0  0  0  0  0  0
    0.1533    3.2101    1.3345 H   0  0  0  0  0  0  0  0  0  0  0  0
    0.2350    0.8120    4.1742 H   0  0  0  0  0  0  0  0  0  0  0  0
   -0.1724    1.2396    2.5218 H   0  0  0  0  0  0  0  0  0  0  0  0
    1.7308   -0.9869    3.4406 H   0  0  0  0  0  0  0  0  0  0  0  0
    0.1427   -1.2158    2.7044 H   0  0  0  0  0  0  0  0  0  0  0  0
    1.4847   -0.5739    1.7467 H   0  0  0  0  0  0  0  0  0  0  0  0
    1.7197    3.4309   10.4298 H   0  0  0  0  0  0  0  0  0  0  0  0
    0.2941    3.5536   14.8399 H   0  0  0  0  0  0  0  0  0  0  0  0
   -2.5396   -0.0817   14.2052 H   0  0  0  0  0  0  0  0  0  0  0  0
   -2.0380   -1.0917   10.0643 H   0  0  0  0  0  0  0  0  0  0  0  0
   -0.4167    0.1368    8.7032 H   0  0  0  0  0  0  0  0  0  0  0  0
   -4.1126   -1.6480   13.0406 H   0  0  0  0  0  0  0  0  0  0  0  0
   -6.3917   -5.8173   10.7367 H   0  0  0  0  0  0  0  0  0  0  0  0
   -5.8177   -7.2659    8.7896 H   0  0  0  0  0  0  0  0  0  0  0  0
   -1.9571   -5.4415    8.5018 H   0  0  0  0  0  0  0  0  0  0  0  0
  1  2  2  0  0  0  0
  2  3  1  0  0  0  0
  3  4  2  0  0  0  0
  3  5  1  0  0  0  0
  5  6  2  0  0  0  0
  6  7  1  0  0  0  0
  7  8  2  0  0  0  0
  8  9  1  0  0  0  0
  9 10  2  0  0  0  0
 10 11  1  0  0  0  0
 11 12  2  0  0  0  0
 12 13  1  0  0  0  0
 13 14  3  0  0  0  0
 12 15  1  0  0  0  0
 15 16  3  0  0  0  0
  8 17  1  0  0  0  0
 17 18  1  0  0  0  0
 18 19  1  0  0  0  0
 19 20  2  0  0  0  0
 20 21  1  0  0  0  0
 21 22  1  0  0  0  0
 21 23  1  0  0  0  0
  1 24  1  0  0  0  0
 24 25  2  0  0  0  0
 25 26  1  0  0  0  0
 26 27  1  0  0  0  0
 27 28  1  0  0  0  0
 28 29  1  0  0  0  0
 26 30  2  0  0  0  0
 30 31  1  0  0  0  0
 31 32  2  0  0  0  0
 32 33  1  0  0  0  0
 33 34  1  0  0  0  0
 34 35  1  0  0  0  0
 30 36  1  0  0  0  0
 36 37  2  0  0  0  0
 37 38  1  0  0  0  0
 38 39  2  0  0  0  0
 39 40  1  0  0  0  0
 40 41  2  0  0  0  0
 41 42  1  0  0  0  0
 42 43  1  0  0  0  0
 43 44  1  0  0  0  0
 42 45  2  0  0  0  0
 37 46  1  0  0  0  0
 46 47  1  0  0  0  0
 47 48  1  0  0  0  0
 48 49  1  0  0  0  0
 49 50  1  0  0  0  0
 50 51  1  0  0  0  0
 51 52  2  0  0  0  0
 52 53  1  0  0  0  0
 53 54  1  0  0  0  0
 51 55  1  0  0  0  0
 55 56  1  0  0  0  0
 56 57  1  0  0  0  0
 57 58  1  0  0  0  0
 58 59  1  0  0  0  0
 59 60  1  0  0  0  0
 60 61  2  0  0  0  0
 61 62  1  0  0  0  0
 62 63  2  0  0  0  0
 63 64  1  0  0  0  0
 64 65  1  0  0  0  0
 65 66  1  0  0  0  0
 64 67  2  0  0  0  0
 59 68  2  0  0  0  0
 68 69  1  0  0  0  0
 69 70  1  0  0  0  0
 70 71  1  0  0  0  0
 71 72  1  0  0  0  0
 72 73  1  0  0  0  0
 73 74  1  0  0  0  0
 74 75  1  0  0  0  0
 75 76  1  0  0  0  0
 76 77  1  0  0  0  0
 77 78  1  0  0  0  0
 75 79  1  0  0  0  0
 79 80  1  0  0  0  0
 72 81  1  0  0  0  0
 81 82  1  0  0  0  0
 68 83  1  0  0  0  0
 83 84  2  0  0  0  0
 84 85  1  0  0  0  0
 85 86  1  0  0  0  0
 86 87  2  0  0  0  0
 86 88  1  0  0  0  0
 88 89  1  0  0  0  0
 89 90  2  0  0  0  0
 89 91  1  0  0  0  0
 91 92  2  0  0  0  0
 92 93  1  0  0  0  0
 93 94  2  0  0  0  0
 94 95  1  0  0  0  0
 95 96  2  0  0  0  0
 95 97  1  0  0  0  0
 93 98  1  0  0  0  0
 98 99  2  0  0  0  0
 99100  1  0  0  0  0
100101  2  0  0  0  0
100102  1  0  0  0  0
102103  2  0  0  0  0
103104  1  0  0  0  0
104105  2  0  0  0  0
105106  1  0  0  0  0
105107  1  0  0  0  0
107108  2  0  0  0  0
108109  1  0  0  0  0
109110  2  0  0  0  0
110111  1  0  0  0  0
111112  3  0  0  0  0
110113  1  0  0  0  0
113114  3  0  0  0  0
 11  2  1  0  0  0  0
 23 17  1  0  0  0  0
 32 24  1  0  0  0  0
 78 36  1  0  0  0  0
 96 83  1  0  0  0  0
109 99  1  0  0  0  0
 10  5  1  0  0  0  0
 22 18  1  0  0  0  0
 45 38  1  0  0  0  0
 77 46  2  0  0  0  0
 97 85  2  0  0  0  0
108102  1  0  0  0  0
 23  7  1  0  0  0  0
 76 48  2  0  0  0  0
 97 91  1  0  0  0  0
 74 49  2  0  0  0  0
 54 50  2  0  0  0  0
 73 55  2  0  0  0  0
 71 56  2  0  0  0  0
 70 58  2  0  0  0  0
 67 60  1  0  0  0  0
  1115  1  0  0  0  0
  6116  1  0  0  0  0
  9117  1  0  0  0  0
 17118  1  0  0  0  0
 18119  1  0  0  0  0
 19120  1  0  0  0  0
 20121  1  0  0  0  0
 21122  1  0  0  0  0
 22123  1  0  0  0  0
 22124  1  0  0  0  0
 23125  1  0  0  0  0
 25126  1  0  0  0  0
 28127  1  0  0  0  0
 28128  1  0  0  0  0
 29129  1  0  0  0  0
 29130  1  0  0  0  0
 29131  1  0  0  0  0
 31132  1  0  0  0  0
 34133  1  0  0  0  0
 34134  1  0  0  0  0
 35135  1  0  0  0  0
 35136  1  0  0  0  0
 35137  1  0  0  0  0
 39138  1  0  0  0  0
 40139  1  0  0  0  0
 41140  1  0  0  0  0
 43141  1  0  0  0  0
 43142  1  0  0  0  0
 44143  1  0  0  0  0
 44144  1  0  0  0  0
 44145  1  0  0  0  0
 45146  1  0  0  0  0
 61147  1  0  0  0  0
 62148  1  0  0  0  0
 63149  1  0  0  0  0
 65150  1  0  0  0  0
 65151  1  0  0  0  0
 66152  1  0  0  0  0
 66153  1  0  0  0  0
 66154  1  0  0  0  0
 67155  1  0  0  0  0
 79156  1  0  0  0  0
 79157  1  0  0  0  0
 80158  1  0  0  0  0
 80159  1  0  0  0  0
 80160  1  0  0  0  0
 81161  1  0  0  0  0
 81162  1  0  0  0  0
 82163  1  0  0  0  0
 82164  1  0  0  0  0
 82165  1  0  0  0  0
 84166  1  0  0  0  0
 88167  1  0  0  0  0
 92168  1  0  0  0  0
 94169  1  0  0  0  0
 96170  1  0  0  0  0
 98171  1  0  0  0  0
103172  1  0  0  0  0
104173  1  0  0  0  0
107174  1  0  0  0  0
M  END
