
  xtb     02122221333D
 energy: -345.187517156294 gnorm: 0.000462682384 xtb: 6.4.1 (unknown)
207231  0     0  0            999 V2000
   -6.4596    6.8969   12.4283 C   0  0  0  0  0  0  0  0  0  0  0  0
   -5.9045    5.9548   13.2284 C   0  0  0  0  0  0  0  0  0  0  0  0
   -4.5190    5.4150   13.1009 C   0  0  0  0  0  0  0  0  0  0  0  0
   -3.6837    5.6991   12.2718 O   0  0  0  0  0  0  0  0  0  0  0  0
   -4.3267    4.5326   14.2647 C   0  0  0  0  0  0  0  0  0  0  0  0
   -3.1832    3.7920   14.5608 C   0  0  0  0  0  0  0  0  0  0  0  0
   -3.2833    3.0436   15.7080 C   0  0  0  0  0  0  0  0  0  0  0  0
   -4.4315    3.0434   16.5134 C   0  0  0  0  0  0  0  0  0  0  0  0
   -5.5599    3.7775   16.2404 C   0  0  0  0  0  0  0  0  0  0  0  0
   -5.4855    4.5381   15.0670 C   0  0  0  0  0  0  0  0  0  0  0  0
   -6.4780    5.4135   14.4545 C   0  0  0  0  0  0  0  0  0  0  0  0
   -7.7447    5.6342   14.9251 C   0  0  0  0  0  0  0  0  0  0  0  0
   -8.7227    6.4440   14.3082 C   0  0  0  0  0  0  0  0  0  0  0  0
   -9.5815    7.0722   13.8757 N   0  0  0  0  0  0  0  0  0  0  0  0
   -8.2698    5.0714   16.1085 C   0  0  0  0  0  0  0  0  0  0  0  0
   -8.7626    4.6557   17.0583 N   0  0  0  0  0  0  0  0  0  0  0  0
   -3.8391    2.0642   17.4957 C   0  0  0  0  0  0  0  0  0  0  0  0
   -4.3321    0.6050   17.3929 C   0  0  0  0  0  0  0  0  0  0  0  0
   -3.2654   -0.1888   18.1119 C   0  0  0  0  0  0  0  0  0  0  0  0
   -2.1801   -0.1905   17.3485 C   0  0  0  0  0  0  0  0  0  0  0  0
   -2.4951    0.6018   16.1003 C   0  0  0  0  0  0  0  0  0  0  0  0
   -3.9820    0.2599   15.9396 C   0  0  0  0  0  0  0  0  0  0  0  0
   -2.5612    2.0622   16.5967 C   0  0  0  0  0  0  0  0  0  0  0  0
   -5.9690    7.3400   11.1449 C   0  0  0  0  0  0  0  0  0  0  0  0
   -5.3711    6.4524   10.2344 C   0  0  0  0  0  0  0  0  0  0  0  0
   -4.9492    6.9386    9.0221 C   0  0  0  0  0  0  0  0  0  0  0  0
   -4.2975    6.2105    7.9005 C   0  0  0  0  0  0  0  0  0  0  0  0
   -4.0471    5.0319    7.8239 O   0  0  0  0  0  0  0  0  0  0  0  0
   -4.0457    7.2634    6.8804 C   0  0  0  0  0  0  0  0  0  0  0  0
   -4.5428    8.4978    7.3437 C   0  0  0  0  0  0  0  0  0  0  0  0
   -5.0987    8.2977    8.6742 C   0  0  0  0  0  0  0  0  0  0  0  0
   -5.7135    9.1689    9.5558 C   0  0  0  0  0  0  0  0  0  0  0  0
   -6.1571    8.6768   10.7727 C   0  0  0  0  0  0  0  0  0  0  0  0
   -4.4517    9.6168    6.5358 C   0  0  0  0  0  0  0  0  0  0  0  0
   -3.8510    9.5019    5.2917 C   0  0  0  0  0  0  0  0  0  0  0  0
   -3.3169    8.2891    4.8418 C   0  0  0  0  0  0  0  0  0  0  0  0
   -3.4393    7.1494    5.6546 C   0  0  0  0  0  0  0  0  0  0  0  0
   -2.6722    8.1701    3.5538 C   0  0  0  0  0  0  0  0  0  0  0  0
   -2.0291    9.1190    2.7845 C   0  0  0  0  0  0  0  0  0  0  0  0
   -1.7212   10.4953    3.1839 C   0  0  0  0  0  0  0  0  0  0  0  0
   -1.9343   11.5455    2.2968 C   0  0  0  0  0  0  0  0  0  0  0  0
   -1.6108   12.8372    2.6691 C   0  0  0  0  0  0  0  0  0  0  0  0
   -1.0694   13.0897    3.9168 C   0  0  0  0  0  0  0  0  0  0  0  0
   -0.8399   12.0505    4.8111 C   0  0  0  0  0  0  0  0  0  0  0  0
   -0.2031   12.3104    6.1460 C   0  0  0  0  0  0  0  0  0  0  0  0
    1.3187   12.1924    6.0419 C   0  0  0  0  0  0  0  0  0  0  0  0
   -1.1636   10.7578    4.4319 C   0  0  0  0  0  0  0  0  0  0  0  0
   -1.5884    8.5753    1.5578 C   0  0  0  0  0  0  0  0  0  0  0  0
   -0.7077    9.2568    0.2100 S   0  0  0  0  0  0  0  0  0  0  0  0
   -0.7133    7.7011   -0.5509 C   0  0  0  0  0  0  0  0  0  0  0  0
   -0.2948    7.0988   -1.7497 C   0  0  0  0  0  0  0  0  0  0  0  0
    0.2645    7.6419   -2.9266 C   0  0  0  0  0  0  0  0  0  0  0  0
    0.4572    6.7859   -4.0643 C   0  0  0  0  0  0  0  0  0  0  0  0
    0.9278    7.4400   -5.1146 N   0  0  0  0  0  0  0  0  0  0  0  0
    1.1174    8.9958   -4.7079 S   0  0  0  0  0  0  0  0  0  0  0  0
    0.6050    8.8967   -3.1749 N   0  0  0  0  0  0  0  0  0  0  0  0
    0.2057    5.4029   -3.9306 C   0  0  0  0  0  0  0  0  0  0  0  0
    0.4487    4.3247   -4.8001 C   0  0  0  0  0  0  0  0  0  0  0  0
    1.0285    4.0307   -6.4059 S   0  0  0  0  0  0  0  0  0  0  0  0
    0.9222    2.3121   -6.1056 C   0  0  0  0  0  0  0  0  0  0  0  0
    1.2108    1.1829   -6.9002 C   0  0  0  0  0  0  0  0  0  0  0  0
    1.6366    1.2761   -8.2987 C   0  0  0  0  0  0  0  0  0  0  0  0
    0.9612    0.5715   -9.2922 C   0  0  0  0  0  0  0  0  0  0  0  0
    1.3571    0.6928  -10.6099 C   0  0  0  0  0  0  0  0  0  0  0  0
    2.4152    1.5189  -10.9478 C   0  0  0  0  0  0  0  0  0  0  0  0
    3.0880    2.2413   -9.9711 C   0  0  0  0  0  0  0  0  0  0  0  0
    4.1896    3.1941  -10.3350 C   0  0  0  0  0  0  0  0  0  0  0  0
    3.6303    4.6093  -10.4952 C   0  0  0  0  0  0  0  0  0  0  0  0
    2.6875    2.1141   -8.6493 C   0  0  0  0  0  0  0  0  0  0  0  0
    0.9890    0.0109   -6.2055 C   0  0  0  0  0  0  0  0  0  0  0  0
    0.3799    0.2975   -4.5793 S   0  0  0  0  0  0  0  0  0  0  0  0
    0.4538    2.0053   -4.8284 C   0  0  0  0  0  0  0  0  0  0  0  0
    0.1722    3.1585   -4.0854 C   0  0  0  0  0  0  0  0  0  0  0  0
   -0.2754    3.4644   -2.8262 N   0  0  0  0  0  0  0  0  0  0  0  0
   -0.2683    4.8474   -2.7107 C   0  0  0  0  0  0  0  0  0  0  0  0
   -0.6476    5.7234   -1.6612 C   0  0  0  0  0  0  0  0  0  0  0  0
   -1.3155    5.5180   -0.4681 N   0  0  0  0  0  0  0  0  0  0  0  0
   -1.3492    6.7120    0.2021 C   0  0  0  0  0  0  0  0  0  0  0  0
   -1.8638    7.2167    1.4036 C   0  0  0  0  0  0  0  0  0  0  0  0
   -2.7117    6.5968    2.7716 S   0  0  0  0  0  0  0  0  0  0  0  0
   -2.2043    4.4473   -0.0779 C   0  0  0  0  0  0  0  0  0  0  0  0
   -1.6739    3.6546    1.1159 C   0  0  0  0  0  0  0  0  0  0  0  0
   -0.1316    2.4671   -1.7872 C   0  0  0  0  0  0  0  0  0  0  0  0
    1.1995    2.6279   -1.0562 C   0  0  0  0  0  0  0  0  0  0  0  0
    1.2775   -1.3384   -6.5640 C   0  0  0  0  0  0  0  0  0  0  0  0
    0.8531   -2.4542   -5.9034 C   0  0  0  0  0  0  0  0  0  0  0  0
    1.3697   -3.6640   -6.4274 C   0  0  0  0  0  0  0  0  0  0  0  0
    1.1549   -4.9757   -5.9653 C   0  0  0  0  0  0  0  0  0  0  0  0
    0.3503   -5.2745   -4.7979 C   0  0  0  0  0  0  0  0  0  0  0  0
   -0.5011   -6.3275   -4.6178 C   0  0  0  0  0  0  0  0  0  0  0  0
   -1.0828   -6.3456   -3.3328 C   0  0  0  0  0  0  0  0  0  0  0  0
   -2.2053   -7.5567   -2.8440 Cl  0  0  0  0  0  0  0  0  0  0  0  0
   -0.6899   -5.3240   -2.5186 C   0  0  0  0  0  0  0  0  0  0  0  0
   -1.0665   -5.0688   -1.1009 C   0  0  0  0  0  0  0  0  0  0  0  0
   -0.1158   -5.7903   -0.1424 C   0  0  0  0  0  0  0  0  0  0  0  0
    0.4343   -4.3069   -3.3502 S   0  0  0  0  0  0  0  0  0  0  0  0
    1.7858   -5.9913   -6.6791 C   0  0  0  0  0  0  0  0  0  0  0  0
    2.6172   -5.7628   -7.7993 C   0  0  0  0  0  0  0  0  0  0  0  0
    2.8414   -4.4509   -8.2543 C   0  0  0  0  0  0  0  0  0  0  0  0
    3.7111   -4.1343   -9.3701 C   0  0  0  0  0  0  0  0  0  0  0  0
    3.5359   -3.1695  -10.3227 C   0  0  0  0  0  0  0  0  0  0  0  0
    4.6060   -3.0810  -11.2341 C   0  0  0  0  0  0  0  0  0  0  0  0
    5.6124   -3.9600  -10.9786 C   0  0  0  0  0  0  0  0  0  0  0  0
    6.8761   -4.1750  -11.7375 C   0  0  0  0  0  0  0  0  0  0  0  0
    6.8167   -5.4618  -12.5635 C   0  0  0  0  0  0  0  0  0  0  0  0
    5.2397   -4.9396   -9.5991 S   0  0  0  0  0  0  0  0  0  0  0  0
    2.1993   -3.4354   -7.5506 C   0  0  0  0  0  0  0  0  0  0  0  0
    2.3459   -1.7319   -7.8947 S   0  0  0  0  0  0  0  0  0  0  0  0
    3.1374   -6.9829   -8.3226 C   0  0  0  0  0  0  0  0  0  0  0  0
    2.7598   -8.0781   -7.6282 C   0  0  0  0  0  0  0  0  0  0  0  0
    1.7130   -7.6870   -6.2856 S   0  0  0  0  0  0  0  0  0  0  0  0
    3.1448   -9.5021   -7.8550 C   0  0  0  0  0  0  0  0  0  0  0  0
    1.9505  -10.4018   -7.8572 C   0  0  0  0  0  0  0  0  0  0  0  0
    2.0000  -11.6825   -7.4699 C   0  0  0  0  0  0  0  0  0  0  0  0
    3.2251  -12.3405   -7.0927 C   0  0  0  0  0  0  0  0  0  0  0  0
    3.2897  -13.6980   -6.8663 C   0  0  0  0  0  0  0  0  0  0  0  0
    2.1183  -14.5710   -7.0165 C   0  0  0  0  0  0  0  0  0  0  0  0
    1.1326  -14.3091   -7.6768 O   0  0  0  0  0  0  0  0  0  0  0  0
    2.1714  -15.7779   -6.3264 N   0  0  0  0  0  0  0  0  0  0  0  0
    0.9477  -16.5732   -6.3135 C   0  0  0  0  0  0  0  0  0  0  0  0
    0.0728  -16.2210   -5.1178 C   0  0  0  0  0  0  0  0  0  0  0  0
    3.2726  -16.2417   -5.6684 C   0  0  0  0  0  0  0  0  0  0  0  0
    3.2018  -17.6018   -4.7369 S   0  0  0  0  0  0  0  0  0  0  0  0
    4.4460  -15.5686   -5.8448 N   0  0  0  0  0  0  0  0  0  0  0  0
    4.5506  -14.3295   -6.4660 C   0  0  0  0  0  0  0  0  0  0  0  0
    5.6500  -13.8355   -6.6289 O   0  0  0  0  0  0  0  0  0  0  0  0
    5.6815  -16.1381   -5.3174 C   0  0  0  0  0  0  0  0  0  0  0  0
    5.9281  -15.6971   -3.8807 C   0  0  0  0  0  0  0  0  0  0  0  0
    4.4311  -11.4632   -6.9620 C   0  0  0  0  0  0  0  0  0  0  0  0
    4.0902   -9.9934   -6.7535 C   0  0  0  0  0  0  0  0  0  0  0  0
   -7.3595    7.3959   12.7669 H   0  0  0  0  0  0  0  0  0  0  0  0
   -2.3200    3.8283   13.9150 H   0  0  0  0  0  0  0  0  0  0  0  0
   -6.4292    3.7730   16.8759 H   0  0  0  0  0  0  0  0  0  0  0  0
   -3.7544    2.4138   18.5227 H   0  0  0  0  0  0  0  0  0  0  0  0
   -5.3585    0.4483   17.7126 H   0  0  0  0  0  0  0  0  0  0  0  0
   -3.3882   -0.6066   19.0938 H   0  0  0  0  0  0  0  0  0  0  0  0
   -1.2153   -0.6101   17.5652 H   0  0  0  0  0  0  0  0  0  0  0  0
   -1.8480    0.4414   15.2423 H   0  0  0  0  0  0  0  0  0  0  0  0
   -4.1398   -0.7943   15.7179 H   0  0  0  0  0  0  0  0  0  0  0  0
   -4.5006    0.8682   15.2009 H   0  0  0  0  0  0  0  0  0  0  0  0
   -1.6221    2.4094   17.0234 H   0  0  0  0  0  0  0  0  0  0  0  0
   -5.2706    5.4035   10.4601 H   0  0  0  0  0  0  0  0  0  0  0  0
   -5.8534   10.2094    9.3049 H   0  0  0  0  0  0  0  0  0  0  0  0
   -6.6400    9.3459   11.4707 H   0  0  0  0  0  0  0  0  0  0  0  0
   -4.8467   10.5691    6.8560 H   0  0  0  0  0  0  0  0  0  0  0  0
   -3.8006   10.3673    4.6495 H   0  0  0  0  0  0  0  0  0  0  0  0
   -3.0546    6.1945    5.3269 H   0  0  0  0  0  0  0  0  0  0  0  0
   -2.3646   11.3499    1.3263 H   0  0  0  0  0  0  0  0  0  0  0  0
   -1.7823   13.6513    1.9806 H   0  0  0  0  0  0  0  0  0  0  0  0
   -0.8202   14.1018    4.2012 H   0  0  0  0  0  0  0  0  0  0  0  0
   -0.5716   11.5882    6.8778 H   0  0  0  0  0  0  0  0  0  0  0  0
   -0.4640   13.3125    6.4920 H   0  0  0  0  0  0  0  0  0  0  0  0
    1.5980   11.1958    5.7075 H   0  0  0  0  0  0  0  0  0  0  0  0
    1.7058   12.9138    5.3257 H   0  0  0  0  0  0  0  0  0  0  0  0
    1.7821   12.3777    7.0081 H   0  0  0  0  0  0  0  0  0  0  0  0
   -0.9804    9.9384    5.1129 H   0  0  0  0  0  0  0  0  0  0  0  0
    0.1229   -0.0565   -9.0279 H   0  0  0  0  0  0  0  0  0  0  0  0
    0.8330    0.1452  -11.3800 H   0  0  0  0  0  0  0  0  0  0  0  0
    2.7180    1.6090  -11.9813 H   0  0  0  0  0  0  0  0  0  0  0  0
    4.9513    3.1953   -9.5526 H   0  0  0  0  0  0  0  0  0  0  0  0
    4.6591    2.8816  -11.2698 H   0  0  0  0  0  0  0  0  0  0  0  0
    2.8795    4.6316  -11.2820 H   0  0  0  0  0  0  0  0  0  0  0  0
    4.4248    5.3058  -10.7529 H   0  0  0  0  0  0  0  0  0  0  0  0
    3.1641    4.9386   -9.5694 H   0  0  0  0  0  0  0  0  0  0  0  0
    3.2066    2.6650   -7.8782 H   0  0  0  0  0  0  0  0  0  0  0  0
   -3.1622    4.8994    0.2053 H   0  0  0  0  0  0  0  0  0  0  0  0
   -2.3886    3.8127   -0.9458 H   0  0  0  0  0  0  0  0  0  0  0  0
   -2.3289    2.8109    1.3165 H   0  0  0  0  0  0  0  0  0  0  0  0
   -0.6670    3.2881    0.9380 H   0  0  0  0  0  0  0  0  0  0  0  0
   -1.6518    4.2859    1.9999 H   0  0  0  0  0  0  0  0  0  0  0  0
   -0.1631    1.4936   -2.2827 H   0  0  0  0  0  0  0  0  0  0  0  0
   -0.9587    2.5062   -1.0843 H   0  0  0  0  0  0  0  0  0  0  0  0
    1.2613    3.6059   -0.5831 H   0  0  0  0  0  0  0  0  0  0  0  0
    2.0256    2.5346   -1.7574 H   0  0  0  0  0  0  0  0  0  0  0  0
    1.3022    1.8582   -0.2960 H   0  0  0  0  0  0  0  0  0  0  0  0
    0.1787   -2.4022   -5.0680 H   0  0  0  0  0  0  0  0  0  0  0  0
   -0.7388   -7.0486   -5.3774 H   0  0  0  0  0  0  0  0  0  0  0  0
   -1.0373   -3.9955   -0.9041 H   0  0  0  0  0  0  0  0  0  0  0  0
   -2.0857   -5.4261   -0.9385 H   0  0  0  0  0  0  0  0  0  0  0  0
   -0.1456   -6.8625   -0.3199 H   0  0  0  0  0  0  0  0  0  0  0  0
    0.9044   -5.4426   -0.2891 H   0  0  0  0  0  0  0  0  0  0  0  0
   -0.4055   -5.5994    0.8876 H   0  0  0  0  0  0  0  0  0  0  0  0
    2.6537   -2.5593  -10.3924 H   0  0  0  0  0  0  0  0  0  0  0  0
    4.6292   -2.3799  -12.0494 H   0  0  0  0  0  0  0  0  0  0  0  0
    7.0369   -3.3207  -12.3985 H   0  0  0  0  0  0  0  0  0  0  0  0
    7.7178   -4.2346  -11.0430 H   0  0  0  0  0  0  0  0  0  0  0  0
    6.6711   -6.3205  -11.9119 H   0  0  0  0  0  0  0  0  0  0  0  0
    5.9912   -5.4197  -13.2705 H   0  0  0  0  0  0  0  0  0  0  0  0
    7.7424   -5.5982  -13.1167 H   0  0  0  0  0  0  0  0  0  0  0  0
    3.7675   -7.0320   -9.1914 H   0  0  0  0  0  0  0  0  0  0  0  0
    3.6529   -9.5688   -8.8269 H   0  0  0  0  0  0  0  0  0  0  0  0
    1.0125   -9.9720   -8.1775 H   0  0  0  0  0  0  0  0  0  0  0  0
    1.0988  -12.2725   -7.4927 H   0  0  0  0  0  0  0  0  0  0  0  0
    0.4212  -16.3539   -7.2440 H   0  0  0  0  0  0  0  0  0  0  0  0
    1.2264  -17.6274   -6.2855 H   0  0  0  0  0  0  0  0  0  0  0  0
   -0.8373  -16.8127   -5.1486 H   0  0  0  0  0  0  0  0  0  0  0  0
   -0.1938  -15.1670   -5.1431 H   0  0  0  0  0  0  0  0  0  0  0  0
    0.5956  -16.4347   -4.1887 H   0  0  0  0  0  0  0  0  0  0  0  0
    5.6065  -17.2247   -5.3756 H   0  0  0  0  0  0  0  0  0  0  0  0
    6.4886  -15.7865   -5.9625 H   0  0  0  0  0  0  0  0  0  0  0  0
    6.8606  -16.1256   -3.5257 H   0  0  0  0  0  0  0  0  0  0  0  0
    5.1211  -16.0363   -3.2359 H   0  0  0  0  0  0  0  0  0  0  0  0
    5.9977  -14.6133   -3.8264 H   0  0  0  0  0  0  0  0  0  0  0  0
    5.0741  -11.8103   -6.1527 H   0  0  0  0  0  0  0  0  0  0  0  0
    5.0171  -11.5812   -7.8799 H   0  0  0  0  0  0  0  0  0  0  0  0
    3.5944   -9.8635   -5.7882 H   0  0  0  0  0  0  0  0  0  0  0  0
    5.0055   -9.4000   -6.7493 H   0  0  0  0  0  0  0  0  0  0  0  0
  1  2  2  0  0  0  0
  2  3  1  0  0  0  0
  3  4  2  0  0  0  0
  3  5  1  0  0  0  0
  5  6  2  0  0  0  0
  6  7  1  0  0  0  0
  7  8  2  0  0  0  0
  8  9  1  0  0  0  0
  9 10  2  0  0  0  0
 10 11  1  0  0  0  0
 11 12  2  0  0  0  0
 12 13  1  0  0  0  0
 13 14  3  0  0  0  0
 12 15  1  0  0  0  0
 15 16  3  0  0  0  0
  8 17  1  0  0  0  0
 17 18  1  0  0  0  0
 18 19  1  0  0  0  0
 19 20  2  0  0  0  0
 20 21  1  0  0  0  0
 21 22  1  0  0  0  0
 21 23  1  0  0  0  0
  1 24  1  0  0  0  0
 24 25  2  0  0  0  0
 25 26  1  0  0  0  0
 26 27  1  0  0  0  0
 27 28  2  0  0  0  0
 27 29  1  0  0  0  0
 29 30  2  0  0  0  0
 30 31  1  0  0  0  0
 31 32  1  0  0  0  0
 32 33  2  0  0  0  0
 30 34  1  0  0  0  0
 34 35  2  0  0  0  0
 35 36  1  0  0  0  0
 36 37  2  0  0  0  0
 36 38  1  0  0  0  0
 38 39  2  0  0  0  0
 39 40  1  0  0  0  0
 40 41  2  0  0  0  0
 41 42  1  0  0  0  0
 42 43  2  0  0  0  0
 43 44  1  0  0  0  0
 44 45  1  0  0  0  0
 45 46  1  0  0  0  0
 44 47  2  0  0  0  0
 39 48  1  0  0  0  0
 48 49  1  0  0  0  0
 49 50  1  0  0  0  0
 50 51  1  0  0  0  0
 51 52  1  0  0  0  0
 52 53  1  0  0  0  0
 53 54  2  0  0  0  0
 54 55  1  0  0  0  0
 55 56  1  0  0  0  0
 53 57  1  0  0  0  0
 57 58  1  0  0  0  0
 58 59  1  0  0  0  0
 59 60  1  0  0  0  0
 60 61  1  0  0  0  0
 61 62  1  0  0  0  0
 62 63  2  0  0  0  0
 63 64  1  0  0  0  0
 64 65  2  0  0  0  0
 65 66  1  0  0  0  0
 66 67  1  0  0  0  0
 67 68  1  0  0  0  0
 66 69  2  0  0  0  0
 61 70  2  0  0  0  0
 70 71  1  0  0  0  0
 71 72  1  0  0  0  0
 72 73  1  0  0  0  0
 73 74  1  0  0  0  0
 74 75  1  0  0  0  0
 75 76  1  0  0  0  0
 76 77  1  0  0  0  0
 77 78  1  0  0  0  0
 78 79  1  0  0  0  0
 79 80  1  0  0  0  0
 77 81  1  0  0  0  0
 81 82  1  0  0  0  0
 74 83  1  0  0  0  0
 83 84  1  0  0  0  0
 70 85  1  0  0  0  0
 85 86  2  0  0  0  0
 86 87  1  0  0  0  0
 87 88  2  0  0  0  0
 88 89  1  0  0  0  0
 89 90  2  0  0  0  0
 90 91  1  0  0  0  0
 91 92  1  0  0  0  0
 91 93  2  0  0  0  0
 93 94  1  0  0  0  0
 94 95  1  0  0  0  0
 93 96  1  0  0  0  0
 88 97  1  0  0  0  0
 97 98  2  0  0  0  0
 98 99  1  0  0  0  0
 99100  1  0  0  0  0
100101  2  0  0  0  0
101102  1  0  0  0  0
102103  2  0  0  0  0
103104  1  0  0  0  0
104105  1  0  0  0  0
103106  1  0  0  0  0
 99107  2  0  0  0  0
107108  1  0  0  0  0
 98109  1  0  0  0  0
109110  2  0  0  0  0
110111  1  0  0  0  0
110112  1  0  0  0  0
112113  1  0  0  0  0
113114  2  0  0  0  0
114115  1  0  0  0  0
115116  2  0  0  0  0
116117  1  0  0  0  0
117118  2  0  0  0  0
117119  1  0  0  0  0
119120  1  0  0  0  0
120121  1  0  0  0  0
119122  1  0  0  0  0
122123  2  0  0  0  0
122124  1  0  0  0  0
124125  1  0  0  0  0
125126  2  0  0  0  0
124127  1  0  0  0  0
127128  1  0  0  0  0
115129  1  0  0  0  0
129130  1  0  0  0  0
 11  2  1  0  0  0  0
 23 17  1  0  0  0  0
 33 24  1  0  0  0  0
 80 38  1  0  0  0  0
108 85  1  0  0  0  0
130112  1  0  0  0  0
 10  5  1  0  0  0  0
 22 18  1  0  0  0  0
 31 26  2  0  0  0  0
 47 40  1  0  0  0  0
 79 48  2  0  0  0  0
107 87  1  0  0  0  0
125116  1  0  0  0  0
 23  7  1  0  0  0  0
 37 29  1  0  0  0  0
 78 50  2  0  0  0  0
 96 89  1  0  0  0  0
111 97  1  0  0  0  0
 76 51  2  0  0  0  0
106100  1  0  0  0  0
 56 52  2  0  0  0  0
 75 57  2  0  0  0  0
 73 58  2  0  0  0  0
 72 60  2  0  0  0  0
 69 62  1  0  0  0  0
  1131  1  0  0  0  0
  6132  1  0  0  0  0
  9133  1  0  0  0  0
 17134  1  0  0  0  0
 18135  1  0  0  0  0
 19136  1  0  0  0  0
 20137  1  0  0  0  0
 21138  1  0  0  0  0
 22139  1  0  0  0  0
 22140  1  0  0  0  0
 23141  1  0  0  0  0
 25142  1  0  0  0  0
 32143  1  0  0  0  0
 33144  1  0  0  0  0
 34145  1  0  0  0  0
 35146  1  0  0  0  0
 37147  1  0  0  0  0
 41148  1  0  0  0  0
 42149  1  0  0  0  0
 43150  1  0  0  0  0
 45151  1  0  0  0  0
 45152  1  0  0  0  0
 46153  1  0  0  0  0
 46154  1  0  0  0  0
 46155  1  0  0  0  0
 47156  1  0  0  0  0
 63157  1  0  0  0  0
 64158  1  0  0  0  0
 65159  1  0  0  0  0
 67160  1  0  0  0  0
 67161  1  0  0  0  0
 68162  1  0  0  0  0
 68163  1  0  0  0  0
 68164  1  0  0  0  0
 69165  1  0  0  0  0
 81166  1  0  0  0  0
 81167  1  0  0  0  0
 82168  1  0  0  0  0
 82169  1  0  0  0  0
 82170  1  0  0  0  0
 83171  1  0  0  0  0
 83172  1  0  0  0  0
 84173  1  0  0  0  0
 84174  1  0  0  0  0
 84175  1  0  0  0  0
 86176  1  0  0  0  0
 90177  1  0  0  0  0
 94178  1  0  0  0  0
 94179  1  0  0  0  0
 95180  1  0  0  0  0
 95181  1  0  0  0  0
 95182  1  0  0  0  0
101183  1  0  0  0  0
102184  1  0  0  0  0
104185  1  0  0  0  0
104186  1  0  0  0  0
105187  1  0  0  0  0
105188  1  0  0  0  0
105189  1  0  0  0  0
109190  1  0  0  0  0
112191  1  0  0  0  0
113192  1  0  0  0  0
114193  1  0  0  0  0
120194  1  0  0  0  0
120195  1  0  0  0  0
121196  1  0  0  0  0
121197  1  0  0  0  0
121198  1  0  0  0  0
127199  1  0  0  0  0
127200  1  0  0  0  0
128201  1  0  0  0  0
128202  1  0  0  0  0
128203  1  0  0  0  0
129204  1  0  0  0  0
129205  1  0  0  0  0
130206  1  0  0  0  0
130207  1  0  0  0  0
M  END
