
  xtb     02162204533D
 energy: -301.866620893259 gnorm: 0.000990551769 xtb: 6.4.1 (unknown)
179201  0     0  0            999 V2000
    4.9764   -9.9051    8.4586 C   0  0  0  0  0  0  0  0  0  0  0  0
    6.2368   -9.7847    7.9946 C   0  0  0  0  0  0  0  0  0  0  0  0
    7.3482  -10.5841    8.5929 C   0  0  0  0  0  0  0  0  0  0  0  0
    7.2327  -11.5528    9.3072 O   0  0  0  0  0  0  0  0  0  0  0  0
    8.5855   -9.9050    8.1697 C   0  0  0  0  0  0  0  0  0  0  0  0
    9.8870  -10.1935    8.5780 C   0  0  0  0  0  0  0  0  0  0  0  0
   10.8432   -9.3776    8.0238 C   0  0  0  0  0  0  0  0  0  0  0  0
   10.5334   -8.3440    7.1276 C   0  0  0  0  0  0  0  0  0  0  0  0
    9.2575   -8.0470    6.7145 C   0  0  0  0  0  0  0  0  0  0  0  0
    8.2690   -8.8694    7.2630 C   0  0  0  0  0  0  0  0  0  0  0  0
    6.8309   -8.8801    7.0201 C   0  0  0  0  0  0  0  0  0  0  0  0
    6.2063   -8.3349    5.9330 C   0  0  0  0  0  0  0  0  0  0  0  0
    4.8619   -8.5745    5.5762 C   0  0  0  0  0  0  0  0  0  0  0  0
    3.8040   -8.7770    5.1799 N   0  0  0  0  0  0  0  0  0  0  0  0
    6.8559   -7.5457    4.9593 C   0  0  0  0  0  0  0  0  0  0  0  0
    7.3245   -6.8960    4.1375 N   0  0  0  0  0  0  0  0  0  0  0  0
   11.9759   -7.9326    6.9782 C   0  0  0  0  0  0  0  0  0  0  0  0
   12.4469   -6.6634    7.7298 C   0  0  0  0  0  0  0  0  0  0  0  0
   11.5388   -6.5128    8.9250 C   0  0  0  0  0  0  0  0  0  0  0  0
   11.8283   -7.4861    9.7781 C   0  0  0  0  0  0  0  0  0  0  0  0
   12.9383   -8.3119    9.1760 C   0  0  0  0  0  0  0  0  0  0  0  0
   13.7058   -7.2195    8.4140 C   0  0  0  0  0  0  0  0  0  0  0  0
   12.3210   -9.0791    7.9801 C   0  0  0  0  0  0  0  0  0  0  0  0
    3.8801   -8.9912    8.2181 C   0  0  0  0  0  0  0  0  0  0  0  0
    4.1071   -7.6061    8.2062 C   0  0  0  0  0  0  0  0  0  0  0  0
    3.0604   -6.7688    7.9112 C   0  0  0  0  0  0  0  0  0  0  0  0
    3.0515   -5.2852    7.8089 C   0  0  0  0  0  0  0  0  0  0  0  0
    3.9558   -4.5231    8.0552 O   0  0  0  0  0  0  0  0  0  0  0  0
    1.6821   -4.9622    7.3330 C   0  0  0  0  0  0  0  0  0  0  0  0
    0.9351   -6.1520    7.2047 C   0  0  0  0  0  0  0  0  0  0  0  0
    1.7835   -7.2722    7.5913 C   0  0  0  0  0  0  0  0  0  0  0  0
    1.5431   -8.6315    7.6608 C   0  0  0  0  0  0  0  0  0  0  0  0
    2.5896   -9.4770    7.9978 C   0  0  0  0  0  0  0  0  0  0  0  0
   -0.3534   -6.1024    6.7099 C   0  0  0  0  0  0  0  0  0  0  0  0
   -0.8815   -4.8701    6.3483 C   0  0  0  0  0  0  0  0  0  0  0  0
   -0.1554   -3.6881    6.4956 C   0  0  0  0  0  0  0  0  0  0  0  0
    1.1563   -3.7400    6.9947 C   0  0  0  0  0  0  0  0  0  0  0  0
   -0.7081   -2.4138    6.0793 C   0  0  0  0  0  0  0  0  0  0  0  0
   -0.5496   -1.1800    6.6727 C   0  0  0  0  0  0  0  0  0  0  0  0
    0.0805   -0.9852    7.9791 C   0  0  0  0  0  0  0  0  0  0  0  0
    0.9473    0.0817    8.1970 C   0  0  0  0  0  0  0  0  0  0  0  0
    1.5741    0.2185    9.4211 C   0  0  0  0  0  0  0  0  0  0  0  0
    1.3512   -0.7028   10.4296 C   0  0  0  0  0  0  0  0  0  0  0  0
    0.4736   -1.7620   10.2360 C   0  0  0  0  0  0  0  0  0  0  0  0
    0.2556   -2.7997   11.2994 C   0  0  0  0  0  0  0  0  0  0  0  0
    1.0370   -4.0725   10.9655 C   0  0  0  0  0  0  0  0  0  0  0  0
   -0.1650   -1.8847    9.0124 C   0  0  0  0  0  0  0  0  0  0  0  0
   -1.0912   -0.1520    5.8683 C   0  0  0  0  0  0  0  0  0  0  0  0
   -1.1606    1.5855    6.0423 S   0  0  0  0  0  0  0  0  0  0  0  0
   -1.9042    1.6918    4.4819 C   0  0  0  0  0  0  0  0  0  0  0  0
   -2.2483    2.6721    3.5354 C   0  0  0  0  0  0  0  0  0  0  0  0
   -2.0480    4.0707    3.5184 C   0  0  0  0  0  0  0  0  0  0  0  0
   -2.2170    4.7847    2.2816 C   0  0  0  0  0  0  0  0  0  0  0  0
   -1.9034    6.0657    2.3918 N   0  0  0  0  0  0  0  0  0  0  0  0
   -1.4467    6.3541    3.9183 S   0  0  0  0  0  0  0  0  0  0  0  0
   -1.6228    4.8528    4.4977 N   0  0  0  0  0  0  0  0  0  0  0  0
   -2.7013    4.0918    1.1502 C   0  0  0  0  0  0  0  0  0  0  0  0
   -2.9583    4.4966   -0.1723 C   0  0  0  0  0  0  0  0  0  0  0  0
   -2.7481    5.8854   -1.1855 S   0  0  0  0  0  0  0  0  0  0  0  0
   -3.3734    4.9666   -2.5344 C   0  0  0  0  0  0  0  0  0  0  0  0
   -3.5462    5.2712   -3.8956 C   0  0  0  0  0  0  0  0  0  0  0  0
   -3.2940    6.5946   -4.4719 C   0  0  0  0  0  0  0  0  0  0  0  0
   -4.3030    7.2565   -5.1651 C   0  0  0  0  0  0  0  0  0  0  0  0
   -4.0722    8.5202   -5.6719 C   0  0  0  0  0  0  0  0  0  0  0  0
   -2.8412    9.1259   -5.4966 C   0  0  0  0  0  0  0  0  0  0  0  0
   -1.8243    8.4791   -4.8055 C   0  0  0  0  0  0  0  0  0  0  0  0
   -0.4755    9.1236   -4.6626 C   0  0  0  0  0  0  0  0  0  0  0  0
    0.2913    9.0421   -5.9836 C   0  0  0  0  0  0  0  0  0  0  0  0
   -2.0642    7.2150   -4.2903 C   0  0  0  0  0  0  0  0  0  0  0  0
   -4.0298    4.1815   -4.6002 C   0  0  0  0  0  0  0  0  0  0  0  0
   -4.3293    2.7897   -3.5581 S   0  0  0  0  0  0  0  0  0  0  0  0
   -3.7476    3.6648   -2.1887 C   0  0  0  0  0  0  0  0  0  0  0  0
   -3.5070    3.3968   -0.8381 C   0  0  0  0  0  0  0  0  0  0  0  0
   -3.6015    2.3249    0.0151 N   0  0  0  0  0  0  0  0  0  0  0  0
   -3.0661    2.7210    1.2299 C   0  0  0  0  0  0  0  0  0  0  0  0
   -2.7115    1.9800    2.3835 C   0  0  0  0  0  0  0  0  0  0  0  0
   -2.6249    0.6208    2.6194 N   0  0  0  0  0  0  0  0  0  0  0  0
   -2.1254    0.4494    3.8828 C   0  0  0  0  0  0  0  0  0  0  0  0
   -1.6602   -0.6068    4.6789 C   0  0  0  0  0  0  0  0  0  0  0  0
   -1.5615   -2.3277    4.5523 S   0  0  0  0  0  0  0  0  0  0  0  0
   -2.6366   -0.4858    1.6894 C   0  0  0  0  0  0  0  0  0  0  0  0
   -3.8013   -1.4409    1.9492 C   0  0  0  0  0  0  0  0  0  0  0  0
   -4.6171    1.3191   -0.2134 C   0  0  0  0  0  0  0  0  0  0  0  0
   -6.0083    1.9454   -0.3131 C   0  0  0  0  0  0  0  0  0  0  0  0
   -4.1569    4.0114   -6.0023 C   0  0  0  0  0  0  0  0  0  0  0  0
   -4.7927    2.9522   -6.6348 C   0  0  0  0  0  0  0  0  0  0  0  0
   -4.6587    2.9791   -8.0138 C   0  0  0  0  0  0  0  0  0  0  0  0
   -5.2238    1.9724   -8.9301 C   0  0  0  0  0  0  0  0  0  0  0  0
   -6.4192    2.2331   -9.6028 C   0  0  0  0  0  0  0  0  0  0  0  0
   -6.9179    1.2816  -10.4754 C   0  0  0  0  0  0  0  0  0  0  0  0
   -6.2527    0.0837  -10.6986 C   0  0  0  0  0  0  0  0  0  0  0  0
   -6.8026   -0.9085  -11.6753 C   0  0  0  0  0  0  0  0  0  0  0  0
   -5.0703   -0.1578  -10.0166 C   0  0  0  0  0  0  0  0  0  0  0  0
   -4.5436    0.7715   -9.1332 C   0  0  0  0  0  0  0  0  0  0  0  0
   -3.2537    0.5068   -8.4146 C   0  0  0  0  0  0  0  0  0  0  0  0
   -7.1398    3.5299   -9.3835 C   0  0  0  0  0  0  0  0  0  0  0  0
   -3.8866    4.0618   -8.4654 C   0  0  0  0  0  0  0  0  0  0  0  0
   -3.3610    5.0604   -7.1306 S   0  0  0  0  0  0  0  0  0  0  0  0
   -3.5838    4.2411   -9.8207 C   0  0  0  0  0  0  0  0  0  0  0  0
   -2.7925    5.1746  -10.4366 C   0  0  0  0  0  0  0  0  0  0  0  0
   -2.0196    6.2454   -9.7772 C   0  0  0  0  0  0  0  0  0  0  0  0
   -2.0119    6.5382   -8.5941 O   0  0  0  0  0  0  0  0  0  0  0  0
   -1.2539    6.8869  -10.8504 C   0  0  0  0  0  0  0  0  0  0  0  0
   -1.5626    6.2810  -12.0509 C   0  0  0  0  0  0  0  0  0  0  0  0
   -0.7252    6.9505  -13.3987 S   0  0  0  0  0  0  0  0  0  0  0  0
    0.0823    8.0835  -12.3282 C   0  0  0  0  0  0  0  0  0  0  0  0
    1.0091    9.0432  -12.7028 C   0  0  0  0  0  0  0  0  0  0  0  0
    1.5515    9.8487  -11.7212 C   0  0  0  0  0  0  0  0  0  0  0  0
    1.1798    9.7054  -10.3829 C   0  0  0  0  0  0  0  0  0  0  0  0
    0.2588    8.7568  -10.0023 C   0  0  0  0  0  0  0  0  0  0  0  0
   -0.3043    7.9308  -10.9767 C   0  0  0  0  0  0  0  0  0  0  0  0
   -2.5223    5.2204  -11.8620 C   0  0  0  0  0  0  0  0  0  0  0  0
   -3.0419    4.4502  -12.8733 C   0  0  0  0  0  0  0  0  0  0  0  0
   -3.9980    3.4265  -12.7329 C   0  0  0  0  0  0  0  0  0  0  0  0
   -4.7812    2.5858  -12.7088 N   0  0  0  0  0  0  0  0  0  0  0  0
   -2.6394    4.6454  -14.2109 C   0  0  0  0  0  0  0  0  0  0  0  0
   -2.3205    4.7869  -15.3044 N   0  0  0  0  0  0  0  0  0  0  0  0
    4.7859  -10.7502    9.1119 H   0  0  0  0  0  0  0  0  0  0  0  0
   10.0851  -10.9987    9.2682 H   0  0  0  0  0  0  0  0  0  0  0  0
    9.0289   -7.2433    6.0339 H   0  0  0  0  0  0  0  0  0  0  0  0
   12.3840   -7.9953    5.9715 H   0  0  0  0  0  0  0  0  0  0  0  0
   12.5644   -5.7847    7.1016 H   0  0  0  0  0  0  0  0  0  0  0  0
   10.7652   -5.7712    8.9994 H   0  0  0  0  0  0  0  0  0  0  0  0
   11.3444   -7.7202   10.7082 H   0  0  0  0  0  0  0  0  0  0  0  0
   13.5038   -8.9320    9.8664 H   0  0  0  0  0  0  0  0  0  0  0  0
   14.1784   -6.4967    9.0772 H   0  0  0  0  0  0  0  0  0  0  0  0
   14.4419   -7.6134    7.7147 H   0  0  0  0  0  0  0  0  0  0  0  0
   12.9612   -9.8867    7.6309 H   0  0  0  0  0  0  0  0  0  0  0  0
    5.0824   -7.2025    8.4372 H   0  0  0  0  0  0  0  0  0  0  0  0
    0.5662   -9.0366    7.4463 H   0  0  0  0  0  0  0  0  0  0  0  0
    2.4230  -10.5434    8.0346 H   0  0  0  0  0  0  0  0  0  0  0  0
   -0.9400   -7.0002    6.5889 H   0  0  0  0  0  0  0  0  0  0  0  0
   -1.8825   -4.8177    5.9437 H   0  0  0  0  0  0  0  0  0  0  0  0
    1.7507   -2.8442    7.0843 H   0  0  0  0  0  0  0  0  0  0  0  0
    1.1437    0.7864    7.4033 H   0  0  0  0  0  0  0  0  0  0  0  0
    2.2512    1.0435    9.5855 H   0  0  0  0  0  0  0  0  0  0  0  0
    1.8597   -0.5972   11.3769 H   0  0  0  0  0  0  0  0  0  0  0  0
    0.5838   -2.4158   12.2668 H   0  0  0  0  0  0  0  0  0  0  0  0
   -0.8078   -3.0403   11.3699 H   0  0  0  0  0  0  0  0  0  0  0  0
    0.6902   -4.4966   10.0252 H   0  0  0  0  0  0  0  0  0  0  0  0
    2.0972   -3.8509   10.8653 H   0  0  0  0  0  0  0  0  0  0  0  0
    0.9088   -4.8156   11.7494 H   0  0  0  0  0  0  0  0  0  0  0  0
   -0.8668   -2.6922    8.8579 H   0  0  0  0  0  0  0  0  0  0  0  0
   -5.2650    6.7814   -5.2928 H   0  0  0  0  0  0  0  0  0  0  0  0
   -4.8570    9.0362   -6.2051 H   0  0  0  0  0  0  0  0  0  0  0  0
   -2.6680   10.1145   -5.8970 H   0  0  0  0  0  0  0  0  0  0  0  0
   -0.5942   10.1722   -4.3794 H   0  0  0  0  0  0  0  0  0  0  0  0
    0.0937    8.6213   -3.8786 H   0  0  0  0  0  0  0  0  0  0  0  0
   -0.2401    9.5894   -6.7589 H   0  0  0  0  0  0  0  0  0  0  0  0
    0.3853    8.0051   -6.2991 H   0  0  0  0  0  0  0  0  0  0  0  0
    1.2864    9.4683   -5.8762 H   0  0  0  0  0  0  0  0  0  0  0  0
   -1.2838    6.6963   -3.7519 H   0  0  0  0  0  0  0  0  0  0  0  0
   -2.6504   -0.0969    0.6714 H   0  0  0  0  0  0  0  0  0  0  0  0
   -1.6998   -1.0400    1.8201 H   0  0  0  0  0  0  0  0  0  0  0  0
   -4.7558   -0.9192    1.9594 H   0  0  0  0  0  0  0  0  0  0  0  0
   -3.6761   -1.9274    2.9126 H   0  0  0  0  0  0  0  0  0  0  0  0
   -3.8276   -2.2057    1.1784 H   0  0  0  0  0  0  0  0  0  0  0  0
   -4.3835    0.7883   -1.1423 H   0  0  0  0  0  0  0  0  0  0  0  0
   -4.6161    0.6213    0.6172 H   0  0  0  0  0  0  0  0  0  0  0  0
   -6.7518    1.1610   -0.4255 H   0  0  0  0  0  0  0  0  0  0  0  0
   -6.0779    2.6101   -1.1693 H   0  0  0  0  0  0  0  0  0  0  0  0
   -6.2304    2.5130    0.5882 H   0  0  0  0  0  0  0  0  0  0  0  0
   -5.3392    2.1931   -6.1008 H   0  0  0  0  0  0  0  0  0  0  0  0
   -7.8387    1.4806  -11.0041 H   0  0  0  0  0  0  0  0  0  0  0  0
   -7.8529   -1.1083  -11.4689 H   0  0  0  0  0  0  0  0  0  0  0  0
   -6.2524   -1.8452  -11.6358 H   0  0  0  0  0  0  0  0  0  0  0  0
   -6.7308   -0.5064  -12.6848 H   0  0  0  0  0  0  0  0  0  0  0  0
   -4.5404   -1.0855  -10.1811 H   0  0  0  0  0  0  0  0  0  0  0  0
   -2.8406   -0.4549   -8.7079 H   0  0  0  0  0  0  0  0  0  0  0  0
   -3.4081    0.5051   -7.3360 H   0  0  0  0  0  0  0  0  0  0  0  0
   -2.5233    1.2834   -8.6419 H   0  0  0  0  0  0  0  0  0  0  0  0
   -7.2591    3.7303   -8.3194 H   0  0  0  0  0  0  0  0  0  0  0  0
   -6.5747    4.3562   -9.8156 H   0  0  0  0  0  0  0  0  0  0  0  0
   -8.1210    3.5064   -9.8501 H   0  0  0  0  0  0  0  0  0  0  0  0
   -4.0375    3.4895  -10.4583 H   0  0  0  0  0  0  0  0  0  0  0  0
    1.2966    9.1517  -13.7369 H   0  0  0  0  0  0  0  0  0  0  0  0
    2.2765   10.6007  -11.9932 H   0  0  0  0  0  0  0  0  0  0  0  0
    1.6253   10.3488   -9.6393 H   0  0  0  0  0  0  0  0  0  0  0  0
   -0.0382    8.6285   -8.9735 H   0  0  0  0  0  0  0  0  0  0  0  0
  1  2  2  0  0  0  0
  2  3  1  0  0  0  0
  3  4  2  0  0  0  0
  3  5  1  0  0  0  0
  5  6  2  0  0  0  0
  6  7  1  0  0  0  0
  7  8  2  0  0  0  0
  8  9  1  0  0  0  0
  9 10  2  0  0  0  0
 10 11  1  0  0  0  0
 11 12  2  0  0  0  0
 12 13  1  0  0  0  0
 13 14  3  0  0  0  0
 12 15  1  0  0  0  0
 15 16  3  0  0  0  0
  8 17  1  0  0  0  0
 17 18  1  0  0  0  0
 18 19  1  0  0  0  0
 19 20  2  0  0  0  0
 20 21  1  0  0  0  0
 21 22  1  0  0  0  0
 21 23  1  0  0  0  0
  1 24  1  0  0  0  0
 24 25  2  0  0  0  0
 25 26  1  0  0  0  0
 26 27  1  0  0  0  0
 27 28  2  0  0  0  0
 27 29  1  0  0  0  0
 29 30  2  0  0  0  0
 30 31  1  0  0  0  0
 31 32  1  0  0  0  0
 32 33  2  0  0  0  0
 30 34  1  0  0  0  0
 34 35  2  0  0  0  0
 35 36  1  0  0  0  0
 36 37  2  0  0  0  0
 36 38  1  0  0  0  0
 38 39  2  0  0  0  0
 39 40  1  0  0  0  0
 40 41  2  0  0  0  0
 41 42  1  0  0  0  0
 42 43  2  0  0  0  0
 43 44  1  0  0  0  0
 44 45  1  0  0  0  0
 45 46  1  0  0  0  0
 44 47  2  0  0  0  0
 39 48  1  0  0  0  0
 48 49  1  0  0  0  0
 49 50  1  0  0  0  0
 50 51  1  0  0  0  0
 51 52  1  0  0  0  0
 52 53  1  0  0  0  0
 53 54  2  0  0  0  0
 54 55  1  0  0  0  0
 55 56  1  0  0  0  0
 53 57  1  0  0  0  0
 57 58  1  0  0  0  0
 58 59  1  0  0  0  0
 59 60  1  0  0  0  0
 60 61  1  0  0  0  0
 61 62  1  0  0  0  0
 62 63  2  0  0  0  0
 63 64  1  0  0  0  0
 64 65  2  0  0  0  0
 65 66  1  0  0  0  0
 66 67  1  0  0  0  0
 67 68  1  0  0  0  0
 66 69  2  0  0  0  0
 61 70  2  0  0  0  0
 70 71  1  0  0  0  0
 71 72  1  0  0  0  0
 72 73  1  0  0  0  0
 73 74  1  0  0  0  0
 74 75  1  0  0  0  0
 75 76  1  0  0  0  0
 76 77  1  0  0  0  0
 77 78  1  0  0  0  0
 78 79  1  0  0  0  0
 79 80  1  0  0  0  0
 77 81  1  0  0  0  0
 81 82  1  0  0  0  0
 74 83  1  0  0  0  0
 83 84  1  0  0  0  0
 70 85  1  0  0  0  0
 85 86  2  0  0  0  0
 86 87  1  0  0  0  0
 87 88  1  0  0  0  0
 88 89  2  0  0  0  0
 89 90  1  0  0  0  0
 90 91  2  0  0  0  0
 91 92  1  0  0  0  0
 91 93  1  0  0  0  0
 93 94  2  0  0  0  0
 94 95  1  0  0  0  0
 89 96  1  0  0  0  0
 87 97  2  0  0  0  0
 97 98  1  0  0  0  0
 97 99  1  0  0  0  0
 99100  2  0  0  0  0
100101  1  0  0  0  0
101102  2  0  0  0  0
101103  1  0  0  0  0
103104  2  0  0  0  0
104105  1  0  0  0  0
105106  1  0  0  0  0
106107  2  0  0  0  0
107108  1  0  0  0  0
108109  2  0  0  0  0
109110  1  0  0  0  0
110111  2  0  0  0  0
104112  1  0  0  0  0
112113  2  0  0  0  0
113114  1  0  0  0  0
114115  3  0  0  0  0
113116  1  0  0  0  0
116117  3  0  0  0  0
 11  2  1  0  0  0  0
 23 17  1  0  0  0  0
 33 24  1  0  0  0  0
 80 38  1  0  0  0  0
 98 85  1  0  0  0  0
112100  1  0  0  0  0
 10  5  1  0  0  0  0
 22 18  1  0  0  0  0
 31 26  2  0  0  0  0
 47 40  1  0  0  0  0
 79 48  2  0  0  0  0
 94 88  1  0  0  0  0
111103  1  0  0  0  0
 23  7  1  0  0  0  0
 37 29  1  0  0  0  0
 78 50  2  0  0  0  0
111106  1  0  0  0  0
 76 51  2  0  0  0  0
 56 52  2  0  0  0  0
 75 57  2  0  0  0  0
 73 58  2  0  0  0  0
 72 60  2  0  0  0  0
 69 62  1  0  0  0  0
  1118  1  0  0  0  0
  6119  1  0  0  0  0
  9120  1  0  0  0  0
 17121  1  0  0  0  0
 18122  1  0  0  0  0
 19123  1  0  0  0  0
 20124  1  0  0  0  0
 21125  1  0  0  0  0
 22126  1  0  0  0  0
 22127  1  0  0  0  0
 23128  1  0  0  0  0
 25129  1  0  0  0  0
 32130  1  0  0  0  0
 33131  1  0  0  0  0
 34132  1  0  0  0  0
 35133  1  0  0  0  0
 37134  1  0  0  0  0
 41135  1  0  0  0  0
 42136  1  0  0  0  0
 43137  1  0  0  0  0
 45138  1  0  0  0  0
 45139  1  0  0  0  0
 46140  1  0  0  0  0
 46141  1  0  0  0  0
 46142  1  0  0  0  0
 47143  1  0  0  0  0
 63144  1  0  0  0  0
 64145  1  0  0  0  0
 65146  1  0  0  0  0
 67147  1  0  0  0  0
 67148  1  0  0  0  0
 68149  1  0  0  0  0
 68150  1  0  0  0  0
 68151  1  0  0  0  0
 69152  1  0  0  0  0
 81153  1  0  0  0  0
 81154  1  0  0  0  0
 82155  1  0  0  0  0
 82156  1  0  0  0  0
 82157  1  0  0  0  0
 83158  1  0  0  0  0
 83159  1  0  0  0  0
 84160  1  0  0  0  0
 84161  1  0  0  0  0
 84162  1  0  0  0  0
 86163  1  0  0  0  0
 90164  1  0  0  0  0
 92165  1  0  0  0  0
 92166  1  0  0  0  0
 92167  1  0  0  0  0
 93168  1  0  0  0  0
 95169  1  0  0  0  0
 95170  1  0  0  0  0
 95171  1  0  0  0  0
 96172  1  0  0  0  0
 96173  1  0  0  0  0
 96174  1  0  0  0  0
 99175  1  0  0  0  0
107176  1  0  0  0  0
108177  1  0  0  0  0
109178  1  0  0  0  0
110179  1  0  0  0  0
M  END
