
  xtb     02132208013D
 energy: -350.296443756974 gnorm: 0.000212287134 xtb: 6.4.1 (unknown)
220245  0     0  0            999 V2000
  -10.4510    2.6257   -2.2427 C   0  0  0  0  0  0  0  0  0  0  0  0
  -10.5763    3.6616   -1.3395 C   0  0  0  0  0  0  0  0  0  0  0  0
  -10.0581    3.6412    0.0156 C   0  0  0  0  0  0  0  0  0  0  0  0
   -9.5931    2.6737    0.6155 O   0  0  0  0  0  0  0  0  0  0  0  0
  -10.1818    5.0101    0.5396 C   0  0  0  0  0  0  0  0  0  0  0  0
   -9.7349    5.4922    1.7674 C   0  0  0  0  0  0  0  0  0  0  0  0
   -9.9513    6.8376    1.9510 C   0  0  0  0  0  0  0  0  0  0  0  0
  -10.5685    7.6426    0.9864 C   0  0  0  0  0  0  0  0  0  0  0  0
  -11.0198    7.1774   -0.2276 C   0  0  0  0  0  0  0  0  0  0  0  0
  -10.8085    5.8130   -0.4361 C   0  0  0  0  0  0  0  0  0  0  0  0
  -11.1114    4.9771   -1.6012 C   0  0  0  0  0  0  0  0  0  0  0  0
  -11.8001    5.3869   -2.7155 C   0  0  0  0  0  0  0  0  0  0  0  0
  -12.3172    6.6848   -2.9011 C   0  0  0  0  0  0  0  0  0  0  0  0
  -12.7661    7.7191   -3.1209 N   0  0  0  0  0  0  0  0  0  0  0  0
  -12.1165    4.5746   -3.8239 C   0  0  0  0  0  0  0  0  0  0  0  0
  -12.4200    3.9839   -4.7616 N   0  0  0  0  0  0  0  0  0  0  0  0
  -10.4423    8.8885    1.8279 C   0  0  0  0  0  0  0  0  0  0  0  0
  -11.7183    9.3713    2.5486 C   0  0  0  0  0  0  0  0  0  0  0  0
  -11.1953   10.2798    3.6379 C   0  0  0  0  0  0  0  0  0  0  0  0
  -10.6110    9.5173    4.5532 C   0  0  0  0  0  0  0  0  0  0  0  0
  -10.7293    8.0805    4.0980 C   0  0  0  0  0  0  0  0  0  0  0  0
  -12.0867    8.1396    3.3857 C   0  0  0  0  0  0  0  0  0  0  0  0
   -9.7544    7.9899    2.9053 C   0  0  0  0  0  0  0  0  0  0  0  0
   -9.8426    1.3831   -2.0934 C   0  0  0  0  0  0  0  0  0  0  0  0
   -9.0516    0.5938   -0.5624 Se  0  0  0  0  0  2  0  0  0  0  0  0
   -8.4816   -0.8512   -1.6473 C   0  0  0  0  0  0  0  0  0  0  0  0
   -8.9409   -0.6827   -2.9619 C   0  0  0  0  0  0  0  0  0  0  0  0
   -8.8432   -1.4512   -4.1575 C   0  0  0  0  0  0  0  0  0  0  0  0
   -9.4539   -0.8701   -5.2161 C   0  0  0  0  0  0  0  0  0  0  0  0
   -9.5230   -1.3596   -6.6203 C   0  0  0  0  0  0  0  0  0  0  0  0
   -8.5106   -0.6304   -7.5070 C   0  0  0  0  0  0  0  0  0  0  0  0
  -10.1850    0.6726   -4.8103 S   0  0  0  0  0  0  0  0  0  0  0  0
   -9.6717    0.5043   -3.1695 C   0  0  0  0  0  0  0  0  0  0  0  0
   -7.5227   -1.7989   -1.2299 C   0  0  0  0  0  0  0  0  0  0  0  0
   -7.0916   -2.0872    0.0648 C   0  0  0  0  0  0  0  0  0  0  0  0
   -7.7946   -1.5742    1.2778 C   0  0  0  0  0  0  0  0  0  0  0  0
   -7.5325   -2.3853    2.5398 C   0  0  0  0  0  0  0  0  0  0  0  0
   -5.9152   -2.8490    0.0474 C   0  0  0  0  0  0  0  0  0  0  0  0
   -4.7409   -3.3083    1.2608 S   0  0  0  0  0  0  0  0  0  0  0  0
   -3.6287   -3.7720    0.0130 C   0  0  0  0  0  0  0  0  0  0  0  0
   -2.2042   -3.9097   -0.0639 C   0  0  0  0  0  0  0  0  0  0  0  0
   -1.2373   -3.9327    0.9369 C   0  0  0  0  0  0  0  0  0  0  0  0
    0.0743   -3.7888    0.5476 C   0  0  0  0  0  0  0  0  0  0  0  0
    1.3081   -3.6867    1.4289 C   0  0  0  0  0  0  0  0  0  0  0  0
    1.0573   -2.6986    2.5487 C   0  0  0  0  0  0  0  0  0  0  0  0
    1.3067   -1.3442    2.3788 C   0  0  0  0  0  0  0  0  0  0  0  0
    1.0413   -0.4490    3.3986 C   0  0  0  0  0  0  0  0  0  0  0  0
    0.5130   -0.8800    4.6076 C   0  0  0  0  0  0  0  0  0  0  0  0
    0.1866    0.0983    5.6992 C   0  0  0  0  0  0  0  0  0  0  0  0
   -1.2565    0.5883    5.5642 C   0  0  0  0  0  0  0  0  0  0  0  0
    0.2475   -2.2340    4.7659 C   0  0  0  0  0  0  0  0  0  0  0  0
    0.5149   -3.1333    3.7516 C   0  0  0  0  0  0  0  0  0  0  0  0
    1.7825   -5.0274    1.9649 C   0  0  0  0  0  0  0  0  0  0  0  0
    2.8532   -5.0479    2.8513 C   0  0  0  0  0  0  0  0  0  0  0  0
    3.3497   -6.2466    3.3219 C   0  0  0  0  0  0  0  0  0  0  0  0
    2.7936   -7.4551    2.9206 C   0  0  0  0  0  0  0  0  0  0  0  0
    3.3051   -8.7552    3.4713 C   0  0  0  0  0  0  0  0  0  0  0  0
    2.5702   -9.1134    4.7647 C   0  0  0  0  0  0  0  0  0  0  0  0
    1.7255   -7.4279    2.0353 C   0  0  0  0  0  0  0  0  0  0  0  0
    1.2266   -6.2296    1.5551 C   0  0  0  0  0  0  0  0  0  0  0  0
    2.3315   -3.2297    0.4234 C   0  0  0  0  0  0  0  0  0  0  0  0
    1.7944   -3.2334   -0.8502 C   0  0  0  0  0  0  0  0  0  0  0  0
    0.4082   -3.5821   -0.8108 C   0  0  0  0  0  0  0  0  0  0  0  0
   -0.5506   -3.6374   -1.8193 C   0  0  0  0  0  0  0  0  0  0  0  0
   -1.8570   -3.8295   -1.4358 C   0  0  0  0  0  0  0  0  0  0  0  0
   -3.0980   -3.8627   -2.3101 C   0  0  0  0  0  0  0  0  0  0  0  0
   -3.2519   -5.2012   -3.0127 C   0  0  0  0  0  0  0  0  0  0  0  0
   -2.1566   -5.9734   -3.3726 C   0  0  0  0  0  0  0  0  0  0  0  0
   -2.3294   -7.1821   -4.0229 C   0  0  0  0  0  0  0  0  0  0  0  0
   -3.5962   -7.6543   -4.3352 C   0  0  0  0  0  0  0  0  0  0  0  0
   -3.7801   -8.9875   -5.0005 C   0  0  0  0  0  0  0  0  0  0  0  0
   -3.8992  -10.0953   -3.9519 C   0  0  0  0  0  0  0  0  0  0  0  0
   -4.6909   -6.8807   -3.9728 C   0  0  0  0  0  0  0  0  0  0  0  0
   -4.5232   -5.6737   -3.3219 C   0  0  0  0  0  0  0  0  0  0  0  0
   -3.2488   -2.6737   -3.2434 C   0  0  0  0  0  0  0  0  0  0  0  0
   -3.0289   -1.4005   -2.7268 C   0  0  0  0  0  0  0  0  0  0  0  0
   -3.4009   -0.2793   -3.4401 C   0  0  0  0  0  0  0  0  0  0  0  0
   -4.0047   -0.3967   -4.6865 C   0  0  0  0  0  0  0  0  0  0  0  0
   -4.5681    0.8098   -5.3790 C   0  0  0  0  0  0  0  0  0  0  0  0
   -5.9721    1.0977   -4.8394 C   0  0  0  0  0  0  0  0  0  0  0  0
   -4.1555   -1.6650   -5.2269 C   0  0  0  0  0  0  0  0  0  0  0  0
   -3.7833   -2.7931   -4.5170 C   0  0  0  0  0  0  0  0  0  0  0  0
   -4.1636   -3.6778   -1.2563 C   0  0  0  0  0  0  0  0  0  0  0  0
   -5.4522   -3.1548   -1.2411 C   0  0  0  0  0  0  0  0  0  0  0  0
   -6.5165   -2.5742   -2.4582 S   0  0  0  0  0  0  0  0  0  0  0  0
    2.8825   -2.6737   -2.0751 S   0  0  0  0  0  0  0  0  0  0  0  0
    4.0840   -2.3898   -0.8488 C   0  0  0  0  0  0  0  0  0  0  0  0
    5.3511   -1.7882   -0.8787 C   0  0  0  0  0  0  0  0  0  0  0  0
    5.9828   -1.2895   -2.1381 C   0  0  0  0  0  0  0  0  0  0  0  0
    5.3739    0.0428   -2.5804 C   0  0  0  0  0  0  0  0  0  0  0  0
    5.9027   -1.7531    0.3879 C   0  0  0  0  0  0  0  0  0  0  0  0
    4.8618   -2.4689    1.6104 S   0  0  0  0  0  0  0  0  0  0  0  0
    3.6488   -2.7693    0.4273 C   0  0  0  0  0  0  0  0  0  0  0  0
    7.0946   -1.0832    0.7983 C   0  0  0  0  0  0  0  0  0  0  0  0
    7.4137    0.5029    0.1813 S   0  0  0  0  0  0  0  0  0  0  0  0
    8.8085    0.6834    1.2123 C   0  0  0  0  0  0  0  0  0  0  0  0
    9.0235   -0.4838    1.9560 C   0  0  0  0  0  0  0  0  0  0  0  0
   10.1724   -0.6934    2.8548 C   0  0  0  0  0  0  0  0  0  0  0  0
   11.1569    0.0272    2.8643 O   0  0  0  0  0  0  0  0  0  0  0  0
   10.0315   -1.8696    3.7096 C   0  0  0  0  0  0  0  0  0  0  0  0
   10.8426   -2.1434    4.7825 C   0  0  0  0  0  0  0  0  0  0  0  0
   11.9937   -1.3623    5.3007 C   0  0  0  0  0  0  0  0  0  0  0  0
   13.2828   -1.7582    4.5738 C   0  0  0  0  0  0  0  0  0  0  0  0
   10.3879   -3.6381    5.5280 S   0  0  0  0  0  0  0  0  0  0  0  0
    9.1177   -3.9115    4.3828 C   0  0  0  0  0  0  0  0  0  0  0  0
    8.2549   -5.1168    4.4926 C   0  0  0  0  0  0  0  0  0  0  0  0
    6.9278   -4.7797    5.1789 C   0  0  0  0  0  0  0  0  0  0  0  0
    9.0341   -2.8739    3.4895 C   0  0  0  0  0  0  0  0  0  0  0  0
    8.0566   -2.7851    2.4047 C   0  0  0  0  0  0  0  0  0  0  0  0
    7.3177   -3.7003    2.0819 O   0  0  0  0  0  0  0  0  0  0  0  0
    8.0424   -1.4724    1.7418 C   0  0  0  0  0  0  0  0  0  0  0  0
    9.5350    1.8745    1.4014 C   0  0  0  0  0  0  0  0  0  0  0  0
    9.3907    3.0926    0.7999 C   0  0  0  0  0  0  0  0  0  0  0  0
    8.5439    3.4050   -0.3604 C   0  0  0  0  0  0  0  0  0  0  0  0
    7.7549    2.6654   -0.9236 O   0  0  0  0  0  0  0  0  0  0  0  0
    8.8441    4.7968   -0.7274 C   0  0  0  0  0  0  0  0  0  0  0  0
    8.2817    5.5247   -1.7748 C   0  0  0  0  0  0  0  0  0  0  0  0
    8.7421    6.8153   -1.8679 C   0  0  0  0  0  0  0  0  0  0  0  0
    9.6950    7.3443   -0.9862 C   0  0  0  0  0  0  0  0  0  0  0  0
   10.2560    6.6384    0.0516 C   0  0  0  0  0  0  0  0  0  0  0  0
    9.7985    5.3219    0.1685 C   0  0  0  0  0  0  0  0  0  0  0  0
   10.1157    4.2987    1.1625 C   0  0  0  0  0  0  0  0  0  0  0  0
   10.8747    4.4848    2.2869 C   0  0  0  0  0  0  0  0  0  0  0  0
   11.5728    5.6744    2.5851 C   0  0  0  0  0  0  0  0  0  0  0  0
   12.1741    6.6058    2.8834 N   0  0  0  0  0  0  0  0  0  0  0  0
   11.0208    3.5640    3.3494 C   0  0  0  0  0  0  0  0  0  0  0  0
   11.1515    2.9207    4.2915 N   0  0  0  0  0  0  0  0  0  0  0  0
    9.6892    8.6926   -1.6627 C   0  0  0  0  0  0  0  0  0  0  0  0
   10.8796    9.0062   -2.5933 C   0  0  0  0  0  0  0  0  0  0  0  0
   10.3734   10.1379   -3.4584 C   0  0  0  0  0  0  0  0  0  0  0  0
    9.4723    9.6362   -4.2932 C   0  0  0  0  0  0  0  0  0  0  0  0
    9.3537    8.1567   -4.0061 C   0  0  0  0  0  0  0  0  0  0  0  0
   10.8006    7.8499   -3.5986 C   0  0  0  0  0  0  0  0  0  0  0  0
    8.6272    8.1026   -2.6454 C   0  0  0  0  0  0  0  0  0  0  0  0
  -10.8175    2.8038   -3.2487 H   0  0  0  0  0  0  0  0  0  0  0  0
   -9.2547    4.8387    2.4788 H   0  0  0  0  0  0  0  0  0  0  0  0
  -11.4831    7.8136   -0.9630 H   0  0  0  0  0  0  0  0  0  0  0  0
   -9.8696    9.7019    1.3860 H   0  0  0  0  0  0  0  0  0  0  0  0
  -12.4833    9.7805    1.8945 H   0  0  0  0  0  0  0  0  0  0  0  0
  -11.2522   11.3520    3.6037 H   0  0  0  0  0  0  0  0  0  0  0  0
  -10.0823    9.8255    5.4362 H   0  0  0  0  0  0  0  0  0  0  0  0
  -10.5941    7.3143    4.8568 H   0  0  0  0  0  0  0  0  0  0  0  0
  -12.3161    7.2549    2.7948 H   0  0  0  0  0  0  0  0  0  0  0  0
  -12.9051    8.3402    4.0751 H   0  0  0  0  0  0  0  0  0  0  0  0
   -8.7235    8.2057    3.1809 H   0  0  0  0  0  0  0  0  0  0  0  0
   -8.3596   -2.4087   -4.2207 H   0  0  0  0  0  0  0  0  0  0  0  0
   -9.3170   -2.4320   -6.6323 H   0  0  0  0  0  0  0  0  0  0  0  0
  -10.5281   -1.1951   -7.0151 H   0  0  0  0  0  0  0  0  0  0  0  0
   -8.7017    0.4402   -7.4955 H   0  0  0  0  0  0  0  0  0  0  0  0
   -7.4987   -0.8062   -7.1488 H   0  0  0  0  0  0  0  0  0  0  0  0
   -8.5844   -0.9858   -8.5315 H   0  0  0  0  0  0  0  0  0  0  0  0
   -8.8729   -1.5581    1.0741 H   0  0  0  0  0  0  0  0  0  0  0  0
   -7.4926   -0.5297    1.4438 H   0  0  0  0  0  0  0  0  0  0  0  0
   -8.1707   -2.0258    3.3428 H   0  0  0  0  0  0  0  0  0  0  0  0
   -7.7491   -3.4377    2.3705 H   0  0  0  0  0  0  0  0  0  0  0  0
   -6.4983   -2.2910    2.8601 H   0  0  0  0  0  0  0  0  0  0  0  0
   -1.5159   -4.0114    1.9767 H   0  0  0  0  0  0  0  0  0  0  0  0
    1.7134   -0.9833    1.4453 H   0  0  0  0  0  0  0  0  0  0  0  0
    1.2510    0.6012    3.2522 H   0  0  0  0  0  0  0  0  0  0  0  0
    0.8638    0.9530    5.6452 H   0  0  0  0  0  0  0  0  0  0  0  0
    0.3147   -0.3781    6.6734 H   0  0  0  0  0  0  0  0  0  0  0  0
   -1.4014    1.0771    4.6033 H   0  0  0  0  0  0  0  0  0  0  0  0
   -1.9478   -0.2490    5.6285 H   0  0  0  0  0  0  0  0  0  0  0  0
   -1.4938    1.2968    6.3544 H   0  0  0  0  0  0  0  0  0  0  0  0
   -0.1695   -2.5902    5.6973 H   0  0  0  0  0  0  0  0  0  0  0  0
    0.3118   -4.1845    3.8986 H   0  0  0  0  0  0  0  0  0  0  0  0
    3.2971   -4.1173    3.1741 H   0  0  0  0  0  0  0  0  0  0  0  0
    4.1861   -6.2429    4.0053 H   0  0  0  0  0  0  0  0  0  0  0  0
    3.1556   -9.5522    2.7402 H   0  0  0  0  0  0  0  0  0  0  0  0
    4.3747   -8.6745    3.6752 H   0  0  0  0  0  0  0  0  0  0  0  0
    1.5031   -9.2116    4.5780 H   0  0  0  0  0  0  0  0  0  0  0  0
    2.7161   -8.3351    5.5105 H   0  0  0  0  0  0  0  0  0  0  0  0
    2.9406  -10.0538    5.1662 H   0  0  0  0  0  0  0  0  0  0  0  0
    1.2787   -8.3566    1.7092 H   0  0  0  0  0  0  0  0  0  0  0  0
    0.3999   -6.2358    0.8597 H   0  0  0  0  0  0  0  0  0  0  0  0
   -0.2775   -3.4709   -2.8509 H   0  0  0  0  0  0  0  0  0  0  0  0
   -1.1567   -5.6396   -3.1446 H   0  0  0  0  0  0  0  0  0  0  0  0
   -1.4612   -7.7659   -4.2940 H   0  0  0  0  0  0  0  0  0  0  0  0
   -2.9282   -9.1975   -5.6504 H   0  0  0  0  0  0  0  0  0  0  0  0
   -4.6834   -8.9742   -5.6139 H   0  0  0  0  0  0  0  0  0  0  0  0
   -4.0298  -11.0622   -4.4323 H   0  0  0  0  0  0  0  0  0  0  0  0
   -3.0030  -10.1308   -3.3364 H   0  0  0  0  0  0  0  0  0  0  0  0
   -4.7522   -9.9113   -3.3026 H   0  0  0  0  0  0  0  0  0  0  0  0
   -5.6887   -7.2250   -4.2055 H   0  0  0  0  0  0  0  0  0  0  0  0
   -5.3932   -5.0892   -3.0629 H   0  0  0  0  0  0  0  0  0  0  0  0
   -2.5937   -1.2929   -1.7425 H   0  0  0  0  0  0  0  0  0  0  0  0
   -3.2483    0.7010   -3.0111 H   0  0  0  0  0  0  0  0  0  0  0  0
   -3.9293    1.6781   -5.2058 H   0  0  0  0  0  0  0  0  0  0  0  0
   -4.6236    0.6335   -6.4550 H   0  0  0  0  0  0  0  0  0  0  0  0
   -6.6146    0.2306   -4.9785 H   0  0  0  0  0  0  0  0  0  0  0  0
   -6.4155    1.9472   -5.3537 H   0  0  0  0  0  0  0  0  0  0  0  0
   -5.9318    1.3186   -3.7745 H   0  0  0  0  0  0  0  0  0  0  0  0
   -4.5968   -1.7791   -6.2070 H   0  0  0  0  0  0  0  0  0  0  0  0
   -3.9390   -3.7693   -4.9508 H   0  0  0  0  0  0  0  0  0  0  0  0
    7.0583   -1.1719   -2.0000 H   0  0  0  0  0  0  0  0  0  0  0  0
    5.8137   -2.0338   -2.9210 H   0  0  0  0  0  0  0  0  0  0  0  0
    5.5923    0.8234   -1.8563 H   0  0  0  0  0  0  0  0  0  0  0  0
    4.2955   -0.0496   -2.6868 H   0  0  0  0  0  0  0  0  0  0  0  0
    5.7924    0.3381   -3.5389 H   0  0  0  0  0  0  0  0  0  0  0  0
   12.1064   -1.5410    6.3718 H   0  0  0  0  0  0  0  0  0  0  0  0
   11.8098   -0.2999    5.1275 H   0  0  0  0  0  0  0  0  0  0  0  0
   13.4798   -2.8220    4.6917 H   0  0  0  0  0  0  0  0  0  0  0  0
   13.1930   -1.5277    3.5158 H   0  0  0  0  0  0  0  0  0  0  0  0
   14.1202   -1.1982    4.9801 H   0  0  0  0  0  0  0  0  0  0  0  0
    8.7787   -5.8868    5.0623 H   0  0  0  0  0  0  0  0  0  0  0  0
    8.0437   -5.4910    3.4890 H   0  0  0  0  0  0  0  0  0  0  0  0
    6.3427   -5.6858    5.3110 H   0  0  0  0  0  0  0  0  0  0  0  0
    6.3589   -4.0843    4.5673 H   0  0  0  0  0  0  0  0  0  0  0  0
    7.1022   -4.3329    6.1555 H   0  0  0  0  0  0  0  0  0  0  0  0
   10.3041    1.7847    2.1603 H   0  0  0  0  0  0  0  0  0  0  0  0
    7.5456    5.0793   -2.4257 H   0  0  0  0  0  0  0  0  0  0  0  0
   10.9839    7.0622    0.7228 H   0  0  0  0  0  0  0  0  0  0  0  0
    9.4067    9.5350   -1.0344 H   0  0  0  0  0  0  0  0  0  0  0  0
   11.8259    9.1648   -2.0838 H   0  0  0  0  0  0  0  0  0  0  0  0
   10.6721   11.1629   -3.3404 H   0  0  0  0  0  0  0  0  0  0  0  0
    8.8680   10.1581   -5.0117 H   0  0  0  0  0  0  0  0  0  0  0  0
    8.9104    7.5411   -4.7842 H   0  0  0  0  0  0  0  0  0  0  0  0
   11.4965    7.9761   -4.4262 H   0  0  0  0  0  0  0  0  0  0  0  0
   10.9375    6.8657   -3.1545 H   0  0  0  0  0  0  0  0  0  0  0  0
    7.6366    8.5528   -2.6737 H   0  0  0  0  0  0  0  0  0  0  0  0
  1  2  2  0  0  0  0
  2  3  1  0  0  0  0
  3  4  2  0  0  0  0
  3  5  1  0  0  0  0
  5  6  2  0  0  0  0
  6  7  1  0  0  0  0
  7  8  2  0  0  0  0
  8  9  1  0  0  0  0
  9 10  2  0  0  0  0
 10 11  1  0  0  0  0
 11 12  2  0  0  0  0
 12 13  1  0  0  0  0
 13 14  3  0  0  0  0
 12 15  1  0  0  0  0
 15 16  3  0  0  0  0
  8 17  1  0  0  0  0
 17 18  1  0  0  0  0
 18 19  1  0  0  0  0
 19 20  2  0  0  0  0
 20 21  1  0  0  0  0
 21 22  1  0  0  0  0
 21 23  1  0  0  0  0
  1 24  1  0  0  0  0
 24 25  1  0  0  0  0
 25 26  1  0  0  0  0
 26 27  2  0  0  0  0
 27 28  1  0  0  0  0
 28 29  2  0  0  0  0
 29 30  1  0  0  0  0
 30 31  1  0  0  0  0
 29 32  1  0  0  0  0
 32 33  1  0  0  0  0
 26 34  1  0  0  0  0
 34 35  2  0  0  0  0
 35 36  1  0  0  0  0
 36 37  1  0  0  0  0
 35 38  1  0  0  0  0
 38 39  1  0  0  0  0
 39 40  1  0  0  0  0
 40 41  1  0  0  0  0
 41 42  2  0  0  0  0
 42 43  1  0  0  0  0
 43 44  1  0  0  0  0
 44 45  1  0  0  0  0
 45 46  2  0  0  0  0
 46 47  1  0  0  0  0
 47 48  2  0  0  0  0
 48 49  1  0  0  0  0
 49 50  1  0  0  0  0
 48 51  1  0  0  0  0
 51 52  2  0  0  0  0
 44 53  1  0  0  0  0
 53 54  2  0  0  0  0
 54 55  1  0  0  0  0
 55 56  2  0  0  0  0
 56 57  1  0  0  0  0
 57 58  1  0  0  0  0
 56 59  1  0  0  0  0
 59 60  2  0  0  0  0
 44 61  1  0  0  0  0
 61 62  2  0  0  0  0
 62 63  1  0  0  0  0
 63 64  1  0  0  0  0
 64 65  2  0  0  0  0
 65 66  1  0  0  0  0
 66 67  1  0  0  0  0
 67 68  2  0  0  0  0
 68 69  1  0  0  0  0
 69 70  2  0  0  0  0
 70 71  1  0  0  0  0
 71 72  1  0  0  0  0
 70 73  1  0  0  0  0
 73 74  2  0  0  0  0
 66 75  1  0  0  0  0
 75 76  2  0  0  0  0
 76 77  1  0  0  0  0
 77 78  2  0  0  0  0
 78 79  1  0  0  0  0
 79 80  1  0  0  0  0
 78 81  1  0  0  0  0
 81 82  2  0  0  0  0
 66 83  1  0  0  0  0
 83 84  1  0  0  0  0
 84 85  1  0  0  0  0
 62 86  1  0  0  0  0
 86 87  1  0  0  0  0
 87 88  1  0  0  0  0
 88 89  1  0  0  0  0
 89 90  1  0  0  0  0
 88 91  2  0  0  0  0
 91 92  1  0  0  0  0
 92 93  1  0  0  0  0
 91 94  1  0  0  0  0
 94 95  1  0  0  0  0
 95 96  1  0  0  0  0
 96 97  2  0  0  0  0
 97 98  1  0  0  0  0
 98 99  2  0  0  0  0
 98100  1  0  0  0  0
100101  2  0  0  0  0
101102  1  0  0  0  0
102103  1  0  0  0  0
101104  1  0  0  0  0
104105  1  0  0  0  0
105106  1  0  0  0  0
106107  1  0  0  0  0
105108  2  0  0  0  0
108109  1  0  0  0  0
109110  2  0  0  0  0
109111  1  0  0  0  0
 96112  1  0  0  0  0
112113  2  0  0  0  0
113114  1  0  0  0  0
114115  2  0  0  0  0
114116  1  0  0  0  0
116117  2  0  0  0  0
117118  1  0  0  0  0
118119  2  0  0  0  0
119120  1  0  0  0  0
120121  2  0  0  0  0
121122  1  0  0  0  0
122123  2  0  0  0  0
123124  1  0  0  0  0
124125  3  0  0  0  0
123126  1  0  0  0  0
126127  3  0  0  0  0
119128  1  0  0  0  0
128129  1  0  0  0  0
129130  1  0  0  0  0
130131  2  0  0  0  0
131132  1  0  0  0  0
132133  1  0  0  0  0
132134  1  0  0  0  0
 11  2  1  0  0  0  0
 23 17  1  0  0  0  0
 33 24  2  0  0  0  0
 85 34  1  0  0  0  0
 93 87  2  0  0  0  0
111 94  2  0  0  0  0
122113  1  0  0  0  0
134128  1  0  0  0  0
 10  5  1  0  0  0  0
 22 18  1  0  0  0  0
 33 27  1  0  0  0  0
 84 38  2  0  0  0  0
111 97  1  0  0  0  0
121116  1  0  0  0  0
133129  1  0  0  0  0
 23  7  1  0  0  0  0
 83 40  2  0  0  0  0
108100  1  0  0  0  0
134118  1  0  0  0  0
 65 41  1  0  0  0  0
 74 67  1  0  0  0  0
 82 75  1  0  0  0  0
 63 43  2  0  0  0  0
 52 45  1  0  0  0  0
 60 53  1  0  0  0  0
 93 61  1  0  0  0  0
  1135  1  0  0  0  0
  6136  1  0  0  0  0
  9137  1  0  0  0  0
 17138  1  0  0  0  0
 18139  1  0  0  0  0
 19140  1  0  0  0  0
 20141  1  0  0  0  0
 21142  1  0  0  0  0
 22143  1  0  0  0  0
 22144  1  0  0  0  0
 23145  1  0  0  0  0
 28146  1  0  0  0  0
 30147  1  0  0  0  0
 30148  1  0  0  0  0
 31149  1  0  0  0  0
 31150  1  0  0  0  0
 31151  1  0  0  0  0
 36152  1  0  0  0  0
 36153  1  0  0  0  0
 37154  1  0  0  0  0
 37155  1  0  0  0  0
 37156  1  0  0  0  0
 42157  1  0  0  0  0
 46158  1  0  0  0  0
 47159  1  0  0  0  0
 49160  1  0  0  0  0
 49161  1  0  0  0  0
 50162  1  0  0  0  0
 50163  1  0  0  0  0
 50164  1  0  0  0  0
 51165  1  0  0  0  0
 52166  1  0  0  0  0
 54167  1  0  0  0  0
 55168  1  0  0  0  0
 57169  1  0  0  0  0
 57170  1  0  0  0  0
 58171  1  0  0  0  0
 58172  1  0  0  0  0
 58173  1  0  0  0  0
 59174  1  0  0  0  0
 60175  1  0  0  0  0
 64176  1  0  0  0  0
 68177  1  0  0  0  0
 69178  1  0  0  0  0
 71179  1  0  0  0  0
 71180  1  0  0  0  0
 72181  1  0  0  0  0
 72182  1  0  0  0  0
 72183  1  0  0  0  0
 73184  1  0  0  0  0
 74185  1  0  0  0  0
 76186  1  0  0  0  0
 77187  1  0  0  0  0
 79188  1  0  0  0  0
 79189  1  0  0  0  0
 80190  1  0  0  0  0
 80191  1  0  0  0  0
 80192  1  0  0  0  0
 81193  1  0  0  0  0
 82194  1  0  0  0  0
 89195  1  0  0  0  0
 89196  1  0  0  0  0
 90197  1  0  0  0  0
 90198  1  0  0  0  0
 90199  1  0  0  0  0
102200  1  0  0  0  0
102201  1  0  0  0  0
103202  1  0  0  0  0
103203  1  0  0  0  0
103204  1  0  0  0  0
106205  1  0  0  0  0
106206  1  0  0  0  0
107207  1  0  0  0  0
107208  1  0  0  0  0
107209  1  0  0  0  0
112210  1  0  0  0  0
117211  1  0  0  0  0
120212  1  0  0  0  0
128213  1  0  0  0  0
129214  1  0  0  0  0
130215  1  0  0  0  0
131216  1  0  0  0  0
132217  1  0  0  0  0
133218  1  0  0  0  0
133219  1  0  0  0  0
134220  1  0  0  0  0
M  END
