151

C         -3.58130        4.52170       -7.84380
C         -2.96040        3.32510       -7.71100
C         -2.70570        2.64940       -6.40270
O         -2.88460        3.08770       -5.28850
C         -2.28400        1.27930       -6.74050
C         -1.98730        0.26100       -5.83540
C         -1.62580       -0.92470       -6.42600
C         -1.56970       -1.09120       -7.81760
C         -1.87040       -0.09990       -8.72070
C         -2.23670        1.12090       -8.14020
C         -2.62380        2.37970       -8.76730
C         -2.60240        2.64930      -10.10880
C         -2.92820        3.89580      -10.68610
N         -3.16800        4.87830      -11.22940
C         -2.22750        1.72320      -11.10550
N         -1.93640        1.02090      -11.96550
C         -1.14390       -2.53480       -7.70600
C          0.34930       -2.84150       -7.94900
C          0.54610       -4.19960       -7.31410
C          0.48960       -4.04350       -5.99730
C          0.25430       -2.57610       -5.72050
C          1.02550       -1.95730       -6.89330
C         -1.20900       -2.34880       -6.15590
C         -3.79100        5.44520       -6.74900
C         -2.76010        5.69800       -5.82970
C         -3.02850        6.48870       -4.74200
C         -2.13970        6.81790       -3.59890
O         -0.96010        6.59080       -3.48000
C         -3.04510        7.48120       -2.62430
C         -4.32250        7.64870       -3.19660
C         -4.31030        7.03710       -4.51960
C         -5.30000        6.86180       -5.47020
C         -5.02420        6.08140       -6.58470
C         -5.33020        8.21860       -2.43800
C         -5.08750        8.51610       -1.10430
C         -3.84750        8.26310       -0.50510
C         -2.79730        7.79260       -1.31380
C         -3.65550        8.30940        0.92370
C         -4.55440        8.55860        1.93470
C         -4.06040        8.20130        3.19790
S         -4.78030        8.05890        4.79190
C         -3.36750        7.20920        5.34440
C         -2.92680        6.43170        6.43430
C         -3.48390        6.15950        7.70420
C         -2.84280        5.20050        8.56520
N         -3.47000        5.06440        9.72210
S         -4.75310        6.05180        9.73320
N         -4.56350        6.68870        8.25720
C         -1.73790        4.46710        8.07480
C         -1.13500        3.27330        8.51550
C         -0.26200        2.87280        7.50240
N         -0.24470        3.79190        6.49330
C          0.39150        3.46410        5.23920
C         -0.62520        3.05280        4.17740
C         -1.16900        4.77040        6.80580
C         -1.69200        5.84310        6.04140
N         -1.34090        6.33420        4.79390
C         -2.37580        7.12000        4.36690
C         -2.76300        7.68790        3.15130
S         -2.13050        7.69570        1.55260
C         -0.03330        6.50300        4.19240
C          0.99620        6.98670        5.20870
C          0.24260        1.58500        7.70890
S          1.14060        0.45460        6.77320
C          0.85420       -0.80080        7.96560
C          0.14850       -0.33150        9.04410
C         -0.22330        1.01570        8.89470
S         -1.27720        2.09670        9.78790
C          1.26930       -2.13960        7.60930
C          1.30160       -2.46890        6.24430
C          1.66100       -3.73550        5.86830
C          1.71010       -4.30610        4.49950
O          1.40800       -3.77030        3.45990
C          2.19630       -5.69170        4.70830
C          2.38670       -5.93020        6.08620
C          2.03110       -4.71410        6.81300
C          1.99650       -4.39610        8.15920
C          1.60810       -3.11840        8.54630
C          2.83540       -7.17140        6.50030
C          3.10590       -8.14110        5.54270
C          2.95490       -7.89240        4.17610
C          2.45950       -6.64650        3.76160
C          3.23120       -8.91970        3.19260
C          3.74760       -8.68030        1.96640
C          4.35910       -7.39080        1.51850
O          4.77580       -6.49410        2.21550
C          4.45250       -7.48950        0.05200
C          4.81050       -6.47200       -0.83000
C          4.75990       -6.83650       -2.15320
C          4.39200       -8.12410       -2.57140
C          4.06120       -9.14360       -1.71140
C          4.09890       -8.79230       -0.35700
C          3.79390       -9.59060        0.82620
C          3.60480      -10.94430        0.85360
C          3.36710      -11.70150        2.02100
N          3.17770      -12.37830        2.92860
C          3.67160      -11.78000       -0.28230
N          3.71070      -12.51180       -1.16540
C          4.53890       -7.77590       -4.03180
C          3.24950       -7.50940       -4.84860
C          2.21090       -7.02500       -3.86790
C          2.56300       -5.80870       -3.47220
C          3.84660       -5.44920       -4.17830
C          3.63570       -6.17850       -5.51480
C          4.95230       -6.34440       -3.56520
H         -3.98810        4.81160       -8.80470
H         -2.05020        0.43250       -4.77230
H         -1.84000       -0.24860       -9.78710
H         -1.80750       -3.26030       -8.17260
H          0.67480       -2.73100       -8.97970
H          0.64360       -5.11270       -7.87230
H          0.53560       -4.79770       -5.23290
H          0.49230       -2.22350       -4.72080
H          0.84890       -0.89180       -7.02770
H          2.09620       -2.14320       -6.82570
H         -1.91860       -2.94860       -5.58900
H         -1.77430        5.28450       -5.97260
H         -6.27910        7.29880       -5.34370
H         -5.80070        5.90880       -7.31650
H         -6.31040        8.39240       -2.85620
H         -5.89130        8.91280       -0.50350
H         -1.81410        7.61990       -0.90100
H         -5.54610        8.93870        1.77400
H          1.01440        4.29200        4.90360
H          1.05930        2.62280        5.43910
H         -1.34690        3.84460        3.99350
H         -0.11490        2.81760        3.24750
H         -1.16600        2.16900        4.50750
H         -0.15030        7.26070        3.41320
H          0.29210        5.58850        3.69310
H          1.10780        6.28160        6.02890
H          1.95980        7.11560        4.72300
H          0.68710        7.94270        5.62560
H         -0.14240       -0.94570        9.87630
H          1.02620       -1.74480        5.49200
H          2.26810       -5.12390        8.90920
H          1.58530       -2.86710        9.59630
H          2.97890       -7.39170        7.54740
H          3.47070       -9.10860        5.85690
H          2.26080       -6.44090        2.72160
H          2.94490       -9.92710        3.46720
H          5.08380       -5.49460       -0.46460
H          3.78500      -10.12940       -2.04730
H          5.26740       -8.36150       -4.58890
H          2.95090       -8.32730       -5.49860
H          1.38310       -7.62100       -3.52960
H          2.09060       -5.18590       -2.73480
H          4.09110       -4.39110       -4.21870
H          4.53940       -6.24380       -6.11900
H          2.82780       -5.74860       -6.10490
H          5.95260       -5.99640       -3.81520
