187

C         -0.01890        2.70860      -10.11410
C         -0.75260        3.83070      -10.36300
C         -1.86840        4.35350       -9.55490
O         -2.51980        3.75800       -8.71690
C         -2.02620        5.76290       -9.95210
C         -2.88200        6.70370       -9.38310
C         -2.77850        7.95860       -9.93300
C         -1.89020        8.25880      -10.97520
C         -1.05200        7.33750      -11.55710
C         -1.14060        6.05420      -11.01150
C         -0.41450        4.83600      -11.35580
C          0.36940        4.64230      -12.46060
C          0.92450        3.40090      -12.84520
N          1.36310        2.42380      -13.25850
C          0.65960        5.64410      -13.41020
N          0.93360        6.41980      -14.21100
C         -2.29250        9.71130      -11.00660
C         -1.33660       10.73730      -10.34800
C         -0.57430        9.99320       -9.27980
C         -1.42150        9.71160       -8.29890
C         -2.77280       10.25920       -8.68710
C         -2.34260       11.50600       -9.47640
C         -3.28740        9.37620       -9.85100
C         -0.21440        1.70730       -9.14140
S         -1.67200        1.48380       -8.21480
C         -1.02950        0.06530       -7.43650
C          0.27330       -0.20740       -7.87340
C          1.07690       -1.34590       -7.44230
O          0.79760       -2.04400       -6.47400
C          2.24590       -1.60080       -8.28000
C          3.00790       -2.74110       -8.23610
C          2.86820       -3.92190       -7.34550
C          3.58040       -3.67890       -6.01140
S          4.29470       -2.66510       -9.39210
C          3.82580       -1.08530       -9.92460
C          4.61410       -0.37710      -10.96420
C          5.67760        0.51580      -10.31740
C          2.71530       -0.65370       -9.24470
C          2.05970        0.63460       -9.45750
O          2.57710        1.55090      -10.07640
C          0.72230        0.71270       -8.84640
C         -1.81070       -0.56160       -6.43080
C         -3.19520       -0.44420       -6.28610
C         -4.10580        0.05280       -7.31840
C         -5.08260        0.98940       -6.99870
C         -5.93820        1.45190       -7.98060
C         -5.83350        0.98120       -9.27640
C         -4.87430        0.03150       -9.61010
C         -4.79440       -0.51890      -11.00520
C         -5.73430       -1.71570      -11.16370
C         -4.02110       -0.43020       -8.62210
C         -3.62070       -0.91070       -5.03750
S         -5.19400       -1.02970       -4.27560
C         -4.42990       -1.64160       -2.84500
C         -4.76560       -2.02870       -1.53370
C         -5.98650       -2.25410       -0.85560
C         -5.96300       -2.75300        0.49860
N         -7.17760       -2.97980        0.97100
S         -8.25820       -2.59680       -0.17240
N         -7.21840       -2.12480       -1.31980
C         -4.72690       -2.84540        1.18080
C         -4.37800       -3.04630        2.53130
S         -5.12690       -3.42910        4.04590
C         -3.59860       -3.16550        4.85490
C         -3.19750       -3.21150        6.21020
C         -4.04030       -3.70860        7.29710
C         -5.39990       -3.41160        7.34070
C         -6.18560       -3.92790        8.35340
C         -5.63120       -4.74560        9.32220
C         -4.27680       -5.05710        9.29230
C         -3.67600       -5.97800       10.31530
C         -3.74210       -7.42800        9.83220
C         -3.49320       -4.53560        8.27450
C         -1.87400       -2.84100        6.34780
S         -1.09080       -2.52710        4.80420
C         -2.57330       -2.82140        3.97430
C         -3.01260       -2.77010        2.64690
N         -2.48140       -2.46110        1.42010
C         -3.52160       -2.51950        0.51060
C         -3.53430       -2.29820       -0.88180
N         -2.49440       -2.17920       -1.78000
C         -3.03990       -1.76360       -2.96860
C         -2.57480       -1.36210       -4.22390
S         -1.05840       -1.32810       -5.04030
C         -1.24110       -2.90500       -1.73890
C         -1.26540       -4.10900       -2.67960
C         -1.31350       -1.60800        1.33480
C         -1.59780       -0.22630        1.92330
C         -1.09490       -2.57610        7.52190
C         -1.42820       -1.83150        8.63520
C         -2.73560       -1.15250        8.89520
C         -3.37210       -1.61120       10.20600
C         -0.31110       -1.67920        9.47630
C          0.86640       -2.27870        9.01110
S          0.58940       -3.08920        7.51050
C          1.98840       -2.04700        9.79650
C          1.69430       -1.24960       10.88930
S         -0.02390       -0.82910       10.94330
C          2.48890       -0.71360       11.92220
C          3.84670       -0.64360       12.06730
C          4.90090       -1.01120       11.09380
O          4.80810       -1.67830       10.08320
C          6.13960       -0.38250       11.58930
C          7.37590       -0.36740       10.94640
C          8.35030        0.32120       11.62700
C          8.11510        0.94610       12.85940
C          6.90410        0.92910       13.50920
C          5.89640        0.23500       12.83110
C          4.50010        0.00890       13.19150
C          3.93840        0.30130       14.40680
C          2.62010       -0.01460       14.80010
N          1.57460       -0.25360       15.21140
C          4.62410        0.92360       15.47110
N          5.11560        1.42990       16.37710
C          9.52710        1.46880       12.95410
C          9.73120        2.96260       12.62340
C         11.20980        3.06950       12.32760
C         11.43180        2.47780       11.16090
C         10.10700        1.96050       10.64880
C          9.17080        3.04500       11.19760
C          9.78910        0.77150       11.58070
H          0.89260        2.57740      -10.68700
H         -3.54770        6.43210       -8.57880
H         -0.37220        7.58140      -12.35660
H         -2.70360       10.07330      -11.94670
H         -0.73960       11.31250      -11.05050
H          0.45740        9.70740       -9.36930
H         -1.23930        9.14330       -7.40560
H         -3.48450       10.40010       -7.87780
H         -3.15230       11.96010      -10.04610
H         -1.86740       12.25830       -8.84880
H         -4.35040        9.51370      -10.03870
H          1.80820       -4.09230       -7.14700
H          3.29120       -4.80160       -7.83440
H          3.11870       -2.84020       -5.49750
H          3.49710       -4.56080       -5.38230
H          4.63390       -3.46170       -6.17390
H          3.94220        0.25200      -11.55180
H          5.09470       -1.10550      -11.62030
H          6.33970       -0.07180       -9.68460
H          5.19640        1.28170       -9.71520
H          6.26840        1.00160      -11.08860
H         -5.15270        1.36680       -5.99010
H         -6.68880        2.18770       -7.73330
H         -6.50100        1.35260      -10.04070
H         -5.07280        0.25520      -11.72320
H         -3.77120       -0.83260      -11.22210
H         -5.46890       -2.50050      -10.45880
H         -6.76240       -1.41760      -10.97120
H         -5.67160       -2.11800      -12.17220
H         -3.27460       -1.17530       -8.86250
H         -5.83440       -2.76660        6.59230
H         -7.23850       -3.69110        8.38640
H         -6.25230       -5.14610       10.11020
H         -4.21830       -5.88700       11.25850
H         -2.63350       -5.70490       10.49270
H         -3.30970       -8.09560       10.57370
H         -4.77480       -7.72220        9.65890
H         -3.19340       -7.54140        8.89980
H         -2.44220       -4.78400        8.23160
H         -1.07940       -3.26420       -0.72270
H         -0.42860       -2.23110       -2.02990
H         -2.10980       -4.75350       -2.44460
H         -0.34710       -4.67740       -2.56140
H         -1.34000       -3.79190       -3.71550
H         -0.49960       -2.08880        1.88600
H         -1.02320       -1.48730        0.29420
H         -2.42590        0.24170        1.39510
H         -0.71730        0.40170        1.82140
H         -1.85180       -0.29690        2.97740
H         -2.54920       -0.07540        8.95310
H         -3.41840       -1.33640        8.06670
H         -4.32380       -1.10670       10.34980
H         -3.54960       -2.68300       10.18890
H         -2.72610       -1.37590       11.04840
H          2.97500       -2.41420        9.58560
H          1.90220       -0.22690       12.69350
H          7.51230       -0.86270        9.99780
H          6.73910        1.41530       14.45600
H         10.09730        1.14290       13.82180
H          9.32850        3.65100       13.36130
H         11.92660        3.50130       13.00110
H         12.37100        2.31630       10.66500
H         10.04620        1.73630        9.58710
H          8.11320        2.79920       11.12100
H          9.35280        4.01580       10.73950
H         10.53510       -0.01940       11.53150
