
  xtb     02132200443D
 energy: -286.528711932230 gnorm: 0.000815122675 xtb: 6.4.1 (unknown)
165186  0     0  0            999 V2000
   -0.0183    5.7070    8.4345 C   0  0  0  0  0  0  0  0  0  0  0  0
    0.6391    4.7337    9.1563 C   0  0  0  0  0  0  0  0  0  0  0  0
    0.9836    3.4174    8.6480 C   0  0  0  0  0  0  0  0  0  0  0  0
    0.7489    2.9727    7.5264 O   0  0  0  0  0  0  0  0  0  0  0  0
    1.6718    2.7060    9.7343 C   0  0  0  0  0  0  0  0  0  0  0  0
    2.1831    1.4113    9.7077 C   0  0  0  0  0  0  0  0  0  0  0  0
    2.7832    1.0238   10.8822 C   0  0  0  0  0  0  0  0  0  0  0  0
    2.8636    1.8613   12.0014 C   0  0  0  0  0  0  0  0  0  0  0  0
    2.3576    3.1402   12.0418 C   0  0  0  0  0  0  0  0  0  0  0  0
    1.7481    3.5568   10.8569 C   0  0  0  0  0  0  0  0  0  0  0  0
    1.1079    4.8313   10.5202 C   0  0  0  0  0  0  0  0  0  0  0  0
    0.9930    5.9070   11.3643 C   0  0  0  0  0  0  0  0  0  0  0  0
    0.3681    7.1330   11.0546 C   0  0  0  0  0  0  0  0  0  0  0  0
   -0.1196    8.1605   10.8915 N   0  0  0  0  0  0  0  0  0  0  0  0
    1.4887    5.9449   12.6838 C   0  0  0  0  0  0  0  0  0  0  0  0
    1.8672    6.0544   13.7625 N   0  0  0  0  0  0  0  0  0  0  0  0
    3.6061    0.8335   12.8176 C   0  0  0  0  0  0  0  0  0  0  0  0
    5.1331    1.0221   12.9956 C   0  0  0  0  0  0  0  0  0  0  0  0
    5.6118    1.8042   11.7978 C   0  0  0  0  0  0  0  0  0  0  0  0
    5.5361    1.0095   10.7387 C   0  0  0  0  0  0  0  0  0  0  0  0
    5.0040   -0.3243   11.2012 C   0  0  0  0  0  0  0  0  0  0  0  0
    5.6151   -0.3856   12.6102 C   0  0  0  0  0  0  0  0  0  0  0  0
    3.5163   -0.1010   11.5700 C   0  0  0  0  0  0  0  0  0  0  0  0
   -0.4781    5.6878    7.1189 C   0  0  0  0  0  0  0  0  0  0  0  0
   -0.3965    4.3060    5.8175 Se  0  0  0  0  0  2  0  0  0  0  0  0
   -1.2834    5.4597    4.6188 C   0  0  0  0  0  0  0  0  0  0  0  0
   -1.5252    6.7087    5.1913 C   0  0  0  0  0  0  0  0  0  0  0  0
   -2.0627    7.9426    4.7254 C   0  0  0  0  0  0  0  0  0  0  0  0
   -2.0867    8.9022    5.6774 C   0  0  0  0  0  0  0  0  0  0  0  0
   -2.6368   10.2810    5.5743 C   0  0  0  0  0  0  0  0  0  0  0  0
   -4.0735   10.3261    6.1001 C   0  0  0  0  0  0  0  0  0  0  0  0
   -1.4357    8.3520    7.2129 S   0  0  0  0  0  0  0  0  0  0  0  0
   -1.1041    6.7970    6.5371 C   0  0  0  0  0  0  0  0  0  0  0  0
   -1.6357    4.9981    3.3256 C   0  0  0  0  0  0  0  0  0  0  0  0
   -2.7069    5.3243    2.5059 C   0  0  0  0  0  0  0  0  0  0  0  0
   -3.8246    6.1885    2.8835 C   0  0  0  0  0  0  0  0  0  0  0  0
   -4.3535    7.0976    1.9709 C   0  0  0  0  0  0  0  0  0  0  0  0
   -5.4053    7.9134    2.3436 C   0  0  0  0  0  0  0  0  0  0  0  0
   -5.9401    7.8275    3.6170 C   0  0  0  0  0  0  0  0  0  0  0  0
   -5.4375    6.9120    4.5344 C   0  0  0  0  0  0  0  0  0  0  0  0
   -6.0462    6.7727    5.8999 C   0  0  0  0  0  0  0  0  0  0  0  0
   -7.1375    5.7007    5.8897 C   0  0  0  0  0  0  0  0  0  0  0  0
   -4.3868    6.0933    4.1535 C   0  0  0  0  0  0  0  0  0  0  0  0
   -2.6525    4.6106    1.2929 C   0  0  0  0  0  0  0  0  0  0  0  0
   -3.6998    4.5727   -0.1064 S   0  0  0  0  0  0  0  0  0  0  0  0
   -2.6917    3.3514   -0.8049 C   0  0  0  0  0  0  0  0  0  0  0  0
   -2.6116    2.5745   -1.9751 C   0  0  0  0  0  0  0  0  0  0  0  0
   -3.3237    2.5788   -3.1964 C   0  0  0  0  0  0  0  0  0  0  0  0
   -2.8954    1.7121   -4.2653 C   0  0  0  0  0  0  0  0  0  0  0  0
   -3.6101    1.8816   -5.3659 N   0  0  0  0  0  0  0  0  0  0  0  0
   -4.7266    3.0194   -5.0879 S   0  0  0  0  0  0  0  0  0  0  0  0
   -4.3428    3.3456   -3.5502 N   0  0  0  0  0  0  0  0  0  0  0  0
   -1.8697    0.7695   -4.0214 C   0  0  0  0  0  0  0  0  0  0  0  0
   -1.3484   -0.3026   -4.7678 C   0  0  0  0  0  0  0  0  0  0  0  0
   -1.5009   -1.0001   -6.3459 S   0  0  0  0  0  0  0  0  0  0  0  0
   -0.3842   -2.2581   -5.8700 C   0  0  0  0  0  0  0  0  0  0  0  0
    0.1285   -3.3733   -6.5371 C   0  0  0  0  0  0  0  0  0  0  0  0
   -0.1767   -3.7518   -7.9248 C   0  0  0  0  0  0  0  0  0  0  0  0
    0.6111   -3.2724   -8.9662 C   0  0  0  0  0  0  0  0  0  0  0  0
    0.3433   -3.6715  -10.2628 C   0  0  0  0  0  0  0  0  0  0  0  0
   -0.6954   -4.5475  -10.5220 C   0  0  0  0  0  0  0  0  0  0  0  0
   -1.4991   -5.0221   -9.4944 C   0  0  0  0  0  0  0  0  0  0  0  0
   -2.5885   -6.0187   -9.7606 C   0  0  0  0  0  0  0  0  0  0  0  0
   -2.0869   -7.4254   -9.4295 C   0  0  0  0  0  0  0  0  0  0  0  0
   -1.2349   -4.6117   -8.1948 C   0  0  0  0  0  0  0  0  0  0  0  0
    0.9921   -4.1076   -5.7332 C   0  0  0  0  0  0  0  0  0  0  0  0
    1.1698   -3.3900   -4.1302 S   0  0  0  0  0  0  0  0  0  0  0  0
    0.0755   -2.1241   -4.5526 C   0  0  0  0  0  0  0  0  0  0  0  0
   -0.4737   -1.0036   -3.9265 C   0  0  0  0  0  0  0  0  0  0  0  0
   -0.4081   -0.3951   -2.6967 N   0  0  0  0  0  0  0  0  0  0  0  0
   -1.2393    0.7086   -2.7513 C   0  0  0  0  0  0  0  0  0  0  0  0
   -1.4954    1.7164   -1.7995 C   0  0  0  0  0  0  0  0  0  0  0  0
   -0.8675    2.0091   -0.6024 N   0  0  0  0  0  0  0  0  0  0  0  0
   -1.6059    2.9952    0.0037 C   0  0  0  0  0  0  0  0  0  0  0  0
   -1.5800    3.7192    1.1998 C   0  0  0  0  0  0  0  0  0  0  0  0
   -0.5941    3.7695    2.6174 S   0  0  0  0  0  0  0  0  0  0  0  0
    0.5487    1.8720   -0.3249 C   0  0  0  0  0  0  0  0  0  0  0  0
    1.2896    3.1875   -0.5626 C   0  0  0  0  0  0  0  0  0  0  0  0
   -0.0981   -1.1772   -1.5161 C   0  0  0  0  0  0  0  0  0  0  0  0
   -1.0855   -2.3309   -1.3428 C   0  0  0  0  0  0  0  0  0  0  0  0
    1.6783   -5.2924   -6.0720 C   0  0  0  0  0  0  0  0  0  0  0  0
    1.4632   -6.2190   -7.7093 Se  0  0  0  0  0  2  0  0  0  0  0  0
    2.7194   -7.5057   -7.0855 C   0  0  0  0  0  0  0  0  0  0  0  0
    3.1613   -7.1424   -5.7925 C   0  0  0  0  0  0  0  0  0  0  0  0
    4.0818   -7.7354   -4.8937 C   0  0  0  0  0  0  0  0  0  0  0  0
    4.2090   -7.0472   -3.7299 C   0  0  0  0  0  0  0  0  0  0  0  0
    5.0989   -7.3559   -2.5785 C   0  0  0  0  0  0  0  0  0  0  0  0
    6.2469   -6.3487   -2.4812 C   0  0  0  0  0  0  0  0  0  0  0  0
    3.1985   -5.6208   -3.6771 S   0  0  0  0  0  0  0  0  0  0  0  0
    2.5897   -5.9665   -5.2685 C   0  0  0  0  0  0  0  0  0  0  0  0
    3.1883   -8.6523   -7.7080 C   0  0  0  0  0  0  0  0  0  0  0  0
    2.8700   -9.2011   -8.9395 C   0  0  0  0  0  0  0  0  0  0  0  0
    1.9218   -8.6355   -9.8739 C   0  0  0  0  0  0  0  0  0  0  0  0
    1.2842   -7.5910   -9.7481 O   0  0  0  0  0  0  0  0  0  0  0  0
    1.8568   -9.5568  -11.0213 C   0  0  0  0  0  0  0  0  0  0  0  0
    1.0896   -9.4630  -12.1553 C   0  0  0  0  0  0  0  0  0  0  0  0
    1.2066  -10.4832  -13.1071 C   0  0  0  0  0  0  0  0  0  0  0  0
    0.5293  -10.6197  -14.3499 C   0  0  0  0  0  0  0  0  0  0  0  0
    0.9000  -11.7432  -15.0085 C   0  0  0  0  0  0  0  0  0  0  0  0
    0.2603  -12.3154  -16.6767 Br  0  0  0  0  0  0  0  0  0  0  0  0
    2.0881  -12.7020  -14.1670 S   0  0  0  0  0  0  0  0  0  0  0  0
    2.0990  -11.5520  -12.8647 C   0  0  0  0  0  0  0  0  0  0  0  0
    2.8769  -11.6456  -11.7148 C   0  0  0  0  0  0  0  0  0  0  0  0
    2.7490  -10.6332  -10.7856 C   0  0  0  0  0  0  0  0  0  0  0  0
    3.3985  -10.4238   -9.4910 C   0  0  0  0  0  0  0  0  0  0  0  0
    4.3384  -11.2586   -8.9330 C   0  0  0  0  0  0  0  0  0  0  0  0
    4.8024  -12.4427   -9.5388 C   0  0  0  0  0  0  0  0  0  0  0  0
    5.2194  -13.4191   -9.9774 N   0  0  0  0  0  0  0  0  0  0  0  0
    4.9742  -11.0602   -7.6920 C   0  0  0  0  0  0  0  0  0  0  0  0
    5.5358  -10.9689   -6.6926 N   0  0  0  0  0  0  0  0  0  0  0  0
   -0.2191    6.6453    8.9413 H   0  0  0  0  0  0  0  0  0  0  0  0
    2.0973    0.7991    8.8236 H   0  0  0  0  0  0  0  0  0  0  0  0
    2.4266    3.7685   12.9139 H   0  0  0  0  0  0  0  0  0  0  0  0
    3.1189    0.5087   13.7347 H   0  0  0  0  0  0  0  0  0  0  0  0
    5.4298    1.4050   13.9683 H   0  0  0  0  0  0  0  0  0  0  0  0
    5.8926    2.8405   11.8329 H   0  0  0  0  0  0  0  0  0  0  0  0
    5.7407    1.2494    9.7116 H   0  0  0  0  0  0  0  0  0  0  0  0
    5.1838   -1.1685   10.5406 H   0  0  0  0  0  0  0  0  0  0  0  0
    6.7008   -0.4698   12.5952 H   0  0  0  0  0  0  0  0  0  0  0  0
    5.1935   -1.1740   13.2322 H   0  0  0  0  0  0  0  0  0  0  0  0
    2.9691   -1.0362   11.6726 H   0  0  0  0  0  0  0  0  0  0  0  0
   -2.3979    8.1082    3.7187 H   0  0  0  0  0  0  0  0  0  0  0  0
   -2.6211   10.5924    4.5278 H   0  0  0  0  0  0  0  0  0  0  0  0
   -2.0176   10.9696    6.1529 H   0  0  0  0  0  0  0  0  0  0  0  0
   -4.4698   11.3352    6.0241 H   0  0  0  0  0  0  0  0  0  0  0  0
   -4.7029    9.6553    5.5197 H   0  0  0  0  0  0  0  0  0  0  0  0
   -4.1031   10.0182    7.1428 H   0  0  0  0  0  0  0  0  0  0  0  0
   -3.9263    7.1769    0.9826 H   0  0  0  0  0  0  0  0  0  0  0  0
   -5.8078    8.6237    1.6367 H   0  0  0  0  0  0  0  0  0  0  0  0
   -6.7591    8.4728    3.9015 H   0  0  0  0  0  0  0  0  0  0  0  0
   -5.2740    6.4959    6.6209 H   0  0  0  0  0  0  0  0  0  0  0  0
   -6.4801    7.7245    6.2131 H   0  0  0  0  0  0  0  0  0  0  0  0
   -7.9238    5.9686    5.1875 H   0  0  0  0  0  0  0  0  0  0  0  0
   -7.5757    5.5949    6.8792 H   0  0  0  0  0  0  0  0  0  0  0  0
   -6.7229    4.7413    5.5884 H   0  0  0  0  0  0  0  0  0  0  0  0
   -4.0007    5.3639    4.8514 H   0  0  0  0  0  0  0  0  0  0  0  0
    1.4235   -2.5924   -8.7544 H   0  0  0  0  0  0  0  0  0  0  0  0
    0.9534   -3.3018  -11.0736 H   0  0  0  0  0  0  0  0  0  0  0  0
   -0.8856   -4.8668  -11.5362 H   0  0  0  0  0  0  0  0  0  0  0  0
   -3.4642   -5.7903   -9.1490 H   0  0  0  0  0  0  0  0  0  0  0  0
   -2.8836   -5.9750  -10.8105 H   0  0  0  0  0  0  0  0  0  0  0  0
   -1.8608   -7.5057   -8.3682 H   0  0  0  0  0  0  0  0  0  0  0  0
   -1.1714   -7.6328   -9.9774 H   0  0  0  0  0  0  0  0  0  0  0  0
   -2.8354   -8.1718   -9.6861 H   0  0  0  0  0  0  0  0  0  0  0  0
   -1.8547   -4.9625   -7.3809 H   0  0  0  0  0  0  0  0  0  0  0  0
    0.6749    1.5589    0.7166 H   0  0  0  0  0  0  0  0  0  0  0  0
    0.9685    1.1180   -0.9888 H   0  0  0  0  0  0  0  0  0  0  0  0
    2.3536    3.0379   -0.4023 H   0  0  0  0  0  0  0  0  0  0  0  0
    1.1334    3.5268   -1.5844 H   0  0  0  0  0  0  0  0  0  0  0  0
    0.9440    3.9592    0.1192 H   0  0  0  0  0  0  0  0  0  0  0  0
   -0.1579   -0.5400   -0.6365 H   0  0  0  0  0  0  0  0  0  0  0  0
    0.9186   -1.5698   -1.6176 H   0  0  0  0  0  0  0  0  0  0  0  0
   -2.1022   -1.9479   -1.2831 H   0  0  0  0  0  0  0  0  0  0  0  0
   -0.8593   -2.8674   -0.4257 H   0  0  0  0  0  0  0  0  0  0  0  0
   -1.0225   -3.0272   -2.1741 H   0  0  0  0  0  0  0  0  0  0  0  0
    4.6305   -8.6381   -5.0970 H   0  0  0  0  0  0  0  0  0  0  0  0
    4.5199   -7.3285   -1.6518 H   0  0  0  0  0  0  0  0  0  0  0  0
    5.5006   -8.3628   -2.7055 H   0  0  0  0  0  0  0  0  0  0  0  0
    6.8873   -6.5914   -1.6373 H   0  0  0  0  0  0  0  0  0  0  0  0
    6.8453   -6.3694   -3.3890 H   0  0  0  0  0  0  0  0  0  0  0  0
    5.8568   -5.3424   -2.3451 H   0  0  0  0  0  0  0  0  0  0  0  0
    3.9102   -9.2021   -7.1179 H   0  0  0  0  0  0  0  0  0  0  0  0
    0.4199   -8.6311  -12.3075 H   0  0  0  0  0  0  0  0  0  0  0  0
   -0.1914   -9.9154  -14.7234 H   0  0  0  0  0  0  0  0  0  0  0  0
    3.5411  -12.4823  -11.5782 H   0  0  0  0  0  0  0  0  0  0  0  0
  1  2  2  0  0  0  0
  2  3  1  0  0  0  0
  3  4  2  0  0  0  0
  3  5  1  0  0  0  0
  5  6  2  0  0  0  0
  6  7  1  0  0  0  0
  7  8  2  0  0  0  0
  8  9  1  0  0  0  0
  9 10  2  0  0  0  0
 10 11  1  0  0  0  0
 11 12  2  0  0  0  0
 12 13  1  0  0  0  0
 13 14  3  0  0  0  0
 12 15  1  0  0  0  0
 15 16  3  0  0  0  0
  8 17  1  0  0  0  0
 17 18  1  0  0  0  0
 18 19  1  0  0  0  0
 19 20  2  0  0  0  0
 20 21  1  0  0  0  0
 21 22  1  0  0  0  0
 21 23  1  0  0  0  0
  1 24  1  0  0  0  0
 24 25  1  0  0  0  0
 25 26  1  0  0  0  0
 26 27  2  0  0  0  0
 27 28  1  0  0  0  0
 28 29  2  0  0  0  0
 29 30  1  0  0  0  0
 30 31  1  0  0  0  0
 29 32  1  0  0  0  0
 32 33  1  0  0  0  0
 26 34  1  0  0  0  0
 34 35  2  0  0  0  0
 35 36  1  0  0  0  0
 36 37  2  0  0  0  0
 37 38  1  0  0  0  0
 38 39  2  0  0  0  0
 39 40  1  0  0  0  0
 40 41  1  0  0  0  0
 41 42  1  0  0  0  0
 40 43  2  0  0  0  0
 35 44  1  0  0  0  0
 44 45  1  0  0  0  0
 45 46  1  0  0  0  0
 46 47  1  0  0  0  0
 47 48  1  0  0  0  0
 48 49  1  0  0  0  0
 49 50  2  0  0  0  0
 50 51  1  0  0  0  0
 51 52  1  0  0  0  0
 49 53  1  0  0  0  0
 53 54  1  0  0  0  0
 54 55  1  0  0  0  0
 55 56  1  0  0  0  0
 56 57  1  0  0  0  0
 57 58  1  0  0  0  0
 58 59  2  0  0  0  0
 59 60  1  0  0  0  0
 60 61  2  0  0  0  0
 61 62  1  0  0  0  0
 62 63  1  0  0  0  0
 63 64  1  0  0  0  0
 62 65  2  0  0  0  0
 57 66  2  0  0  0  0
 66 67  1  0  0  0  0
 67 68  1  0  0  0  0
 68 69  1  0  0  0  0
 69 70  1  0  0  0  0
 70 71  1  0  0  0  0
 71 72  1  0  0  0  0
 72 73  1  0  0  0  0
 73 74  1  0  0  0  0
 74 75  1  0  0  0  0
 75 76  1  0  0  0  0
 73 77  1  0  0  0  0
 77 78  1  0  0  0  0
 70 79  1  0  0  0  0
 79 80  1  0  0  0  0
 66 81  1  0  0  0  0
 81 82  1  0  0  0  0
 82 83  1  0  0  0  0
 83 84  2  0  0  0  0
 84 85  1  0  0  0  0
 85 86  2  0  0  0  0
 86 87  1  0  0  0  0
 87 88  1  0  0  0  0
 86 89  1  0  0  0  0
 89 90  1  0  0  0  0
 83 91  1  0  0  0  0
 91 92  2  0  0  0  0
 92 93  1  0  0  0  0
 93 94  2  0  0  0  0
 93 95  1  0  0  0  0
 95 96  2  0  0  0  0
 96 97  1  0  0  0  0
 97 98  1  0  0  0  0
 98 99  2  0  0  0  0
 99100  1  0  0  0  0
 99101  1  0  0  0  0
101102  1  0  0  0  0
102103  1  0  0  0  0
103104  2  0  0  0  0
104105  1  0  0  0  0
105106  2  0  0  0  0
106107  1  0  0  0  0
107108  3  0  0  0  0
106109  1  0  0  0  0
109110  3  0  0  0  0
 11  2  1  0  0  0  0
 23 17  1  0  0  0  0
 33 24  2  0  0  0  0
 76 34  1  0  0  0  0
 90 81  2  0  0  0  0
105 92  1  0  0  0  0
 10  5  1  0  0  0  0
 22 18  1  0  0  0  0
 33 27  1  0  0  0  0
 43 36  1  0  0  0  0
 75 44  2  0  0  0  0
 90 84  1  0  0  0  0
104 95  1  0  0  0  0
 23  7  1  0  0  0  0
 74 46  2  0  0  0  0
102 97  2  0  0  0  0
 72 47  2  0  0  0  0
 52 48  2  0  0  0  0
 71 53  2  0  0  0  0
 69 54  2  0  0  0  0
 68 56  2  0  0  0  0
 65 58  1  0  0  0  0
  1111  1  0  0  0  0
  6112  1  0  0  0  0
  9113  1  0  0  0  0
 17114  1  0  0  0  0
 18115  1  0  0  0  0
 19116  1  0  0  0  0
 20117  1  0  0  0  0
 21118  1  0  0  0  0
 22119  1  0  0  0  0
 22120  1  0  0  0  0
 23121  1  0  0  0  0
 28122  1  0  0  0  0
 30123  1  0  0  0  0
 30124  1  0  0  0  0
 31125  1  0  0  0  0
 31126  1  0  0  0  0
 31127  1  0  0  0  0
 37128  1  0  0  0  0
 38129  1  0  0  0  0
 39130  1  0  0  0  0
 41131  1  0  0  0  0
 41132  1  0  0  0  0
 42133  1  0  0  0  0
 42134  1  0  0  0  0
 42135  1  0  0  0  0
 43136  1  0  0  0  0
 59137  1  0  0  0  0
 60138  1  0  0  0  0
 61139  1  0  0  0  0
 63140  1  0  0  0  0
 63141  1  0  0  0  0
 64142  1  0  0  0  0
 64143  1  0  0  0  0
 64144  1  0  0  0  0
 65145  1  0  0  0  0
 77146  1  0  0  0  0
 77147  1  0  0  0  0
 78148  1  0  0  0  0
 78149  1  0  0  0  0
 78150  1  0  0  0  0
 79151  1  0  0  0  0
 79152  1  0  0  0  0
 80153  1  0  0  0  0
 80154  1  0  0  0  0
 80155  1  0  0  0  0
 85156  1  0  0  0  0
 87157  1  0  0  0  0
 87158  1  0  0  0  0
 88159  1  0  0  0  0
 88160  1  0  0  0  0
 88161  1  0  0  0  0
 91162  1  0  0  0  0
 96163  1  0  0  0  0
 98164  1  0  0  0  0
103165  1  0  0  0  0
M  END
