237

C         -3.87240        5.95200      -12.28410
C         -4.70480        6.50070      -13.22000
C         -6.18160        6.40770      -13.29670
O         -6.95810        5.94600      -12.48400
C         -6.55210        6.95230      -14.61530
C         -7.83860        7.03730      -15.14480
C         -7.89100        7.59440      -16.39920
C         -6.74690        8.03430      -17.07890
C         -5.47340        7.95660      -16.56840
C         -5.39750        7.39240      -15.29050
C         -4.24120        7.15940      -14.43040
C         -2.96030        7.56550      -14.70280
C         -2.56290        8.20820      -15.89420
N         -2.16320        8.73450      -16.83330
C         -1.84790        7.44150      -13.84260
N         -0.88870        7.40830      -13.21130
C         -7.53620        8.47830      -18.28520
C         -7.49190        7.55180      -19.51850
C         -8.69740        7.97050      -20.32870
C         -9.78050        7.55300      -19.68580
C         -9.32520        6.84490      -18.43010
C         -8.01220        6.23210      -18.93420
C         -8.81160        7.98730      -17.52790
C         -4.16170        5.35780      -11.03750
C         -5.29270        5.36150      -10.25680
C         -5.15700        4.66200       -9.04440
C         -6.13230        4.48220       -8.02940
C         -7.49490        4.91850       -8.19610
C         -8.22800        4.95220       -9.35420
C         -9.53580        5.45190       -9.24590
C         -9.90690        5.84510       -7.99000
S        -11.51020        6.42180       -7.60730
C        -11.26230        7.12540       -5.94120
C        -10.52510        8.44870       -5.98740
Se        -8.52720        5.54540       -6.74070
C         -5.69250        3.83760       -6.87830
C         -4.37810        3.34540       -6.69560
C         -3.41000        3.51230       -7.71060
C         -2.04530        3.07000       -7.53590
C         -1.28570        3.14220       -6.40010
C          0.01340        2.60900       -6.48740
C          0.34290        2.08490       -7.70590
S          1.92230        1.42750       -8.06760
C          1.65590        0.67340       -9.70910
C          0.89380       -0.63350       -9.62450
Se        -1.07050        2.27260       -8.93850
C         -3.84350        4.15080       -8.86730
S         -2.84080        4.50440      -10.24090
C         -4.23490        2.68690       -5.45350
C         -5.36360        2.70110       -4.68160
S         -6.69550        3.49640       -5.49270
C         -5.50730        2.12730       -3.38780
C         -6.55440        2.21730       -2.49030
C         -7.74550        3.05980       -2.64580
C         -9.01670        2.50320       -2.56160
C        -10.12830        3.31500       -2.68280
C         -9.98170        4.67810       -2.87480
C         -8.71910        5.25200       -2.94640
C         -8.54040        6.73370       -3.11890
C         -7.98130        7.38070       -1.85180
C         -7.60740        4.43100       -2.82610
C         -6.31040        1.44480       -1.33860
S         -7.21950        1.19730        0.13250
C         -5.91770        0.23450        0.74960
C         -5.57090       -0.47410        1.91650
C         -6.26960       -0.81570        3.09720
C         -5.63150       -1.66100        4.07650
N         -6.43250       -1.94700        5.09020
S         -7.85700       -1.21790        4.84660
N         -7.51120       -0.50640        3.43450
C         -4.27110       -2.00830        3.90960
C         -3.32330       -2.63670        4.74080
S         -3.23750       -3.42340        6.28230
C         -1.50620       -3.56990        6.08990
C         -0.49500       -4.10980        6.90950
C         -0.77480       -4.75490        8.19490
C         -0.32610       -6.04630        8.45720
C         -0.62570       -6.64450        9.66600
C         -1.37870       -5.96970       10.61080
C         -1.84980       -4.68790       10.35680
C         -2.72840       -3.97670       11.34450
C         -4.20130       -4.21640       11.00590
C         -1.54360       -4.09120        9.14320
C          0.75180       -3.96370        6.33030
S          0.66990       -3.20110        4.74250
C         -1.04220       -3.04250        4.88430
C         -2.08030       -2.51430        4.11070
N         -2.21590       -1.86670        2.90790
C         -3.55930       -1.57170        2.76360
C         -4.25520       -0.95690        1.70300
N         -3.83920       -0.63080        0.42540
C         -4.84720        0.10830       -0.14290
C         -5.07610        0.79340       -1.34020
S         -4.20250        1.10080       -2.79740
C         -2.93390       -1.40660       -0.39910
C         -3.69970       -2.32720       -1.34880
C         -1.10690       -1.10440        2.36950
C         -0.66770       -0.00790        3.33980
C          2.04920       -4.21470        6.85940
C          3.22610       -4.06370        6.17910
C          4.37900       -4.27130        6.96930
C          5.72170       -4.18860        6.56900
C          6.08230       -3.93910        5.16590
C          6.97090       -2.92540        4.82260
C          7.27920       -2.69820        3.49280
C          6.72130       -3.47970        2.50000
C          5.84260       -4.50450        2.83750
S          5.14200       -5.43550        1.50240
C          4.78360       -7.06750        2.24340
C          6.04190       -7.76860        2.71580
C          5.51960       -4.72700        4.16570
C          6.68020       -4.36370        7.55560
C          6.34460       -4.66120        8.90520
C          4.99310       -4.78890        9.30050
C          4.62110       -5.16000       10.67110
C          3.62050       -4.46960       11.35070
C          3.24940       -4.86040       12.62510
C          3.88390       -5.91790       13.24620
C          4.90080       -6.59960       12.58370
S          5.68410       -7.93610       13.43520
C          7.39190       -7.89110       12.75970
C          8.33760       -8.57310       13.72740
C          5.25180       -6.23490       11.29320
C          4.04600       -4.56170        8.31990
S          2.31170       -4.62890        8.54290
C          7.49620       -4.77090        9.69890
C          8.68200       -4.59800        9.00820
S          8.40150       -4.26480        7.31120
C          9.93440       -4.71610        9.64530
C         11.19760       -4.52760        9.16250
C         11.56090       -4.00460        7.83200
O         10.82910       -3.81860        6.87980
C         13.00740       -3.72980        7.88570
C         13.78680       -3.15960        6.88220
C         15.10790       -2.99910        7.22410
C         15.61830       -3.38000        8.47280
C         14.86250       -3.95270        9.46780
C         13.51400       -4.12380        9.14110
C         12.42140       -4.69170        9.92540
C         12.55220       -5.33550       11.12930
C         11.51150       -5.99240       11.81700
N         10.72940       -6.57510       12.42510
C         13.76840       -5.48120       11.82840
N         14.71880       -5.62670       12.45610
C         17.01070       -2.90940        8.13600
C         17.48050       -1.56150        8.73730
C         16.23760       -0.74020        8.97540
C         15.75620       -0.38180        7.79260
C         16.66490       -0.95460        6.73310
C         18.01410       -0.88230        7.46590
C         16.44290       -2.48760        6.74420
H         -2.81560        5.94160      -12.52460
H         -8.69190        6.69020      -14.58310
H         -4.60540        8.29950      -17.10570
H         -7.45590        9.53280      -18.54170
H         -6.53720        7.52940      -20.03670
H         -8.64220        8.55670      -21.22710
H        -10.81070        7.72080      -19.93980
H        -10.04110        6.17760      -17.95770
H         -8.17810        5.47880      -19.70270
H         -7.38510        5.81720      -18.14730
H         -9.58320        8.71430      -17.28100
H         -6.17950        5.89190      -10.54240
H         -7.84840        4.58480      -10.29160
H        -10.20100        5.52360      -10.08860
H        -10.71950        6.37460       -5.35810
H        -12.26720        7.24410       -5.53690
H         -9.51930        8.31080       -6.38490
H        -11.05570        9.15600       -6.62050
H        -10.44540        8.86760       -4.98660
H         -1.64070        3.62270       -5.50380
H          0.70410        2.61560       -5.66200
H          2.65790        0.52250      -10.10960
H          1.13060        1.41240      -10.32200
H         -0.09910       -0.47240       -9.20400
H          1.42610       -1.34330       -8.99560
H          0.78120       -1.05960      -10.61910
H         -3.33180        2.19560       -5.13930
H         -9.12760        1.43950       -2.41350
H        -11.11640        2.88300       -2.62480
H        -10.85930        5.30380       -2.95990
H         -7.85740        6.91940       -3.95450
H         -9.50090        7.19240       -3.35840
H         -7.86470        8.45270       -1.99350
H         -7.01200        6.95900       -1.59820
H         -8.65550        7.21220       -1.01490
H         -6.61700        4.86200       -2.86780
H          0.24200       -6.57930        7.70900
H         -0.27330       -7.64440        9.87110
H         -1.60790       -6.44480       11.55370
H         -2.52450       -4.34000       12.35350
H         -2.52390       -2.90440       11.31800
H         -4.84400       -3.69730       11.71290
H         -4.42910       -5.27930       11.04440
H         -4.42250       -3.85630       10.00370
H         -1.89650       -3.09130        8.93450
H         -2.30980       -2.02300        0.24630
H         -2.30480       -0.72090       -0.97640
H         -4.29370       -1.75380       -2.05460
H         -4.36100       -2.98160       -0.78480
H         -2.99570       -2.93790       -1.90720
H         -0.27550       -1.79100        2.18220
H         -1.40860       -0.63520        1.43610
H         -0.31080       -0.43290        4.27360
H         -1.50120        0.65790        3.55450
H          0.13700        0.57020        2.89450
H          3.26390       -3.78180        5.14130
H          7.40270       -2.30610        5.59300
H          7.96450       -1.90710        3.22880
H          6.95830       -3.31060        1.46090
H          4.30890       -7.61880        1.43180
H          4.05720       -6.93760        3.04540
H          5.79240       -8.75180        3.11050
H          6.53600       -7.19500        3.49780
H          6.73700       -7.89060        1.88830
H          4.84170       -5.51770        4.44800
H          3.14770       -3.61630       10.88980
H          2.46740       -4.32530       13.14250
H          3.60890       -6.22300       14.24390
H          7.65860       -6.84210       12.63800
H          7.39640       -8.39190       11.79120
H          8.09750       -9.62960       13.82120
H          9.35720       -8.46670       13.36590
H          8.26780       -8.11300       14.71010
H          5.99090       -6.80060       10.74720
H          7.47520       -4.95100       10.75930
H          9.84800       -4.98650       10.69160
H         13.35220       -2.88080        5.93490
H         15.26980       -4.23880       10.42310
H         17.78980       -3.66850        8.16110
H         18.16150       -1.65610        9.57880
H         15.81740       -0.55790        9.94720
H         14.85320        0.15960        7.57860
H         16.60410       -0.49650        5.74940
H         18.34350        0.14060        7.64150
H         18.80620       -1.44460        6.97340
H         16.85010       -2.97260        5.85920
