217

C         -5.81370      -10.92350        3.90170
C         -6.49580      -10.65980        5.05420
C         -6.59240       -9.35340        5.75120
O         -5.91850       -8.35630        5.59290
C         -7.74770       -9.47400        6.66010
C         -8.27970       -8.46770        7.46330
C         -9.36760       -8.85950        8.20470
C         -9.89750      -10.15570        8.14480
C         -9.38500      -11.15680        7.35460
C         -8.26980      -10.78100        6.59990
C         -7.46390      -11.55580        5.66280
C         -7.54400      -12.90860        5.46340
C         -6.67820      -13.65440        4.63460
N         -6.00210      -14.33530        4.00400
C         -8.47360      -13.75370        6.10430
N         -9.20120      -14.49640        6.59180
C        -10.98160       -9.84380        9.14590
C        -10.79650      -10.36240       10.59340
C         -9.30980      -10.48910       10.81580
C         -8.80370       -9.26460       10.87530
C         -9.93920       -8.28770       10.69410
C        -11.07750       -9.06710       11.37170
C        -10.38810       -8.40150        9.21600
C         -4.82740      -10.12910        3.27110
C         -3.96910       -9.19490        3.79210
C         -3.13810       -8.58550        2.83010
C         -2.17250       -7.58140        3.04890
C         -1.94090       -7.00990        4.37860
C         -3.00290       -6.57730        5.16970
C         -2.78050       -6.03150        6.41870
C         -1.48500       -5.90000        6.90090
S         -1.07300       -5.24850        8.49040
C         -2.55040       -4.30350        9.00200
C         -2.76690       -3.07200        8.14370
C         -0.41750       -6.33330        6.11770
C         -0.64300       -6.87890        4.87360
C         -1.47350       -7.15130        1.93400
C         -1.68720       -7.67360        0.63310
C         -2.63750       -8.68750        0.41470
C         -2.84110       -9.24020       -0.92890
C         -1.74750       -9.60690       -1.70930
C         -1.91190      -10.09540       -2.98970
C         -3.18750      -10.23400       -3.51960
S         -3.53370      -10.79390       -5.15760
C         -1.97000      -11.53620       -5.74170
C         -1.65880      -12.84470       -5.04050
C         -4.28920       -9.87910       -2.74330
C         -4.11890       -9.38940       -1.46700
C         -3.35230       -9.10870        1.52560
S         -4.57620      -10.34650        1.54070
C         -0.90680       -7.00310       -0.33820
C         -0.11730       -6.01830        0.17680
S         -0.29950       -5.85690        1.91070
C          0.75360       -5.16860       -0.57270
C          1.43310       -5.49990       -1.72750
C          1.54060       -6.86420       -2.25520
C          1.23710       -7.13720       -3.58410
C          1.34800       -8.43050       -4.06110
C          1.78290       -9.44840       -3.23070
C          2.11690       -9.18730       -1.90660
C          2.61100      -10.28110       -1.00170
C          1.46900      -10.90980       -0.20110
C          1.97770       -7.89370       -1.42780
C          2.05940       -4.37090       -2.29080
S          3.03210       -4.14730       -3.72440
C          3.14450       -2.45850       -3.35510
C          3.61950       -1.27270       -3.94070
C          4.19580       -1.01740       -5.20460
C          4.34080        0.34430       -5.64250
N          4.81290        0.43000       -6.87620
S          5.06450       -1.06850       -7.43560
N          4.57280       -1.88750       -6.12800
C          4.01260        1.38930       -4.75180
C          4.05010        2.79020       -4.88350
S          4.36940        3.99120       -6.08910
C          3.97170        5.23730       -4.92910
C          3.91460        6.64820       -5.00960
C          4.35940        7.40960       -6.17520
C          5.12940        8.55940       -6.01450
C          5.59070        9.24010       -7.12440
C          5.29070        8.78660       -8.39830
C          4.52510        7.64080       -8.57640
C          4.15130        7.16830       -9.95220
C          2.80440        7.75990      -10.37330
C          4.06740        6.96070       -7.45820
C          3.49380        7.20010       -3.81960
S          3.23170        5.98960       -2.57180
C          3.63640        4.72660       -3.67650
C          3.68240        3.32700       -3.64960
N          3.42120        2.32120       -2.75200
C          3.58010        1.11940       -3.42600
C          3.26110       -0.21270       -3.06340
N          2.56420       -0.74240       -1.99370
C          2.49050       -2.09820       -2.17430
C          1.86800       -3.19450       -1.56280
S          0.90870       -3.47520       -0.15250
C          1.70270       -0.09330       -1.03130
C          2.22450       -0.23930        0.39840
C          3.61160        2.57680       -1.34020
C          5.03280        3.06020       -1.04950
C          3.15220        8.56850       -3.49590
C          3.42130        9.05290       -2.21990
C          3.06540       10.33270       -1.82070
O          3.20990       10.81810       -0.57020
C          3.79550       10.02480        0.44240
C          2.82470        8.99970        1.02240
C          2.42670       11.17160       -2.76230
C          2.08470       10.65170       -4.01770
C          2.43370        9.37560       -4.40990
O          2.08160        8.78830       -5.58210
C          1.32040        9.50330       -6.53490
C          2.15460       10.48000       -7.35650
C          2.01470       12.51220       -2.45260
C          2.68210       13.42390       -1.69870
C          4.11920       13.34620       -1.32910
O          4.92300       12.49430       -1.64000
C          4.41250       14.59840       -0.60380
C          5.63230       14.97170       -0.04430
C          5.61640       16.20100        0.56900
C          4.47350       17.01120        0.60820
C          3.26780       16.66160        0.05040
C          3.25870       15.40650       -0.56710
C          2.17250       14.70530       -1.24470
C          0.88490       15.16070       -1.36540
C          0.42200       16.40050       -0.87720
N         -0.03150       17.39170       -0.51540
C         -0.17730       14.46680       -1.98210
N         -1.10260       13.98000       -2.45890
C          5.17290       18.09860        1.38460
C          4.87460       18.20590        2.90050
C          4.47200       16.82560        3.35700
C          5.55260       16.05720        3.32360
C          6.70530       16.90400        2.84380
C          6.31100       18.26280        3.44450
C          6.44510       17.19450        1.34470
H         -6.08740      -11.81660        3.35140
H         -7.84640       -7.47970        7.47330
H         -9.80890      -12.14610        7.31000
H        -12.00420       -9.95750        8.79180
H        -11.39470      -11.23530       10.83990
H         -8.78730      -11.42720       10.84820
H         -7.77310       -8.97530       10.96740
H         -9.75720       -7.27120       11.03360
H        -10.93000       -9.18010       12.44460
H        -12.06460       -8.64960       11.17790
H        -11.02420       -7.57270        8.91080
H         -3.91060       -8.97900        4.84100
H         -4.01570       -6.65650        4.80570
H         -3.63080       -5.72260        7.00530
H         -3.41050       -4.97190        8.99450
H         -2.33460       -4.02700       10.03410
H         -1.89440       -2.42440        8.19070
H         -3.63280       -2.51810        8.50170
H         -2.93430       -3.34700        7.10430
H          0.58690       -6.23980        6.50160
H          0.19310       -7.22860        4.28660
H         -0.74970       -9.51920       -1.30880
H         -1.03240      -10.34900       -3.55960
H         -1.17410      -10.80130       -5.62630
H         -2.14240      -11.69690       -6.80600
H         -0.73670      -13.26750       -5.43540
H         -1.54410      -12.69520       -3.96890
H         -2.46510      -13.55630       -5.20150
H         -5.27890       -9.98440       -3.16090
H         -4.98300       -9.09650       -0.89010
H         -0.96440       -7.20440       -1.39170
H          0.90750       -6.34050       -4.23380
H          1.10400       -8.64090       -5.09240
H          1.88220      -10.45410       -3.61500
H          3.10000      -11.05570       -1.59590
H          3.34700       -9.87010       -0.30730
H          0.96440      -10.15680        0.40180
H          1.85400      -11.67950        0.46380
H          0.73980      -11.36640       -0.86700
H          2.23330       -7.67290       -0.40090
H          5.37400        8.90860       -5.02230
H          6.19000       10.12970       -6.99660
H          5.65670        9.32440       -9.26170
H          4.91740        7.46920      -10.66940
H          4.08350        6.07890       -9.96000
H          2.85680        8.84640      -10.39770
H          2.02820        7.47000       -9.66850
H          2.52530        7.40460      -11.36250
H          3.46240        6.07560       -7.58730
H          1.57740        0.95200       -1.31410
H          0.71850       -0.57230       -1.09010
H          3.26220        0.07640        0.48260
H          1.61900        0.35870        1.07360
H          2.16610       -1.27740        0.71350
H          2.89020        3.33790       -1.02490
H          3.44260        1.66170       -0.78430
H          5.75730        2.32690       -1.39770
H          5.15850        3.19600        0.02130
H          5.23180        4.00710       -1.54310
H          3.93440        8.39050       -1.54020
H          4.07820       10.74510        1.21570
H          4.70840        9.54310        0.07460
H          1.94280        9.50590        1.40700
H          2.50780        8.28590        0.26620
H          3.30550        8.46230        1.83520
H          1.54280       11.30240       -4.68550
H          0.47890       10.01370       -6.04990
H          0.91890        8.72480       -7.18970
H          2.61440       11.23400       -6.72270
H          1.52000       10.97200       -8.08860
H          2.94530        9.94200       -7.87200
H          1.07480       12.81070       -2.90140
H          6.49050       14.32050       -0.10450
H          2.40100       17.30020        0.08190
H          5.22400       19.07260        0.90200
H          4.20300       19.01580        3.17210
H          3.46280       16.54420        3.59410
H          5.62650       15.00490        3.52740
H          7.70130       16.52910        3.06500
H          6.34940       18.26930        4.53280
H          6.89120       19.09620        3.05080
H          7.32820       17.57930        0.83790
