177

C          8.11810       -4.25620        4.93060
C          8.26880       -5.59200        4.68860
C          7.14730       -6.50880        4.37190
O          6.01720       -6.21240        4.03760
C          7.66110       -7.86490        4.64330
C          6.95090       -9.06030        4.55810
C          7.68820      -10.17430        4.88090
C          9.03180      -10.10740        5.27400
C          9.74440       -8.93570        5.36720
C          9.01540       -7.79200        5.03160
C          9.43290       -6.39590        4.99710
C         10.71270       -5.91820        5.10030
C         11.05090       -4.56790        4.86980
N         11.38330       -3.49440        4.63430
C         11.84330       -6.71710        5.36200
N         12.79690       -7.32010        5.57440
C          9.13920      -11.60140        5.44540
C          9.86650      -12.40150        4.33670
C          9.72200      -11.60180        3.06570
C          8.45180      -11.66610        2.68930
C          7.71430      -12.51020        3.69940
C          8.82360      -13.50210        4.08440
C          7.64370      -11.67680        5.00310
C          6.97280       -3.48220        4.58980
C          6.56690       -2.49620        5.53370
C          5.30960       -1.80760        5.44180
N          5.26150       -0.94640        6.43310
O          6.39520       -1.09410        7.11400
N          7.19290       -2.03410        6.59460
C          4.39880       -2.10060        4.38650
C          4.89160       -2.92580        3.38250
O          4.12120       -3.04450        2.26230
C          3.69620       -4.34340        1.85330
C          2.98290       -5.09710        2.96670
C          6.17580       -3.57000        3.44080
O          6.50410       -4.14880        2.27520
C          7.82780       -4.45090        1.88010
C          8.77900       -3.26350        1.94340
C          3.10160       -1.50490        4.31550
C          2.33350       -0.98700        5.34960
C          2.57940       -1.18820        6.77640
C          2.90740       -2.45340        7.25890
C          3.09890       -2.64480        8.61280
C          2.96510       -1.58490        9.49300
C          2.62290       -0.32120        9.03010
C          2.52550        0.84390        9.97130
C          3.87510        1.55880       10.06140
C          2.42530       -0.13630        7.67060
C          1.18660       -0.34380        4.85410
S         -0.12350        0.50370        5.64500
C         -0.83230        0.79830        4.09340
C         -1.92170        1.48240        3.53410
C         -2.89590        2.31080        4.13230
C         -3.81320        3.01990        3.28840
N         -4.62910        3.80540        3.97380
S         -4.27720        3.65910        5.54810
N         -3.06750        2.59100        5.41460
C         -3.77960        2.78540        1.89700
C         -4.59860        3.26750        0.86460
S         -5.91400        4.36840        0.63600
C         -5.92040        3.97130       -1.06700
C         -6.72570        4.39820       -2.14390
C         -7.87870        5.27930       -1.96810
C         -9.09370        5.00080       -2.58850
C        -10.17890        5.82710       -2.37710
C        -10.07030        6.92720       -1.54330
C         -8.87030        7.21250       -0.90660
C         -8.75120        8.36620        0.04750
C         -8.93020        7.88120        1.48750
C         -7.78340        6.37940       -1.12400
C         -6.33930        3.78630       -3.32220
S         -5.02740        2.64210       -3.09860
C         -4.95440        3.02570       -1.41620
C         -4.19410        2.62750       -0.30810
N         -3.14500        1.78690       -0.04880
C         -2.85710        1.87570        1.30500
C         -1.84910        1.29860        2.12280
N         -0.72310        0.54120        1.84410
C         -0.10600        0.25270        3.03160
C          1.05750       -0.39680        3.46260
S          2.35400       -1.28700        2.74450
C          0.00370        0.36730        0.60730
C          0.43700        1.70820        0.01950
C         -2.81690        0.75300       -1.00550
C         -3.23650       -0.62650       -0.50430
C         -6.80440        3.98740       -4.66810
C         -6.78810        2.90400       -5.58750
C         -7.20870        3.07310       -6.94860
N         -7.11130        1.89800       -7.53700
O         -6.64870        1.05540       -6.60970
N         -6.45280        1.64250       -5.43040
C         -7.69150        4.31150       -7.45080
C         -7.69940        5.35980       -6.54110
O         -8.01740        6.64350       -6.79460
C         -8.75350        7.02590       -7.93670
C        -10.23560        6.69820       -7.80200
C         -7.22530        5.19810       -5.18420
O         -7.24840        6.30190       -4.38130
C         -6.20230        7.24850       -4.58580
C         -6.57380        8.51330       -3.83370
C         -8.11180        4.31660       -8.83930
C         -7.32630        3.83820       -9.83400
C         -5.88300        3.48500       -9.66260
O         -5.17950        3.73480       -8.71080
C         -5.50170        2.85600      -10.93290
C         -4.40650        2.25170      -11.45780
S         -4.70590        1.74540      -13.07930
C         -6.31390        2.36310      -13.05770
C         -6.60140        2.92410      -11.85010
C         -7.71710        3.59230      -11.21540
C         -8.88610        3.93580      -11.84020
C         -9.11880        3.60960      -13.19280
N         -9.32160        3.34960      -14.29170
C         -9.93300        4.67070      -11.25320
N        -10.79890        5.29380      -10.82640
H          8.83980       -3.74940        5.56060
H          5.91460       -9.06980        4.25790
H         10.77450       -8.89320        5.68050
H          9.39410      -11.95010        6.44410
H         10.87460      -12.71500        4.59390
H         10.52160      -11.04210        2.61680
H          7.97720      -11.17070        1.86250
H          6.76280      -12.92410        3.37620
H          9.09960      -14.16390        3.26500
H          8.59100      -14.09080        4.97070
H          6.92170      -12.07660        5.71260
H          4.54870       -4.92600        1.49400
H          3.01850       -4.13700        1.02120
H          3.69320       -5.37670        3.74120
H          2.53770       -6.00190        2.56280
H          2.19770       -4.48200        3.40190
H          8.22970       -5.29600        2.45410
H          7.70290       -4.77250        0.84130
H          9.69390       -3.51450        1.41450
H          9.04070       -3.00530        2.96640
H          8.32270       -2.39800        1.46820
H          3.00400       -3.28200        6.57110
H          3.35480       -3.62650        8.98490
H          3.12420       -1.74170       10.55020
H          1.76820        1.54430        9.61400
H          2.23170        0.49780       10.96430
H          4.63860        0.87920       10.43270
H          3.81070        2.41220       10.73270
H          4.18230        1.90800        9.07870
H          2.17140        0.84440        7.29670
H         -9.18410        4.13230       -3.22430
H        -11.12010        5.61040       -2.86140
H        -10.92550        7.56830       -1.38400
H         -9.50950        9.11790       -0.17980
H         -7.76810        8.83150       -0.05310
H         -8.83600        8.71160        2.18350
H         -8.17790        7.13450        1.73140
H         -9.91210        7.43090        1.61460
H         -6.84140        6.60050       -0.64270
H          0.89090       -0.22220        0.85120
H         -0.58250       -0.21400       -0.10480
H          0.96780        1.54980       -0.91530
H          1.10170        2.21780        0.71310
H         -0.41900        2.35300       -0.16530
H         -3.37240        0.98790       -1.91680
H         -1.75720        0.78320       -1.26060
H         -2.75360       -0.86780        0.43980
H         -2.97410       -1.38290       -1.23900
H         -4.31280       -0.65260       -0.35090
H         -8.61160        8.10850       -7.99870
H         -8.32240        6.56650       -8.83600
H        -10.37850        5.65210       -7.53910
H        -10.74470        6.89450       -8.74120
H        -10.67960        7.30540       -7.01730
H         -5.26190        6.82790       -4.19910
H         -6.07670        7.45740       -5.65410
H         -6.73490        8.28180       -2.78490
H         -5.77800        9.24680       -3.92740
H         -7.49370        8.92440       -4.23930
H         -9.12890        4.60610       -9.06610
H         -3.45500        2.06500      -11.00190
H         -6.92940        2.26510      -13.92950
