213

C         -2.78680        4.37820       12.28430
C         -1.95960        3.90210       13.25050
C         -1.22670        4.84340       14.13920
O         -1.44740        6.02390       14.28900
C         -0.14150        4.04360       14.74380
C          0.90140        4.50520       15.54330
C          1.78260        3.52650       15.93630
C          1.64610        2.18450       15.55630
C          0.62090        1.71290       14.77160
C         -0.29180        2.69150       14.36990
C         -1.50800        2.56480       13.57100
C         -2.21690        1.40680       13.37460
C         -3.51890        1.37200       12.83270
N         -4.59940        1.28260       12.45480
C         -1.76220        0.12780       13.74790
N         -1.42400       -0.94180       13.99530
C          2.88400        1.76280       16.30710
C          2.69070        1.03530       17.66030
C          1.36040        1.49210       18.20620
C          1.48670        2.76110       18.57040
C          2.90450        3.18560       18.27690
C          3.64260        1.86300       18.53850
C          3.03330        3.25680       16.73500
C         -3.25780        3.71210       11.10890
C         -2.52260        2.68160       10.50720
C         -2.95260        2.06020        9.35920
O         -2.28230        1.07060        8.70430
C         -1.06440        0.56540        9.21150
C          0.12680        1.45050        8.86110
C         -4.17750        2.44900        8.76500
C         -4.87450        3.51990        9.32560
C         -4.44220        4.15780       10.47760
O         -5.06500        5.20370       11.06660
C         -6.36320        5.59040       10.65530
C         -7.43380        4.61940       11.14060
C         -4.61960        1.82280        7.54550
C         -5.89510        1.71990        7.02880
C         -7.16540        1.88260        7.80890
C         -7.94920        0.56860        7.85370
C         -5.91660        1.29870        5.68080
S         -7.26470        1.15780        4.56760
C         -6.16320        0.71470        3.31350
C         -6.16740        0.42370        1.93990
C         -7.20650        0.47150        0.98600
C         -6.88490        0.28010       -0.39970
N         -7.94010        0.41370       -1.18760
S         -9.22980        0.74520       -0.26480
N         -8.48970        0.73490        1.17630
C         -5.56050       -0.05720       -0.75280
C         -4.98820       -0.37640       -1.99500
S         -5.42020       -0.45490       -3.66750
C         -3.79470       -0.99360       -4.04250
C         -3.21390       -1.29590       -5.28800
C         -4.00140       -1.17200       -6.55370
C         -4.04900        0.27990       -7.03420
C         -1.89090       -1.68360       -5.19090
Se        -1.28050       -1.72900       -3.38490
C         -2.98080       -1.11720       -2.91490
C         -3.66660       -0.75020       -1.75010
N         -3.38690       -0.64570       -0.41310
C         -4.53620       -0.20380        0.22570
C         -4.81990        0.14970        1.57110
N         -4.02510        0.30270        2.69610
C         -4.83660        0.65810        3.74070
C         -4.68500        1.01140        5.08970
Se        -3.30270        1.19510        6.33230
C         -2.59800        0.48190        2.81220
C         -2.11020        1.66940        1.98610
C         -2.22680       -1.32520        0.11540
C         -2.61690       -2.55710        0.92720
C         -0.92000       -1.88170       -6.20370
C          0.36210       -2.37700       -5.99080
N          0.77250       -2.92350       -4.76690
C          2.13270       -2.65940       -4.46030
C          3.07450       -3.67500       -4.34390
C          4.40400       -3.35890       -4.15220
C          4.82630       -2.03680       -4.07930
C          6.28350       -1.71670       -3.94840
C          3.87270       -1.03120       -4.16650
C          2.53840       -1.33500       -4.35220
C          0.21470       -4.14930       -4.34950
C          0.39570       -4.54730       -3.02490
C         -0.16790       -5.72030       -2.56690
C         -0.93610       -6.52150       -3.40410
C         -1.57280       -7.77930       -2.89650
C         -1.11900       -6.11260       -4.71850
C         -0.55250       -4.94460       -5.19280
C          1.19470       -2.19960       -7.10910
S          2.86000       -2.53680       -7.41500
C          2.71990       -1.79000       -9.01160
C          1.37780       -1.42600       -9.31310
N          0.93820       -0.92460      -10.50690
C         -0.18380       -0.06970      -10.50460
C         -0.24420        0.99720       -9.61230
C         -1.35620        1.81440       -9.58630
C         -2.42660        1.59570      -10.44590
C         -3.62520        2.49240      -10.41160
C         -2.34550        0.54190      -11.34820
C         -1.24030       -0.28540      -11.38260
C          1.47700       -1.31890      -11.74560
C          1.54870       -0.40100      -12.79040
C          2.07680       -0.78130      -14.00730
C          2.55120       -2.07150      -14.21390
C          3.15930       -2.45180      -15.52860
C          2.45670       -2.98500      -13.17070
C          1.91850       -2.62330      -11.95190
C          0.54960       -1.62140       -8.19820
S         -1.12470       -1.30960       -7.85170
C          3.80480       -1.42490       -9.79970
C          5.15500       -1.64100       -9.60740
C          5.75700       -2.49540       -8.58670
O          5.19470       -3.12690       -7.70520
C          7.20970       -2.48360       -8.83830
C          8.19120       -3.15020       -8.11120
C          9.46850       -2.93860       -8.57270
C          9.74510       -2.12760       -9.67970
C          8.78270       -1.46920      -10.40970
C          7.47750       -1.66700       -9.95400
C          6.20890       -1.11740      -10.43900
C          6.08170       -0.22560      -11.47910
C          4.89230        0.41720      -11.87030
N          3.98280        1.01980      -12.23560
C          7.14670        0.20920      -12.29130
N          7.95770        0.59990      -13.00590
C         11.23350       -2.34710       -9.56890
C         12.08480       -1.20890       -8.95350
C         11.17140       -0.43890       -8.03260
C         10.91040       -1.20850       -6.98450
C         11.64220       -2.51340       -7.17850
C         12.89110       -2.01510       -7.92270
C         10.92470       -3.25260       -8.33510
H         -3.07700        5.41820       12.38570
H          0.97540        5.54770       15.81040
H          0.52820        0.67980       14.47810
H          3.67910        1.32220       15.70850
H          2.85010       -0.03900       17.62200
H          0.47660        0.88150       18.21680
H          0.72910        3.42340       18.94670
H          3.25960        4.06930       18.80060
H          4.67220        1.86260       18.18260
H          3.61530        1.56550       19.58560
H          3.92690        3.79140       16.41790
H         -1.57790        2.41560       10.95310
H         -0.95330       -0.40880        8.72720
H         -1.14140        0.40500       10.29330
H          0.03580        2.43490        9.31390
H          0.18020        1.57380        7.78190
H          1.04380        0.98470        9.21090
H         -5.74530        3.88120        8.80590
H         -6.40770        5.71740        9.56700
H         -6.50780        6.56970       11.11960
H         -7.25770        3.62100       10.74860
H         -8.41350        4.96030       10.81800
H         -7.41570        4.56410       12.22580
H         -7.78420        2.65610        7.34550
H         -6.93880        2.17080        8.83360
H         -8.83720        0.69320        8.46850
H         -8.25960        0.25970        6.85990
H         -7.33510       -0.21690        8.28840
H         -5.02100       -1.51240       -6.35580
H         -3.57140       -1.80260       -7.33310
H         -4.51350        0.90930       -6.27890
H         -4.62790        0.34740       -7.95130
H         -3.04600        0.64980       -7.23360
H         -2.39510        0.67470        3.87270
H         -2.07110       -0.43640        2.55030
H         -1.03250        1.77220        2.08160
H         -2.36170        1.54690        0.93520
H         -2.57880        2.58370        2.34250
H         -1.63190       -1.64220       -0.75040
H         -1.60420       -0.64200        0.69400
H         -3.26240       -2.29030        1.76100
H         -3.15190       -3.26180        0.29470
H         -1.72560       -3.04530        1.31220
H          2.76630       -4.70610       -4.43200
H          5.13230       -4.15350       -4.08670
H          6.78530       -1.91890       -4.89510
H          6.74970       -2.33500       -3.18330
H          6.43450       -0.66960       -3.69710
H          4.17790        0.00360       -4.10170
H          1.79800       -0.55050       -4.43310
H          0.98840       -3.92660       -2.36740
H         -0.01530       -6.01560       -1.53860
H         -1.01220       -8.18790       -2.05910
H         -2.58790       -7.57270       -2.55520
H         -1.63040       -8.52880       -3.68260
H         -1.71020       -6.72110       -5.38780
H         -0.69840       -4.65610       -6.22340
H          0.58510        1.17880       -8.94420
H         -1.39400        2.63800       -8.88810
H         -3.86110        2.78170       -9.39000
H         -4.49070        2.00160      -10.84960
H         -3.42750        3.40160      -10.98030
H         -3.16440        0.35870      -12.02850
H         -1.19290       -1.10780      -12.08100
H          1.20520        0.60990      -12.63760
H          2.14050       -0.05660      -14.80470
H          3.33550       -3.52310      -15.58350
H          4.11170       -1.93810      -15.66080
H          2.50890       -2.15910      -16.35100
H          2.80350       -3.99840      -13.31390
H          1.84690       -3.34730      -11.15340
H          3.54060       -0.85490      -10.68090
H          7.93110       -3.76640       -7.26440
H          9.01540       -0.85100      -11.26050
H         11.71550       -2.80570      -10.43020
H         12.64250       -0.62080       -9.67740
H         10.77370        0.53310       -8.25940
H         10.25120       -1.00770       -6.16000
H         11.79800       -3.11400       -6.28580
H         13.52930       -1.38740       -7.30230
H         13.48140       -2.81670       -8.36470
H         11.20380       -4.30320       -8.39240
