
  xtb     02222207133D
 energy: -380.137597044589 gnorm: 0.000542468068 xtb: 6.4.1 (unknown)
236264  0     0  0            999 V2000
  -14.1652    2.1147    5.2479 C   0  0  0  0  0  0  0  0  0  0  0  0
  -14.6304    2.7197    4.1045 C   0  0  0  0  0  0  0  0  0  0  0  0
  -13.8048    3.2149    3.0009 C   0  0  0  0  0  0  0  0  0  0  0  0
  -12.5887    3.1796    2.9072 O   0  0  0  0  0  0  0  0  0  0  0  0
  -14.7346    3.7731    2.0037 C   0  0  0  0  0  0  0  0  0  0  0  0
  -14.4043    4.3566    0.7837 C   0  0  0  0  0  0  0  0  0  0  0  0
  -15.4901    4.7758    0.0529 C   0  0  0  0  0  0  0  0  0  0  0  0
  -16.8073    4.6263    0.5048 C   0  0  0  0  0  0  0  0  0  0  0  0
  -17.1455    4.0582    1.7105 C   0  0  0  0  0  0  0  0  0  0  0  0
  -16.0560    3.6232    2.4694 C   0  0  0  0  0  0  0  0  0  0  0  0
  -16.0174    2.9754    3.7815 C   0  0  0  0  0  0  0  0  0  0  0  0
  -17.1183    2.6768    4.5462 C   0  0  0  0  0  0  0  0  0  0  0  0
  -17.1031    2.0594    5.8133 C   0  0  0  0  0  0  0  0  0  0  0  0
  -17.1906    1.5627    6.8466 N   0  0  0  0  0  0  0  0  0  0  0  0
  -18.4502    2.9494    4.1729 C   0  0  0  0  0  0  0  0  0  0  0  0
  -19.5598    3.1374    3.9424 N   0  0  0  0  0  0  0  0  0  0  0  0
  -17.3899    5.2447   -0.7413 C   0  0  0  0  0  0  0  0  0  0  0  0
  -18.0049    4.2925   -1.7967 C   0  0  0  0  0  0  0  0  0  0  0  0
  -17.3051    2.9655   -1.6384 C   0  0  0  0  0  0  0  0  0  0  0  0
  -16.0585    3.1113   -2.0669 C   0  0  0  0  0  0  0  0  0  0  0  0
  -15.8926    4.5402   -2.5219 C   0  0  0  0  0  0  0  0  0  0  0  0
  -17.3051    4.8184   -3.0602 C   0  0  0  0  0  0  0  0  0  0  0  0
  -15.9215    5.4146   -1.2438 C   0  0  0  0  0  0  0  0  0  0  0  0
  -12.8625    1.8056    5.6488 C   0  0  0  0  0  0  0  0  0  0  0  0
  -11.3833    2.1187    4.7493 S   0  0  0  0  0  0  0  0  0  0  0  0
  -10.4776    1.3950    6.0052 C   0  0  0  0  0  0  0  0  0  0  0  0
   -9.1299    1.0903    6.2765 C   0  0  0  0  0  0  0  0  0  0  0  0
   -9.0298    0.4430    7.5090 C   0  0  0  0  0  0  0  0  0  0  0  0
  -10.3936    0.2953    8.1473 C   0  0  0  0  0  0  0  0  0  0  0  0
  -10.3955    1.0883    9.4693 C   0  0  0  0  0  0  0  0  0  0  0  0
  -11.7279    1.1054   10.2058 C   0  0  0  0  0  0  0  0  0  0  0  0
  -10.8190   -1.1777    8.2994 C   0  0  0  0  0  0  0  0  0  0  0  0
   -9.9873   -1.9908    9.2823 C   0  0  0  0  0  0  0  0  0  0  0  0
  -11.2584    0.9435    7.0857 C   0  0  0  0  0  0  0  0  0  0  0  0
  -12.5972    1.1648    6.8720 C   0  0  0  0  0  0  0  0  0  0  0  0
   -7.7175    0.1519    7.8589 C   0  0  0  0  0  0  0  0  0  0  0  0
   -6.8113    0.5620    6.8935 C   0  0  0  0  0  0  0  0  0  0  0  0
   -7.6034    1.3187    5.5257 S   0  0  0  0  0  0  0  0  0  0  0  0
   -5.3961    0.4262    6.8878 C   0  0  0  0  0  0  0  0  0  0  0  0
   -4.5287    0.1586    7.9349 C   0  0  0  0  0  0  0  0  0  0  0  0
   -4.8716    0.0742    9.3568 C   0  0  0  0  0  0  0  0  0  0  0  0
   -5.6279    1.0665    9.9761 C   0  0  0  0  0  0  0  0  0  0  0  0
   -5.8962    0.9820   11.3286 C   0  0  0  0  0  0  0  0  0  0  0  0
   -5.4107   -0.0796   12.0740 C   0  0  0  0  0  0  0  0  0  0  0  0
   -4.6460   -1.0715   11.4745 C   0  0  0  0  0  0  0  0  0  0  0  0
   -4.0583   -2.1934   12.2803 C   0  0  0  0  0  0  0  0  0  0  0  0
   -2.6166   -1.8621   12.6710 C   0  0  0  0  0  0  0  0  0  0  0  0
   -4.3812   -0.9820   10.1156 C   0  0  0  0  0  0  0  0  0  0  0  0
   -3.2022    0.0349    7.4768 C   0  0  0  0  0  0  0  0  0  0  0  0
   -1.6872   -0.2530    8.3014 S   0  0  0  0  0  0  0  0  0  0  0  0
   -0.8578   -0.1155    6.7871 C   0  0  0  0  0  0  0  0  0  0  0  0
    0.4552   -0.1520    6.2789 C   0  0  0  0  0  0  0  0  0  0  0  0
    1.7320   -0.1964    6.8844 C   0  0  0  0  0  0  0  0  0  0  0  0
    2.9076   -0.0330    6.0643 C   0  0  0  0  0  0  0  0  0  0  0  0
    4.0194   -0.0111    6.7814 N   0  0  0  0  0  0  0  0  0  0  0  0
    3.6330   -0.1900    8.3430 S   0  0  0  0  0  0  0  0  0  0  0  0
    2.0265   -0.2991    8.1703 N   0  0  0  0  0  0  0  0  0  0  0  0
    2.7707    0.0069    4.6576 C   0  0  0  0  0  0  0  0  0  0  0  0
    3.6920    0.0050    3.5924 C   0  0  0  0  0  0  0  0  0  0  0  0
    5.4024    0.1145    3.3198 S   0  0  0  0  0  0  0  0  0  0  0  0
    5.1204   -0.0554    1.6020 C   0  0  0  0  0  0  0  0  0  0  0  0
    5.9738   -0.1187    0.4866 C   0  0  0  0  0  0  0  0  0  0  0  0
    7.4370   -0.0646    0.5718 C   0  0  0  0  0  0  0  0  0  0  0  0
    8.0751    1.0201    1.1620 C   0  0  0  0  0  0  0  0  0  0  0  0
    9.4561    1.0765    1.1752 C   0  0  0  0  0  0  0  0  0  0  0  0
   10.2043    0.0615    0.6051 C   0  0  0  0  0  0  0  0  0  0  0  0
    9.5822   -1.0449    0.0415 C   0  0  0  0  0  0  0  0  0  0  0  0
   10.3706   -2.1449   -0.6108 C   0  0  0  0  0  0  0  0  0  0  0  0
   10.2074   -2.0971   -2.1309 C   0  0  0  0  0  0  0  0  0  0  0  0
    8.1979   -1.1011    0.0432 C   0  0  0  0  0  0  0  0  0  0  0  0
    5.2657   -0.3023   -0.6933 C   0  0  0  0  0  0  0  0  0  0  0  0
    3.5342   -0.4077   -0.4134 S   0  0  0  0  0  0  0  0  0  0  0  0
    3.7711   -0.1983    1.2807 C   0  0  0  0  0  0  0  0  0  0  0  0
    2.9544   -0.1504    2.4143 C   0  0  0  0  0  0  0  0  0  0  0  0
    1.6133   -0.2086    2.6941 N   0  0  0  0  0  0  0  0  0  0  0  0
    1.4848   -0.0826    4.0643 C   0  0  0  0  0  0  0  0  0  0  0  0
    0.3366    0.0173    4.8766 C   0  0  0  0  0  0  0  0  0  0  0  0
   -0.9903    0.2198    4.5410 N   0  0  0  0  0  0  0  0  0  0  0  0
   -1.7113    0.1320    5.7071 C   0  0  0  0  0  0  0  0  0  0  0  0
   -3.0491    0.2272    6.1028 C   0  0  0  0  0  0  0  0  0  0  0  0
   -4.5651    0.5434    5.3409 S   0  0  0  0  0  0  0  0  0  0  0  0
   -1.4770    1.0333    3.4445 C   0  0  0  0  0  0  0  0  0  0  0  0
   -1.7254    2.4738    3.8915 C   0  0  0  0  0  0  0  0  0  0  0  0
    0.7014   -0.8840    1.7931 C   0  0  0  0  0  0  0  0  0  0  0  0
    1.1304   -2.3298    1.5462 C   0  0  0  0  0  0  0  0  0  0  0  0
    5.8209   -0.3349   -2.0099 C   0  0  0  0  0  0  0  0  0  0  0  0
    5.4173   -1.0103   -3.1555 C   0  0  0  0  0  0  0  0  0  0  0  0
    4.3022   -1.8361   -3.2887 N   0  0  0  0  0  0  0  0  0  0  0  0
    4.5099   -3.0482   -3.9718 C   0  0  0  0  0  0  0  0  0  0  0  0
    5.6297   -3.8177   -3.6674 C   0  0  0  0  0  0  0  0  0  0  0  0
    5.8921   -4.9741   -4.3730 C   0  0  0  0  0  0  0  0  0  0  0  0
    5.0453   -5.3994   -5.3883 C   0  0  0  0  0  0  0  0  0  0  0  0
    5.3645   -6.6232   -6.1899 C   0  0  0  0  0  0  0  0  0  0  0  0
    3.9164   -4.6396   -5.6677 C   0  0  0  0  0  0  0  0  0  0  0  0
    3.6474   -3.4762   -4.9759 C   0  0  0  0  0  0  0  0  0  0  0  0
    3.0141   -1.3404   -3.0895 C   0  0  0  0  0  0  0  0  0  0  0  0
    1.9855   -2.2010   -2.7042 C   0  0  0  0  0  0  0  0  0  0  0  0
    0.7274   -1.7033   -2.4408 C   0  0  0  0  0  0  0  0  0  0  0  0
    0.4499   -0.3448   -2.5557 C   0  0  0  0  0  0  0  0  0  0  0  0
   -0.9214    0.1863   -2.2647 C   0  0  0  0  0  0  0  0  0  0  0  0
    1.4696    0.5020   -2.9687 C   0  0  0  0  0  0  0  0  0  0  0  0
    2.7356    0.0181   -3.2362 C   0  0  0  0  0  0  0  0  0  0  0  0
    6.3462   -0.8388   -4.2119 C   0  0  0  0  0  0  0  0  0  0  0  0
    6.4819   -1.5372   -5.7852 S   0  0  0  0  0  0  0  0  0  0  0  0
    7.9749   -0.6332   -6.0631 C   0  0  0  0  0  0  0  0  0  0  0  0
    8.3794    0.0950   -4.9145 C   0  0  0  0  0  0  0  0  0  0  0  0
    9.5663    0.7578   -4.7633 N   0  0  0  0  0  0  0  0  0  0  0  0
    9.6607    1.7658   -3.7810 C   0  0  0  0  0  0  0  0  0  0  0  0
   10.7144    1.7662   -2.8725 C   0  0  0  0  0  0  0  0  0  0  0  0
   10.7768    2.7297   -1.8869 C   0  0  0  0  0  0  0  0  0  0  0  0
    9.8048    3.7180   -1.7870 C   0  0  0  0  0  0  0  0  0  0  0  0
    9.8529    4.7325   -0.6875 C   0  0  0  0  0  0  0  0  0  0  0  0
    8.7760    3.7306   -2.7208 C   0  0  0  0  0  0  0  0  0  0  0  0
    8.6992    2.7696   -3.7094 C   0  0  0  0  0  0  0  0  0  0  0  0
   10.7545    0.3700   -5.4166 C   0  0  0  0  0  0  0  0  0  0  0  0
   11.0683   -0.9737   -5.6077 C   0  0  0  0  0  0  0  0  0  0  0  0
   12.2156   -1.3220   -6.2914 C   0  0  0  0  0  0  0  0  0  0  0  0
   13.0869   -0.3525   -6.7766 C   0  0  0  0  0  0  0  0  0  0  0  0
   14.2998   -0.7299   -7.5690 C   0  0  0  0  0  0  0  0  0  0  0  0
   12.7917    0.9827   -6.5304 C   0  0  0  0  0  0  0  0  0  0  0  0
   11.6388    1.3472   -5.8632 C   0  0  0  0  0  0  0  0  0  0  0  0
    7.4159   -0.0119   -3.8969 C   0  0  0  0  0  0  0  0  0  0  0  0
    7.2876    0.6037   -2.2838 S   0  0  0  0  0  0  0  0  0  0  0  0
    8.6495   -0.5813   -7.2811 C   0  0  0  0  0  0  0  0  0  0  0  0
    8.5202   -1.3573   -8.4106 C   0  0  0  0  0  0  0  0  0  0  0  0
    7.6397   -2.5158   -8.5741 C   0  0  0  0  0  0  0  0  0  0  0  0
    6.7501   -2.8925   -7.8295 O   0  0  0  0  0  0  0  0  0  0  0  0
    8.0476   -3.1667   -9.8340 C   0  0  0  0  0  0  0  0  0  0  0  0
    7.5139   -4.3245  -10.3925 C   0  0  0  0  0  0  0  0  0  0  0  0
    8.1003   -4.6953  -11.5792 C   0  0  0  0  0  0  0  0  0  0  0  0
    9.1410   -3.9663  -12.1676 C   0  0  0  0  0  0  0  0  0  0  0  0
    9.6758   -2.8206  -11.6266 C   0  0  0  0  0  0  0  0  0  0  0  0
    9.0950   -2.4275  -10.4186 C   0  0  0  0  0  0  0  0  0  0  0  0
    9.3796   -1.2728   -9.5660 C   0  0  0  0  0  0  0  0  0  0  0  0
   10.3075   -0.2950   -9.8375 C   0  0  0  0  0  0  0  0  0  0  0  0
   11.2145   -0.3302  -10.9138 C   0  0  0  0  0  0  0  0  0  0  0  0
   12.0091   -0.3019  -11.7436 N   0  0  0  0  0  0  0  0  0  0  0  0
   10.4841    0.8925   -9.1025 C   0  0  0  0  0  0  0  0  0  0  0  0
   10.6746    1.9037   -8.5886 N   0  0  0  0  0  0  0  0  0  0  0  0
    9.2374   -4.9022  -13.3468 C   0  0  0  0  0  0  0  0  0  0  0  0
    8.6181   -4.4393  -14.6886 C   0  0  0  0  0  0  0  0  0  0  0  0
    7.5182   -3.4677  -14.3401 C   0  0  0  0  0  0  0  0  0  0  0  0
    6.5312   -4.1564  -13.7828 C   0  0  0  0  0  0  0  0  0  0  0  0
    6.9461   -5.6065  -13.7448 C   0  0  0  0  0  0  0  0  0  0  0  0
    7.7822   -5.6827  -15.0322 C   0  0  0  0  0  0  0  0  0  0  0  0
    8.0762   -5.7143  -12.6913 C   0  0  0  0  0  0  0  0  0  0  0  0
  -14.9116    1.8123    5.9725 H   0  0  0  0  0  0  0  0  0  0  0  0
  -13.3747    4.4504    0.4750 H   0  0  0  0  0  0  0  0  0  0  0  0
  -18.1650    3.9545    2.0417 H   0  0  0  0  0  0  0  0  0  0  0  0
  -17.9869    6.1428   -0.5956 H   0  0  0  0  0  0  0  0  0  0  0  0
  -19.0913    4.2643   -1.8002 H   0  0  0  0  0  0  0  0  0  0  0  0
  -17.7573    2.0999   -1.1907 H   0  0  0  0  0  0  0  0  0  0  0  0
  -15.2606    2.3920   -2.0484 H   0  0  0  0  0  0  0  0  0  0  0  0
  -15.0555    4.7386   -3.1863 H   0  0  0  0  0  0  0  0  0  0  0  0
  -17.4956    5.8731   -3.2545 H   0  0  0  0  0  0  0  0  0  0  0  0
  -17.5408    4.2323   -3.9473 H   0  0  0  0  0  0  0  0  0  0  0  0
  -15.5586    6.4249   -1.4234 H   0  0  0  0  0  0  0  0  0  0  0  0
   -9.6223    0.6715   10.1171 H   0  0  0  0  0  0  0  0  0  0  0  0
  -10.1058    2.1164    9.2362 H   0  0  0  0  0  0  0  0  0  0  0  0
  -11.6303    1.6929   11.1162 H   0  0  0  0  0  0  0  0  0  0  0  0
  -12.5024    1.5585    9.5937 H   0  0  0  0  0  0  0  0  0  0  0  0
  -12.0413    0.1030   10.4835 H   0  0  0  0  0  0  0  0  0  0  0  0
  -11.8666   -1.1987    8.6029 H   0  0  0  0  0  0  0  0  0  0  0  0
  -10.7564   -1.6421    7.3117 H   0  0  0  0  0  0  0  0  0  0  0  0
  -10.3680   -3.0092    9.3207 H   0  0  0  0  0  0  0  0  0  0  0  0
   -8.9473   -2.0309    8.9711 H   0  0  0  0  0  0  0  0  0  0  0  0
  -10.0367   -1.5741   10.2844 H   0  0  0  0  0  0  0  0  0  0  0  0
  -13.3962    0.8856    7.5360 H   0  0  0  0  0  0  0  0  0  0  0  0
   -7.4076   -0.3378    8.7628 H   0  0  0  0  0  0  0  0  0  0  0  0
   -5.9930    1.9012    9.3965 H   0  0  0  0  0  0  0  0  0  0  0  0
   -6.4827    1.7527   11.8071 H   0  0  0  0  0  0  0  0  0  0  0  0
   -5.6238   -0.1355   13.1318 H   0  0  0  0  0  0  0  0  0  0  0  0
   -4.6512   -2.3551   13.1826 H   0  0  0  0  0  0  0  0  0  0  0  0
   -4.0683   -3.1145   11.6939 H   0  0  0  0  0  0  0  0  0  0  0  0
   -2.1822   -2.6761   13.2465 H   0  0  0  0  0  0  0  0  0  0  0  0
   -2.0109   -1.7010   11.7822 H   0  0  0  0  0  0  0  0  0  0  0  0
   -2.5870   -0.9564   13.2726 H   0  0  0  0  0  0  0  0  0  0  0  0
   -3.7934   -1.7511    9.6358 H   0  0  0  0  0  0  0  0  0  0  0  0
    7.4868    1.8185    1.5887 H   0  0  0  0  0  0  0  0  0  0  0  0
    9.9537    1.9224    1.6260 H   0  0  0  0  0  0  0  0  0  0  0  0
   11.2830    0.1242    0.6045 H   0  0  0  0  0  0  0  0  0  0  0  0
   11.4275   -2.0443   -0.3575 H   0  0  0  0  0  0  0  0  0  0  0  0
   10.0237   -3.1137   -0.2427 H   0  0  0  0  0  0  0  0  0  0  0  0
   10.5375   -1.1341   -2.5127 H   0  0  0  0  0  0  0  0  0  0  0  0
    9.1645   -2.2323   -2.4104 H   0  0  0  0  0  0  0  0  0  0  0  0
   10.7971   -2.8801   -2.6027 H   0  0  0  0  0  0  0  0  0  0  0  0
    7.6938   -1.9564   -0.3855 H   0  0  0  0  0  0  0  0  0  0  0  0
   -0.7339    1.0446    2.6495 H   0  0  0  0  0  0  0  0  0  0  0  0
   -2.4081    0.5944    3.0719 H   0  0  0  0  0  0  0  0  0  0  0  0
   -2.0397    3.0698    3.0393 H   0  0  0  0  0  0  0  0  0  0  0  0
   -2.5026    2.5197    4.6490 H   0  0  0  0  0  0  0  0  0  0  0  0
   -0.8124    2.9010    4.3011 H   0  0  0  0  0  0  0  0  0  0  0  0
    0.6813   -0.3410    0.8420 H   0  0  0  0  0  0  0  0  0  0  0  0
   -0.2938   -0.8928    2.2341 H   0  0  0  0  0  0  0  0  0  0  0  0
    2.0958   -2.3708    1.0508 H   0  0  0  0  0  0  0  0  0  0  0  0
    1.1945   -2.8691    2.4889 H   0  0  0  0  0  0  0  0  0  0  0  0
    0.3991   -2.8199    0.9098 H   0  0  0  0  0  0  0  0  0  0  0  0
    6.2984   -3.4938   -2.8821 H   0  0  0  0  0  0  0  0  0  0  0  0
    6.7725   -5.5538   -4.1341 H   0  0  0  0  0  0  0  0  0  0  0  0
    4.4580   -7.0916   -6.5664 H   0  0  0  0  0  0  0  0  0  0  0  0
    5.9823   -6.3442   -7.0441 H   0  0  0  0  0  0  0  0  0  0  0  0
    5.9179   -7.3471   -5.5957 H   0  0  0  0  0  0  0  0  0  0  0  0
    3.2467   -4.9515   -6.4559 H   0  0  0  0  0  0  0  0  0  0  0  0
    2.7806   -2.8822   -5.2247 H   0  0  0  0  0  0  0  0  0  0  0  0
    2.1910   -3.2553   -2.5944 H   0  0  0  0  0  0  0  0  0  0  0  0
   -0.0553   -2.3805   -2.1295 H   0  0  0  0  0  0  0  0  0  0  0  0
   -1.4383   -0.4451   -1.5452 H   0  0  0  0  0  0  0  0  0  0  0  0
   -0.8700    1.2003   -1.8739 H   0  0  0  0  0  0  0  0  0  0  0  0
   -1.5162    0.2101   -3.1785 H   0  0  0  0  0  0  0  0  0  0  0  0
    1.2728    1.5586   -3.0809 H   0  0  0  0  0  0  0  0  0  0  0  0
    3.5186    0.6911   -3.5538 H   0  0  0  0  0  0  0  0  0  0  0  0
   11.4791    1.0063   -2.9404 H   0  0  0  0  0  0  0  0  0  0  0  0
   11.5915    2.7098   -1.1784 H   0  0  0  0  0  0  0  0  0  0  0  0
    9.2652    4.3806    0.1610 H   0  0  0  0  0  0  0  0  0  0  0  0
    9.4351    5.6817   -1.0149 H   0  0  0  0  0  0  0  0  0  0  0  0
   10.8737    4.8925   -0.3490 H   0  0  0  0  0  0  0  0  0  0  0  0
    8.0231    4.5036   -2.6739 H   0  0  0  0  0  0  0  0  0  0  0  0
    7.8987    2.7918   -4.4341 H   0  0  0  0  0  0  0  0  0  0  0  0
   10.4024   -1.7386   -5.2367 H   0  0  0  0  0  0  0  0  0  0  0  0
   12.4392   -2.3675   -6.4486 H   0  0  0  0  0  0  0  0  0  0  0  0
   15.1493   -0.1077   -7.2962 H   0  0  0  0  0  0  0  0  0  0  0  0
   14.5600   -1.7742   -7.4141 H   0  0  0  0  0  0  0  0  0  0  0  0
   14.1069   -0.5805   -8.6323 H   0  0  0  0  0  0  0  0  0  0  0  0
   13.4590    1.7510   -6.8898 H   0  0  0  0  0  0  0  0  0  0  0  0
   11.4066    2.3887   -5.7045 H   0  0  0  0  0  0  0  0  0  0  0  0
    9.4244    0.1729   -7.3207 H   0  0  0  0  0  0  0  0  0  0  0  0
    6.7087   -4.8538   -9.9070 H   0  0  0  0  0  0  0  0  0  0  0  0
   10.4760   -2.2704  -12.0930 H   0  0  0  0  0  0  0  0  0  0  0  0
   10.1949   -5.4014  -13.4826 H   0  0  0  0  0  0  0  0  0  0  0  0
    9.3408   -4.1018  -15.4267 H   0  0  0  0  0  0  0  0  0  0  0  0
    7.5930   -2.4047  -14.4765 H   0  0  0  0  0  0  0  0  0  0  0  0
    5.6168   -3.7835  -13.3598 H   0  0  0  0  0  0  0  0  0  0  0  0
    6.1455   -6.3319  -13.6243 H   0  0  0  0  0  0  0  0  0  0  0  0
    7.1832   -5.5523  -15.9322 H   0  0  0  0  0  0  0  0  0  0  0  0
    8.3732   -6.5942  -15.1124 H   0  0  0  0  0  0  0  0  0  0  0  0
    8.2758   -6.7444  -12.4016 H   0  0  0  0  0  0  0  0  0  0  0  0
  1  2  2  0  0  0  0
  2  3  1  0  0  0  0
  3  4  2  0  0  0  0
  3  5  1  0  0  0  0
  5  6  2  0  0  0  0
  6  7  1  0  0  0  0
  7  8  2  0  0  0  0
  8  9  1  0  0  0  0
  9 10  2  0  0  0  0
 10 11  1  0  0  0  0
 11 12  2  0  0  0  0
 12 13  1  0  0  0  0
 13 14  3  0  0  0  0
 12 15  1  0  0  0  0
 15 16  3  0  0  0  0
  8 17  1  0  0  0  0
 17 18  1  0  0  0  0
 18 19  1  0  0  0  0
 19 20  2  0  0  0  0
 20 21  1  0  0  0  0
 21 22  1  0  0  0  0
 21 23  1  0  0  0  0
  1 24  1  0  0  0  0
 24 25  1  0  0  0  0
 25 26  1  0  0  0  0
 26 27  1  0  0  0  0
 27 28  2  0  0  0  0
 28 29  1  0  0  0  0
 29 30  1  0  0  0  0
 30 31  1  0  0  0  0
 29 32  1  0  0  0  0
 32 33  1  0  0  0  0
 29 34  1  0  0  0  0
 34 35  1  0  0  0  0
 28 36  1  0  0  0  0
 36 37  2  0  0  0  0
 37 38  1  0  0  0  0
 37 39  1  0  0  0  0
 39 40  2  0  0  0  0
 40 41  1  0  0  0  0
 41 42  2  0  0  0  0
 42 43  1  0  0  0  0
 43 44  2  0  0  0  0
 44 45  1  0  0  0  0
 45 46  1  0  0  0  0
 46 47  1  0  0  0  0
 45 48  2  0  0  0  0
 40 49  1  0  0  0  0
 49 50  1  0  0  0  0
 50 51  1  0  0  0  0
 51 52  1  0  0  0  0
 52 53  1  0  0  0  0
 53 54  1  0  0  0  0
 54 55  2  0  0  0  0
 55 56  1  0  0  0  0
 56 57  1  0  0  0  0
 54 58  1  0  0  0  0
 58 59  1  0  0  0  0
 59 60  1  0  0  0  0
 60 61  1  0  0  0  0
 61 62  1  0  0  0  0
 62 63  1  0  0  0  0
 63 64  2  0  0  0  0
 64 65  1  0  0  0  0
 65 66  2  0  0  0  0
 66 67  1  0  0  0  0
 67 68  1  0  0  0  0
 68 69  1  0  0  0  0
 67 70  2  0  0  0  0
 62 71  2  0  0  0  0
 71 72  1  0  0  0  0
 72 73  1  0  0  0  0
 73 74  1  0  0  0  0
 74 75  1  0  0  0  0
 75 76  1  0  0  0  0
 76 77  1  0  0  0  0
 77 78  1  0  0  0  0
 78 79  1  0  0  0  0
 79 80  1  0  0  0  0
 80 81  1  0  0  0  0
 78 82  1  0  0  0  0
 82 83  1  0  0  0  0
 75 84  1  0  0  0  0
 84 85  1  0  0  0  0
 71 86  1  0  0  0  0
 86 87  2  0  0  0  0
 87 88  1  0  0  0  0
 88 89  1  0  0  0  0
 89 90  2  0  0  0  0
 90 91  1  0  0  0  0
 91 92  2  0  0  0  0
 92 93  1  0  0  0  0
 92 94  1  0  0  0  0
 94 95  2  0  0  0  0
 88 96  1  0  0  0  0
 96 97  2  0  0  0  0
 97 98  1  0  0  0  0
 98 99  2  0  0  0  0
 99100  1  0  0  0  0
 99101  1  0  0  0  0
101102  2  0  0  0  0
 87103  1  0  0  0  0
103104  1  0  0  0  0
104105  1  0  0  0  0
105106  2  0  0  0  0
106107  1  0  0  0  0
107108  1  0  0  0  0
108109  2  0  0  0  0
109110  1  0  0  0  0
110111  2  0  0  0  0
111112  1  0  0  0  0
111113  1  0  0  0  0
113114  2  0  0  0  0
107115  1  0  0  0  0
115116  2  0  0  0  0
116117  1  0  0  0  0
117118  2  0  0  0  0
118119  1  0  0  0  0
118120  1  0  0  0  0
120121  2  0  0  0  0
106122  1  0  0  0  0
122123  1  0  0  0  0
105124  1  0  0  0  0
124125  2  0  0  0  0
125126  1  0  0  0  0
126127  2  0  0  0  0
126128  1  0  0  0  0
128129  2  0  0  0  0
129130  1  0  0  0  0
130131  2  0  0  0  0
131132  1  0  0  0  0
132133  2  0  0  0  0
133134  1  0  0  0  0
134135  2  0  0  0  0
135136  1  0  0  0  0
136137  3  0  0  0  0
135138  1  0  0  0  0
138139  3  0  0  0  0
131140  1  0  0  0  0
140141  1  0  0  0  0
141142  1  0  0  0  0
142143  2  0  0  0  0
143144  1  0  0  0  0
144145  1  0  0  0  0
144146  1  0  0  0  0
 11  2  1  0  0  0  0
 23 17  1  0  0  0  0
 35 24  2  0  0  0  0
 81 39  1  0  0  0  0
123 86  1  0  0  0  0
134125  1  0  0  0  0
146140  1  0  0  0  0
 10  5  1  0  0  0  0
 22 18  1  0  0  0  0
 34 26  2  0  0  0  0
 48 41  1  0  0  0  0
 80 49  2  0  0  0  0
 95 89  1  0  0  0  0
102 96  1  0  0  0  0
122103  2  0  0  0  0
133128  1  0  0  0  0
145141  1  0  0  0  0
 23  7  1  0  0  0  0
 38 27  1  0  0  0  0
 79 51  2  0  0  0  0
114108  1  0  0  0  0
121115  1  0  0  0  0
146130  1  0  0  0  0
 77 52  2  0  0  0  0
 57 53  2  0  0  0  0
 76 58  2  0  0  0  0
 74 59  2  0  0  0  0
 73 61  2  0  0  0  0
 70 63  1  0  0  0  0
  1147  1  0  0  0  0
  6148  1  0  0  0  0
  9149  1  0  0  0  0
 17150  1  0  0  0  0
 18151  1  0  0  0  0
 19152  1  0  0  0  0
 20153  1  0  0  0  0
 21154  1  0  0  0  0
 22155  1  0  0  0  0
 22156  1  0  0  0  0
 23157  1  0  0  0  0
 30158  1  0  0  0  0
 30159  1  0  0  0  0
 31160  1  0  0  0  0
 31161  1  0  0  0  0
 31162  1  0  0  0  0
 32163  1  0  0  0  0
 32164  1  0  0  0  0
 33165  1  0  0  0  0
 33166  1  0  0  0  0
 33167  1  0  0  0  0
 35168  1  0  0  0  0
 36169  1  0  0  0  0
 42170  1  0  0  0  0
 43171  1  0  0  0  0
 44172  1  0  0  0  0
 46173  1  0  0  0  0
 46174  1  0  0  0  0
 47175  1  0  0  0  0
 47176  1  0  0  0  0
 47177  1  0  0  0  0
 48178  1  0  0  0  0
 64179  1  0  0  0  0
 65180  1  0  0  0  0
 66181  1  0  0  0  0
 68182  1  0  0  0  0
 68183  1  0  0  0  0
 69184  1  0  0  0  0
 69185  1  0  0  0  0
 69186  1  0  0  0  0
 70187  1  0  0  0  0
 82188  1  0  0  0  0
 82189  1  0  0  0  0
 83190  1  0  0  0  0
 83191  1  0  0  0  0
 83192  1  0  0  0  0
 84193  1  0  0  0  0
 84194  1  0  0  0  0
 85195  1  0  0  0  0
 85196  1  0  0  0  0
 85197  1  0  0  0  0
 90198  1  0  0  0  0
 91199  1  0  0  0  0
 93200  1  0  0  0  0
 93201  1  0  0  0  0
 93202  1  0  0  0  0
 94203  1  0  0  0  0
 95204  1  0  0  0  0
 97205  1  0  0  0  0
 98206  1  0  0  0  0
100207  1  0  0  0  0
100208  1  0  0  0  0
100209  1  0  0  0  0
101210  1  0  0  0  0
102211  1  0  0  0  0
109212  1  0  0  0  0
110213  1  0  0  0  0
112214  1  0  0  0  0
112215  1  0  0  0  0
112216  1  0  0  0  0
113217  1  0  0  0  0
114218  1  0  0  0  0
116219  1  0  0  0  0
117220  1  0  0  0  0
119221  1  0  0  0  0
119222  1  0  0  0  0
119223  1  0  0  0  0
120224  1  0  0  0  0
121225  1  0  0  0  0
124226  1  0  0  0  0
129227  1  0  0  0  0
132228  1  0  0  0  0
140229  1  0  0  0  0
141230  1  0  0  0  0
142231  1  0  0  0  0
143232  1  0  0  0  0
144233  1  0  0  0  0
145234  1  0  0  0  0
145235  1  0  0  0  0
146236  1  0  0  0  0
M  END
