242

C          6.23640        1.05260       -2.21270
C          5.67500        2.27330       -2.01110
C          4.73920        2.63930       -0.91760
O          4.44200        1.98380        0.06190
C          4.16280        3.93940       -1.30390
C          3.17590        4.66000       -0.62850
C          2.80770        5.83040       -1.24790
C          3.36510        6.24410       -2.46630
C          4.33920        5.55090       -3.14230
C          4.73890        4.36540       -2.51840
C          5.72070        3.37980       -2.94750
C          6.58650        3.51250       -4.00010
C          7.58280        2.57820       -4.35710
N          8.42120        1.87990       -4.71480
C          6.62560        4.62510       -4.86640
N          6.71590        5.49960       -5.60490
C          2.52060        7.48910       -2.52780
C          3.24270        8.80460       -2.16910
C          2.11670        9.75980       -1.85500
C          1.58330        9.38470       -0.69960
C          2.34280        8.17100       -0.21130
C          3.74050        8.50630       -0.74870
C          1.90200        7.03860       -1.16470
C          6.27080       -0.03060       -1.29540
S          6.09770       -1.64770       -1.92690
C          6.11640       -2.35230       -0.32990
C          6.32860       -1.35630        0.63210
C          6.41440       -1.59420        2.06390
O          6.49310       -2.71860        2.55160
C          6.35990       -0.38140        2.87640
C          6.16200       -0.36310        4.23490
C          6.06520       -1.50400        5.18240
C          7.45490       -1.88740        5.69950
S          6.08180        1.26370        4.82280
C          6.36000        1.92620        3.24510
C          6.32550        3.39520        3.02870
C          4.87710        3.86240        2.85500
C          6.47580        0.93100        2.31260
C          6.74730        1.13520        0.88780
O          7.26010        2.13530        0.42430
C          6.41280       -0.05480        0.07700
C          5.76100       -3.71300       -0.20970
S          5.62780       -4.57720        1.31430
C          4.79590       -5.84530        0.51400
C          3.88940       -6.86190        0.90140
C          3.20450       -7.31850       -0.21040
C          3.71900       -6.65410       -1.47550
C          4.67970       -5.64970       -0.86750
C          5.24990       -4.46200       -1.27360
C          4.42810       -7.59270       -2.42410
C          5.14100       -7.07850       -3.50100
C          5.80130       -7.92250       -4.37200
C          5.76980       -9.30020       -4.19250
C          6.45440      -10.21450       -5.16690
C          5.53000      -10.52990       -6.34470
C          5.05110       -9.80860       -3.11980
C          4.38920       -8.96740       -2.24320
C          2.52870       -5.94380       -2.10620
C          1.89390       -4.94350       -1.37810
C          0.73110       -4.36430       -1.84110
C          0.15820       -4.77330       -3.03930
C         -1.12170       -4.14990       -3.51660
C         -0.86850       -2.76490       -4.11400
C          0.81080       -5.74940       -3.77760
C          1.98190       -6.33080       -3.32000
C          1.94230       -7.86690        0.11430
C          0.87160       -8.12750       -0.74940
C         -0.39390       -7.96520       -0.24080
S         -1.81950       -7.64690       -1.22960
C         -2.53730       -6.82400        0.12170
C         -3.39370       -5.69420        0.24770
C         -3.20650       -5.12470        1.50010
C         -2.27690       -5.97360        2.34250
C         -1.03570       -5.18030        2.73030
C         -0.37210       -4.45960        1.74290
C          0.81480       -3.81250        2.01730
C          1.38420       -3.86960        3.28450
C          2.68890       -3.17930        3.56460
C          2.54820       -1.65900        3.48380
C          0.70840       -4.57230        4.27110
C         -0.48530       -5.22190        4.00190
C         -3.00530       -6.56330        3.52840
C         -3.63970       -5.72590        4.43850
C         -4.31170       -6.25040        5.52510
C         -4.36880       -7.62300        5.73400
C         -5.13980       -8.19110        6.89010
C         -6.60470       -8.40190        6.50190
C         -3.73430       -8.45480        4.82220
C         -3.05930       -7.93440        3.73250
C         -1.84800       -6.99500        1.30540
C         -0.61960       -7.67360        1.13410
C          0.43970       -7.75280        2.04240
C          1.70820       -7.78310        1.51720
S          3.13800       -7.27560        2.41010
C         -3.68460       -3.81580        1.57320
C         -4.24720       -3.39720        0.39110
S         -4.24770       -4.65820       -0.82690
C         -4.47560       -2.01440        0.04980
C         -3.48030       -1.08940        0.08930
C         -3.89410        0.21520       -0.27730
C         -3.09700        1.35820       -0.40280
C         -1.63760        1.32700       -0.21580
C         -1.04850        0.88770        0.96330
C          0.33210        0.87960        1.07960
C          1.13180        1.29320        0.03190
C          0.54430        1.73150       -1.15280
S          1.62460        2.20020       -2.47260
C          0.54310        3.20650       -3.55970
C          1.38880        3.89870       -4.61060
C         -0.83560        1.75040       -1.27110
C         -3.74340        2.53120       -0.75880
C         -5.13810        2.59580       -1.01410
C         -5.92730        1.42490       -0.96820
C         -7.35280        1.44400       -1.31250
C         -7.79720        2.07090       -2.47380
C         -9.14470        2.06320       -2.79050
C        -10.05300        1.41750       -1.97520
C         -9.61360        0.77470       -0.82040
S        -10.82810       -0.04190        0.16600
C         -9.83660       -1.24890        1.12840
C        -10.75370       -2.33230        1.66260
C         -8.27060        0.80740       -0.48190
C         -5.27960        0.26370       -0.58220
S         -6.00420       -1.32680       -0.44950
C         -5.55040        3.92270       -1.23310
C         -4.53320        4.85210       -1.13670
S         -2.98280        4.09360       -0.82860
C         -4.77530        6.24300       -1.20820
C         -3.95950        7.28590       -0.88390
C         -2.58380        7.19900       -0.35540
O         -1.79910        6.27550       -0.45900
C         -2.32470        8.49170        0.29790
C         -1.23360        8.81880        1.10000
C         -1.26340       10.10450        1.58480
C         -2.29960       11.00150        1.29000
C         -3.38540       10.68860        0.50660
C         -3.37950        9.38140        0.00940
C         -4.36640        8.68080       -0.80760
C         -5.45100        9.24900       -1.41930
C         -6.35790        8.56260       -2.25530
N         -7.12780        8.07200       -2.95180
C         -5.78590       10.61700       -1.33300
N         -6.11450       11.71640       -1.30470
C         -1.68370       12.10610        2.11260
C         -2.31280       12.36620        3.49770
C         -1.24170       13.12910        4.24370
C         -0.26060       12.28010        4.52150
C         -0.65180       10.92890        3.96790
C         -2.17170       10.99270        4.16670
C         -0.52820       11.10620        2.43970
H          6.64790        0.82980       -3.19020
H          2.74780        4.29160        0.29070
H          4.74890        5.87930       -4.08290
H          1.86670        7.58240       -3.39290
H          3.97700        9.13310       -2.89940
H          1.79560       10.54890       -2.50940
H          0.72750        9.80270       -0.20390
H          2.25940        7.93510        0.84670
H          4.44910        7.68240       -0.69030
H          4.16610        9.38670       -0.26960
H          0.83500        6.82690       -1.11440
H          5.42430       -1.22970        6.02310
H          5.63790       -2.36380        4.66320
H          8.08030       -2.20960        4.87120
H          7.92790       -1.04030        6.19230
H          7.37230       -2.70520        6.40990
H          6.77980        3.90790        3.87930
H          6.89370        3.62630        2.12700
H          4.85090        4.92960        2.64950
H          4.42210        3.33020        2.02320
H          4.29970        3.66320        3.75610
H          5.23010       -4.07510       -2.27710
H          5.17230       -6.01170       -3.66110
H          6.35350       -7.50600       -5.20240
H          6.73340      -11.14510       -4.66880
H          7.36420       -9.74090       -5.54130
H          6.02570      -11.19130       -7.05130
H          5.25090       -9.61490       -6.86250
H          4.62160      -11.01470       -5.99350
H          5.01050      -10.87720       -2.96330
H          3.83920       -9.38570       -1.41300
H          2.30610       -4.63460       -0.42860
H          0.25010       -3.59030       -1.25970
H         -1.81650       -4.05590       -2.67790
H         -1.58640       -4.79020       -4.26830
H         -0.41720       -2.10630       -3.37480
H         -0.19340       -2.83760       -4.96380
H         -1.80320       -2.32080       -4.44910
H          0.39000       -6.07730       -4.71760
H          2.45810       -7.10350       -3.90620
H          1.03650       -8.26780       -1.80480
H         -0.78270       -4.42480        0.74400
H          1.31470       -3.26170        1.23340
H          3.43750       -3.50660        2.83800
H          3.04470       -3.45980        4.55760
H          2.22690       -1.35780        2.48940
H          1.81390       -1.30790        4.20640
H          3.50030       -1.17760        3.69390
H          1.12640       -4.63010        5.26610
H         -0.97830       -5.77570        4.78780
H         -3.59750       -4.65630        4.30000
H         -4.79700       -5.58450        6.22460
H         -5.08810       -7.50870        7.74110
H         -4.70620       -9.14670        7.19110
H         -7.05900       -7.45730        6.21110
H         -6.67780       -9.08870        5.66150
H         -7.16470       -8.81440        7.33790
H         -3.76460       -9.52540        4.96640
H         -2.56990       -8.60110        3.03790
H          0.27470       -7.60700        3.09690
H         -3.58180       -3.16360        2.42160
H         -2.46660       -1.33680        0.34870
H         -1.66840        0.57640        1.79120
H          0.78910        0.55310        2.00200
H          2.20750        1.28770        0.12280
H         -0.17750        2.53830       -4.03210
H          0.02980        3.92850       -2.92410
H          2.11270        4.56160       -4.14320
H          1.92700        3.16680       -5.20890
H          0.75000        4.48430       -5.26830
H         -1.31240        2.06710       -2.18460
H         -7.08500        2.53890       -3.13660
H         -9.48720        2.55350       -3.68930
H        -11.10290        1.39620       -2.22270
H         -9.08860       -1.66470        0.45320
H         -9.34840       -0.71720        1.94610
H        -11.51310       -1.90350        2.31240
H        -11.25140       -2.84550        0.84350
H        -10.17500       -3.05760        2.23090
H         -7.92370        0.36650        0.43870
H         -6.57360        4.20710       -1.40640
H         -5.79850        6.48120       -1.47580
H         -0.46000        8.09480        1.30290
H         -4.18000       11.38540        0.29840
H         -1.44480       13.02110        1.57430
H         -3.30310       12.81230        3.47130
H         -1.28240       14.18460        4.43800
H          0.68230       12.48450        4.99370
H         -0.12910       10.06510        4.37010
H         -2.44800       11.01790        5.21950
H         -2.71950       10.19600        3.66630
H          0.48260       11.35460        2.12040
