
  xtb     02132214573D
 energy: -270.005208700007 gnorm: 0.000264569275 xtb: 6.4.1 (unknown)
154173  0     0  0            999 V2000
   -1.3645    8.9105   -5.4539 C   0  0  0  0  0  0  0  0  0  0  0  0
   -1.2686    8.0925   -6.5273 C   0  0  0  0  0  0  0  0  0  0  0  0
   -0.7965    6.6749   -6.4848 C   0  0  0  0  0  0  0  0  0  0  0  0
   -0.3821    6.0611   -5.5270 O   0  0  0  0  0  0  0  0  0  0  0  0
   -0.8362    6.1993   -7.8767 C   0  0  0  0  0  0  0  0  0  0  0  0
   -0.5329    4.9132   -8.3195 C   0  0  0  0  0  0  0  0  0  0  0  0
   -0.6654    4.7432   -9.6755 C   0  0  0  0  0  0  0  0  0  0  0  0
   -1.0650    5.7795  -10.5325 C   0  0  0  0  0  0  0  0  0  0  0  0
   -1.3630    7.0522  -10.1097 C   0  0  0  0  0  0  0  0  0  0  0  0
   -1.2364    7.2486   -8.7295 C   0  0  0  0  0  0  0  0  0  0  0  0
   -1.4727    8.4444   -7.9285 C   0  0  0  0  0  0  0  0  0  0  0  0
   -1.8418    9.6691   -8.4152 C   0  0  0  0  0  0  0  0  0  0  0  0
   -2.0206    9.9676   -9.7837 C   0  0  0  0  0  0  0  0  0  0  0  0
   -2.1773   10.2897  -10.8742 N   0  0  0  0  0  0  0  0  0  0  0  0
   -2.0861   10.8226   -7.6391 C   0  0  0  0  0  0  0  0  0  0  0  0
   -2.3045   11.8053   -7.0866 N   0  0  0  0  0  0  0  0  0  0  0  0
   -0.9779    4.9052  -11.7581 C   0  0  0  0  0  0  0  0  0  0  0  0
    0.2539    5.0775  -12.6811 C   0  0  0  0  0  0  0  0  0  0  0  0
    1.3712    5.6009  -11.8128 C   0  0  0  0  0  0  0  0  0  0  0  0
    1.7470    4.6209  -11.0019 C   0  0  0  0  0  0  0  0  0  0  0  0
    0.8905    3.4167  -11.3071 C   0  0  0  0  0  0  0  0  0  0  0  0
    0.6831    3.6078  -12.8180 C   0  0  0  0  0  0  0  0  0  0  0  0
   -0.5354    3.7516  -10.8035 C   0  0  0  0  0  0  0  0  0  0  0  0
   -1.2662    8.4837   -4.0739 C   0  0  0  0  0  0  0  0  0  0  0  0
   -1.8755    7.2964   -3.6372 C   0  0  0  0  0  0  0  0  0  0  0  0
   -1.6955    6.9066   -2.3343 C   0  0  0  0  0  0  0  0  0  0  0  0
   -2.1814    5.6763   -1.6560 C   0  0  0  0  0  0  0  0  0  0  0  0
   -2.9241    4.8295   -2.0899 O   0  0  0  0  0  0  0  0  0  0  0  0
   -1.5479    5.7314   -0.3113 C   0  0  0  0  0  0  0  0  0  0  0  0
   -0.8260    6.9336   -0.1770 C   0  0  0  0  0  0  0  0  0  0  0  0
   -0.9188    7.6658   -1.4339 C   0  0  0  0  0  0  0  0  0  0  0  0
   -0.3760    8.8697   -1.8425 C   0  0  0  0  0  0  0  0  0  0  0  0
   -0.5689    9.2738   -3.1560 C   0  0  0  0  0  0  0  0  0  0  0  0
   -0.1396    7.1907    0.9959 C   0  0  0  0  0  0  0  0  0  0  0  0
   -0.1481    6.2373    2.0035 C   0  0  0  0  0  0  0  0  0  0  0  0
   -0.8426    5.0315    1.8661 C   0  0  0  0  0  0  0  0  0  0  0  0
   -1.5624    4.7880    0.6857 C   0  0  0  0  0  0  0  0  0  0  0  0
   -0.7606    3.9862    2.8655 C   0  0  0  0  0  0  0  0  0  0  0  0
   -0.5795    4.0579    4.2323 C   0  0  0  0  0  0  0  0  0  0  0  0
   -0.6291    5.2890    5.0227 C   0  0  0  0  0  0  0  0  0  0  0  0
    0.2646    5.4924    6.0705 C   0  0  0  0  0  0  0  0  0  0  0  0
    0.2073    6.6606    6.8071 C   0  0  0  0  0  0  0  0  0  0  0  0
   -0.7311    7.6325    6.5066 C   0  0  0  0  0  0  0  0  0  0  0  0
   -1.6401    7.4397    5.4734 C   0  0  0  0  0  0  0  0  0  0  0  0
   -2.6301    8.5046    5.0987 C   0  0  0  0  0  0  0  0  0  0  0  0
   -2.1159    9.3034    3.8990 C   0  0  0  0  0  0  0  0  0  0  0  0
   -1.5856    6.2614    4.7460 C   0  0  0  0  0  0  0  0  0  0  0  0
   -0.4071    2.7709    4.7925 C   0  0  0  0  0  0  0  0  0  0  0  0
   -0.1303    2.1963    6.4219 S   0  0  0  0  0  0  0  0  0  0  0  0
   -0.0849    0.5688    5.8265 C   0  0  0  0  0  0  0  0  0  0  0  0
    0.0996   -0.7444    6.2993 C   0  0  0  0  0  0  0  0  0  0  0  0
    0.2087   -1.3129    7.5900 C   0  0  0  0  0  0  0  0  0  0  0  0
    0.2572   -2.7474    7.7292 C   0  0  0  0  0  0  0  0  0  0  0  0
    0.2808   -3.1285    8.9958 N   0  0  0  0  0  0  0  0  0  0  0  0
    0.2551   -1.8090    9.9342 S   0  0  0  0  0  0  0  0  0  0  0  0
    0.2094   -0.6961    8.7604 N   0  0  0  0  0  0  0  0  0  0  0  0
    0.3474   -3.5538    6.5702 C   0  0  0  0  0  0  0  0  0  0  0  0
    0.5676   -4.9256    6.3600 C   0  0  0  0  0  0  0  0  0  0  0  0
    0.7098   -6.3968    7.2642 S   0  0  0  0  0  0  0  0  0  0  0  0
    1.0145   -7.2672    5.7719 C   0  0  0  0  0  0  0  0  0  0  0  0
    1.3077   -8.6023    5.4797 C   0  0  0  0  0  0  0  0  0  0  0  0
    1.4462   -9.6361    6.5015 C   0  0  0  0  0  0  0  0  0  0  0  0
    2.5178  -10.5278    6.4862 C   0  0  0  0  0  0  0  0  0  0  0  0
    2.6370  -11.4778    7.4829 C   0  0  0  0  0  0  0  0  0  0  0  0
    1.6993  -11.5484    8.4982 C   0  0  0  0  0  0  0  0  0  0  0  0
    0.6329  -10.6578    8.5387 C   0  0  0  0  0  0  0  0  0  0  0  0
   -0.4066  -10.7502    9.6176 C   0  0  0  0  0  0  0  0  0  0  0  0
   -1.5502  -11.6667    9.1779 C   0  0  0  0  0  0  0  0  0  0  0  0
    0.5180   -9.7067    7.5374 C   0  0  0  0  0  0  0  0  0  0  0  0
    1.4861   -8.8028    4.0990 C   0  0  0  0  0  0  0  0  0  0  0  0
    1.3166   -7.2971    3.1983 S   0  0  0  0  0  0  0  0  0  0  0  0
    0.9972   -6.4310    4.6448 C   0  0  0  0  0  0  0  0  0  0  0  0
    0.7434   -5.1040    4.9794 C   0  0  0  0  0  0  0  0  0  0  0  0
    0.6249   -3.9064    4.3215 N   0  0  0  0  0  0  0  0  0  0  0  0
    0.3497   -2.9540    5.2808 C   0  0  0  0  0  0  0  0  0  0  0  0
    0.0568   -1.5818    5.1542 C   0  0  0  0  0  0  0  0  0  0  0  0
   -0.2188   -0.8232    4.0325 N   0  0  0  0  0  0  0  0  0  0  0  0
   -0.2879    0.4817    4.4449 C   0  0  0  0  0  0  0  0  0  0  0  0
   -0.4772    1.7380    3.8588 C   0  0  0  0  0  0  0  0  0  0  0  0
   -0.7562    2.3359    2.2678 S   0  0  0  0  0  0  0  0  0  0  0  0
   -0.9396   -1.2644    2.8544 C   0  0  0  0  0  0  0  0  0  0  0  0
   -2.4254   -0.9210    2.9561 C   0  0  0  0  0  0  0  0  0  0  0  0
    1.3305   -3.7038    3.0683 C   0  0  0  0  0  0  0  0  0  0  0  0
    2.8378   -3.8669    3.2561 C   0  0  0  0  0  0  0  0  0  0  0  0
    1.6677  -10.0485    3.4780 C   0  0  0  0  0  0  0  0  0  0  0  0
    1.9050  -10.3631    2.1598 C   0  0  0  0  0  0  0  0  0  0  0  0
    2.1099   -9.4671    1.1044 C   0  0  0  0  0  0  0  0  0  0  0  0
    2.3235   -9.8320   -0.2079 C   0  0  0  0  0  0  0  0  0  0  0  0
    2.4155  -11.2195   -0.7005 C   0  0  0  0  0  0  0  0  0  0  0  0
    2.2646  -12.2555   -0.0865 O   0  0  0  0  0  0  0  0  0  0  0  0
    2.7494  -11.1043   -2.1410 C   0  0  0  0  0  0  0  0  0  0  0  0
    2.9681  -12.1137   -3.0538 C   0  0  0  0  0  0  0  0  0  0  0  0
    3.2807  -11.7655   -4.3636 C   0  0  0  0  0  0  0  0  0  0  0  0
    3.5606  -12.9963   -5.5307 Cl  0  0  0  0  0  0  0  0  0  0  0  0
    3.3660  -10.4188   -4.7204 C   0  0  0  0  0  0  0  0  0  0  0  0
    3.7976   -9.9432   -6.5004 Br  0  0  0  0  0  0  0  0  0  0  0  0
    3.1421   -9.4018   -3.7997 C   0  0  0  0  0  0  0  0  0  0  0  0
    2.8291   -9.7476   -2.4961 C   0  0  0  0  0  0  0  0  0  0  0  0
    2.5367   -8.9331   -1.3151 C   0  0  0  0  0  0  0  0  0  0  0  0
    2.4502   -7.5607   -1.3154 C   0  0  0  0  0  0  0  0  0  0  0  0
    2.6777   -6.7564   -2.4515 C   0  0  0  0  0  0  0  0  0  0  0  0
    2.8514   -6.0389   -3.3313 N   0  0  0  0  0  0  0  0  0  0  0  0
    2.1005   -6.7383   -0.2284 C   0  0  0  0  0  0  0  0  0  0  0  0
    1.8102   -5.9649    0.5724 N   0  0  0  0  0  0  0  0  0  0  0  0
   -1.5064    9.9730   -5.6061 H   0  0  0  0  0  0  0  0  0  0  0  0
   -0.2325    4.1464   -7.6228 H   0  0  0  0  0  0  0  0  0  0  0  0
   -1.6707    7.8349  -10.7825 H   0  0  0  0  0  0  0  0  0  0  0  0
   -1.9018    4.7782  -12.3186 H   0  0  0  0  0  0  0  0  0  0  0  0
    0.0579    5.6300  -13.5960 H   0  0  0  0  0  0  0  0  0  0  0  0
    1.7236    6.6154  -11.8381 H   0  0  0  0  0  0  0  0  0  0  0  0
    2.4762    4.6527  -10.2137 H   0  0  0  0  0  0  0  0  0  0  0  0
    1.2740    2.4570  -10.9712 H   0  0  0  0  0  0  0  0  0  0  0  0
    1.6037    3.4895  -13.3872 H   0  0  0  0  0  0  0  0  0  0  0  0
   -0.0921    2.9659  -13.2342 H   0  0  0  0  0  0  0  0  0  0  0  0
   -1.1705    2.8704  -10.7391 H   0  0  0  0  0  0  0  0  0  0  0  0
   -2.4840    6.7046   -4.3022 H   0  0  0  0  0  0  0  0  0  0  0  0
    0.1980    9.4826   -1.1640 H   0  0  0  0  0  0  0  0  0  0  0  0
   -0.1312   10.2017   -3.4957 H   0  0  0  0  0  0  0  0  0  0  0  0
    0.4216    8.1040    1.1244 H   0  0  0  0  0  0  0  0  0  0  0  0
    0.4189    6.4154    2.9044 H   0  0  0  0  0  0  0  0  0  0  0  0
   -2.1109    3.8666    0.5541 H   0  0  0  0  0  0  0  0  0  0  0  0
    1.0097    4.7445    6.2951 H   0  0  0  0  0  0  0  0  0  0  0  0
    0.9034    6.8161    7.6179 H   0  0  0  0  0  0  0  0  0  0  0  0
   -0.7627    8.5466    7.0818 H   0  0  0  0  0  0  0  0  0  0  0  0
   -2.7901    9.1790    5.9418 H   0  0  0  0  0  0  0  0  0  0  0  0
   -3.5868    8.0461    4.8402 H   0  0  0  0  0  0  0  0  0  0  0  0
   -1.9678    8.6486    3.0425 H   0  0  0  0  0  0  0  0  0  0  0  0
   -2.8270   10.0790    3.6249 H   0  0  0  0  0  0  0  0  0  0  0  0
   -1.1647    9.7738    4.1392 H   0  0  0  0  0  0  0  0  0  0  0  0
   -2.2990    6.0922    3.9519 H   0  0  0  0  0  0  0  0  0  0  0  0
    3.2713  -10.4506    5.7164 H   0  0  0  0  0  0  0  0  0  0  0  0
    3.4711  -12.1636    7.4707 H   0  0  0  0  0  0  0  0  0  0  0  0
    1.8009  -12.2941    9.2733 H   0  0  0  0  0  0  0  0  0  0  0  0
    0.0421  -11.1464   10.5304 H   0  0  0  0  0  0  0  0  0  0  0  0
   -0.8030   -9.7564    9.8335 H   0  0  0  0  0  0  0  0  0  0  0  0
   -2.3029  -11.7363    9.9594 H   0  0  0  0  0  0  0  0  0  0  0  0
   -1.1755  -12.6658    8.9665 H   0  0  0  0  0  0  0  0  0  0  0  0
   -2.0202  -11.2802    8.2763 H   0  0  0  0  0  0  0  0  0  0  0  0
   -0.3131   -9.0168    7.5515 H   0  0  0  0  0  0  0  0  0  0  0  0
   -0.8438   -2.3445    2.7613 H   0  0  0  0  0  0  0  0  0  0  0  0
   -0.5057   -0.7790    1.9744 H   0  0  0  0  0  0  0  0  0  0  0  0
   -2.5772    0.1535    3.0049 H   0  0  0  0  0  0  0  0  0  0  0  0
   -2.8561   -1.3754    3.8461 H   0  0  0  0  0  0  0  0  0  0  0  0
   -2.9451   -1.3026    2.0819 H   0  0  0  0  0  0  0  0  0  0  0  0
    1.1386   -2.6990    2.7002 H   0  0  0  0  0  0  0  0  0  0  0  0
    0.9744   -4.4382    2.3412 H   0  0  0  0  0  0  0  0  0  0  0  0
    3.0822   -4.8692    3.5968 H   0  0  0  0  0  0  0  0  0  0  0  0
    3.3335   -3.7010    2.3044 H   0  0  0  0  0  0  0  0  0  0  0  0
    3.2124   -3.1478    3.9821 H   0  0  0  0  0  0  0  0  0  0  0  0
    1.5808  -10.8883    4.1575 H   0  0  0  0  0  0  0  0  0  0  0  0
    1.9482  -11.4141    1.9140 H   0  0  0  0  0  0  0  0  0  0  0  0
    2.1284   -8.4085    1.3205 H   0  0  0  0  0  0  0  0  0  0  0  0
    2.8982  -13.1480   -2.7566 H   0  0  0  0  0  0  0  0  0  0  0  0
    3.2200   -8.3757   -4.1206 H   0  0  0  0  0  0  0  0  0  0  0  0
  1  2  2  0  0  0  0
  2  3  1  0  0  0  0
  3  4  2  0  0  0  0
  3  5  1  0  0  0  0
  5  6  2  0  0  0  0
  6  7  1  0  0  0  0
  7  8  2  0  0  0  0
  8  9  1  0  0  0  0
  9 10  2  0  0  0  0
 10 11  1  0  0  0  0
 11 12  2  0  0  0  0
 12 13  1  0  0  0  0
 13 14  3  0  0  0  0
 12 15  1  0  0  0  0
 15 16  3  0  0  0  0
  8 17  1  0  0  0  0
 17 18  1  0  0  0  0
 18 19  1  0  0  0  0
 19 20  2  0  0  0  0
 20 21  1  0  0  0  0
 21 22  1  0  0  0  0
 21 23  1  0  0  0  0
  1 24  1  0  0  0  0
 24 25  2  0  0  0  0
 25 26  1  0  0  0  0
 26 27  1  0  0  0  0
 27 28  2  0  0  0  0
 27 29  1  0  0  0  0
 29 30  2  0  0  0  0
 30 31  1  0  0  0  0
 31 32  1  0  0  0  0
 32 33  2  0  0  0  0
 30 34  1  0  0  0  0
 34 35  2  0  0  0  0
 35 36  1  0  0  0  0
 36 37  2  0  0  0  0
 36 38  1  0  0  0  0
 38 39  2  0  0  0  0
 39 40  1  0  0  0  0
 40 41  2  0  0  0  0
 41 42  1  0  0  0  0
 42 43  2  0  0  0  0
 43 44  1  0  0  0  0
 44 45  1  0  0  0  0
 45 46  1  0  0  0  0
 44 47  2  0  0  0  0
 39 48  1  0  0  0  0
 48 49  1  0  0  0  0
 49 50  1  0  0  0  0
 50 51  1  0  0  0  0
 51 52  1  0  0  0  0
 52 53  1  0  0  0  0
 53 54  2  0  0  0  0
 54 55  1  0  0  0  0
 55 56  1  0  0  0  0
 53 57  1  0  0  0  0
 57 58  1  0  0  0  0
 58 59  1  0  0  0  0
 59 60  1  0  0  0  0
 60 61  1  0  0  0  0
 61 62  1  0  0  0  0
 62 63  2  0  0  0  0
 63 64  1  0  0  0  0
 64 65  2  0  0  0  0
 65 66  1  0  0  0  0
 66 67  1  0  0  0  0
 67 68  1  0  0  0  0
 66 69  2  0  0  0  0
 61 70  2  0  0  0  0
 70 71  1  0  0  0  0
 71 72  1  0  0  0  0
 72 73  1  0  0  0  0
 73 74  1  0  0  0  0
 74 75  1  0  0  0  0
 75 76  1  0  0  0  0
 76 77  1  0  0  0  0
 77 78  1  0  0  0  0
 78 79  1  0  0  0  0
 79 80  1  0  0  0  0
 77 81  1  0  0  0  0
 81 82  1  0  0  0  0
 74 83  1  0  0  0  0
 83 84  1  0  0  0  0
 70 85  1  0  0  0  0
 85 86  2  0  0  0  0
 86 87  1  0  0  0  0
 87 88  2  0  0  0  0
 88 89  1  0  0  0  0
 89 90  2  0  0  0  0
 89 91  1  0  0  0  0
 91 92  2  0  0  0  0
 92 93  1  0  0  0  0
 93 94  1  0  0  0  0
 93 95  2  0  0  0  0
 95 96  1  0  0  0  0
 95 97  1  0  0  0  0
 97 98  2  0  0  0  0
 98 99  1  0  0  0  0
 99100  2  0  0  0  0
100101  1  0  0  0  0
101102  3  0  0  0  0
100103  1  0  0  0  0
103104  3  0  0  0  0
 11  2  1  0  0  0  0
 23 17  1  0  0  0  0
 33 24  1  0  0  0  0
 80 38  1  0  0  0  0
 99 88  1  0  0  0  0
 10  5  1  0  0  0  0
 22 18  1  0  0  0  0
 31 26  2  0  0  0  0
 47 40  1  0  0  0  0
 79 48  2  0  0  0  0
 98 91  1  0  0  0  0
 23  7  1  0  0  0  0
 37 29  1  0  0  0  0
 78 50  2  0  0  0  0
 76 51  2  0  0  0  0
 56 52  2  0  0  0  0
 75 57  2  0  0  0  0
 73 58  2  0  0  0  0
 72 60  2  0  0  0  0
 69 62  1  0  0  0  0
  1105  1  0  0  0  0
  6106  1  0  0  0  0
  9107  1  0  0  0  0
 17108  1  0  0  0  0
 18109  1  0  0  0  0
 19110  1  0  0  0  0
 20111  1  0  0  0  0
 21112  1  0  0  0  0
 22113  1  0  0  0  0
 22114  1  0  0  0  0
 23115  1  0  0  0  0
 25116  1  0  0  0  0
 32117  1  0  0  0  0
 33118  1  0  0  0  0
 34119  1  0  0  0  0
 35120  1  0  0  0  0
 37121  1  0  0  0  0
 41122  1  0  0  0  0
 42123  1  0  0  0  0
 43124  1  0  0  0  0
 45125  1  0  0  0  0
 45126  1  0  0  0  0
 46127  1  0  0  0  0
 46128  1  0  0  0  0
 46129  1  0  0  0  0
 47130  1  0  0  0  0
 63131  1  0  0  0  0
 64132  1  0  0  0  0
 65133  1  0  0  0  0
 67134  1  0  0  0  0
 67135  1  0  0  0  0
 68136  1  0  0  0  0
 68137  1  0  0  0  0
 68138  1  0  0  0  0
 69139  1  0  0  0  0
 81140  1  0  0  0  0
 81141  1  0  0  0  0
 82142  1  0  0  0  0
 82143  1  0  0  0  0
 82144  1  0  0  0  0
 83145  1  0  0  0  0
 83146  1  0  0  0  0
 84147  1  0  0  0  0
 84148  1  0  0  0  0
 84149  1  0  0  0  0
 85150  1  0  0  0  0
 86151  1  0  0  0  0
 87152  1  0  0  0  0
 92153  1  0  0  0  0
 97154  1  0  0  0  0
M  END
