183

C        -10.01140        1.27440       -1.62760
C        -10.61140        0.44880       -0.73580
C        -10.07770       -0.84230       -0.22420
O         -9.19150       -1.52810       -0.68380
C        -10.81850       -1.10220        1.02630
C        -10.58590       -2.13970        1.92650
C        -11.41060       -2.12390        3.02490
C        -12.39490       -1.14460        3.21950
C        -12.63440       -0.11530        2.34160
C        -11.80700       -0.11500        1.21360
C        -11.74690        0.81910        0.09690
C        -12.63040        1.83310       -0.15890
C        -12.57480        2.68740       -1.28160
N        -12.61260        3.41450       -2.17010
C        -13.74260        2.14340        0.65140
N        -14.66350        2.44700        1.26620
C        -12.84020       -1.74010        4.53160
C        -14.15000       -2.56620        4.54230
C        -14.31990       -3.11830        3.14870
C        -13.38980       -4.04550        2.96420
C        -12.57350       -4.13690        4.22980
C        -13.65700       -3.82480        5.27420
C        -11.74490       -2.83130        4.31410
C         -8.88290        1.00710       -2.47670
C         -7.99900        2.08810       -2.71690
O         -8.29240        3.22700       -2.03590
C         -8.08500        4.50100       -2.63020
C         -9.02070        4.72130       -3.81400
C         -6.85420        1.87640       -3.49420
O         -5.92320        2.88370       -3.63900
C         -5.64090        3.31450       -4.96600
C         -4.40960        4.20250       -4.91840
C         -6.61630        0.60720       -4.04770
C         -7.55670       -0.41240       -3.89070
C         -8.66760       -0.21910       -3.10730
C         -5.32410        0.30150       -4.64030
C         -5.01540       -0.43270       -5.76560
C         -5.99090       -0.87360       -6.76160
C         -7.10170       -0.09230       -7.07510
C         -8.00380       -0.52290       -8.02810
C         -7.81030       -1.72790       -8.68120
C         -6.70490       -2.51660       -8.38950
C         -6.50380       -3.84340       -9.06310
C         -7.13220       -4.96450       -8.23300
C         -5.80600       -2.08120       -7.42820
C         -3.61920       -0.65960       -5.85290
S         -2.59700       -1.48520       -7.00990
C         -1.21190       -1.12250       -6.03270
C          0.16740       -1.40970       -5.96970
C          1.02660       -2.23450       -6.73130
C          2.36600       -2.49070       -6.25850
N          3.01510       -3.34730       -7.03080
S          2.04340       -3.78630       -8.24860
N          0.74910       -2.90610       -7.83750
C          2.84040       -1.80940       -5.11460
C          4.07030       -1.79030       -4.42460
S          5.59640       -2.61150       -4.41620
C          6.07560       -1.68750       -3.00920
C          7.22330       -1.69520       -2.18350
C          8.43550       -2.46210       -2.45470
C          8.36680       -3.74940       -2.98280
C          9.52890       -4.46040       -3.21460
C         10.76230       -3.90610       -2.91740
C         10.85130       -2.61810       -2.40370
C         12.17210       -2.02180       -2.01200
C         12.37090       -2.13660       -0.49870
C          9.68360       -1.90240       -2.19060
C          7.07770       -0.81890       -1.12280
S          5.57070        0.08760       -1.19290
C          5.10030       -0.77400       -2.60920
C          3.96050       -0.82890       -3.41670
N          2.71870       -0.24340       -3.44630
C          2.00850       -0.87220       -4.45230
C          0.64180       -0.79200       -4.78560
N         -0.40850       -0.18200       -4.12250
C         -1.52880       -0.38730       -4.88900
C         -2.89850       -0.11360       -4.79310
S         -3.91800        0.73260       -3.68810
C         -0.54980       -0.03800       -2.68670
C         -1.20950       -1.27120       -2.06940
C          2.53620        1.12520       -3.00400
C          3.54260        2.06340       -3.66970
C          7.87510       -0.61030        0.04820
C          8.49680       -1.52590        0.87750
C          8.52020       -3.01590        0.73510
C          7.11590       -3.61560        0.80170
C          9.02580       -0.87990        2.00730
C          8.80360        0.50180        2.06810
S          7.94860        1.03890        0.66680
C          9.24620        1.11110        3.23470
C          9.81780        0.19830        4.10510
S          9.84080       -1.43340        3.41780
C         10.33300        0.32040        5.41080
C         10.24060        1.33810        6.31940
C          9.46180        2.59470        6.22690
O          8.97860        3.12300        5.24600
C          9.36890        3.10920        7.60620
C          8.63240        4.21280        8.03250
C          8.69860        4.43900        9.38590
C          9.44620        3.63030       10.25300
C         10.18830        2.54830        9.84370
C         10.13200        2.29880        8.46860
C         10.76420        1.25040        7.67380
C         11.73120        0.38910        8.12190
C         12.42420       -0.54880        7.32660
N         13.05130       -1.31910        6.74980
C         12.21410        0.35610        9.44690
N         12.64860        0.26880       10.50610
C          9.03560        4.41960       11.47140
C          7.94860        3.78700       12.36630
C          7.41760        4.95230       13.16950
C          6.71200        5.71990       12.34870
C          6.75430        5.08610       10.97700
C          6.79400        3.60440       11.37260
C          8.20470        5.32260       10.50430
H        -10.35160        2.30250       -1.66430
H         -9.81240       -2.86870        1.74180
H        -13.38580        0.63850        2.50930
H        -12.75020       -1.09380        5.40260
H        -15.00770       -2.04640        4.96060
H        -15.03980       -2.74830        2.44230
H        -13.17670       -4.60560        2.07260
H        -11.99580       -5.04770        4.36430
H        -14.41810       -4.60110        5.33650
H        -13.25720       -3.62100        6.26670
H        -10.93950       -2.89750        5.04330
H         -8.32050        5.20380       -1.82660
H         -7.03960        4.63250       -2.91870
H         -8.87170        5.71710       -4.22220
H         -8.82900        3.98660       -4.59470
H        -10.05690        4.62030       -3.49800
H         -5.46200        2.45560       -5.62430
H         -6.50160        3.87420       -5.36030
H         -4.18000        4.56530       -5.91620
H         -4.58350        5.05000       -4.26080
H         -3.56260        3.63810       -4.53760
H         -7.36900       -1.37020       -4.34990
H         -9.37830       -1.01640       -2.97430
H         -7.25120        0.85650       -6.58140
H         -8.86160        0.08830       -8.26750
H         -8.51910       -2.05570       -9.42790
H         -6.96160       -3.82860      -10.05400
H         -5.43610       -4.03790       -9.18130
H         -6.67840       -5.00400       -7.24530
H         -6.98700       -5.92570       -8.72040
H         -8.19980       -4.79370       -8.11210
H         -4.95270       -2.69750       -7.18670
H          7.40680       -4.19590       -3.19030
H          9.47180       -5.45910       -3.62120
H         11.66410       -4.47580       -3.08850
H         12.20260       -0.96850       -2.29910
H         12.98360       -2.54040       -2.52510
H         13.32680       -1.70910       -0.20640
H         12.34950       -3.18010       -0.19210
H         11.57920       -1.61040        0.03050
H          9.74180       -0.89220       -1.81190
H         -1.16000        0.84890       -2.49060
H          0.43010        0.08840       -2.23370
H         -2.21480       -1.41190       -2.45630
H         -1.26880       -1.15080       -0.99130
H         -0.62230       -2.15990       -2.29150
H          2.65710        1.16770       -1.91620
H          1.53270        1.45030       -3.27670
H          3.33550        3.08740       -3.37140
H          3.46410        1.99110       -4.75250
H          4.55940        1.81870       -3.37600
H          9.12360       -3.41780        1.55220
H          8.99120       -3.30240       -0.20560
H          6.50610       -3.26230       -0.02560
H          7.17460       -4.69940        0.74680
H          6.62810       -3.34080        1.73440
H          9.14530        2.15550        3.46220
H         10.81890       -0.58490        5.75770
H          8.07010        4.80780        7.33000
H         10.75780        1.93580       10.52260
H          9.84560        4.87130       12.04050
H          8.27160        2.91340       12.92590
H          7.64830        5.12210       14.20470
H          6.23570        6.65910       12.56130
H          5.98850        5.39610       10.27090
H          5.87590        3.28470       11.86290
H          7.01970        2.93050       10.54810
H          8.46110        6.37750       10.42730
