203

C          8.58620       -7.70870       -0.52370
C          9.09850       -7.17680       -1.66110
C          8.26950       -6.71530       -2.81360
O          7.09600       -6.94290       -3.02000
C          9.21120       -6.08840       -3.75480
C          8.89170       -5.43910       -4.94540
C          9.98300       -5.02100       -5.66690
C         11.30040       -5.25010       -5.24470
C         11.62910       -5.87840       -4.06740
C         10.53170       -6.29890       -3.30800
C         10.49290       -6.99160       -2.02260
C         11.58160       -7.33960       -1.26890
C         11.53070       -7.99220       -0.01800
N         11.58230       -8.51660        1.00210
C         12.92170       -7.09400       -1.63590
N         14.03360       -6.92390       -1.86590
C         11.89060       -4.61530       -6.47910
C         12.42910       -5.55690       -7.58530
C         11.65860       -6.84850       -7.46850
C         10.41440       -6.61570       -7.86460
C         10.32060       -5.16110       -8.25530
C         11.73630       -4.93820       -8.81030
C         10.42320       -4.34640       -6.94220
C          7.20400       -7.55490       -0.16090
C          6.48340       -8.52930        0.51520
F          7.09520       -9.67050        0.86290
C          5.12510       -8.39900        0.81040
F          4.55640       -9.38910        1.51650
C          4.38310       -7.28430        0.42270
C          5.13840       -6.20340       -0.13250
N          4.53090       -5.03640       -0.34240
C          5.18910       -4.01370       -0.84530
C          4.45900       -2.76850       -0.92400
S          2.76060       -2.78500       -1.26150
C          2.62560       -1.06980       -1.10750
C          1.33900       -0.34340       -1.30500
C          0.60040       -0.81820       -2.55330
C          3.83980       -0.53280       -0.78770
C          4.87580       -1.48550       -0.67970
F          6.12630       -1.15640       -0.32810
F          4.03390        0.77820       -0.58720
C          6.56390       -4.17190       -1.20050
N          7.19050       -5.29380       -0.92450
C          6.52180       -6.33280       -0.41830
C          7.37160       -3.18010       -1.87040
S          9.07700       -3.15970       -1.55810
C          9.34200       -1.85460       -2.65710
C         10.68610       -1.24780       -2.86290
C         11.61420       -2.18950       -3.63070
C          8.17080       -1.50880       -3.26830
F          8.08100       -0.54240       -4.19320
C          7.05460       -2.25280       -2.82810
F          5.82460       -2.07770       -3.32910
C          2.97350       -7.13550        0.59540
C          1.98340       -8.11020        0.70360
C          2.14460       -9.52280        0.36850
C          1.51900      -10.50920        1.12480
C          1.65700      -11.83730        0.76950
C          2.40820      -12.19120       -0.33700
C          3.03030      -11.21820       -1.11100
C          3.80900      -11.59260       -2.33930
C          2.89460      -11.61920       -3.56570
C          2.88380       -9.88820       -0.75470
C          0.73910       -7.53430        1.00870
S         -0.85710       -8.21340        1.24310
C         -1.48810       -6.61090        1.41000
C         -2.72690       -5.96380        1.53770
C         -4.05030       -6.45850        1.52080
C         -5.14170       -5.52880        1.41980
N         -6.31490       -6.13560        1.33260
S         -6.07160       -7.73520        1.38310
N         -4.45800       -7.71750        1.51170
C         -4.86850       -4.14390        1.46390
C         -5.70560       -3.01440        1.42120
S         -7.37940       -2.62270        1.20900
C         -6.97980       -0.92740        1.35810
C         -7.74740        0.25350        1.25030
C         -9.17740        0.24550        0.93070
C        -10.03860       -0.61830        1.59970
C        -11.38450       -0.63010        1.28280
C        -11.87790        0.20820        0.29930
C        -11.02860        1.06750       -0.38850
C        -11.54780        1.93980       -1.49500
C        -11.48700        1.19750       -2.83140
C         -9.68050        1.07270       -0.06920
C         -6.96040        1.37750        1.39340
S         -5.26710        0.98600        1.64520
C         -5.62020       -0.70080        1.56900
C         -4.89080       -1.89550        1.60470
N         -3.58190       -2.27830        1.75180
C         -3.54280       -3.65900        1.63140
C         -2.45930       -4.56540        1.53540
N         -1.10000       -4.37520        1.37800
C         -0.51350       -5.61170        1.30320
C          0.76220       -6.13720        1.08080
S          2.33770       -5.50910        0.75190
C         -0.37250       -3.20300        0.94310
C          0.62840       -2.72370        1.99480
C         -2.67990       -1.42600        2.49690
C         -3.19800       -1.16950        3.91230
C         -7.33730        2.77460        1.38720
C         -6.42910        3.73120        0.90670
C         -6.80060        5.05330        0.89190
C         -6.03280        6.23610        0.41900
O         -4.91510        6.25960       -0.03820
C         -6.95480        7.38220        0.64050
C         -8.16080        6.91250        1.20280
C         -8.06480        5.46710        1.35590
C         -8.95280        4.53100        1.85340
C         -8.58050        3.19570        1.87020
C         -9.18070        7.80120        1.48630
C         -8.98180        9.15110        1.23750
C         -7.78160        9.62780        0.70150
C         -6.76440        8.71420        0.37000
C         -7.55530       11.02610        0.42290
C         -7.95350       12.09280        1.15590
C         -8.45700       12.05980        2.55990
O         -8.83690       11.10370        3.19850
C         -8.33430       13.44390        3.05240
C         -8.60710       13.89120        4.34410
C         -8.39230       15.23510        4.52870
C         -7.93470       16.07740        3.50460
C         -7.66800       15.65250        2.22570
C         -7.88280       14.28630        2.01580
C         -7.71110       13.48840        0.80980
C         -7.45850       13.96770       -0.44610
C         -7.26070       15.33040       -0.75590
N         -7.08590       16.41850       -1.07630
C         -7.40900       13.17560       -1.61440
N         -7.37800       12.60520       -2.61010
C         -7.92250       17.29050        4.39930
C         -6.55410       17.77050        4.94390
C         -5.65840       16.55740        4.98880
C         -6.09730       15.76500        5.95760
C         -7.29900       16.42770        6.58490
C         -6.90230       17.90510        6.43500
C         -8.43810       16.35480        5.53790
H          9.21260       -8.25120        0.17180
H          7.86340       -5.30280       -5.24230
H         12.64760       -6.04490       -3.75910
H         12.54410       -3.76090       -6.31490
H         13.51180       -5.64490       -7.61270
H         12.07040       -7.75700       -7.06950
H          9.57860       -7.29050       -7.86210
H          9.48370       -4.88750       -8.89240
H         11.98200       -3.88830       -8.96400
H         11.92200       -5.49720       -9.72600
H         10.10910       -3.31190       -7.07030
H          0.69940       -0.49600       -0.43030
H          1.55690        0.72420       -1.37690
H          1.20310       -0.64200       -3.43980
H         -0.33770       -0.28110       -2.65940
H          0.38990       -1.88260       -2.48530
H         11.12830       -1.01890       -1.89070
H         10.56270       -0.31490       -3.41730
H         11.75300       -3.11740       -3.08000
H         11.18820       -2.42490       -4.60270
H         12.58300       -1.71990       -3.77570
H          0.95120      -10.23440        2.00030
H          1.17930      -12.60210        1.36350
H          2.51760      -13.23250       -0.60380
H          4.25960      -12.57760       -2.20350
H          4.61070      -10.86960       -2.50430
H          3.45800      -11.89680       -4.45350
H          2.45160      -10.63920       -3.72810
H          2.09120      -12.33870       -3.42390
H          3.34660       -9.12060       -1.36060
H         -9.65570       -1.26560        2.37430
H        -12.05190       -1.29710        1.80800
H        -12.93150        0.19640        0.05990
H        -10.94740        2.84980       -1.55990
H        -12.58120        2.22510       -1.28820
H        -10.46390        0.90210       -3.05270
H        -11.84730        1.83320       -3.63670
H        -12.10100        0.30060       -2.79450
H         -9.00680        1.72630       -0.60520
H          0.18630       -3.47340        0.03930
H         -1.08720       -2.42470        0.67300
H          1.42830       -3.45030        2.10170
H          0.16150       -2.59410        2.96870
H          1.06520       -1.77750        1.68810
H         -1.71160       -1.90710        2.57060
H         -2.57940       -0.47590        1.96180
H         -3.33260       -2.11170        4.43950
H         -2.48020       -0.56230        4.45710
H         -4.14800       -0.64320        3.89250
H         -5.45720        3.43330        0.54090
H         -9.91970        4.82610        2.23140
H         -9.26110        2.46170        2.27320
H        -10.11910        7.45890        1.89500
H         -9.78240        9.84510        1.43390
H         -5.83730        9.05650       -0.06580
H         -6.94300       11.21420       -0.45220
H         -8.95580       13.20860        5.10330
H         -7.31390       16.30970        1.44900
H         -8.55800       18.11760        4.08970
H         -6.15130       18.64600        4.44190
H         -4.85640       16.37920        4.29660
H         -5.73570       14.79250        6.23640
H         -7.57500       16.08150        7.57740
H         -7.72120       18.59640        6.62880
H         -6.04170       18.17370        7.04560
H         -9.41400       16.56800        5.96950
