
  xtb     02142205173D
 energy: -289.992006217220 gnorm: 0.000885182017 xtb: 6.4.1 (unknown)
167189  0     0  0            999 V2000
   -7.8060   -0.4340   10.6320 C   0  0  0  0  0  0  0  0  0  0  0  0
   -9.0722   -0.6754   11.0463 C   0  0  0  0  0  0  0  0  0  0  0  0
  -10.0718   -1.5239   10.3340 C   0  0  0  0  0  0  0  0  0  0  0  0
   -9.8796   -2.3288    9.4500 O   0  0  0  0  0  0  0  0  0  0  0  0
  -11.3817   -1.1269   10.8820 C   0  0  0  0  0  0  0  0  0  0  0  0
  -12.6297   -1.5847   10.4605 C   0  0  0  0  0  0  0  0  0  0  0  0
  -13.6872   -1.0368   11.1444 C   0  0  0  0  0  0  0  0  0  0  0  0
  -13.5205   -0.0984   12.1735 C   0  0  0  0  0  0  0  0  0  0  0  0
  -12.2981    0.3590   12.6023 C   0  0  0  0  0  0  0  0  0  0  0  0
  -11.2060   -0.1878   11.9188 C   0  0  0  0  0  0  0  0  0  0  0  0
   -9.7800    0.0530   12.0914 C   0  0  0  0  0  0  0  0  0  0  0  0
   -9.1954    0.7593   13.1063 C   0  0  0  0  0  0  0  0  0  0  0  0
   -7.8012    0.8760   13.2984 C   0  0  0  0  0  0  0  0  0  0  0  0
   -6.6836    1.0001   13.5287 N   0  0  0  0  0  0  0  0  0  0  0  0
   -9.9060    1.4263   14.1268 C   0  0  0  0  0  0  0  0  0  0  0  0
  -10.4250    1.9867   14.9836 N   0  0  0  0  0  0  0  0  0  0  0  0
  -15.0053    0.0327   12.4029 C   0  0  0  0  0  0  0  0  0  0  0  0
  -15.6836    1.2938   11.8266 C   0  0  0  0  0  0  0  0  0  0  0  0
  -17.1487    0.9245   11.7751 C   0  0  0  0  0  0  0  0  0  0  0  0
  -17.3068    0.0354   10.8030 C   0  0  0  0  0  0  0  0  0  0  0  0
  -15.9513   -0.2112   10.1806 C   0  0  0  0  0  0  0  0  0  0  0  0
  -15.3319    1.1836   10.3373 C   0  0  0  0  0  0  0  0  0  0  0  0
  -15.1911   -1.0142   11.2579 C   0  0  0  0  0  0  0  0  0  0  0  0
   -7.0859   -1.1572    9.6093 C   0  0  0  0  0  0  0  0  0  0  0  0
   -6.2831   -0.4322    8.7113 C   0  0  0  0  0  0  0  0  0  0  0  0
   -5.6418   -1.1091    7.7033 C   0  0  0  0  0  0  0  0  0  0  0  0
   -4.8093   -0.5776    6.5898 C   0  0  0  0  0  0  0  0  0  0  0  0
   -4.5103    0.5720    6.3712 O   0  0  0  0  0  0  0  0  0  0  0  0
   -4.4406   -1.7835    5.7997 C   0  0  0  0  0  0  0  0  0  0  0  0
   -4.9777   -2.9297    6.4182 C   0  0  0  0  0  0  0  0  0  0  0  0
   -5.7351   -2.5120    7.5890 C   0  0  0  0  0  0  0  0  0  0  0  0
   -6.4750   -3.2342    8.5061 C   0  0  0  0  0  0  0  0  0  0  0  0
   -7.1508   -2.5497    9.5044 C   0  0  0  0  0  0  0  0  0  0  0  0
   -4.7457   -4.1792    5.8732 C   0  0  0  0  0  0  0  0  0  0  0  0
   -4.0280   -4.2689    4.6915 C   0  0  0  0  0  0  0  0  0  0  0  0
   -3.5492   -3.1295    4.0356 C   0  0  0  0  0  0  0  0  0  0  0  0
   -3.7281   -1.8696    4.6273 C   0  0  0  0  0  0  0  0  0  0  0  0
   -2.8942   -3.2414    2.7503 C   0  0  0  0  0  0  0  0  0  0  0  0
   -3.1556   -4.1365    1.7345 C   0  0  0  0  0  0  0  0  0  0  0  0
   -4.2582   -5.1021    1.7253 C   0  0  0  0  0  0  0  0  0  0  0  0
   -4.0444   -6.4128    1.3110 C   0  0  0  0  0  0  0  0  0  0  0  0
   -5.0930   -7.3138    1.3143 C   0  0  0  0  0  0  0  0  0  0  0  0
   -6.3534   -6.9195    1.7279 C   0  0  0  0  0  0  0  0  0  0  0  0
   -6.5887   -5.6085    2.1243 C   0  0  0  0  0  0  0  0  0  0  0  0
   -7.9397   -5.1726    2.6143 C   0  0  0  0  0  0  0  0  0  0  0  0
   -7.9652   -5.1362    4.1439 C   0  0  0  0  0  0  0  0  0  0  0  0
   -5.5358   -4.7075    2.1101 C   0  0  0  0  0  0  0  0  0  0  0  0
   -2.2813   -3.9463    0.6432 C   0  0  0  0  0  0  0  0  0  0  0  0
   -2.1496   -4.7298   -0.9124 S   0  0  0  0  0  0  0  0  0  0  0  0
   -0.8743   -3.6346   -1.3242 C   0  0  0  0  0  0  0  0  0  0  0  0
   -0.0038   -3.3725   -2.3937 C   0  0  0  0  0  0  0  0  0  0  0  0
    0.1799   -4.0526   -3.6161 C   0  0  0  0  0  0  0  0  0  0  0  0
    1.2166   -3.6120   -4.5022 C   0  0  0  0  0  0  0  0  0  0  0  0
    1.3088   -4.3634   -5.5885 N   0  0  0  0  0  0  0  0  0  0  0  0
    0.1824   -5.5238   -5.5040 S   0  0  0  0  0  0  0  0  0  0  0  0
   -0.4650   -5.1129   -4.0778 N   0  0  0  0  0  0  0  0  0  0  0  0
    1.9534   -2.4570   -4.1645 C   0  0  0  0  0  0  0  0  0  0  0  0
    2.9209   -1.7472   -4.8927 C   0  0  0  0  0  0  0  0  0  0  0  0
    3.7596   -1.8510   -6.4031 S   0  0  0  0  0  0  0  0  0  0  0  0
    4.5528   -0.3391   -6.0339 C   0  0  0  0  0  0  0  0  0  0  0  0
    5.4721    0.4542   -6.7526 C   0  0  0  0  0  0  0  0  0  0  0  0
    5.9241    0.1346   -8.1095 C   0  0  0  0  0  0  0  0  0  0  0  0
    6.3750   -1.1446   -8.4186 C   0  0  0  0  0  0  0  0  0  0  0  0
    6.8197   -1.4241   -9.6972 C   0  0  0  0  0  0  0  0  0  0  0  0
    6.8192   -0.4392  -10.6693 C   0  0  0  0  0  0  0  0  0  0  0  0
    6.3493    0.8367  -10.3834 C   0  0  0  0  0  0  0  0  0  0  0  0
    6.3799    1.9274  -11.4151 C   0  0  0  0  0  0  0  0  0  0  0  0
    7.5264    2.8995  -11.1290 C   0  0  0  0  0  0  0  0  0  0  0  0
    5.8939    1.1083   -9.1030 C   0  0  0  0  0  0  0  0  0  0  0  0
    5.8151    1.5910   -6.0502 C   0  0  0  0  0  0  0  0  0  0  0  0
    4.9715    1.7049   -4.5129 S   0  0  0  0  0  0  0  0  0  0  0  0
    4.1746    0.1995   -4.8041 C   0  0  0  0  0  0  0  0  0  0  0  0
    3.2378   -0.6113   -4.1474 C   0  0  0  0  0  0  0  0  0  0  0  0
    2.5275   -0.6038   -2.9765 N   0  0  0  0  0  0  0  0  0  0  0  0
    1.7249   -1.7353   -2.9588 C   0  0  0  0  0  0  0  0  0  0  0  0
    0.7975   -2.2582   -2.0160 C   0  0  0  0  0  0  0  0  0  0  0  0
    0.4355   -1.8842   -0.7296 N   0  0  0  0  0  0  0  0  0  0  0  0
   -0.5694   -2.7185   -0.3176 C   0  0  0  0  0  0  0  0  0  0  0  0
   -1.3762   -2.8991    0.8157 C   0  0  0  0  0  0  0  0  0  0  0  0
   -1.5869   -2.1401    2.3541 S   0  0  0  0  0  0  0  0  0  0  0  0
    1.1546   -1.1048    0.2528 C   0  0  0  0  0  0  0  0  0  0  0  0
    2.5507   -1.6703    0.5029 C   0  0  0  0  0  0  0  0  0  0  0  0
    2.4363    0.6206   -2.2144 C   0  0  0  0  0  0  0  0  0  0  0  0
    1.0696    1.2817   -2.3776 C   0  0  0  0  0  0  0  0  0  0  0  0
    6.7695    2.6166   -6.4053 C   0  0  0  0  0  0  0  0  0  0  0  0
    7.8866    2.3042   -7.2004 C   0  0  0  0  0  0  0  0  0  0  0  0
    8.7407    3.3153   -7.5635 C   0  0  0  0  0  0  0  0  0  0  0  0
    9.9419    3.2508   -8.4389 C   0  0  0  0  0  0  0  0  0  0  0  0
   10.3858    2.2881   -9.0162 O   0  0  0  0  0  0  0  0  0  0  0  0
   10.4466    4.6505   -8.4714 C   0  0  0  0  0  0  0  0  0  0  0  0
    9.6002    5.4707   -7.6964 C   0  0  0  0  0  0  0  0  0  0  0  0
    8.5436    4.6439   -7.1333 C   0  0  0  0  0  0  0  0  0  0  0  0
    7.4750    4.9453   -6.3100 C   0  0  0  0  0  0  0  0  0  0  0  0
    6.6000    3.9295   -5.9563 C   0  0  0  0  0  0  0  0  0  0  0  0
    9.8486    6.8291   -7.6097 C   0  0  0  0  0  0  0  0  0  0  0  0
   10.9380    7.3473   -8.2901 C   0  0  0  0  0  0  0  0  0  0  0  0
   11.8098    6.5327   -9.0238 C   0  0  0  0  0  0  0  0  0  0  0  0
   11.5413    5.1580   -9.1270 C   0  0  0  0  0  0  0  0  0  0  0  0
   12.9186    7.1553   -9.7090 C   0  0  0  0  0  0  0  0  0  0  0  0
   14.1510    6.6409   -9.9255 C   0  0  0  0  0  0  0  0  0  0  0  0
   14.7313    5.4122   -9.2854 C   0  0  0  0  0  0  0  0  0  0  0  0
   14.2075    4.6836   -8.4758 O   0  0  0  0  0  0  0  0  0  0  0  0
   16.1119    5.3459   -9.7831 C   0  0  0  0  0  0  0  0  0  0  0  0
   17.2276    4.5045   -9.6420 C   0  0  0  0  0  0  0  0  0  0  0  0
   18.2851    4.9716  -10.3657 C   0  0  0  0  0  0  0  0  0  0  0  0
   17.9570    6.4345  -11.2222 S   0  0  0  0  0  0  0  0  0  0  0  0
   16.3563    6.4363  -10.6070 C   0  0  0  0  0  0  0  0  0  0  0  0
   15.2008    7.2775  -10.7240 C   0  0  0  0  0  0  0  0  0  0  0  0
   15.1388    8.4236  -11.4726 C   0  0  0  0  0  0  0  0  0  0  0  0
   16.2672    8.8723  -12.1927 C   0  0  0  0  0  0  0  0  0  0  0  0
   17.1814    9.2419  -12.7788 N   0  0  0  0  0  0  0  0  0  0  0  0
   14.0173    9.2625  -11.6162 C   0  0  0  0  0  0  0  0  0  0  0  0
   13.1444    9.9909  -11.7788 N   0  0  0  0  0  0  0  0  0  0  0  0
   -7.2817    0.4195   11.0467 H   0  0  0  0  0  0  0  0  0  0  0  0
  -12.7129   -2.3092    9.6655 H   0  0  0  0  0  0  0  0  0  0  0  0
  -12.1838    1.0822   13.3925 H   0  0  0  0  0  0  0  0  0  0  0  0
  -15.3543   -0.2192   13.4023 H   0  0  0  0  0  0  0  0  0  0  0  0
  -15.4296    2.2196   12.3352 H   0  0  0  0  0  0  0  0  0  0  0  0
  -17.8849    1.2943   12.4642 H   0  0  0  0  0  0  0  0  0  0  0  0
  -18.2016   -0.4860   10.5178 H   0  0  0  0  0  0  0  0  0  0  0  0
  -15.9415   -0.6558    9.1892 H   0  0  0  0  0  0  0  0  0  0  0  0
  -14.2643    1.2216   10.1285 H   0  0  0  0  0  0  0  0  0  0  0  0
  -15.8467    1.9318    9.7369 H   0  0  0  0  0  0  0  0  0  0  0  0
  -15.6646   -1.9654   11.4931 H   0  0  0  0  0  0  0  0  0  0  0  0
   -6.2038    0.6423    8.7875 H   0  0  0  0  0  0  0  0  0  0  0  0
   -6.5397   -4.3097    8.4459 H   0  0  0  0  0  0  0  0  0  0  0  0
   -7.7176   -3.1049   10.2342 H   0  0  0  0  0  0  0  0  0  0  0  0
   -5.1164   -5.0733    6.3508 H   0  0  0  0  0  0  0  0  0  0  0  0
   -3.8372   -5.2394    4.2606 H   0  0  0  0  0  0  0  0  0  0  0  0
   -3.3388   -0.9795    4.1547 H   0  0  0  0  0  0  0  0  0  0  0  0
   -3.0581   -6.7243    1.0019 H   0  0  0  0  0  0  0  0  0  0  0  0
   -4.9244   -8.3319    0.9958 H   0  0  0  0  0  0  0  0  0  0  0  0
   -7.1646   -7.6332    1.7366 H   0  0  0  0  0  0  0  0  0  0  0  0
   -8.7061   -5.8618    2.2551 H   0  0  0  0  0  0  0  0  0  0  0  0
   -8.1676   -4.1764    2.2293 H   0  0  0  0  0  0  0  0  0  0  0  0
   -7.7439   -6.1219    4.5479 H   0  0  0  0  0  0  0  0  0  0  0  0
   -8.9439   -4.8262    4.5020 H   0  0  0  0  0  0  0  0  0  0  0  0
   -7.2213   -4.4367    4.5197 H   0  0  0  0  0  0  0  0  0  0  0  0
   -5.7092   -3.6806    2.3994 H   0  0  0  0  0  0  0  0  0  0  0  0
    6.3948   -1.9066   -7.6540 H   0  0  0  0  0  0  0  0  0  0  0  0
    7.1780   -2.4149   -9.9342 H   0  0  0  0  0  0  0  0  0  0  0  0
    7.1836   -0.6630  -11.6613 H   0  0  0  0  0  0  0  0  0  0  0  0
    5.4339    2.4743  -11.4044 H   0  0  0  0  0  0  0  0  0  0  0  0
    6.5120    1.4941  -12.4080 H   0  0  0  0  0  0  0  0  0  0  0  0
    8.4738    2.3669  -11.0883 H   0  0  0  0  0  0  0  0  0  0  0  0
    7.3764    3.3950  -10.1714 H   0  0  0  0  0  0  0  0  0  0  0  0
    7.5854    3.6589  -11.9055 H   0  0  0  0  0  0  0  0  0  0  0  0
    5.5111    2.0921   -8.8691 H   0  0  0  0  0  0  0  0  0  0  0  0
    0.5741   -1.1591    1.1770 H   0  0  0  0  0  0  0  0  0  0  0  0
    1.1917   -0.0547   -0.0384 H   0  0  0  0  0  0  0  0  0  0  0  0
    3.1324   -1.7031   -0.4154 H   0  0  0  0  0  0  0  0  0  0  0  0
    2.4757   -2.6833    0.8916 H   0  0  0  0  0  0  0  0  0  0  0  0
    3.0749   -1.0578    1.2317 H   0  0  0  0  0  0  0  0  0  0  0  0
    2.6744    0.4409   -1.1659 H   0  0  0  0  0  0  0  0  0  0  0  0
    3.2074    1.2879   -2.6073 H   0  0  0  0  0  0  0  0  0  0  0  0
    0.2698    0.6137   -2.0668 H   0  0  0  0  0  0  0  0  0  0  0  0
    0.9065    1.5416   -3.4210 H   0  0  0  0  0  0  0  0  0  0  0  0
    1.0225    2.1900   -1.7829 H   0  0  0  0  0  0  0  0  0  0  0  0
    8.0777    1.2924   -7.5193 H   0  0  0  0  0  0  0  0  0  0  0  0
    7.3106    5.9508   -5.9531 H   0  0  0  0  0  0  0  0  0  0  0  0
    5.7513    4.1564   -5.3263 H   0  0  0  0  0  0  0  0  0  0  0  0
    9.2058    7.4784   -7.0348 H   0  0  0  0  0  0  0  0  0  0  0  0
   11.1409    8.4076   -8.2367 H   0  0  0  0  0  0  0  0  0  0  0  0
   12.1552    4.5114   -9.7321 H   0  0  0  0  0  0  0  0  0  0  0  0
   12.7187    8.1571  -10.0718 H   0  0  0  0  0  0  0  0  0  0  0  0
   17.2445    3.6095   -9.0482 H   0  0  0  0  0  0  0  0  0  0  0  0
   19.2610    4.5352  -10.4533 H   0  0  0  0  0  0  0  0  0  0  0  0
  1  2  2  0  0  0  0
  2  3  1  0  0  0  0
  3  4  2  0  0  0  0
  3  5  1  0  0  0  0
  5  6  2  0  0  0  0
  6  7  1  0  0  0  0
  7  8  2  0  0  0  0
  8  9  1  0  0  0  0
  9 10  2  0  0  0  0
 10 11  1  0  0  0  0
 11 12  2  0  0  0  0
 12 13  1  0  0  0  0
 13 14  3  0  0  0  0
 12 15  1  0  0  0  0
 15 16  3  0  0  0  0
  8 17  1  0  0  0  0
 17 18  1  0  0  0  0
 18 19  1  0  0  0  0
 19 20  2  0  0  0  0
 20 21  1  0  0  0  0
 21 22  1  0  0  0  0
 21 23  1  0  0  0  0
  1 24  1  0  0  0  0
 24 25  2  0  0  0  0
 25 26  1  0  0  0  0
 26 27  1  0  0  0  0
 27 28  2  0  0  0  0
 27 29  1  0  0  0  0
 29 30  2  0  0  0  0
 30 31  1  0  0  0  0
 31 32  1  0  0  0  0
 32 33  2  0  0  0  0
 30 34  1  0  0  0  0
 34 35  2  0  0  0  0
 35 36  1  0  0  0  0
 36 37  2  0  0  0  0
 36 38  1  0  0  0  0
 38 39  2  0  0  0  0
 39 40  1  0  0  0  0
 40 41  2  0  0  0  0
 41 42  1  0  0  0  0
 42 43  2  0  0  0  0
 43 44  1  0  0  0  0
 44 45  1  0  0  0  0
 45 46  1  0  0  0  0
 44 47  2  0  0  0  0
 39 48  1  0  0  0  0
 48 49  1  0  0  0  0
 49 50  1  0  0  0  0
 50 51  1  0  0  0  0
 51 52  1  0  0  0  0
 52 53  1  0  0  0  0
 53 54  2  0  0  0  0
 54 55  1  0  0  0  0
 55 56  1  0  0  0  0
 53 57  1  0  0  0  0
 57 58  1  0  0  0  0
 58 59  1  0  0  0  0
 59 60  1  0  0  0  0
 60 61  1  0  0  0  0
 61 62  1  0  0  0  0
 62 63  2  0  0  0  0
 63 64  1  0  0  0  0
 64 65  2  0  0  0  0
 65 66  1  0  0  0  0
 66 67  1  0  0  0  0
 67 68  1  0  0  0  0
 66 69  2  0  0  0  0
 61 70  2  0  0  0  0
 70 71  1  0  0  0  0
 71 72  1  0  0  0  0
 72 73  1  0  0  0  0
 73 74  1  0  0  0  0
 74 75  1  0  0  0  0
 75 76  1  0  0  0  0
 76 77  1  0  0  0  0
 77 78  1  0  0  0  0
 78 79  1  0  0  0  0
 79 80  1  0  0  0  0
 77 81  1  0  0  0  0
 81 82  1  0  0  0  0
 74 83  1  0  0  0  0
 83 84  1  0  0  0  0
 70 85  1  0  0  0  0
 85 86  2  0  0  0  0
 86 87  1  0  0  0  0
 87 88  1  0  0  0  0
 88 89  2  0  0  0  0
 88 90  1  0  0  0  0
 90 91  2  0  0  0  0
 91 92  1  0  0  0  0
 92 93  1  0  0  0  0
 93 94  2  0  0  0  0
 91 95  1  0  0  0  0
 95 96  2  0  0  0  0
 96 97  1  0  0  0  0
 97 98  2  0  0  0  0
 97 99  1  0  0  0  0
 99100  2  0  0  0  0
100101  1  0  0  0  0
101102  2  0  0  0  0
101103  1  0  0  0  0
103104  1  0  0  0  0
104105  2  0  0  0  0
105106  1  0  0  0  0
106107  1  0  0  0  0
107108  1  0  0  0  0
108109  2  0  0  0  0
109110  1  0  0  0  0
110111  3  0  0  0  0
109112  1  0  0  0  0
112113  3  0  0  0  0
 11  2  1  0  0  0  0
 23 17  1  0  0  0  0
 33 24  1  0  0  0  0
 80 38  1  0  0  0  0
 94 85  1  0  0  0  0
108100  1  0  0  0  0
 10  5  1  0  0  0  0
 22 18  1  0  0  0  0
 31 26  2  0  0  0  0
 47 40  1  0  0  0  0
 79 48  2  0  0  0  0
 92 87  2  0  0  0  0
107103  2  0  0  0  0
 23  7  1  0  0  0  0
 37 29  1  0  0  0  0
 78 50  2  0  0  0  0
 98 90  1  0  0  0  0
 76 51  2  0  0  0  0
 56 52  2  0  0  0  0
 75 57  2  0  0  0  0
 73 58  2  0  0  0  0
 72 60  2  0  0  0  0
 69 62  1  0  0  0  0
  1114  1  0  0  0  0
  6115  1  0  0  0  0
  9116  1  0  0  0  0
 17117  1  0  0  0  0
 18118  1  0  0  0  0
 19119  1  0  0  0  0
 20120  1  0  0  0  0
 21121  1  0  0  0  0
 22122  1  0  0  0  0
 22123  1  0  0  0  0
 23124  1  0  0  0  0
 25125  1  0  0  0  0
 32126  1  0  0  0  0
 33127  1  0  0  0  0
 34128  1  0  0  0  0
 35129  1  0  0  0  0
 37130  1  0  0  0  0
 41131  1  0  0  0  0
 42132  1  0  0  0  0
 43133  1  0  0  0  0
 45134  1  0  0  0  0
 45135  1  0  0  0  0
 46136  1  0  0  0  0
 46137  1  0  0  0  0
 46138  1  0  0  0  0
 47139  1  0  0  0  0
 63140  1  0  0  0  0
 64141  1  0  0  0  0
 65142  1  0  0  0  0
 67143  1  0  0  0  0
 67144  1  0  0  0  0
 68145  1  0  0  0  0
 68146  1  0  0  0  0
 68147  1  0  0  0  0
 69148  1  0  0  0  0
 81149  1  0  0  0  0
 81150  1  0  0  0  0
 82151  1  0  0  0  0
 82152  1  0  0  0  0
 82153  1  0  0  0  0
 83154  1  0  0  0  0
 83155  1  0  0  0  0
 84156  1  0  0  0  0
 84157  1  0  0  0  0
 84158  1  0  0  0  0
 86159  1  0  0  0  0
 93160  1  0  0  0  0
 94161  1  0  0  0  0
 95162  1  0  0  0  0
 96163  1  0  0  0  0
 98164  1  0  0  0  0
 99165  1  0  0  0  0
104166  1  0  0  0  0
105167  1  0  0  0  0
M  END
