170

C        -12.41990        3.11240        3.94860
C        -13.61670        2.79910        3.39180
C        -13.87800        1.73900        2.37650
O        -13.07600        1.10740        1.72420
C        -15.34000        1.54890        2.37040
C        -16.05060        0.61750        1.61400
C        -17.41030        0.66380        1.80240
C        -18.02170        1.56060        2.69070
C        -17.33440        2.47840        3.44710
C        -15.94760        2.45830        3.25910
C        -14.90910        3.28420        3.86070
C        -15.11630        4.38750        4.64360
C        -16.38650        4.85380        5.04500
N        -17.38570        5.28660        5.40790
C        -14.10150        5.24550        5.12150
N        -13.33970        6.00420        5.52420
C        -19.40630        1.05300        2.37580
C        -20.26460        1.93300        1.44220
C        -21.33180        0.98930        0.93660
C        -20.75470        0.14190        0.09420
C        -19.28780        0.49900        0.01560
C        -19.37720        2.02010        0.19370
C        -18.72580        0.05610        1.38360
C        -11.09850        2.75150        3.50150
C        -10.08520        2.60610        4.46900
C         -8.81500        2.28490        4.06040
C         -7.58410        2.07430        4.87200
O         -7.47260        2.11790        6.07340
C         -6.52170        1.80480        3.86490
C         -7.08710        1.82670        2.57330
C         -8.50470        2.12830        2.69270
C         -9.48670        2.30630        1.73600
C        -10.77290        2.61750        2.14680
C         -6.29090        1.58620        1.46990
C         -4.93690        1.36730        1.66530
C         -4.35860        1.38630        2.93850
C         -5.18090        1.58090        4.06200
C         -2.93120        1.20820        3.08030
C         -2.08030        1.70650        4.04510
C         -2.42710        2.63300        5.12610
C         -3.20520        3.76280        4.88450
C         -3.47390        4.64350        5.91380
C         -2.96440        4.41600        7.18120
C         -2.17780        3.30080        7.43640
C         -1.56310        3.07460        8.78700
C         -0.12660        3.60140        8.80620
C         -1.91530        2.41690        6.40010
C         -0.74830        1.29490        3.81750
S          0.75690        1.66560        4.62480
C          1.60360        0.76810        3.41020
C          2.92310        0.43560        3.05310
C          4.16350        0.67880        3.68220
C          5.36720        0.20420        3.05670
N          6.44740        0.47120        3.77360
S          5.99270        1.25210        5.11730
N          4.39860        1.28390        4.83570
C          5.28600       -0.38570        1.77580
C          6.27870       -0.71850        0.84010
S          8.00370       -0.70610        0.69950
C          7.84830       -1.15250       -0.98540
C          8.78720       -1.37990       -2.00920
C         10.23490       -1.33590       -1.80620
C         11.06690       -2.29910       -2.37490
C         12.42980       -2.24650       -2.15890
C         12.97510       -1.24630       -1.37200
C         12.16010       -0.28790       -0.78300
C         12.74450        0.81990        0.04520
C         13.03570        2.04300       -0.82670
C         10.79320       -0.34120       -1.00920
C          8.15720       -1.72450       -3.19670
S          6.41700       -1.78990       -3.04300
C          6.52020       -1.31930       -1.38980
C          5.62370       -1.07660       -0.34130
N          4.26810       -1.00820       -0.16320
C          4.03340       -0.59530        1.13340
C          2.84100       -0.29970        1.84000
N          1.50540       -0.46950        1.50770
C          0.76500        0.20070        2.44950
C         -0.58260        0.50200        2.68320
S         -2.08760        0.23470        1.88240
C          0.89910       -1.57920        0.80270
C          0.38130       -2.63880        1.77580
C          3.38530       -1.05710       -1.30680
C          3.18240       -2.48440       -1.81690
C          8.75790       -1.87590       -4.49680
C          9.82720       -1.03850       -4.88370
C         10.40070       -1.09730       -6.12870
C          9.96190       -2.01900       -7.10040
C          8.90230       -2.84230       -6.72340
C          8.24980       -3.92810       -7.49320
O          8.47990       -4.32080       -8.61110
N          7.28110       -4.44320       -6.65310
C          6.42550       -5.55640       -7.00450
C          7.05730       -6.88600       -6.60830
C          7.25810       -3.82480       -5.41250
O          6.50880       -4.13480       -4.51800
C          8.30730       -2.77880       -5.46420
C         10.47420       -2.08820       -8.44230
C         11.74330       -1.87470       -8.86890
C         12.97090       -1.82500       -8.02340
O         13.05020       -1.75240       -6.81780
C         14.09610       -1.95510       -8.96940
C         15.44970       -2.01790       -8.69170
C         16.33820       -2.14580       -9.74600
C         15.85980       -2.21530      -11.05120
Cl        16.98120       -2.38390      -12.34630
C         14.50160       -2.15250      -11.34520
C         13.61510       -2.01750      -10.28920
C         12.16050       -1.90380      -10.26490
C         11.34540       -1.74810      -11.35020
C         11.79730       -1.76960      -12.68790
N         12.10530       -1.78590      -13.79290
C          9.95870       -1.48020      -11.28620
N          8.84420       -1.20920      -11.32140
H        -12.43320        3.68170        4.87140
H        -15.53850       -0.06050        0.94930
H        -17.81690        3.15230        4.13500
H        -19.96760        0.65090        3.21690
H        -20.60410        2.86640        1.88250
H        -22.35120        1.00000        1.27480
H        -21.19580       -0.69680       -0.41180
H        -18.73890        0.12590       -0.84490
H        -19.88580        2.50240       -0.63930
H        -18.41760        2.50500        0.36370
H        -18.83310       -1.01220        1.56180
H        -10.30620        2.73010        5.51900
H         -9.26180        2.21460        0.68450
H        -11.53190        2.79150        1.40270
H         -6.70450        1.57940        0.47290
H         -4.30030        1.19550        0.80890
H         -4.77320        1.55260        5.06000
H         -3.58680        3.94950        3.89130
H         -4.08020        5.51710        5.72590
H         -3.17850        5.11230        7.97890
H         -1.55680        2.00710        9.01670
H         -2.14830        3.58630        9.55310
H          0.47250        3.09650        8.05160
H         -0.11310        4.66830        8.59460
H          0.32690        3.43450        9.78040
H         -1.31440        1.53890        6.58960
H         10.64060       -3.09300       -2.96990
H         13.07070       -2.99230       -2.60430
H         14.04210       -1.21390       -1.20610
H         12.04340        1.09840        0.83430
H         13.67110        0.48250        0.51330
H         12.12020        2.40450       -1.28980
H         13.74000        1.78700       -1.61520
H         13.46080        2.84460       -0.22740
H         10.15310        0.40910       -0.56860
H          0.07060       -1.19490        0.19860
H          1.63680       -2.04100        0.15670
H         -0.02510       -3.47750        1.21720
H          1.19200       -2.99740        2.40680
H         -0.40240       -2.23700        2.41190
H          2.44080       -0.57830       -1.04730
H          3.84760       -0.46680       -2.10630
H          4.10630       -2.86920       -2.24000
H          2.87650       -3.15730       -1.01860
H          2.42210       -2.49170       -2.59290
H         10.18220       -0.30470       -4.17700
H         11.18080       -0.39900       -6.38100
H          5.47550       -5.41590       -6.48320
H          6.26800       -5.51570       -8.08480
H          6.39840       -7.70360       -6.88640
H          8.00970       -7.01580       -7.11720
H          7.22190       -6.91850       -5.53370
H          9.74100       -2.40020       -9.17710
H         15.79470       -1.96450       -7.67070
H         17.40060       -2.19380       -9.56700
H         14.16960       -2.21430      -12.36840
