
  xtb     02152201323D
 energy: -440.870588765526 gnorm: 0.000426110635 xtb: 6.4.1 (unknown)
278308  0     0  0            999 V2000
   -8.5270   -5.7398    6.7680 C   0  0  0  0  0  0  0  0  0  0  0  0
   -9.6316   -5.0125    6.4476 C   0  0  0  0  0  0  0  0  0  0  0  0
  -10.0775   -4.6907    5.0695 C   0  0  0  0  0  0  0  0  0  0  0  0
   -9.7030   -5.1743    4.0187 O   0  0  0  0  0  0  0  0  0  0  0  0
  -11.0437   -3.5888    5.2129 C   0  0  0  0  0  0  0  0  0  0  0  0
  -11.6635   -2.8851    4.1808 C   0  0  0  0  0  0  0  0  0  0  0  0
  -12.5219   -1.9026    4.6098 C   0  0  0  0  0  0  0  0  0  0  0  0
  -12.7443   -1.6307    5.9668 C   0  0  0  0  0  0  0  0  0  0  0  0
  -12.1353   -2.3111    6.9943 C   0  0  0  0  0  0  0  0  0  0  0  0
  -11.2603   -3.3203    6.5796 C   0  0  0  0  0  0  0  0  0  0  0  0
  -10.4335   -4.2284    7.3680 C   0  0  0  0  0  0  0  0  0  0  0  0
  -10.4602   -4.3639    8.7300 C   0  0  0  0  0  0  0  0  0  0  0  0
   -9.6875   -5.2895    9.4645 C   0  0  0  0  0  0  0  0  0  0  0  0
   -9.0996   -6.0119   10.1357 N   0  0  0  0  0  0  0  0  0  0  0  0
  -11.2851   -3.6088    9.5896 C   0  0  0  0  0  0  0  0  0  0  0  0
  -11.9261   -3.0267   10.3437 N   0  0  0  0  0  0  0  0  0  0  0  0
  -13.7157   -0.5165    5.6661 C   0  0  0  0  0  0  0  0  0  0  0  0
  -15.2146   -0.8416    5.8390 C   0  0  0  0  0  0  0  0  0  0  0  0
  -15.9117    0.2324    5.0352 C   0  0  0  0  0  0  0  0  0  0  0  0
  -15.7017   -0.0246    3.7505 C   0  0  0  0  0  0  0  0  0  0  0  0
  -14.8589   -1.2767    3.6642 C   0  0  0  0  0  0  0  0  0  0  0  0
  -15.3855   -2.0347    4.8896 C   0  0  0  0  0  0  0  0  0  0  0  0
  -13.4681   -0.8202    4.1534 C   0  0  0  0  0  0  0  0  0  0  0  0
   -7.7634   -6.5198    5.8597 C   0  0  0  0  0  0  0  0  0  0  0  0
   -6.0286   -6.4993    5.9863 S   0  0  0  0  0  0  0  0  0  0  0  0
   -5.8417   -7.4264    4.5241 C   0  0  0  0  0  0  0  0  0  0  0  0
   -7.0896   -7.8036    4.0138 C   0  0  0  0  0  0  0  0  0  0  0  0
   -7.3439   -8.6276    2.8221 C   0  0  0  0  0  0  0  0  0  0  0  0
   -6.4820   -9.2486    2.2175 O   0  0  0  0  0  0  0  0  0  0  0  0
   -8.7409   -8.6256    2.3915 C   0  0  0  0  0  0  0  0  0  0  0  0
   -9.1617   -9.1140    1.1777 C   0  0  0  0  0  0  0  0  0  0  0  0
   -8.3333   -9.7384    0.1138 C   0  0  0  0  0  0  0  0  0  0  0  0
   -9.1024  -10.0141   -1.1699 C   0  0  0  0  0  0  0  0  0  0  0  0
  -10.8701   -8.9138    0.9934 S   0  0  0  0  0  0  0  0  0  0  0  0
  -11.0336   -8.2210    2.5734 C   0  0  0  0  0  0  0  0  0  0  0  0
  -12.3505   -7.7224    3.0465 C   0  0  0  0  0  0  0  0  0  0  0  0
  -12.6116   -6.3207    2.4868 C   0  0  0  0  0  0  0  0  0  0  0  0
   -9.8156   -8.1225    3.1897 C   0  0  0  0  0  0  0  0  0  0  0  0
   -9.5834   -7.6284    4.5446 C   0  0  0  0  0  0  0  0  0  0  0  0
  -10.4328   -7.5705    5.4130 O   0  0  0  0  0  0  0  0  0  0  0  0
   -8.1624   -7.2896    4.7838 C   0  0  0  0  0  0  0  0  0  0  0  0
   -4.5205   -7.5364    4.0161 C   0  0  0  0  0  0  0  0  0  0  0  0
   -4.0718   -7.8747    2.7548 C   0  0  0  0  0  0  0  0  0  0  0  0
   -2.7128   -7.6222    2.6004 C   0  0  0  0  0  0  0  0  0  0  0  0
   -1.6427   -7.6610    1.2299 S   0  0  0  0  0  0  0  0  0  0  0  0
   -0.3845   -6.9416    2.1908 C   0  0  0  0  0  0  0  0  0  0  0  0
    0.8717   -6.2954    1.9203 C   0  0  0  0  0  0  0  0  0  0  0  0
    1.5874   -6.0385    0.7592 C   0  0  0  0  0  0  0  0  0  0  0  0
    1.3984   -6.6377   -0.4400 O   0  0  0  0  0  0  0  0  0  0  0  0
    1.0002   -7.9976   -0.4890 C   0  0  0  0  0  0  0  0  0  0  0  0
    1.8700   -8.7145   -1.5134 C   0  0  0  0  0  0  0  0  0  0  0  0
    2.5536   -4.9897    0.7777 C   0  0  0  0  0  0  0  0  0  0  0  0
    2.8900   -4.3542    2.0025 C   0  0  0  0  0  0  0  0  0  0  0  0
    2.2966   -4.7951    3.2073 C   0  0  0  0  0  0  0  0  0  0  0  0
    1.2776   -5.6888    3.1501 C   0  0  0  0  0  0  0  0  0  0  0  0
    0.3177   -6.0281    4.2771 C   0  0  0  0  0  0  0  0  0  0  0  0
    0.8667   -6.9993    5.3043 C   0  0  0  0  0  0  0  0  0  0  0  0
    0.0957   -7.3020    6.4205 C   0  0  0  0  0  0  0  0  0  0  0  0
    0.5456   -8.2126    7.3559 C   0  0  0  0  0  0  0  0  0  0  0  0
    1.7742   -8.8437    7.2022 C   0  0  0  0  0  0  0  0  0  0  0  0
    2.2425   -9.8647    8.1987 C   0  0  0  0  0  0  0  0  0  0  0  0
    1.7512  -11.2595    7.8059 C   0  0  0  0  0  0  0  0  0  0  0  0
    2.5357   -8.5420    6.0819 C   0  0  0  0  0  0  0  0  0  0  0  0
    2.0891   -7.6325    5.1396 C   0  0  0  0  0  0  0  0  0  0  0  0
   -0.1286   -4.7212    4.9035 C   0  0  0  0  0  0  0  0  0  0  0  0
   -1.1557   -3.9789    4.3368 C   0  0  0  0  0  0  0  0  0  0  0  0
   -1.5025   -2.7472    4.8584 C   0  0  0  0  0  0  0  0  0  0  0  0
   -0.8246   -2.2167    5.9478 C   0  0  0  0  0  0  0  0  0  0  0  0
   -1.1721   -0.8524    6.4705 C   0  0  0  0  0  0  0  0  0  0  0  0
   -0.4521    0.2291    5.6627 C   0  0  0  0  0  0  0  0  0  0  0  0
    0.2106   -2.9562    6.5033 C   0  0  0  0  0  0  0  0  0  0  0  0
    0.5549   -4.1934    5.9911 C   0  0  0  0  0  0  0  0  0  0  0  0
   -0.7655   -6.7271    3.5060 C   0  0  0  0  0  0  0  0  0  0  0  0
   -2.0822   -7.1092    3.7446 C   0  0  0  0  0  0  0  0  0  0  0  0
   -3.2007   -6.9635    5.0456 S   0  0  0  0  0  0  0  0  0  0  0  0
    3.7138   -3.2008    1.9990 C   0  0  0  0  0  0  0  0  0  0  0  0
    4.0312   -2.5873    3.1892 O   0  0  0  0  0  0  0  0  0  0  0  0
    3.1107   -1.5928    3.6214 C   0  0  0  0  0  0  0  0  0  0  0  0
    3.5630   -1.1085    4.9874 C   0  0  0  0  0  0  0  0  0  0  0  0
    4.1295   -2.6905    0.7877 C   0  0  0  0  0  0  0  0  0  0  0  0
    4.7243   -1.4377    0.4282 C   0  0  0  0  0  0  0  0  0  0  0  0
    4.7194   -1.2780   -0.9448 C   0  0  0  0  0  0  0  0  0  0  0  0
    4.3782   -2.5852   -1.6158 C   0  0  0  0  0  0  0  0  0  0  0  0
    3.8412   -3.3725   -0.4312 C   0  0  0  0  0  0  0  0  0  0  0  0
    3.0952   -4.5083   -0.4378 C   0  0  0  0  0  0  0  0  0  0  0  0
    5.7108   -3.1235   -2.1238 C   0  0  0  0  0  0  0  0  0  0  0  0
    6.3846   -4.1593   -1.4957 C   0  0  0  0  0  0  0  0  0  0  0  0
    7.6079   -4.5896   -1.9794 C   0  0  0  0  0  0  0  0  0  0  0  0
    8.1867   -3.9967   -3.0922 C   0  0  0  0  0  0  0  0  0  0  0  0
    9.5352   -4.4357   -3.5864 C   0  0  0  0  0  0  0  0  0  0  0  0
   10.6397   -3.5959   -2.9414 C   0  0  0  0  0  0  0  0  0  0  0  0
    7.5102   -2.9520   -3.7107 C   0  0  0  0  0  0  0  0  0  0  0  0
    6.2889   -2.5191   -3.2343 C   0  0  0  0  0  0  0  0  0  0  0  0
    3.3683   -2.5384   -2.7363 C   0  0  0  0  0  0  0  0  0  0  0  0
    3.3046   -3.5829   -3.6516 C   0  0  0  0  0  0  0  0  0  0  0  0
    2.3610   -3.5732   -4.6600 C   0  0  0  0  0  0  0  0  0  0  0  0
    1.4607   -2.5224   -4.7837 C   0  0  0  0  0  0  0  0  0  0  0  0
    0.4076   -2.5364   -5.8544 C   0  0  0  0  0  0  0  0  0  0  0  0
   -0.8421   -3.2695   -5.3625 C   0  0  0  0  0  0  0  0  0  0  0  0
    1.5268   -1.4861   -3.8637 C   0  0  0  0  0  0  0  0  0  0  0  0
    2.4661   -1.4933   -2.8487 C   0  0  0  0  0  0  0  0  0  0  0  0
    5.0865    0.0218   -1.3061 C   0  0  0  0  0  0  0  0  0  0  0  0
    5.4319    0.8073   -0.2009 C   0  0  0  0  0  0  0  0  0  0  0  0
    5.2687   -0.0460    1.3004 S   0  0  0  0  0  0  0  0  0  0  0  0
    5.6908    2.1481   -0.5123 C   0  0  0  0  0  0  0  0  0  0  0  0
    5.4702    2.4149   -1.8359 C   0  0  0  0  0  0  0  0  0  0  0  0
    5.0418    0.9736   -2.7477 S   0  0  0  0  0  0  0  0  0  0  0  0
    5.4108    3.7087   -2.4591 C   0  0  0  0  0  0  0  0  0  0  0  0
    4.2978    4.2644   -3.0640 C   0  0  0  0  0  0  0  0  0  0  0  0
    3.0462    3.6789   -3.1497 N   0  0  0  0  0  0  0  0  0  0  0  0
    2.2488    4.0223   -4.2578 C   0  0  0  0  0  0  0  0  0  0  0  0
    2.8055    4.0272   -5.5332 C   0  0  0  0  0  0  0  0  0  0  0  0
    2.0494    4.4239   -6.6181 C   0  0  0  0  0  0  0  0  0  0  0  0
    0.7256    4.8137   -6.4631 C   0  0  0  0  0  0  0  0  0  0  0  0
   -0.0756    5.2930   -7.6341 C   0  0  0  0  0  0  0  0  0  0  0  0
    0.1714    4.7812   -5.1890 C   0  0  0  0  0  0  0  0  0  0  0  0
    0.9181    4.3942   -4.0952 C   0  0  0  0  0  0  0  0  0  0  0  0
    2.5026    2.9476   -2.0892 C   0  0  0  0  0  0  0  0  0  0  0  0
    1.5856    1.9305   -2.3490 C   0  0  0  0  0  0  0  0  0  0  0  0
    1.0666    1.1794   -1.3149 C   0  0  0  0  0  0  0  0  0  0  0  0
    1.4609    1.3951    0.0019 C   0  0  0  0  0  0  0  0  0  0  0  0
    0.9380    0.5186    1.0992 C   0  0  0  0  0  0  0  0  0  0  0  0
    2.3477    2.4310    0.2575 C   0  0  0  0  0  0  0  0  0  0  0  0
    2.8504    3.2115   -0.7663 C   0  0  0  0  0  0  0  0  0  0  0  0
    4.5699    5.5728   -3.5354 C   0  0  0  0  0  0  0  0  0  0  0  0
    3.5823    6.7800   -4.2696 S   0  0  0  0  0  0  0  0  0  0  0  0
    4.9364    7.9135   -4.2359 C   0  0  0  0  0  0  0  0  0  0  0  0
    6.0793    7.3584   -3.6045 C   0  0  0  0  0  0  0  0  0  0  0  0
    7.2484    8.0223   -3.3425 N   0  0  0  0  0  0  0  0  0  0  0  0
    7.2781    9.3794   -2.9701 C   0  0  0  0  0  0  0  0  0  0  0  0
    6.2714    9.9196   -2.1732 C   0  0  0  0  0  0  0  0  0  0  0  0
    6.2986   11.2586   -1.8392 C   0  0  0  0  0  0  0  0  0  0  0  0
    7.3316   12.0847   -2.2668 C   0  0  0  0  0  0  0  0  0  0  0  0
    7.3467   13.5449   -1.9350 C   0  0  0  0  0  0  0  0  0  0  0  0
    8.3521   11.5261   -3.0274 C   0  0  0  0  0  0  0  0  0  0  0  0
    8.3303   10.1924   -3.3835 C   0  0  0  0  0  0  0  0  0  0  0  0
    8.4494    7.2877   -3.3235 C   0  0  0  0  0  0  0  0  0  0  0  0
    9.3890    7.4868   -2.3174 C   0  0  0  0  0  0  0  0  0  0  0  0
   10.5618    6.7579   -2.3140 C   0  0  0  0  0  0  0  0  0  0  0  0
   10.8259    5.8167   -3.3014 C   0  0  0  0  0  0  0  0  0  0  0  0
   12.0848    5.0065   -3.2814 C   0  0  0  0  0  0  0  0  0  0  0  0
    9.8825    5.6293   -4.3056 C   0  0  0  0  0  0  0  0  0  0  0  0
    8.7094    6.3551   -4.3245 C   0  0  0  0  0  0  0  0  0  0  0  0
    5.8518    6.0175   -3.2456 C   0  0  0  0  0  0  0  0  0  0  0  0
    6.7743    4.8146   -2.3946 S   0  0  0  0  0  0  0  0  0  0  0  0
    4.9213    9.1757   -4.8278 C   0  0  0  0  0  0  0  0  0  0  0  0
    3.8831    9.8909   -5.3810 C   0  0  0  0  0  0  0  0  0  0  0  0
    2.4723    9.5003   -5.4086 C   0  0  0  0  0  0  0  0  0  0  0  0
    1.9839    8.4253   -5.1022 O   0  0  0  0  0  0  0  0  0  0  0  0
    1.7256   10.6816   -5.8784 C   0  0  0  0  0  0  0  0  0  0  0  0
    0.3462   10.7961   -6.0251 C   0  0  0  0  0  0  0  0  0  0  0  0
   -0.0675   12.0283   -6.4717 C   0  0  0  0  0  0  0  0  0  0  0  0
    0.8266   13.0690   -6.7515 C   0  0  0  0  0  0  0  0  0  0  0  0
    2.1911   12.9675   -6.6105 C   0  0  0  0  0  0  0  0  0  0  0  0
    2.6331   11.7221   -6.1573 C   0  0  0  0  0  0  0  0  0  0  0  0
    3.9890   11.2341   -5.8998 C   0  0  0  0  0  0  0  0  0  0  0  0
    5.1441   11.9396   -6.1400 C   0  0  0  0  0  0  0  0  0  0  0  0
    6.4513   11.4282   -6.0341 C   0  0  0  0  0  0  0  0  0  0  0  0
    7.5495   11.0871   -6.0116 N   0  0  0  0  0  0  0  0  0  0  0  0
    5.1866   13.2808   -6.5679 C   0  0  0  0  0  0  0  0  0  0  0  0
    5.3044   14.3764   -6.8937 N   0  0  0  0  0  0  0  0  0  0  0  0
   -0.2764   14.0127   -7.1623 C   0  0  0  0  0  0  0  0  0  0  0  0
   -0.4953   14.2532   -8.6764 C   0  0  0  0  0  0  0  0  0  0  0  0
    0.0004   13.0164   -9.3835 C   0  0  0  0  0  0  0  0  0  0  0  0
   -0.8468   12.0311   -9.1178 C   0  0  0  0  0  0  0  0  0  0  0  0
   -1.9305   12.5840   -8.2258 C   0  0  0  0  0  0  0  0  0  0  0  0
   -2.0128   14.0229   -8.7597 C   0  0  0  0  0  0  0  0  0  0  0  0
   -1.2731   12.8524   -6.8495 C   0  0  0  0  0  0  0  0  0  0  0  0
   -8.1205   -5.6611    7.7693 H   0  0  0  0  0  0  0  0  0  0  0  0
  -11.4574   -3.1159    3.1472 H   0  0  0  0  0  0  0  0  0  0  0  0
  -12.3043   -2.0812    8.0330 H   0  0  0  0  0  0  0  0  0  0  0  0
  -13.4459    0.4646    6.0521 H   0  0  0  0  0  0  0  0  0  0  0  0
  -15.5363   -0.9697    6.8687 H   0  0  0  0  0  0  0  0  0  0  0  0
  -16.4215    1.0717    5.4705 H   0  0  0  0  0  0  0  0  0  0  0  0
  -16.0010    0.5571    2.8984 H   0  0  0  0  0  0  0  0  0  0  0  0
  -14.8573   -1.8009    2.7122 H   0  0  0  0  0  0  0  0  0  0  0  0
  -14.7926   -2.9061    5.1613 H   0  0  0  0  0  0  0  0  0  0  0  0
  -16.4289   -2.3243    4.7772 H   0  0  0  0  0  0  0  0  0  0  0  0
  -13.0322   -0.0413    3.5303 H   0  0  0  0  0  0  0  0  0  0  0  0
   -7.4774   -9.0858   -0.0849 H   0  0  0  0  0  0  0  0  0  0  0  0
   -7.9135  -10.6688    0.5098 H   0  0  0  0  0  0  0  0  0  0  0  0
   -9.5096   -9.0915   -1.5783 H   0  0  0  0  0  0  0  0  0  0  0  0
   -9.9264  -10.6993   -0.9826 H   0  0  0  0  0  0  0  0  0  0  0  0
   -8.4448  -10.4600   -1.9116 H   0  0  0  0  0  0  0  0  0  0  0  0
  -13.1438   -8.4008    2.7253 H   0  0  0  0  0  0  0  0  0  0  0  0
  -12.3333   -7.6838    4.1362 H   0  0  0  0  0  0  0  0  0  0  0  0
  -12.6737   -6.3483    1.4005 H   0  0  0  0  0  0  0  0  0  0  0  0
  -11.7984   -5.6590    2.7738 H   0  0  0  0  0  0  0  0  0  0  0  0
  -13.5445   -5.9264    2.8820 H   0  0  0  0  0  0  0  0  0  0  0  0
   -4.7099   -8.2654    1.9861 H   0  0  0  0  0  0  0  0  0  0  0  0
    1.1106   -8.4643    0.4957 H   0  0  0  0  0  0  0  0  0  0  0  0
   -0.0523   -8.0529   -0.7916 H   0  0  0  0  0  0  0  0  0  0  0  0
    2.9136   -8.6803   -1.2105 H   0  0  0  0  0  0  0  0  0  0  0  0
    1.7737   -8.2308   -2.4814 H   0  0  0  0  0  0  0  0  0  0  0  0
    1.5570   -9.7510   -1.5996 H   0  0  0  0  0  0  0  0  0  0  0  0
    2.6028   -4.3518    4.1411 H   0  0  0  0  0  0  0  0  0  0  0  0
   -0.8585   -6.8134    6.5580 H   0  0  0  0  0  0  0  0  0  0  0  0
   -0.0646   -8.4348    8.2196 H   0  0  0  0  0  0  0  0  0  0  0  0
    1.8608   -9.6157    9.1908 H   0  0  0  0  0  0  0  0  0  0  0  0
    3.3336   -9.8667    8.2424 H   0  0  0  0  0  0  0  0  0  0  0  0
    2.1321  -11.5321    6.8241 H   0  0  0  0  0  0  0  0  0  0  0  0
    0.6643  -11.2808    7.7685 H   0  0  0  0  0  0  0  0  0  0  0  0
    2.0889  -11.9996    8.5277 H   0  0  0  0  0  0  0  0  0  0  0  0
    3.4939   -9.0226    5.9434 H   0  0  0  0  0  0  0  0  0  0  0  0
    2.6992   -7.4104    4.2762 H   0  0  0  0  0  0  0  0  0  0  0  0
   -1.6877   -4.3604    3.4773 H   0  0  0  0  0  0  0  0  0  0  0  0
   -2.3110   -2.1878    4.4093 H   0  0  0  0  0  0  0  0  0  0  0  0
   -2.2503   -0.6944    6.4006 H   0  0  0  0  0  0  0  0  0  0  0  0
   -0.8825   -0.7713    7.5198 H   0  0  0  0  0  0  0  0  0  0  0  0
   -0.7158    1.2185    6.0293 H   0  0  0  0  0  0  0  0  0  0  0  0
    0.6253    0.1037    5.7435 H   0  0  0  0  0  0  0  0  0  0  0  0
   -0.7244    0.1627    4.6116 H   0  0  0  0  0  0  0  0  0  0  0  0
    0.7550   -2.5600    7.3488 H   0  0  0  0  0  0  0  0  0  0  0  0
    1.3601   -4.7555    6.4417 H   0  0  0  0  0  0  0  0  0  0  0  0
    3.1006   -0.7592    2.9065 H   0  0  0  0  0  0  0  0  0  0  0  0
    2.0953   -2.0138    3.6749 H   0  0  0  0  0  0  0  0  0  0  0  0
    3.5300   -1.9250    5.7035 H   0  0  0  0  0  0  0  0  0  0  0  0
    4.5833   -0.7406    4.9241 H   0  0  0  0  0  0  0  0  0  0  0  0
    2.9145   -0.3069    5.3291 H   0  0  0  0  0  0  0  0  0  0  0  0
    2.8396   -5.0114   -1.3563 H   0  0  0  0  0  0  0  0  0  0  0  0
    5.9545   -4.6366   -0.6277 H   0  0  0  0  0  0  0  0  0  0  0  0
    8.1184   -5.4022   -1.4819 H   0  0  0  0  0  0  0  0  0  0  0  0
    9.6949   -5.4880   -3.3430 H   0  0  0  0  0  0  0  0  0  0  0  0
    9.5861   -4.3240   -4.6715 H   0  0  0  0  0  0  0  0  0  0  0  0
   11.6171   -3.9119   -3.2986 H   0  0  0  0  0  0  0  0  0  0  0  0
   10.5041   -2.5439   -3.1826 H   0  0  0  0  0  0  0  0  0  0  0  0
   10.6129   -3.7038   -1.8594 H   0  0  0  0  0  0  0  0  0  0  0  0
    7.9446   -2.4736   -4.5769 H   0  0  0  0  0  0  0  0  0  0  0  0
    5.7725   -1.7083   -3.7283 H   0  0  0  0  0  0  0  0  0  0  0  0
    4.0057   -4.4020   -3.5788 H   0  0  0  0  0  0  0  0  0  0  0  0
    2.3256   -4.3913   -5.3658 H   0  0  0  0  0  0  0  0  0  0  0  0
    0.1416   -1.5129   -6.1264 H   0  0  0  0  0  0  0  0  0  0  0  0
    0.7912   -3.0380   -6.7453 H   0  0  0  0  0  0  0  0  0  0  0  0
   -1.2462   -2.7771   -4.4808 H   0  0  0  0  0  0  0  0  0  0  0  0
   -0.5983   -4.2958   -5.0973 H   0  0  0  0  0  0  0  0  0  0  0  0
   -1.6070   -3.2820   -6.1357 H   0  0  0  0  0  0  0  0  0  0  0  0
    0.8343   -0.6604   -3.9434 H   0  0  0  0  0  0  0  0  0  0  0  0
    2.4985   -0.6788   -2.1415 H   0  0  0  0  0  0  0  0  0  0  0  0
    5.9630    2.9003    0.2051 H   0  0  0  0  0  0  0  0  0  0  0  0
    3.8347    3.7251   -5.6645 H   0  0  0  0  0  0  0  0  0  0  0  0
    2.4970    4.4334   -7.6015 H   0  0  0  0  0  0  0  0  0  0  0  0
    0.0279    6.3747   -7.7265 H   0  0  0  0  0  0  0  0  0  0  0  0
    0.2743    4.8401   -8.5590 H   0  0  0  0  0  0  0  0  0  0  0  0
   -1.1314    5.0653   -7.5046 H   0  0  0  0  0  0  0  0  0  0  0  0
   -0.8566    5.0819   -5.0480 H   0  0  0  0  0  0  0  0  0  0  0  0
    0.4813    4.3934   -3.1073 H   0  0  0  0  0  0  0  0  0  0  0  0
    1.2961    1.7326   -3.3701 H   0  0  0  0  0  0  0  0  0  0  0  0
    0.3522    0.3972   -1.5293 H   0  0  0  0  0  0  0  0  0  0  0  0
    1.2392    0.8925    2.0750 H   0  0  0  0  0  0  0  0  0  0  0  0
   -0.1493    0.4675    1.0649 H   0  0  0  0  0  0  0  0  0  0  0  0
    1.3193   -0.4974    0.9839 H   0  0  0  0  0  0  0  0  0  0  0  0
    2.6488    2.6383    1.2746 H   0  0  0  0  0  0  0  0  0  0  0  0
    3.5118    4.0345   -0.5412 H   0  0  0  0  0  0  0  0  0  0  0  0
    5.4646    9.2893   -1.8285 H   0  0  0  0  0  0  0  0  0  0  0  0
    5.5049   11.6664   -1.2296 H   0  0  0  0  0  0  0  0  0  0  0  0
    7.1577   14.1325   -2.8336 H   0  0  0  0  0  0  0  0  0  0  0  0
    8.3190   13.8404   -1.5450 H   0  0  0  0  0  0  0  0  0  0  0  0
    6.5837   13.7870   -1.1993 H   0  0  0  0  0  0  0  0  0  0  0  0
    9.1652   12.1495   -3.3667 H   0  0  0  0  0  0  0  0  0  0  0  0
    9.1161    9.7794   -3.9961 H   0  0  0  0  0  0  0  0  0  0  0  0
    9.1924    8.2096   -1.5395 H   0  0  0  0  0  0  0  0  0  0  0  0
   11.2816    6.9193   -1.5248 H   0  0  0  0  0  0  0  0  0  0  0  0
   12.4816    4.8847   -4.2872 H   0  0  0  0  0  0  0  0  0  0  0  0
   12.8411    5.4760   -2.6577 H   0  0  0  0  0  0  0  0  0  0  0  0
   11.8806    4.0133   -2.8804 H   0  0  0  0  0  0  0  0  0  0  0  0
   10.0737    4.9092   -5.0877 H   0  0  0  0  0  0  0  0  0  0  0  0
    7.9909    6.2118   -5.1183 H   0  0  0  0  0  0  0  0  0  0  0  0
    5.8822    9.6737   -4.8243 H   0  0  0  0  0  0  0  0  0  0  0  0
   -0.3057    9.9675   -5.7955 H   0  0  0  0  0  0  0  0  0  0  0  0
    2.8642   13.7802   -6.8269 H   0  0  0  0  0  0  0  0  0  0  0  0
   -0.3620   14.9287   -6.5809 H   0  0  0  0  0  0  0  0  0  0  0  0
   -0.1115   15.2016   -9.0428 H   0  0  0  0  0  0  0  0  0  0  0  0
    0.9191   12.9719   -9.9385 H   0  0  0  0  0  0  0  0  0  0  0  0
   -0.7772   10.9987   -9.4067 H   0  0  0  0  0  0  0  0  0  0  0  0
   -2.8544   12.0129   -8.1817 H   0  0  0  0  0  0  0  0  0  0  0  0
   -2.5887   14.6906   -8.1201 H   0  0  0  0  0  0  0  0  0  0  0  0
   -2.3916   14.0731   -9.7795 H   0  0  0  0  0  0  0  0  0  0  0  0
   -2.0084   13.0115   -6.0627 H   0  0  0  0  0  0  0  0  0  0  0  0
  1  2  2  0  0  0  0
  2  3  1  0  0  0  0
  3  4  2  0  0  0  0
  3  5  1  0  0  0  0
  5  6  2  0  0  0  0
  6  7  1  0  0  0  0
  7  8  2  0  0  0  0
  8  9  1  0  0  0  0
  9 10  2  0  0  0  0
 10 11  1  0  0  0  0
 11 12  2  0  0  0  0
 12 13  1  0  0  0  0
 13 14  3  0  0  0  0
 12 15  1  0  0  0  0
 15 16  3  0  0  0  0
  8 17  1  0  0  0  0
 17 18  1  0  0  0  0
 18 19  1  0  0  0  0
 19 20  2  0  0  0  0
 20 21  1  0  0  0  0
 21 22  1  0  0  0  0
 21 23  1  0  0  0  0
  1 24  1  0  0  0  0
 24 25  1  0  0  0  0
 25 26  1  0  0  0  0
 26 27  2  0  0  0  0
 27 28  1  0  0  0  0
 28 29  2  0  0  0  0
 28 30  1  0  0  0  0
 30 31  2  0  0  0  0
 31 32  1  0  0  0  0
 32 33  1  0  0  0  0
 31 34  1  0  0  0  0
 34 35  1  0  0  0  0
 35 36  1  0  0  0  0
 36 37  1  0  0  0  0
 35 38  2  0  0  0  0
 38 39  1  0  0  0  0
 39 40  2  0  0  0  0
 39 41  1  0  0  0  0
 26 42  1  0  0  0  0
 42 43  2  0  0  0  0
 43 44  1  0  0  0  0
 44 45  1  0  0  0  0
 45 46  1  0  0  0  0
 46 47  1  0  0  0  0
 47 48  2  0  0  0  0
 48 49  1  0  0  0  0
 49 50  1  0  0  0  0
 50 51  1  0  0  0  0
 48 52  1  0  0  0  0
 52 53  2  0  0  0  0
 53 54  1  0  0  0  0
 54 55  2  0  0  0  0
 55 56  1  0  0  0  0
 56 57  1  0  0  0  0
 57 58  2  0  0  0  0
 58 59  1  0  0  0  0
 59 60  2  0  0  0  0
 60 61  1  0  0  0  0
 61 62  1  0  0  0  0
 60 63  1  0  0  0  0
 63 64  2  0  0  0  0
 56 65  1  0  0  0  0
 65 66  2  0  0  0  0
 66 67  1  0  0  0  0
 67 68  2  0  0  0  0
 68 69  1  0  0  0  0
 69 70  1  0  0  0  0
 68 71  1  0  0  0  0
 71 72  2  0  0  0  0
 56 73  1  0  0  0  0
 73 74  1  0  0  0  0
 74 75  1  0  0  0  0
 53 76  1  0  0  0  0
 76 77  1  0  0  0  0
 77 78  1  0  0  0  0
 78 79  1  0  0  0  0
 76 80  2  0  0  0  0
 80 81  1  0  0  0  0
 81 82  2  0  0  0  0
 82 83  1  0  0  0  0
 83 84  1  0  0  0  0
 84 85  2  0  0  0  0
 83 86  1  0  0  0  0
 86 87  2  0  0  0  0
 87 88  1  0  0  0  0
 88 89  2  0  0  0  0
 89 90  1  0  0  0  0
 90 91  1  0  0  0  0
 89 92  1  0  0  0  0
 92 93  2  0  0  0  0
 83 94  1  0  0  0  0
 94 95  2  0  0  0  0
 95 96  1  0  0  0  0
 96 97  2  0  0  0  0
 97 98  1  0  0  0  0
 98 99  1  0  0  0  0
 97100  1  0  0  0  0
100101  2  0  0  0  0
 82102  1  0  0  0  0
102103  2  0  0  0  0
103104  1  0  0  0  0
103105  1  0  0  0  0
105106  2  0  0  0  0
106107  1  0  0  0  0
106108  1  0  0  0  0
108109  2  0  0  0  0
109110  1  0  0  0  0
110111  1  0  0  0  0
111112  2  0  0  0  0
112113  1  0  0  0  0
113114  2  0  0  0  0
114115  1  0  0  0  0
114116  1  0  0  0  0
116117  2  0  0  0  0
110118  1  0  0  0  0
118119  2  0  0  0  0
119120  1  0  0  0  0
120121  2  0  0  0  0
121122  1  0  0  0  0
121123  1  0  0  0  0
123124  2  0  0  0  0
109125  1  0  0  0  0
125126  1  0  0  0  0
126127  1  0  0  0  0
127128  2  0  0  0  0
128129  1  0  0  0  0
129130  1  0  0  0  0
130131  2  0  0  0  0
131132  1  0  0  0  0
132133  2  0  0  0  0
133134  1  0  0  0  0
133135  1  0  0  0  0
135136  2  0  0  0  0
129137  1  0  0  0  0
137138  2  0  0  0  0
138139  1  0  0  0  0
139140  2  0  0  0  0
140141  1  0  0  0  0
140142  1  0  0  0  0
142143  2  0  0  0  0
128144  1  0  0  0  0
144145  1  0  0  0  0
127146  1  0  0  0  0
146147  2  0  0  0  0
147148  1  0  0  0  0
148149  2  0  0  0  0
148150  1  0  0  0  0
150151  2  0  0  0  0
151152  1  0  0  0  0
152153  2  0  0  0  0
153154  1  0  0  0  0
154155  2  0  0  0  0
155156  1  0  0  0  0
156157  2  0  0  0  0
157158  1  0  0  0  0
158159  3  0  0  0  0
157160  1  0  0  0  0
160161  3  0  0  0  0
153162  1  0  0  0  0
162163  1  0  0  0  0
163164  1  0  0  0  0
164165  2  0  0  0  0
165166  1  0  0  0  0
166167  1  0  0  0  0
166168  1  0  0  0  0
 11  2  1  0  0  0  0
 23 17  1  0  0  0  0
 41 24  2  0  0  0  0
 75 42  1  0  0  0  0
 84 80  1  0  0  0  0
 93 86  1  0  0  0  0
101 94  1  0  0  0  0
107102  1  0  0  0  0
145108  1  0  0  0  0
156147  1  0  0  0  0
168162  1  0  0  0  0
 10  5  1  0  0  0  0
 22 18  1  0  0  0  0
 41 27  1  0  0  0  0
 74 44  2  0  0  0  0
104 81  1  0  0  0  0
117111  1  0  0  0  0
124118  1  0  0  0  0
144125  2  0  0  0  0
155150  1  0  0  0  0
167163  1  0  0  0  0
 23  7  1  0  0  0  0
 38 30  1  0  0  0  0
 73 46  2  0  0  0  0
136130  1  0  0  0  0
143137  1  0  0  0  0
168152  1  0  0  0  0
 55 47  1  0  0  0  0
 64 57  1  0  0  0  0
 72 65  1  0  0  0  0
 85 52  1  0  0  0  0
  1169  1  0  0  0  0
  6170  1  0  0  0  0
  9171  1  0  0  0  0
 17172  1  0  0  0  0
 18173  1  0  0  0  0
 19174  1  0  0  0  0
 20175  1  0  0  0  0
 21176  1  0  0  0  0
 22177  1  0  0  0  0
 22178  1  0  0  0  0
 23179  1  0  0  0  0
 32180  1  0  0  0  0
 32181  1  0  0  0  0
 33182  1  0  0  0  0
 33183  1  0  0  0  0
 33184  1  0  0  0  0
 36185  1  0  0  0  0
 36186  1  0  0  0  0
 37187  1  0  0  0  0
 37188  1  0  0  0  0
 37189  1  0  0  0  0
 43190  1  0  0  0  0
 50191  1  0  0  0  0
 50192  1  0  0  0  0
 51193  1  0  0  0  0
 51194  1  0  0  0  0
 51195  1  0  0  0  0
 54196  1  0  0  0  0
 58197  1  0  0  0  0
 59198  1  0  0  0  0
 61199  1  0  0  0  0
 61200  1  0  0  0  0
 62201  1  0  0  0  0
 62202  1  0  0  0  0
 62203  1  0  0  0  0
 63204  1  0  0  0  0
 64205  1  0  0  0  0
 66206  1  0  0  0  0
 67207  1  0  0  0  0
 69208  1  0  0  0  0
 69209  1  0  0  0  0
 70210  1  0  0  0  0
 70211  1  0  0  0  0
 70212  1  0  0  0  0
 71213  1  0  0  0  0
 72214  1  0  0  0  0
 78215  1  0  0  0  0
 78216  1  0  0  0  0
 79217  1  0  0  0  0
 79218  1  0  0  0  0
 79219  1  0  0  0  0
 85220  1  0  0  0  0
 87221  1  0  0  0  0
 88222  1  0  0  0  0
 90223  1  0  0  0  0
 90224  1  0  0  0  0
 91225  1  0  0  0  0
 91226  1  0  0  0  0
 91227  1  0  0  0  0
 92228  1  0  0  0  0
 93229  1  0  0  0  0
 95230  1  0  0  0  0
 96231  1  0  0  0  0
 98232  1  0  0  0  0
 98233  1  0  0  0  0
 99234  1  0  0  0  0
 99235  1  0  0  0  0
 99236  1  0  0  0  0
100237  1  0  0  0  0
101238  1  0  0  0  0
105239  1  0  0  0  0
112240  1  0  0  0  0
113241  1  0  0  0  0
115242  1  0  0  0  0
115243  1  0  0  0  0
115244  1  0  0  0  0
116245  1  0  0  0  0
117246  1  0  0  0  0
119247  1  0  0  0  0
120248  1  0  0  0  0
122249  1  0  0  0  0
122250  1  0  0  0  0
122251  1  0  0  0  0
123252  1  0  0  0  0
124253  1  0  0  0  0
131254  1  0  0  0  0
132255  1  0  0  0  0
134256  1  0  0  0  0
134257  1  0  0  0  0
134258  1  0  0  0  0
135259  1  0  0  0  0
136260  1  0  0  0  0
138261  1  0  0  0  0
139262  1  0  0  0  0
141263  1  0  0  0  0
141264  1  0  0  0  0
141265  1  0  0  0  0
142266  1  0  0  0  0
143267  1  0  0  0  0
146268  1  0  0  0  0
151269  1  0  0  0  0
154270  1  0  0  0  0
162271  1  0  0  0  0
163272  1  0  0  0  0
164273  1  0  0  0  0
165274  1  0  0  0  0
166275  1  0  0  0  0
167276  1  0  0  0  0
167277  1  0  0  0  0
168278  1  0  0  0  0
M  END
