165

C          6.52080       -1.31380        4.42070
C          5.63920       -1.34600        5.47240
C          4.47650       -0.47160        5.66660
O          4.19640        0.54350        5.05320
C          3.69210       -1.06260        6.76380
C          2.45760       -0.62670        7.23780
C          1.93100       -1.41590        8.23170
C          2.58490       -2.55590        8.71760
C          3.81400       -2.98380        8.27220
C          4.36890       -2.19380        7.26140
C          5.62640       -2.34070        6.52760
C          6.61730       -3.24110        6.82720
C          7.85130       -3.35240        6.15440
N          8.87970       -3.50120        5.66310
C          6.55680       -4.16820        7.88810
N          6.58100       -4.94660        8.73200
C          1.46770       -2.88350        9.67680
C          0.48410       -4.01470        9.28510
C          0.46970       -4.07470        7.77800
C         -0.14790       -2.98800        7.33430
C         -0.55950       -2.17100        8.53430
C         -0.85120       -3.29660        9.53970
C          0.74600       -1.60470        9.14620
C          6.53830       -0.51380        3.26970
C          7.39540       -0.75880        2.18070
C          8.51500       -1.74820        2.15220
C          9.73490       -1.21950        2.91110
C          7.07750        0.06110        1.10530
C          6.02730        0.95610        1.35280
S          5.40410        0.80110        2.94740
C          5.62710        1.67120        0.22640
C          6.32910        1.30840       -0.90520
S          7.58870        0.13770       -0.55750
C          5.96620        1.70710       -2.22160
C          6.18160        1.08740       -3.43890
C          7.03860       -0.08760       -3.65740
C          8.17810        0.01640       -4.44470
C          8.96750       -1.09890       -4.65560
C          8.62420       -2.31410       -4.09020
C          7.47700       -2.43720       -3.31730
C          7.11680       -3.74050       -2.66460
C          7.60960       -3.75920       -1.21630
C          6.68800       -1.31550       -3.11080
C          5.37010        1.63790       -4.44980
S          4.95760        1.08030       -6.05920
C          3.60850        2.17510       -6.07180
C          2.40620        2.38640       -6.77420
C          1.88420        1.78530       -7.94110
C          0.49830        1.98030       -8.26760
N          0.14340        1.33560       -9.36720
S          1.43830        0.55560       -9.94730
N          2.50070        1.00030       -8.80980
C         -0.31630        2.71040       -7.37350
C         -1.71380        2.74130       -7.21520
S         -3.12690        1.95520       -7.84740
C         -4.03570        2.47350       -6.43990
C         -5.29630        2.11710       -5.90470
C         -6.28990        1.26270       -6.54810
C         -5.90490        0.19520       -7.35490
C         -6.86560       -0.60240       -7.94660
C         -8.21030       -0.34610       -7.74590
C         -8.61470        0.71780       -6.94810
C        -10.07210        1.03300       -6.77000
C        -10.55020        1.98330       -7.86950
C         -7.64760        1.51570       -6.35980
C         -5.48770        2.67770       -4.65410
S         -4.15180        3.72130       -4.17120
C         -3.28710        3.29930       -5.60170
C         -1.96560        3.44540       -6.03710
N         -0.79650        3.89970       -5.49590
C          0.24300        3.40650       -6.26290
C          1.63500        3.30470       -6.00640
N          2.39670        3.72100       -4.92040
C          3.55460        2.98840       -4.93930
C          4.55440        2.68290       -4.01250
S          4.83000        3.05200       -2.35050
C          2.39040        4.98050       -4.20170
C          2.24670        6.16540       -5.15220
C         -0.81310        4.49760       -4.18350
C         -0.51730        3.46950       -3.09320
C         -6.35860        2.25680       -3.59770
C         -6.78090        2.99180       -2.50940
C         -6.80140        4.48410       -2.41050
C         -8.23400        4.99930       -2.26730
C         -7.21430        2.14490       -1.47460
C         -7.13630        0.77810       -1.76350
S         -6.59640        0.51680       -3.38740
C         -7.36010       -0.05280       -0.66920
C         -7.59890        0.67090        0.48680
S         -7.64430        2.40510        0.17260
C         -7.63050        0.25710        1.83470
C         -7.25600       -0.94430        2.34550
S         -6.73960       -2.36250        1.45670
C         -6.29470       -3.17330        2.94290
C         -5.84130       -4.46670        2.94970
C         -5.66620       -5.15630        1.73350
N         -5.51530       -5.71280        0.74180
C         -5.56200       -5.20930        4.11120
N         -5.34100       -5.87810        5.01790
N         -6.50090       -2.38060        4.02800
C         -5.99410       -2.69580        5.32330
C         -6.86370       -2.83080        6.39240
C         -6.34920       -3.10390        7.64750
C         -4.98350       -3.23860        7.82880
C         -4.11960       -3.09010        6.75680
C         -4.62130       -2.81030        5.49990
C         -7.09620       -1.14400        3.78510
O         -7.38060       -0.35420        4.65380
H          7.28980       -2.07490        4.42490
H          1.98610        0.25300        6.82820
H          4.30480       -3.86080        8.66010
H          1.73730       -2.91850       10.73050
H          0.65240       -4.95650        9.80020
H          0.94350       -4.85020        7.20510
H         -0.28700       -2.67210        6.31650
H         -1.33950       -1.43140        8.36990
H         -1.71240       -3.90180        9.25950
H         -0.96630       -2.94440       10.56390
H          0.55790       -0.79850        9.85260
H          8.78920       -1.92270        1.10970
H          8.20550       -2.70080        2.58620
H          9.50070       -1.06800        3.96160
H         10.54920       -1.93510        2.84250
H         10.06330       -0.27330        2.48690
H          4.81680        2.37730        0.21610
H          8.44340        0.96810       -4.88090
H          9.85580       -1.01900       -5.26450
H          9.24940       -3.17950       -4.25640
H          7.56990       -4.56870       -3.21230
H          6.03310       -3.87380       -2.67690
H          7.14840       -2.95270       -0.65050
H          8.68890       -3.62710       -1.18430
H          7.36060       -4.70450       -0.74020
H          5.78470       -1.39570       -2.52200
H         -4.85820       -0.02020       -7.50130
H         -6.56200       -1.43260       -8.56680
H         -8.95470       -0.97590       -8.21110
H        -10.23440        1.49790       -5.79520
H        -10.65690        0.11200       -6.81050
H         -9.98590        2.91280       -7.83840
H        -10.40800        1.53090       -8.84820
H        -11.60570        2.21270       -7.74260
H         -7.95020        2.35780       -5.75240
H          3.35450        5.04410       -3.69040
H          1.62360        4.99310       -3.42630
H          3.07550        6.18140       -5.85640
H          2.25260        7.09440       -4.58830
H          1.32200        6.10540       -5.72200
H         -0.12490        5.34000       -4.14920
H         -1.81970        4.89760       -4.03410
H         -1.29390        2.70830       -3.08580
H         -0.49930        3.95170       -2.11960
H          0.43770        2.97900       -3.26500
H         -6.21920        4.79070       -1.53760
H         -6.34530        4.92280       -3.29810
H         -8.23480        6.08450       -2.20900
H         -8.83320        4.69800       -3.12380
H         -8.69490        4.60460       -1.36520
H         -7.32380       -1.12540       -0.71160
H         -7.88350        1.00880        2.57360
H         -7.92590       -2.72140        6.23940
H         -7.02100       -3.21550        8.48460
H         -4.59030       -3.45780        8.80980
H         -3.05390       -3.19190        6.89550
H         -3.95510       -2.68480        4.65820
