
  xtb     02212206113D
 energy: -463.895415764453 gnorm: 0.000274251199 xtb: 6.4.1 (unknown)
290323  0     0  0            999 V2000
    2.2794  -13.6149    5.5034 C   0  0  0  0  0  0  0  0  0  0  0  0
    3.0585  -14.4279    6.2469 C   0  0  0  0  0  0  0  0  0  0  0  0
    4.5487  -14.3106    6.3474 C   0  0  0  0  0  0  0  0  0  0  0  0
    5.3033  -13.8885    5.5020 O   0  0  0  0  0  0  0  0  0  0  0  0
    4.8964  -14.9905    7.6079 C   0  0  0  0  0  0  0  0  0  0  0  0
    6.1322  -14.9949    8.2496 C   0  0  0  0  0  0  0  0  0  0  0  0
    6.1550  -15.7188    9.4164 C   0  0  0  0  0  0  0  0  0  0  0  0
    5.0307  -16.3961    9.9116 C   0  0  0  0  0  0  0  0  0  0  0  0
    3.8082  -16.4075    9.2868 C   0  0  0  0  0  0  0  0  0  0  0  0
    3.7628  -15.6760    8.0947 C   0  0  0  0  0  0  0  0  0  0  0  0
    2.6412  -15.4502    7.1907 C   0  0  0  0  0  0  0  0  0  0  0  0
    1.4281  -16.0826    7.2238 C   0  0  0  0  0  0  0  0  0  0  0  0
    0.3892  -15.8512    6.2974 C   0  0  0  0  0  0  0  0  0  0  0  0
   -0.4892  -15.7089    5.5720 N   0  0  0  0  0  0  0  0  0  0  0  0
    1.0747  -17.0811    8.1552 C   0  0  0  0  0  0  0  0  0  0  0  0
    0.7273  -17.9024    8.8782 N   0  0  0  0  0  0  0  0  0  0  0  0
    5.7755  -16.9158   11.1156 C   0  0  0  0  0  0  0  0  0  0  0  0
    6.2273  -18.3970   11.0968 C   0  0  0  0  0  0  0  0  0  0  0  0
    6.3868  -18.7775    9.6456 C   0  0  0  0  0  0  0  0  0  0  0  0
    7.4499  -18.1395    9.1745 C   0  0  0  0  0  0  0  0  0  0  0  0
    8.0287  -17.3165   10.2989 C   0  0  0  0  0  0  0  0  0  0  0  0
    7.7018  -18.2245   11.4951 C   0  0  0  0  0  0  0  0  0  0  0  0
    7.0275  -16.1643   10.5630 C   0  0  0  0  0  0  0  0  0  0  0  0
    2.7457  -12.4410    4.8320 C   0  0  0  0  0  0  0  0  0  0  0  0
    1.9919  -12.0210    3.3244 S   0  0  0  0  0  0  0  0  0  0  0  0
    2.9546  -10.5754    3.1592 C   0  0  0  0  0  0  0  0  0  0  0  0
    3.8033  -10.4344    4.2584 C   0  0  0  0  0  0  0  0  0  0  0  0
    4.7286   -9.3292    4.4342 C   0  0  0  0  0  0  0  0  0  0  0  0
    5.0343   -8.5551    3.5319 O   0  0  0  0  0  0  0  0  0  0  0  0
    5.2971   -9.2187    5.7731 C   0  0  0  0  0  0  0  0  0  0  0  0
    6.0810   -8.1773    6.2008 C   0  0  0  0  0  0  0  0  0  0  0  0
    6.5075   -6.9600    5.4627 C   0  0  0  0  0  0  0  0  0  0  0  0
    7.7572   -7.2393    4.6229 C   0  0  0  0  0  0  0  0  0  0  0  0
    6.6099   -8.4418    7.8286 S   0  0  0  0  0  0  0  0  0  0  0  0
    5.7699   -9.9491    7.9410 C   0  0  0  0  0  0  0  0  0  0  0  0
    5.8164  -10.7366    9.1997 C   0  0  0  0  0  0  0  0  0  0  0  0
    4.5878  -10.4514   10.0684 C   0  0  0  0  0  0  0  0  0  0  0  0
    5.0962  -10.2209    6.7742 C   0  0  0  0  0  0  0  0  0  0  0  0
    4.2839  -11.4114    6.5509 C   0  0  0  0  0  0  0  0  0  0  0  0
    4.0997  -12.2458    7.4297 O   0  0  0  0  0  0  0  0  0  0  0  0
    3.6648  -11.4795    5.2189 C   0  0  0  0  0  0  0  0  0  0  0  0
    2.6930   -9.7358    2.0507 C   0  0  0  0  0  0  0  0  0  0  0  0
    1.5755   -9.8629    1.2328 C   0  0  0  0  0  0  0  0  0  0  0  0
    1.5063   -8.8647    0.2743 C   0  0  0  0  0  0  0  0  0  0  0  0
    0.2990   -8.3782   -0.8903 S   0  0  0  0  0  0  0  0  0  0  0  0
    1.2522   -6.9762   -1.2562 C   0  0  0  0  0  0  0  0  0  0  0  0
    1.0803   -5.7492   -1.9470 C   0  0  0  0  0  0  0  0  0  0  0  0
    2.1659   -4.9223   -1.7064 C   0  0  0  0  0  0  0  0  0  0  0  0
    3.2306   -5.6738   -0.9343 C   0  0  0  0  0  0  0  0  0  0  0  0
    2.4564   -6.9226   -0.5684 C   0  0  0  0  0  0  0  0  0  0  0  0
    2.6042   -7.9861    0.3133 C   0  0  0  0  0  0  0  0  0  0  0  0
    3.7019   -8.3750    1.5818 S   0  0  0  0  0  0  0  0  0  0  0  0
    4.3505   -6.1604   -1.8436 C   0  0  0  0  0  0  0  0  0  0  0  0
    5.3036   -7.0435   -1.3474 C   0  0  0  0  0  0  0  0  0  0  0  0
    6.3277   -7.4997   -2.1546 C   0  0  0  0  0  0  0  0  0  0  0  0
    6.4169   -7.1106   -3.4849 C   0  0  0  0  0  0  0  0  0  0  0  0
    7.5712   -7.5460   -4.3401 C   0  0  0  0  0  0  0  0  0  0  0  0
    8.7086   -6.5267   -4.2442 C   0  0  0  0  0  0  0  0  0  0  0  0
    5.4375   -6.2672   -3.9882 C   0  0  0  0  0  0  0  0  0  0  0  0
    4.4147   -5.8007   -3.1826 C   0  0  0  0  0  0  0  0  0  0  0  0
    3.6781   -4.9588    0.3241 C   0  0  0  0  0  0  0  0  0  0  0  0
    5.0043   -4.8130    0.6982 C   0  0  0  0  0  0  0  0  0  0  0  0
    5.3312   -4.2278    1.9078 C   0  0  0  0  0  0  0  0  0  0  0  0
    4.3489   -3.7720    2.7730 C   0  0  0  0  0  0  0  0  0  0  0  0
    4.7091   -3.1153    4.0749 C   0  0  0  0  0  0  0  0  0  0  0  0
    4.8078   -1.5987    3.9022 C   0  0  0  0  0  0  0  0  0  0  0  0
    3.0208   -3.8985    2.3850 C   0  0  0  0  0  0  0  0  0  0  0  0
    2.6896   -4.4872    1.1819 C   0  0  0  0  0  0  0  0  0  0  0  0
    1.9526   -3.5971   -2.1539 C   0  0  0  0  0  0  0  0  0  0  0  0
    2.7237   -2.4308   -2.0019 C   0  0  0  0  0  0  0  0  0  0  0  0
    4.0631   -2.3868   -1.4259 C   0  0  0  0  0  0  0  0  0  0  0  0
    4.4601   -1.6848   -0.3262 C   0  0  0  0  0  0  0  0  0  0  0  0
    5.8504   -1.7462   -0.1028 C   0  0  0  0  0  0  0  0  0  0  0  0
    6.5166   -2.4704   -1.0408 C   0  0  0  0  0  0  0  0  0  0  0  0
    7.9750   -2.7606   -1.1389 C   0  0  0  0  0  0  0  0  0  0  0  0
    8.5801   -2.1948   -2.4235 C   0  0  0  0  0  0  0  0  0  0  0  0
    5.4254   -3.1011   -2.2280 S   0  0  0  0  0  0  0  0  0  0  0  0
    2.1447   -1.2349   -2.3978 C   0  0  0  0  0  0  0  0  0  0  0  0
    2.9560    0.3106   -2.2225 S   0  0  0  0  0  0  0  0  0  0  0  0
    1.5452    1.0943   -2.8316 C   0  0  0  0  0  0  0  0  0  0  0  0
    1.1414    2.4391   -3.0168 C   0  0  0  0  0  0  0  0  0  0  0  0
   -0.1723    2.4580   -3.4618 C   0  0  0  0  0  0  0  0  0  0  0  0
   -0.7189    1.0406   -3.5654 C   0  0  0  0  0  0  0  0  0  0  0  0
   -1.8242    0.9304   -2.5289 C   0  0  0  0  0  0  0  0  0  0  0  0
   -2.9854    1.6811   -2.6791 C   0  0  0  0  0  0  0  0  0  0  0  0
   -3.9751    1.6617   -1.7156 C   0  0  0  0  0  0  0  0  0  0  0  0
   -3.8374    0.8970   -0.5641 C   0  0  0  0  0  0  0  0  0  0  0  0
   -4.8805    0.9331    0.5147 C   0  0  0  0  0  0  0  0  0  0  0  0
   -4.5999    2.0838    1.4841 C   0  0  0  0  0  0  0  0  0  0  0  0
   -2.6771    0.1522   -0.4122 C   0  0  0  0  0  0  0  0  0  0  0  0
   -1.6829    0.1692   -1.3760 C   0  0  0  0  0  0  0  0  0  0  0  0
   -1.1352    0.7545   -4.9981 C   0  0  0  0  0  0  0  0  0  0  0  0
   -0.1597    0.8600   -5.9851 C   0  0  0  0  0  0  0  0  0  0  0  0
   -0.4706    0.6500   -7.3128 C   0  0  0  0  0  0  0  0  0  0  0  0
   -1.7697    0.3435   -7.6989 C   0  0  0  0  0  0  0  0  0  0  0  0
   -2.1202    0.1810   -9.1501 C   0  0  0  0  0  0  0  0  0  0  0  0
   -2.3917    1.5441   -9.7894 C   0  0  0  0  0  0  0  0  0  0  0  0
   -2.7372    0.2360   -6.7124 C   0  0  0  0  0  0  0  0  0  0  0  0
   -2.4261    0.4241   -5.3770 C   0  0  0  0  0  0  0  0  0  0  0  0
    0.5128    0.2445   -3.1747 C   0  0  0  0  0  0  0  0  0  0  0  0
    0.8462   -1.1174   -2.9707 C   0  0  0  0  0  0  0  0  0  0  0  0
    0.1166   -2.2926   -3.2060 C   0  0  0  0  0  0  0  0  0  0  0  0
    0.6717   -3.4825   -2.7667 C   0  0  0  0  0  0  0  0  0  0  0  0
   -0.2082   -4.9989   -2.8178 S   0  0  0  0  0  0  0  0  0  0  0  0
   -1.1607   -2.3501   -3.9178 C   0  0  0  0  0  0  0  0  0  0  0  0
   -2.4326   -2.3055   -3.4462 C   0  0  0  0  0  0  0  0  0  0  0  0
   -3.4035   -2.5691   -4.4406 C   0  0  0  0  0  0  0  0  0  0  0  0
   -2.8716   -2.8305   -5.6619 C   0  0  0  0  0  0  0  0  0  0  0  0
   -3.5405   -3.1813   -6.9493 C   0  0  0  0  0  0  0  0  0  0  0  0
   -5.0537   -3.0061   -6.9076 C   0  0  0  0  0  0  0  0  0  0  0  0
   -1.1391   -2.7418   -5.6152 S   0  0  0  0  0  0  0  0  0  0  0  0
   -0.6306    3.7700   -3.6014 C   0  0  0  0  0  0  0  0  0  0  0  0
    0.3441    4.7189   -3.2630 C   0  0  0  0  0  0  0  0  0  0  0  0
    1.8483    3.9998   -2.7864 S   0  0  0  0  0  0  0  0  0  0  0  0
   -0.1097    6.0404   -3.2764 C   0  0  0  0  0  0  0  0  0  0  0  0
   -1.4353    6.1239   -3.6212 C   0  0  0  0  0  0  0  0  0  0  0  0
   -2.1137    4.5516   -4.0166 S   0  0  0  0  0  0  0  0  0  0  0  0
   -2.2891    7.2600   -3.4724 C   0  0  0  0  0  0  0  0  0  0  0  0
   -2.3179    8.1098   -2.3737 C   0  0  0  0  0  0  0  0  0  0  0  0
   -1.5526    7.9773   -1.2303 N   0  0  0  0  0  0  0  0  0  0  0  0
   -1.1959    6.7142   -0.7361 C   0  0  0  0  0  0  0  0  0  0  0  0
   -2.0745    5.6357   -0.8095 C   0  0  0  0  0  0  0  0  0  0  0  0
   -1.6674    4.3770   -0.4128 C   0  0  0  0  0  0  0  0  0  0  0  0
   -0.3892    4.1615    0.0867 C   0  0  0  0  0  0  0  0  0  0  0  0
    0.0629    2.7926    0.4915 C   0  0  0  0  0  0  0  0  0  0  0  0
    0.4624    5.2532    0.2120 C   0  0  0  0  0  0  0  0  0  0  0  0
    0.0725    6.5122   -0.1957 C   0  0  0  0  0  0  0  0  0  0  0  0
   -1.1926    9.1351   -0.5207 C   0  0  0  0  0  0  0  0  0  0  0  0
   -0.8084   10.2871   -1.2015 C   0  0  0  0  0  0  0  0  0  0  0  0
   -0.4959   11.4348   -0.5013 C   0  0  0  0  0  0  0  0  0  0  0  0
   -0.5449   11.4632    0.8865 C   0  0  0  0  0  0  0  0  0  0  0  0
   -0.2471   12.7252    1.6357 C   0  0  0  0  0  0  0  0  0  0  0  0
   -0.9045   10.3012    1.5581 C   0  0  0  0  0  0  0  0  0  0  0  0
   -1.2280    9.1496    0.8703 C   0  0  0  0  0  0  0  0  0  0  0  0
   -3.3059    9.1122   -2.5336 C   0  0  0  0  0  0  0  0  0  0  0  0
   -3.8647   10.3856   -1.5116 S   0  0  0  0  0  0  0  0  0  0  0  0
   -5.1025   10.8043   -2.7010 C   0  0  0  0  0  0  0  0  0  0  0  0
   -5.1003    9.9135   -3.8060 C   0  0  0  0  0  0  0  0  0  0  0  0
   -6.0002    9.9187   -4.8383 N   0  0  0  0  0  0  0  0  0  0  0  0
   -5.5720    9.4770   -6.1055 C   0  0  0  0  0  0  0  0  0  0  0  0
   -6.3530    8.6022   -6.8540 C   0  0  0  0  0  0  0  0  0  0  0  0
   -5.9192    8.1792   -8.0943 C   0  0  0  0  0  0  0  0  0  0  0  0
   -4.7054    8.6104   -8.6168 C   0  0  0  0  0  0  0  0  0  0  0  0
   -4.2266    8.1240   -9.9496 C   0  0  0  0  0  0  0  0  0  0  0  0
   -3.9356    9.4886   -7.8633 C   0  0  0  0  0  0  0  0  0  0  0  0
   -4.3594    9.9230   -6.6238 C   0  0  0  0  0  0  0  0  0  0  0  0
   -7.3623   10.2218   -4.6556 C   0  0  0  0  0  0  0  0  0  0  0  0
   -8.0669   10.8846   -5.6573 C   0  0  0  0  0  0  0  0  0  0  0  0
   -9.4019   11.1867   -5.4773 C   0  0  0  0  0  0  0  0  0  0  0  0
  -10.0636   10.8507   -4.3022 C   0  0  0  0  0  0  0  0  0  0  0  0
  -11.4983   11.2319   -4.1050 C   0  0  0  0  0  0  0  0  0  0  0  0
   -9.3565   10.1701   -3.3176 C   0  0  0  0  0  0  0  0  0  0  0  0
   -8.0256    9.8467   -3.4895 C   0  0  0  0  0  0  0  0  0  0  0  0
   -4.0483    8.9875   -3.7005 C   0  0  0  0  0  0  0  0  0  0  0  0
   -3.5351    7.6293   -4.6534 S   0  0  0  0  0  0  0  0  0  0  0  0
   -5.9241   11.9268   -2.6261 C   0  0  0  0  0  0  0  0  0  0  0  0
   -6.0980   12.8424   -1.6119 C   0  0  0  0  0  0  0  0  0  0  0  0
   -5.4921   12.7916   -0.2807 C   0  0  0  0  0  0  0  0  0  0  0  0
   -4.6376   12.0222    0.1272 O   0  0  0  0  0  0  0  0  0  0  0  0
   -6.1327   13.8618    0.5060 C   0  0  0  0  0  0  0  0  0  0  0  0
   -5.8903   14.1814    1.8394 C   0  0  0  0  0  0  0  0  0  0  0  0
   -6.6500   15.2256    2.3099 C   0  0  0  0  0  0  0  0  0  0  0  0
   -7.5798   15.9031    1.5116 C   0  0  0  0  0  0  0  0  0  0  0  0
   -7.8222   15.6018    0.1916 C   0  0  0  0  0  0  0  0  0  0  0  0
   -7.0623   14.5398   -0.3064 C   0  0  0  0  0  0  0  0  0  0  0  0
   -7.0257   13.9471   -1.6445 C   0  0  0  0  0  0  0  0  0  0  0  0
   -7.7388   14.3988   -2.7300 C   0  0  0  0  0  0  0  0  0  0  0  0
   -8.7014   15.4256   -2.6823 C   0  0  0  0  0  0  0  0  0  0  0  0
   -9.5158   16.2355   -2.7193 N   0  0  0  0  0  0  0  0  0  0  0  0
   -7.5958   13.9378   -4.0522 C   0  0  0  0  0  0  0  0  0  0  0  0
   -7.5180   13.6541   -5.1642 N   0  0  0  0  0  0  0  0  0  0  0  0
   -7.9898   16.8266    2.6325 C   0  0  0  0  0  0  0  0  0  0  0  0
   -9.3298   16.5123    3.3305 C   0  0  0  0  0  0  0  0  0  0  0  0
   -9.2333   17.2480    4.6474 C   0  0  0  0  0  0  0  0  0  0  0  0
   -8.3510   16.6075    5.4038 C   0  0  0  0  0  0  0  0  0  0  0  0
   -7.8366   15.4281    4.6106 C   0  0  0  0  0  0  0  0  0  0  0  0
   -9.0991   15.0747    3.8140 C   0  0  0  0  0  0  0  0  0  0  0  0
   -6.9511   16.0717    3.5226 C   0  0  0  0  0  0  0  0  0  0  0  0
    1.2205  -13.8177    5.4017 H   0  0  0  0  0  0  0  0  0  0  0  0
    6.9722  -14.4575    7.8374 H   0  0  0  0  0  0  0  0  0  0  0  0
    2.9499  -16.9268    9.6804 H   0  0  0  0  0  0  0  0  0  0  0  0
    5.3853  -16.6130   12.0853 H   0  0  0  0  0  0  0  0  0  0  0  0
    5.6186  -19.0621   11.7032 H   0  0  0  0  0  0  0  0  0  0  0  0
    5.6978  -19.4060    9.1127 H   0  0  0  0  0  0  0  0  0  0  0  0
    7.8267  -18.1282    8.1686 H   0  0  0  0  0  0  0  0  0  0  0  0
    9.0612  -16.9985   10.1790 H   0  0  0  0  0  0  0  0  0  0  0  0
    8.2556  -19.1618   11.4758 H   0  0  0  0  0  0  0  0  0  0  0  0
    7.8368  -17.7371   12.4598 H   0  0  0  0  0  0  0  0  0  0  0  0
    7.4580  -15.3723   11.1730 H   0  0  0  0  0  0  0  0  0  0  0  0
    6.7140   -6.1584    6.1752 H   0  0  0  0  0  0  0  0  0  0  0  0
    5.7025   -6.6501    4.7926 H   0  0  0  0  0  0  0  0  0  0  0  0
    8.0746   -6.3292    4.1217 H   0  0  0  0  0  0  0  0  0  0  0  0
    8.5702   -7.5973    5.2510 H   0  0  0  0  0  0  0  0  0  0  0  0
    7.5313   -7.9884    3.8693 H   0  0  0  0  0  0  0  0  0  0  0  0
    5.8250  -11.7996    8.9485 H   0  0  0  0  0  0  0  0  0  0  0  0
    6.7240  -10.4864    9.7528 H   0  0  0  0  0  0  0  0  0  0  0  0
    4.6569  -11.0071   10.9995 H   0  0  0  0  0  0  0  0  0  0  0  0
    4.5177   -9.3900   10.2969 H   0  0  0  0  0  0  0  0  0  0  0  0
    3.6876  -10.7628    9.5457 H   0  0  0  0  0  0  0  0  0  0  0  0
    0.8360  -10.6315    1.3710 H   0  0  0  0  0  0  0  0  0  0  0  0
    5.2479   -7.3769   -0.3219 H   0  0  0  0  0  0  0  0  0  0  0  0
    7.0657   -8.1740   -1.7438 H   0  0  0  0  0  0  0  0  0  0  0  0
    7.2516   -7.6318   -5.3804 H   0  0  0  0  0  0  0  0  0  0  0  0
    7.9324   -8.5222   -4.0105 H   0  0  0  0  0  0  0  0  0  0  0  0
    9.0527   -6.4406   -3.2158 H   0  0  0  0  0  0  0  0  0  0  0  0
    9.5472   -6.8300   -4.8668 H   0  0  0  0  0  0  0  0  0  0  0  0
    8.3662   -5.5480   -4.5730 H   0  0  0  0  0  0  0  0  0  0  0  0
    5.4731   -5.9651   -5.0250 H   0  0  0  0  0  0  0  0  0  0  0  0
    3.6723   -5.1417   -3.6063 H   0  0  0  0  0  0  0  0  0  0  0  0
    5.7956   -5.1496    0.0477 H   0  0  0  0  0  0  0  0  0  0  0  0
    6.3720   -4.1319    2.1826 H   0  0  0  0  0  0  0  0  0  0  0  0
    5.6672   -3.5006    4.4301 H   0  0  0  0  0  0  0  0  0  0  0  0
    3.9499   -3.3426    4.8265 H   0  0  0  0  0  0  0  0  0  0  0  0
    5.5732   -1.3525    3.1702 H   0  0  0  0  0  0  0  0  0  0  0  0
    3.8601   -1.1952    3.5530 H   0  0  0  0  0  0  0  0  0  0  0  0
    5.0624   -1.1214    4.8459 H   0  0  0  0  0  0  0  0  0  0  0  0
    2.2370   -3.5436    3.0397 H   0  0  0  0  0  0  0  0  0  0  0  0
    1.6499   -4.5915    0.9031 H   0  0  0  0  0  0  0  0  0  0  0  0
    3.7731   -1.1682    0.3198 H   0  0  0  0  0  0  0  0  0  0  0  0
    6.3380   -1.2647    0.7261 H   0  0  0  0  0  0  0  0  0  0  0  0
    8.4765   -2.3288   -0.2700 H   0  0  0  0  0  0  0  0  0  0  0  0
    8.1320   -3.8433   -1.1195 H   0  0  0  0  0  0  0  0  0  0  0  0
    8.4459   -1.1162   -2.4618 H   0  0  0  0  0  0  0  0  0  0  0  0
    9.6435   -2.4163   -2.4715 H   0  0  0  0  0  0  0  0  0  0  0  0
    8.0928   -2.6342   -3.2909 H   0  0  0  0  0  0  0  0  0  0  0  0
   -3.1170    2.2972   -3.5548 H   0  0  0  0  0  0  0  0  0  0  0  0
   -4.8655    2.2574   -1.8587 H   0  0  0  0  0  0  0  0  0  0  0  0
   -4.8783   -0.0101    1.0648 H   0  0  0  0  0  0  0  0  0  0  0  0
   -5.8690    1.0689    0.0712 H   0  0  0  0  0  0  0  0  0  0  0  0
   -3.6171    1.9673    1.9359 H   0  0  0  0  0  0  0  0  0  0  0  0
   -5.3459    2.1056    2.2751 H   0  0  0  0  0  0  0  0  0  0  0  0
   -4.6226    3.0369    0.9602 H   0  0  0  0  0  0  0  0  0  0  0  0
   -2.5407   -0.4486    0.4763 H   0  0  0  0  0  0  0  0  0  0  0  0
   -0.7936   -0.4204   -1.2145 H   0  0  0  0  0  0  0  0  0  0  0  0
    0.8549    1.1074   -5.7064 H   0  0  0  0  0  0  0  0  0  0  0  0
    0.3050    0.7278   -8.0612 H   0  0  0  0  0  0  0  0  0  0  0  0
   -3.0100   -0.4444   -9.2512 H   0  0  0  0  0  0  0  0  0  0  0  0
   -1.2972   -0.3069   -9.6768 H   0  0  0  0  0  0  0  0  0  0  0  0
   -2.6475    1.4284  -10.8402 H   0  0  0  0  0  0  0  0  0  0  0  0
   -1.5125    2.1797   -9.7131 H   0  0  0  0  0  0  0  0  0  0  0  0
   -3.2163    2.0406   -9.2826 H   0  0  0  0  0  0  0  0  0  0  0  0
   -3.7546   -0.0037   -6.9864 H   0  0  0  0  0  0  0  0  0  0  0  0
   -3.1997    0.2942   -4.6371 H   0  0  0  0  0  0  0  0  0  0  0  0
   -2.6752   -2.0936   -2.4204 H   0  0  0  0  0  0  0  0  0  0  0  0
   -4.4582   -2.5672   -4.2339 H   0  0  0  0  0  0  0  0  0  0  0  0
   -3.3036   -4.2212   -7.1980 H   0  0  0  0  0  0  0  0  0  0  0  0
   -3.1159   -2.5599   -7.7431 H   0  0  0  0  0  0  0  0  0  0  0  0
   -5.4978   -3.6793   -6.1788 H   0  0  0  0  0  0  0  0  0  0  0  0
   -5.3149   -1.9851   -6.6401 H   0  0  0  0  0  0  0  0  0  0  0  0
   -5.4800   -3.2284   -7.8831 H   0  0  0  0  0  0  0  0  0  0  0  0
    0.4956    6.8937   -3.0333 H   0  0  0  0  0  0  0  0  0  0  0  0
   -3.0718    5.7847   -1.1973 H   0  0  0  0  0  0  0  0  0  0  0  0
   -2.3499    3.5445   -0.5038 H   0  0  0  0  0  0  0  0  0  0  0  0
    0.0008    2.6798    1.5745 H   0  0  0  0  0  0  0  0  0  0  0  0
    1.0984    2.6282    0.1985 H   0  0  0  0  0  0  0  0  0  0  0  0
   -0.5601    2.0291    0.0313 H   0  0  0  0  0  0  0  0  0  0  0  0
    1.4570    5.1084    0.6086 H   0  0  0  0  0  0  0  0  0  0  0  0
    0.7548    7.3461   -0.1186 H   0  0  0  0  0  0  0  0  0  0  0  0
   -0.7589   10.2773   -2.2811 H   0  0  0  0  0  0  0  0  0  0  0  0
   -0.2084   12.3246   -1.0428 H   0  0  0  0  0  0  0  0  0  0  0  0
   -1.1479   13.3373    1.6923 H   0  0  0  0  0  0  0  0  0  0  0  0
    0.5219   13.3061    1.1309 H   0  0  0  0  0  0  0  0  0  0  0  0
    0.0803   12.5095    2.6501 H   0  0  0  0  0  0  0  0  0  0  0  0
   -0.9469   10.3013    2.6378 H   0  0  0  0  0  0  0  0  0  0  0  0
   -1.5213    8.2573    1.4035 H   0  0  0  0  0  0  0  0  0  0  0  0
   -7.2949    8.2548   -6.4559 H   0  0  0  0  0  0  0  0  0  0  0  0
   -6.5319    7.4962   -8.6643 H   0  0  0  0  0  0  0  0  0  0  0  0
   -5.0636    7.8540  -10.5890 H   0  0  0  0  0  0  0  0  0  0  0  0
   -3.6024    7.2395   -9.8181 H   0  0  0  0  0  0  0  0  0  0  0  0
   -3.6303    8.8843  -10.4487 H   0  0  0  0  0  0  0  0  0  0  0  0
   -2.9937    9.8433   -8.2558 H   0  0  0  0  0  0  0  0  0  0  0  0
   -3.7597   10.6168   -6.0529 H   0  0  0  0  0  0  0  0  0  0  0  0
   -7.5609   11.1736   -6.5649 H   0  0  0  0  0  0  0  0  0  0  0  0
   -9.9331   11.7134   -6.2555 H   0  0  0  0  0  0  0  0  0  0  0  0
  -11.5792   12.3084   -3.9525 H   0  0  0  0  0  0  0  0  0  0  0  0
  -11.9212   10.7299   -3.2383 H   0  0  0  0  0  0  0  0  0  0  0  0
  -12.0881   10.9770   -4.9834 H   0  0  0  0  0  0  0  0  0  0  0  0
   -9.8557    9.8813   -2.4037 H   0  0  0  0  0  0  0  0  0  0  0  0
   -7.4918    9.3114   -2.7178 H   0  0  0  0  0  0  0  0  0  0  0  0
   -6.5286   12.0875   -3.5094 H   0  0  0  0  0  0  0  0  0  0  0  0
   -5.1614   13.6338    2.4162 H   0  0  0  0  0  0  0  0  0  0  0  0
   -8.5372   16.1377   -0.4099 H   0  0  0  0  0  0  0  0  0  0  0  0
   -7.8443   17.8897    2.4499 H   0  0  0  0  0  0  0  0  0  0  0  0
  -10.2130   16.7025    2.7268 H   0  0  0  0  0  0  0  0  0  0  0  0
   -9.7570   18.1604    4.8649 H   0  0  0  0  0  0  0  0  0  0  0  0
   -7.9905   16.8781    6.3790 H   0  0  0  0  0  0  0  0  0  0  0  0
   -7.3596   14.6302    5.1737 H   0  0  0  0  0  0  0  0  0  0  0  0
   -9.9051   14.7216    4.4554 H   0  0  0  0  0  0  0  0  0  0  0  0
   -8.9312   14.3585    3.0118 H   0  0  0  0  0  0  0  0  0  0  0  0
   -6.1128   16.6322    3.9324 H   0  0  0  0  0  0  0  0  0  0  0  0
  1  2  2  0  0  0  0
  2  3  1  0  0  0  0
  3  4  2  0  0  0  0
  3  5  1  0  0  0  0
  5  6  2  0  0  0  0
  6  7  1  0  0  0  0
  7  8  2  0  0  0  0
  8  9  1  0  0  0  0
  9 10  2  0  0  0  0
 10 11  1  0  0  0  0
 11 12  2  0  0  0  0
 12 13  1  0  0  0  0
 13 14  3  0  0  0  0
 12 15  1  0  0  0  0
 15 16  3  0  0  0  0
  8 17  1  0  0  0  0
 17 18  1  0  0  0  0
 18 19  1  0  0  0  0
 19 20  2  0  0  0  0
 20 21  1  0  0  0  0
 21 22  1  0  0  0  0
 21 23  1  0  0  0  0
  1 24  1  0  0  0  0
 24 25  1  0  0  0  0
 25 26  1  0  0  0  0
 26 27  2  0  0  0  0
 27 28  1  0  0  0  0
 28 29  2  0  0  0  0
 28 30  1  0  0  0  0
 30 31  2  0  0  0  0
 31 32  1  0  0  0  0
 32 33  1  0  0  0  0
 31 34  1  0  0  0  0
 34 35  1  0  0  0  0
 35 36  1  0  0  0  0
 36 37  1  0  0  0  0
 35 38  2  0  0  0  0
 38 39  1  0  0  0  0
 39 40  2  0  0  0  0
 39 41  1  0  0  0  0
 26 42  1  0  0  0  0
 42 43  2  0  0  0  0
 43 44  1  0  0  0  0
 44 45  1  0  0  0  0
 45 46  1  0  0  0  0
 46 47  1  0  0  0  0
 47 48  2  0  0  0  0
 48 49  1  0  0  0  0
 49 50  1  0  0  0  0
 50 51  1  0  0  0  0
 51 52  1  0  0  0  0
 49 53  1  0  0  0  0
 53 54  2  0  0  0  0
 54 55  1  0  0  0  0
 55 56  2  0  0  0  0
 56 57  1  0  0  0  0
 57 58  1  0  0  0  0
 56 59  1  0  0  0  0
 59 60  2  0  0  0  0
 49 61  1  0  0  0  0
 61 62  2  0  0  0  0
 62 63  1  0  0  0  0
 63 64  2  0  0  0  0
 64 65  1  0  0  0  0
 65 66  1  0  0  0  0
 64 67  1  0  0  0  0
 67 68  2  0  0  0  0
 48 69  1  0  0  0  0
 69 70  2  0  0  0  0
 70 71  1  0  0  0  0
 71 72  2  0  0  0  0
 72 73  1  0  0  0  0
 73 74  2  0  0  0  0
 74 75  1  0  0  0  0
 75 76  1  0  0  0  0
 74 77  1  0  0  0  0
 70 78  1  0  0  0  0
 78 79  1  0  0  0  0
 79 80  1  0  0  0  0
 80 81  1  0  0  0  0
 81 82  2  0  0  0  0
 82 83  1  0  0  0  0
 83 84  1  0  0  0  0
 84 85  2  0  0  0  0
 85 86  1  0  0  0  0
 86 87  2  0  0  0  0
 87 88  1  0  0  0  0
 88 89  1  0  0  0  0
 87 90  1  0  0  0  0
 90 91  2  0  0  0  0
 83 92  1  0  0  0  0
 92 93  2  0  0  0  0
 93 94  1  0  0  0  0
 94 95  2  0  0  0  0
 95 96  1  0  0  0  0
 96 97  1  0  0  0  0
 95 98  1  0  0  0  0
 98 99  2  0  0  0  0
 83100  1  0  0  0  0
100101  1  0  0  0  0
101102  1  0  0  0  0
102103  2  0  0  0  0
103104  1  0  0  0  0
102105  1  0  0  0  0
105106  2  0  0  0  0
106107  1  0  0  0  0
107108  2  0  0  0  0
108109  1  0  0  0  0
109110  1  0  0  0  0
108111  1  0  0  0  0
 82112  1  0  0  0  0
112113  2  0  0  0  0
113114  1  0  0  0  0
113115  1  0  0  0  0
115116  2  0  0  0  0
116117  1  0  0  0  0
116118  1  0  0  0  0
118119  2  0  0  0  0
119120  1  0  0  0  0
120121  1  0  0  0  0
121122  2  0  0  0  0
122123  1  0  0  0  0
123124  2  0  0  0  0
124125  1  0  0  0  0
124126  1  0  0  0  0
126127  2  0  0  0  0
120128  1  0  0  0  0
128129  2  0  0  0  0
129130  1  0  0  0  0
130131  2  0  0  0  0
131132  1  0  0  0  0
131133  1  0  0  0  0
133134  2  0  0  0  0
119135  1  0  0  0  0
135136  1  0  0  0  0
136137  1  0  0  0  0
137138  2  0  0  0  0
138139  1  0  0  0  0
139140  1  0  0  0  0
140141  2  0  0  0  0
141142  1  0  0  0  0
142143  2  0  0  0  0
143144  1  0  0  0  0
143145  1  0  0  0  0
145146  2  0  0  0  0
139147  1  0  0  0  0
147148  2  0  0  0  0
148149  1  0  0  0  0
149150  2  0  0  0  0
150151  1  0  0  0  0
150152  1  0  0  0  0
152153  2  0  0  0  0
138154  1  0  0  0  0
154155  1  0  0  0  0
137156  1  0  0  0  0
156157  2  0  0  0  0
157158  1  0  0  0  0
158159  2  0  0  0  0
158160  1  0  0  0  0
160161  2  0  0  0  0
161162  1  0  0  0  0
162163  2  0  0  0  0
163164  1  0  0  0  0
164165  2  0  0  0  0
165166  1  0  0  0  0
166167  2  0  0  0  0
167168  1  0  0  0  0
168169  3  0  0  0  0
167170  1  0  0  0  0
170171  3  0  0  0  0
163172  1  0  0  0  0
172173  1  0  0  0  0
173174  1  0  0  0  0
174175  2  0  0  0  0
175176  1  0  0  0  0
176177  1  0  0  0  0
176178  1  0  0  0  0
 11  2  1  0  0  0  0
 23 17  1  0  0  0  0
 41 24  2  0  0  0  0
 52 42  1  0  0  0  0
 60 53  1  0  0  0  0
 68 61  1  0  0  0  0
103 69  1  0  0  0  0
111105  1  0  0  0  0
117112  1  0  0  0  0
155118  1  0  0  0  0
166157  1  0  0  0  0
178172  1  0  0  0  0
 10  5  1  0  0  0  0
 22 18  1  0  0  0  0
 41 27  1  0  0  0  0
 51 44  2  0  0  0  0
 77 71  1  0  0  0  0
101 78  2  0  0  0  0
127121  1  0  0  0  0
134128  1  0  0  0  0
154135  2  0  0  0  0
165160  1  0  0  0  0
177173  1  0  0  0  0
 23  7  1  0  0  0  0
 38 30  1  0  0  0  0
 50 46  2  0  0  0  0
100 80  2  0  0  0  0
146140  1  0  0  0  0
153147  1  0  0  0  0
178162  1  0  0  0  0
104 47  1  0  0  0  0
114 81  1  0  0  0  0
 91 84  1  0  0  0  0
 99 92  1  0  0  0  0
  1179  1  0  0  0  0
  6180  1  0  0  0  0
  9181  1  0  0  0  0
 17182  1  0  0  0  0
 18183  1  0  0  0  0
 19184  1  0  0  0  0
 20185  1  0  0  0  0
 21186  1  0  0  0  0
 22187  1  0  0  0  0
 22188  1  0  0  0  0
 23189  1  0  0  0  0
 32190  1  0  0  0  0
 32191  1  0  0  0  0
 33192  1  0  0  0  0
 33193  1  0  0  0  0
 33194  1  0  0  0  0
 36195  1  0  0  0  0
 36196  1  0  0  0  0
 37197  1  0  0  0  0
 37198  1  0  0  0  0
 37199  1  0  0  0  0
 43200  1  0  0  0  0
 54201  1  0  0  0  0
 55202  1  0  0  0  0
 57203  1  0  0  0  0
 57204  1  0  0  0  0
 58205  1  0  0  0  0
 58206  1  0  0  0  0
 58207  1  0  0  0  0
 59208  1  0  0  0  0
 60209  1  0  0  0  0
 62210  1  0  0  0  0
 63211  1  0  0  0  0
 65212  1  0  0  0  0
 65213  1  0  0  0  0
 66214  1  0  0  0  0
 66215  1  0  0  0  0
 66216  1  0  0  0  0
 67217  1  0  0  0  0
 68218  1  0  0  0  0
 72219  1  0  0  0  0
 73220  1  0  0  0  0
 75221  1  0  0  0  0
 75222  1  0  0  0  0
 76223  1  0  0  0  0
 76224  1  0  0  0  0
 76225  1  0  0  0  0
 85226  1  0  0  0  0
 86227  1  0  0  0  0
 88228  1  0  0  0  0
 88229  1  0  0  0  0
 89230  1  0  0  0  0
 89231  1  0  0  0  0
 89232  1  0  0  0  0
 90233  1  0  0  0  0
 91234  1  0  0  0  0
 93235  1  0  0  0  0
 94236  1  0  0  0  0
 96237  1  0  0  0  0
 96238  1  0  0  0  0
 97239  1  0  0  0  0
 97240  1  0  0  0  0
 97241  1  0  0  0  0
 98242  1  0  0  0  0
 99243  1  0  0  0  0
106244  1  0  0  0  0
107245  1  0  0  0  0
109246  1  0  0  0  0
109247  1  0  0  0  0
110248  1  0  0  0  0
110249  1  0  0  0  0
110250  1  0  0  0  0
115251  1  0  0  0  0
122252  1  0  0  0  0
123253  1  0  0  0  0
125254  1  0  0  0  0
125255  1  0  0  0  0
125256  1  0  0  0  0
126257  1  0  0  0  0
127258  1  0  0  0  0
129259  1  0  0  0  0
130260  1  0  0  0  0
132261  1  0  0  0  0
132262  1  0  0  0  0
132263  1  0  0  0  0
133264  1  0  0  0  0
134265  1  0  0  0  0
141266  1  0  0  0  0
142267  1  0  0  0  0
144268  1  0  0  0  0
144269  1  0  0  0  0
144270  1  0  0  0  0
145271  1  0  0  0  0
146272  1  0  0  0  0
148273  1  0  0  0  0
149274  1  0  0  0  0
151275  1  0  0  0  0
151276  1  0  0  0  0
151277  1  0  0  0  0
152278  1  0  0  0  0
153279  1  0  0  0  0
156280  1  0  0  0  0
161281  1  0  0  0  0
164282  1  0  0  0  0
172283  1  0  0  0  0
173284  1  0  0  0  0
174285  1  0  0  0  0
175286  1  0  0  0  0
176287  1  0  0  0  0
177288  1  0  0  0  0
177289  1  0  0  0  0
178290  1  0  0  0  0
M  END
