199

C          1.47000        2.13850      -11.75270
C          1.41990        3.44980      -12.10980
C          0.84000        4.58690      -11.34950
O          0.02640        4.56940      -10.44930
C          1.49700        5.79440      -11.88750
C          1.37230        7.09390      -11.39890
C          2.12610        8.02100      -12.07650
C          2.94840        7.68370      -13.16080
C          3.07820        6.40830      -13.65560
C          2.31590        5.44900      -12.98060
C          2.20810        4.01240      -13.19770
C          2.68930        3.32070      -14.27650
C          2.46890        1.94630      -14.51410
N          2.30510        0.84600      -14.79940
C          3.42540        3.90360      -15.32890
N          4.03050        4.31750      -16.21270
C          3.42120        9.10420      -13.34650
C          2.79410        9.89480      -14.51410
C          3.06720       11.33900      -14.16040
C          2.28630       11.65830      -13.13620
C          1.47220       10.43520      -12.78030
C          1.30010        9.81770      -14.17410
C          2.50220        9.48030      -12.14020
C          0.77490        1.43880      -10.71410
C         -0.50430        1.79620      -10.27850
C         -1.15470        1.09980       -9.27810
O         -2.35760        1.43090       -8.75090
C         -3.01380        2.61090       -9.18010
C         -3.79590        2.41350      -10.47400
C         -0.50840       -0.01710       -8.70220
C          0.76050       -0.38610       -9.13710
C          1.41080        0.30760      -10.14470
O          2.65800        0.03270      -10.60140
C          3.27630       -1.19980      -10.28140
C          2.63720       -2.37640      -11.01090
C         -1.13880       -0.73880       -7.61320
C         -2.43670       -1.18250       -7.50680
C         -3.38880       -1.16750       -8.61540
C         -4.73370       -0.88210       -8.39950
C         -5.61290       -0.86650       -9.46560
C         -5.16620       -1.13460      -10.74900
C         -3.83030       -1.43730      -10.98010
C         -3.31430       -1.70080      -12.36610
C         -2.63610       -0.45280      -12.93480
C         -2.95540       -1.45590       -9.90550
C         -2.69290       -1.71240       -6.22070
S         -4.11880       -2.39250       -5.47340
C         -3.22560       -2.59940       -4.00410
C         -3.44020       -2.98660       -2.67150
C         -4.62400       -3.35830       -1.99870
C         -4.58990       -3.51540       -0.57360
N         -5.77940       -3.79850       -0.06610
S         -6.84940       -3.86950       -1.27970
N         -5.83720       -3.53590       -2.49810
C         -3.35430       -3.38970        0.09700
C         -3.02710       -3.51890        1.45580
S         -3.81570       -3.75470        2.97920
C         -2.26160       -3.63760        3.76790
C         -1.88060       -3.65260        5.11760
C         -2.79900       -3.84540        6.25070
C         -2.80080       -5.05100        6.94520
C         -3.62600       -5.20720        8.04280
C         -4.44130       -4.16820        8.45520
C         -4.46160       -2.96530        7.76110
C         -5.38210       -1.85570        8.17870
C         -6.71160       -1.95810        7.42870
C         -3.64400       -2.81830        6.64980
C         -0.51870       -3.46090        5.26420
S          0.30690       -3.30550        3.71770
C         -1.19760       -3.45000        2.87870
C         -1.64040       -3.37890        1.55410
N         -1.09890       -3.15350        0.31590
C         -2.14020       -3.12950       -0.60050
C         -2.20210       -2.82620       -1.98660
N         -1.26880       -2.34280       -2.89100
C         -1.89530       -2.18940       -4.09720
C         -1.58990       -1.68360       -5.36910
S         -0.20550       -1.01070       -6.15580
C          0.00360       -1.69670       -2.66620
C         -0.14550       -0.45080       -1.79610
C          0.31450       -3.38610        0.11250
C          0.56100       -4.63960       -0.72300
C          0.21130       -3.26450        6.46580
C          1.56430       -3.10070        6.60730
C          1.96930       -2.81170        7.92920
C          3.26700       -2.52680        8.40750
C          4.42360       -2.67640        7.54930
C          4.65770       -3.66380        6.63270
C          5.89090       -3.49270        5.97660
F          6.32560       -4.35500        5.03800
C          6.61200       -2.40160        6.36200
C          7.92770       -1.93130        5.84660
C          7.78180       -0.64980        5.02420
S          5.74420       -1.54050        7.58560
C          3.36330       -2.10770        9.73000
C          2.24290       -2.00170       10.60250
C          0.94920       -2.33350       10.13460
C         -0.24520       -2.21440       10.94170
S         -0.49530       -0.86260       12.01200
C         -2.08890       -1.38680       12.41760
C         -2.96990       -0.60190       13.32390
C         -3.46950        0.68400       12.64980
C         -4.32570        0.38810       11.42520
C         -2.37380       -2.54250       11.74870
C         -1.35230       -3.02060       10.91110
F         -3.55090       -3.18200       11.87800
C          0.86000       -2.73420        8.80990
S         -0.63310       -3.09150        7.98780
C          2.60600       -1.59000       11.89440
C          3.95360       -1.35210       12.04560
S          4.83110       -1.67650       10.54860
C          4.72720       -0.90610       13.13450
C          4.37980       -0.47970       14.39060
C          3.03130       -0.31420       14.97430
O          1.95100       -0.64380       14.53120
C          3.24180        0.36000       16.27450
C          2.28760        0.78070       17.17730
C          2.71110        1.41010       18.34180
Cl         1.55360        1.95210       19.49010
C          4.07670        1.59950       18.56940
Br         4.65380        2.46440       20.14920
C          5.03660        1.16970       17.66130
C          4.61510        0.54130       16.50040
C          5.35310       -0.01580       15.36870
C          6.71870       -0.10490       15.29980
C          7.47550       -0.69130       14.26190
N          8.18260       -1.15480       13.48420
C          7.58940        0.36990       16.30510
N          8.35100        0.73240       17.08360
H          2.19590        1.52060      -12.26920
H          0.73530        7.30960      -10.55530
H          3.72350        6.15880      -14.48150
H          4.49400        9.26200      -13.25300
H          3.10120        9.56600      -15.50300
H          3.81550       11.94280      -14.63910
H          2.25200       12.58190      -12.58860
H          0.57470       10.59940      -12.19000
H          0.69610       10.44320      -14.82930
H          0.89890        8.80590      -14.16500
H          2.96210        9.89060      -11.24300
H         -0.97310        2.64170      -10.74680
H         -2.29770        3.43540       -9.27300
H         -3.70720        2.83840       -8.36520
H         -4.36180        3.31430      -10.69540
H         -4.48240        1.57740      -10.36430
H         -3.13000        2.20360      -11.30660
H          1.22250       -1.23690       -8.65990
H          3.28300       -1.36190       -9.19680
H          4.30920       -1.07040      -10.61550
H          3.19590       -3.28420      -10.80140
H          2.64810       -2.19280      -12.08240
H          1.60590       -2.51600      -10.69560
H         -5.08270       -0.65550       -7.40390
H         -6.65540       -0.63910       -9.29620
H         -5.86090       -1.11440      -11.57670
H         -2.59020       -2.51800      -12.33750
H         -4.13620       -1.99610      -13.02080
H         -1.82800       -0.12790      -12.28170
H         -2.22290       -0.65860      -13.91940
H         -3.35570        0.35830      -13.02420
H         -1.91840       -1.71000      -10.07350
H         -2.14960       -5.85210        6.62700
H         -3.62570       -6.14090        8.58580
H         -5.06370       -4.28840        9.32970
H         -4.92050       -0.88950        7.96370
H         -5.56660       -1.91580        9.25270
H         -7.19550       -2.90760        7.64600
H         -6.54670       -1.89710        6.35530
H         -7.37850       -1.15180        7.72530
H         -3.64150       -1.88690        6.10140
H          0.72190       -2.40020       -2.24500
H          0.38060       -1.40400       -3.64920
H         -0.59220       -0.69260       -0.83460
H         -0.78600        0.27280       -2.29490
H          0.82690        0.00510       -1.62970
H          0.75050       -3.52400        1.10520
H          0.79390       -2.51020       -0.32570
H          1.62840       -4.78760       -0.86340
H          0.15430       -5.51070       -0.21420
H          0.08370       -4.56410       -1.69720
H          2.23750       -3.14270        5.77030
H          4.01010       -4.50290        6.45920
H          8.35690       -2.72220        5.22760
H          8.60160       -1.74490        6.68630
H          7.35550        0.14290        5.63490
H          7.13010       -0.81890        4.16990
H          8.75360       -0.32640        4.66100
H         -2.41830       -0.33980       14.22970
H         -3.82340       -1.22380       13.60280
H         -2.60810        1.28990       12.35990
H         -4.05350        1.25260       13.37570
H         -3.74890       -0.14200       10.67020
H         -5.17940       -0.22830       11.69860
H         -4.69510        1.31240       10.98770
H         -1.43720       -3.93210       10.34980
H          1.91330       -1.47290       12.70590
H          5.78550       -0.87120       12.90370
H          1.23880        0.62520       16.97990
H          6.07840        1.33950       17.87870
