
  xtb     02152206533D
 energy: -319.475025447018 gnorm: 0.000458562742 xtb: 6.4.1 (unknown)
185208  0     0  0            999 V2000
   -5.7668    0.7941    9.2461 C   0  0  0  0  0  0  0  0  0  0  0  0
   -5.2116    0.1544   10.3030 C   0  0  0  0  0  0  0  0  0  0  0  0
   -3.7459    0.0161   10.5398 C   0  0  0  0  0  0  0  0  0  0  0  0
   -2.8444    0.4927    9.8865 O   0  0  0  0  0  0  0  0  0  0  0  0
   -3.6164   -0.7183   11.8106 C   0  0  0  0  0  0  0  0  0  0  0  0
   -2.4300   -1.1166   12.4227 C   0  0  0  0  0  0  0  0  0  0  0  0
   -2.6088   -1.7866   13.6083 C   0  0  0  0  0  0  0  0  0  0  0  0
   -3.8772   -2.0416   14.1489 C   0  0  0  0  0  0  0  0  0  0  0  0
   -5.0544   -1.6503   13.5592 C   0  0  0  0  0  0  0  0  0  0  0  0
   -4.8955   -0.9622   12.3512 C   0  0  0  0  0  0  0  0  0  0  0  0
   -5.9015   -0.3930   11.4608 C   0  0  0  0  0  0  0  0  0  0  0  0
   -7.2530   -0.3875   11.6820 C   0  0  0  0  0  0  0  0  0  0  0  0
   -7.8802   -0.9284   12.8248 C   0  0  0  0  0  0  0  0  0  0  0  0
   -8.4618   -1.3384   13.7259 N   0  0  0  0  0  0  0  0  0  0  0  0
   -8.2246    0.1755   10.8277 C   0  0  0  0  0  0  0  0  0  0  0  0
   -9.0878    0.6089   10.2059 N   0  0  0  0  0  0  0  0  0  0  0  0
   -3.3089   -2.7440   15.3563 C   0  0  0  0  0  0  0  0  0  0  0  0
   -3.2763   -1.9638   16.6937 C   0  0  0  0  0  0  0  0  0  0  0  0
   -3.2163   -0.4997   16.3350 C   0  0  0  0  0  0  0  0  0  0  0  0
   -2.0167   -0.2570   15.8238 C   0  0  0  0  0  0  0  0  0  0  0  0
   -1.2438   -1.5528   15.8279 C   0  0  0  0  0  0  0  0  0  0  0  0
   -1.8131   -2.2033   17.0988 C   0  0  0  0  0  0  0  0  0  0  0  0
   -1.8966   -2.4594   14.7547 C   0  0  0  0  0  0  0  0  0  0  0  0
   -5.0576    1.2199    8.0690 C   0  0  0  0  0  0  0  0  0  0  0  0
   -4.0847    0.4678    7.4229 C   0  0  0  0  0  0  0  0  0  0  0  0
   -3.8613   -0.7985    7.8112 F   0  0  0  0  0  0  0  0  0  0  0  0
   -3.3566    0.9390    6.3410 C   0  0  0  0  0  0  0  0  0  0  0  0
   -3.5743    2.2134    5.8410 C   0  0  0  0  0  0  0  0  0  0  0  0
   -4.6662    2.9608    6.3656 C   0  0  0  0  0  0  0  0  0  0  0  0
   -5.0419    4.1124    5.7673 N   0  0  0  0  0  0  0  0  0  0  0  0
   -6.0224    4.7852    6.2819 C   0  0  0  0  0  0  0  0  0  0  0  0
   -6.6997    4.3365    7.4547 C   0  0  0  0  0  0  0  0  0  0  0  0
   -7.6625    5.1052    7.9474 O   0  0  0  0  0  0  0  0  0  0  0  0
   -8.3794    4.6115    9.0809 C   0  0  0  0  0  0  0  0  0  0  0  0
   -9.4214    3.5765    8.6848 C   0  0  0  0  0  0  0  0  0  0  0  0
   -6.3917    3.1936    8.0187 N   0  0  0  0  0  0  0  0  0  0  0  0
   -5.3874    2.4716    7.4805 C   0  0  0  0  0  0  0  0  0  0  0  0
   -2.7355    2.7635    4.8117 C   0  0  0  0  0  0  0  0  0  0  0  0
   -2.3378    4.0748    4.6325 C   0  0  0  0  0  0  0  0  0  0  0  0
   -2.6203    5.1714    5.5594 C   0  0  0  0  0  0  0  0  0  0  0  0
   -2.4640    4.9974    6.9327 C   0  0  0  0  0  0  0  0  0  0  0  0
   -2.7430    6.0407    7.7932 C   0  0  0  0  0  0  0  0  0  0  0  0
   -3.1704    7.2606    7.2975 C   0  0  0  0  0  0  0  0  0  0  0  0
   -3.3030    7.4589    5.9294 C   0  0  0  0  0  0  0  0  0  0  0  0
   -3.8003    8.7674    5.3852 C   0  0  0  0  0  0  0  0  0  0  0  0
   -5.3164    8.7188    5.1845 C   0  0  0  0  0  0  0  0  0  0  0  0
   -3.0185    6.4093    5.0694 C   0  0  0  0  0  0  0  0  0  0  0  0
   -1.5311    4.2119    3.4856 C   0  0  0  0  0  0  0  0  0  0  0  0
   -0.7119    5.5815    2.7730 S   0  0  0  0  0  0  0  0  0  0  0  0
   -0.0675    4.5317    1.5565 C   0  0  0  0  0  0  0  0  0  0  0  0
    0.7965    4.5835    0.4527 C   0  0  0  0  0  0  0  0  0  0  0  0
    1.5615    5.6555   -0.0536 C   0  0  0  0  0  0  0  0  0  0  0  0
    2.4602    5.4080   -1.1408 C   0  0  0  0  0  0  0  0  0  0  0  0
    3.1464    6.4857   -1.4878 N   0  0  0  0  0  0  0  0  0  0  0  0
    2.6948    7.7093   -0.5273 S   0  0  0  0  0  0  0  0  0  0  0  0
    1.6078    6.9098    0.3680 N   0  0  0  0  0  0  0  0  0  0  0  0
    2.4837    4.1231   -1.7234 C   0  0  0  0  0  0  0  0  0  0  0  0
    3.1768    3.6534   -2.8488 C   0  0  0  0  0  0  0  0  0  0  0  0
    4.3029    4.2261   -4.0318 S   0  0  0  0  0  0  0  0  0  0  0  0
    4.1824    2.6877   -4.8540 C   0  0  0  0  0  0  0  0  0  0  0  0
    4.7879    2.1781   -6.0213 C   0  0  0  0  0  0  0  0  0  0  0  0
    5.8239    2.8817   -6.7760 C   0  0  0  0  0  0  0  0  0  0  0  0
    5.7165    4.2462   -7.0258 C   0  0  0  0  0  0  0  0  0  0  0  0
    6.7102    4.8964   -7.7321 C   0  0  0  0  0  0  0  0  0  0  0  0
    7.8138    4.1995   -8.1907 C   0  0  0  0  0  0  0  0  0  0  0  0
    7.9421    2.8381   -7.9430 C   0  0  0  0  0  0  0  0  0  0  0  0
    9.1603    2.0851   -8.3960 C   0  0  0  0  0  0  0  0  0  0  0  0
   10.2464    2.1291   -7.3195 C   0  0  0  0  0  0  0  0  0  0  0  0
    6.9465    2.1929   -7.2280 C   0  0  0  0  0  0  0  0  0  0  0  0
    4.3526    0.8920   -6.2861 C   0  0  0  0  0  0  0  0  0  0  0  0
    3.2670    0.2764   -5.0606 S   0  0  0  0  0  0  0  0  0  0  0  0
    3.3215    1.7878   -4.2224 C   0  0  0  0  0  0  0  0  0  0  0  0
    2.7540    2.3421   -3.0662 C   0  0  0  0  0  0  0  0  0  0  0  0
    1.8427    1.9819   -2.1117 N   0  0  0  0  0  0  0  0  0  0  0  0
    1.6660    3.0531   -1.2525 C   0  0  0  0  0  0  0  0  0  0  0  0
    0.8700    3.2662   -0.0904 C   0  0  0  0  0  0  0  0  0  0  0  0
    0.0946    2.4405    0.7059 N   0  0  0  0  0  0  0  0  0  0  0  0
   -0.4732    3.2033    1.6891 C   0  0  0  0  0  0  0  0  0  0  0  0
   -1.3023    3.0152    2.8021 C   0  0  0  0  0  0  0  0  0  0  0  0
   -2.0864    1.6903    3.5843 S   0  0  0  0  0  0  0  0  0  0  0  0
   -0.0956    1.0107    0.7492 C   0  0  0  0  0  0  0  0  0  0  0  0
   -1.4558    0.6022    0.1817 C   0  0  0  0  0  0  0  0  0  0  0  0
    1.1955    0.6984   -2.2327 C   0  0  0  0  0  0  0  0  0  0  0  0
    2.0899   -0.4299   -1.7177 C   0  0  0  0  0  0  0  0  0  0  0  0
    4.6188    0.0719   -7.4408 C   0  0  0  0  0  0  0  0  0  0  0  0
    4.7047    0.5840   -8.7295 C   0  0  0  0  0  0  0  0  0  0  0  0
    4.4980    1.8977   -8.9417 F   0  0  0  0  0  0  0  0  0  0  0  0
    4.9318   -0.2018   -9.8509 C   0  0  0  0  0  0  0  0  0  0  0  0
    5.0444   -1.5760   -9.7429 C   0  0  0  0  0  0  0  0  0  0  0  0
    4.9994   -2.1534   -8.4445 C   0  0  0  0  0  0  0  0  0  0  0  0
    5.2532   -3.4712   -8.2884 N   0  0  0  0  0  0  0  0  0  0  0  0
    5.1692   -3.9808   -7.1009 C   0  0  0  0  0  0  0  0  0  0  0  0
    4.8189   -3.1841   -5.9714 C   0  0  0  0  0  0  0  0  0  0  0  0
    4.6990   -3.7983   -4.7981 O   0  0  0  0  0  0  0  0  0  0  0  0
    4.3545   -2.9986   -3.6698 C   0  0  0  0  0  0  0  0  0  0  0  0
    5.5269   -2.1638   -3.1727 C   0  0  0  0  0  0  0  0  0  0  0  0
    4.6557   -1.8898   -6.0857 N   0  0  0  0  0  0  0  0  0  0  0  0
    4.7528   -1.3397   -7.3132 C   0  0  0  0  0  0  0  0  0  0  0  0
    5.2303   -2.4112  -10.9030 C   0  0  0  0  0  0  0  0  0  0  0  0
    4.6034   -3.5966  -11.0846 C   0  0  0  0  0  0  0  0  0  0  0  0
    3.3984   -4.0366  -10.3223 C   0  0  0  0  0  0  0  0  0  0  0  0
    2.7849   -3.4182   -9.4798 O   0  0  0  0  0  0  0  0  0  0  0  0
    3.0092   -5.3305  -10.9087 C   0  0  0  0  0  0  0  0  0  0  0  0
    1.9378   -6.1309  -10.5173 C   0  0  0  0  0  0  0  0  0  0  0  0
    1.7877   -7.2731  -11.2650 C   0  0  0  0  0  0  0  0  0  0  0  0
    2.6400   -7.5973  -12.3304 C   0  0  0  0  0  0  0  0  0  0  0  0
    3.6979   -6.8171  -12.7291 C   0  0  0  0  0  0  0  0  0  0  0  0
    3.8690   -5.6471  -11.9806 C   0  0  0  0  0  0  0  0  0  0  0  0
    4.8643   -4.5898  -12.1152 C   0  0  0  0  0  0  0  0  0  0  0  0
    5.8971   -4.5712  -13.0136 C   0  0  0  0  0  0  0  0  0  0  0  0
    6.1378   -5.5696  -13.9818 C   0  0  0  0  0  0  0  0  0  0  0  0
    6.3936   -6.3367  -14.7967 N   0  0  0  0  0  0  0  0  0  0  0  0
    6.8788   -3.5611  -13.1048 C   0  0  0  0  0  0  0  0  0  0  0  0
    7.7181   -2.7898  -13.2439 N   0  0  0  0  0  0  0  0  0  0  0  0
    1.8964   -8.8719  -12.6415 C   0  0  0  0  0  0  0  0  0  0  0  0
    0.9405   -8.8698  -13.8601 C   0  0  0  0  0  0  0  0  0  0  0  0
    0.4913   -7.4422  -14.0504 C   0  0  0  0  0  0  0  0  0  0  0  0
   -0.3150   -7.1338  -13.0435 C   0  0  0  0  0  0  0  0  0  0  0  0
   -0.4260   -8.3477  -12.1541 C   0  0  0  0  0  0  0  0  0  0  0  0
   -0.3165   -9.4641  -13.2049 C   0  0  0  0  0  0  0  0  0  0  0  0
    0.9471   -8.5106  -11.4558 C   0  0  0  0  0  0  0  0  0  0  0  0
   -6.8113    1.0739    9.2673 H   0  0  0  0  0  0  0  0  0  0  0  0
   -1.4753   -0.9021   11.9685 H   0  0  0  0  0  0  0  0  0  0  0  0
   -6.0206   -1.8537   13.9895 H   0  0  0  0  0  0  0  0  0  0  0  0
   -3.6073   -3.7821   15.4883 H   0  0  0  0  0  0  0  0  0  0  0  0
   -4.0469   -2.2527   17.4034 H   0  0  0  0  0  0  0  0  0  0  0  0
   -4.0464    0.1751   16.4331 H   0  0  0  0  0  0  0  0  0  0  0  0
   -1.6441    0.6613   15.4091 H   0  0  0  0  0  0  0  0  0  0  0  0
   -0.1631   -1.4674   15.7500 H   0  0  0  0  0  0  0  0  0  0  0  0
   -1.5344   -1.6694   18.0060 H   0  0  0  0  0  0  0  0  0  0  0  0
   -1.5574   -3.2573   17.1987 H   0  0  0  0  0  0  0  0  0  0  0  0
   -1.2713   -3.3114   14.4952 H   0  0  0  0  0  0  0  0  0  0  0  0
   -2.5874    0.3081    5.9217 H   0  0  0  0  0  0  0  0  0  0  0  0
   -6.3261    5.6959    5.7880 H   0  0  0  0  0  0  0  0  0  0  0  0
   -8.8512    5.4968    9.5127 H   0  0  0  0  0  0  0  0  0  0  0  0
   -7.6686    4.1818    9.7933 H   0  0  0  0  0  0  0  0  0  0  0  0
   -9.9677    3.2527    9.5650 H   0  0  0  0  0  0  0  0  0  0  0  0
   -8.9395    2.7083    8.2444 H   0  0  0  0  0  0  0  0  0  0  0  0
  -10.1184    3.9993    7.9653 H   0  0  0  0  0  0  0  0  0  0  0  0
   -2.1241    4.0478    7.3203 H   0  0  0  0  0  0  0  0  0  0  0  0
   -2.6261    5.9016    8.8583 H   0  0  0  0  0  0  0  0  0  0  0  0
   -3.3950    8.0688    7.9790 H   0  0  0  0  0  0  0  0  0  0  0  0
   -3.3174    8.9760    4.4287 H   0  0  0  0  0  0  0  0  0  0  0  0
   -3.5538    9.5749    6.0771 H   0  0  0  0  0  0  0  0  0  0  0  0
   -5.8169    8.5133    6.1287 H   0  0  0  0  0  0  0  0  0  0  0  0
   -5.5774    7.9342    4.4777 H   0  0  0  0  0  0  0  0  0  0  0  0
   -5.6802    9.6683    4.7984 H   0  0  0  0  0  0  0  0  0  0  0  0
   -3.1319    6.5461    4.0042 H   0  0  0  0  0  0  0  0  0  0  0  0
    4.8461    4.7872   -6.6884 H   0  0  0  0  0  0  0  0  0  0  0  0
    6.6203    5.9541   -7.9309 H   0  0  0  0  0  0  0  0  0  0  0  0
    8.5835    4.7137   -8.7483 H   0  0  0  0  0  0  0  0  0  0  0  0
    8.8979    1.0450   -8.6018 H   0  0  0  0  0  0  0  0  0  0  0  0
    9.5470    2.5275   -9.3160 H   0  0  0  0  0  0  0  0  0  0  0  0
    9.8842    1.6787   -6.3979 H   0  0  0  0  0  0  0  0  0  0  0  0
   10.5277    3.1584   -7.1083 H   0  0  0  0  0  0  0  0  0  0  0  0
   11.1302    1.5870   -7.6477 H   0  0  0  0  0  0  0  0  0  0  0  0
    7.0456    1.1372   -7.0131 H   0  0  0  0  0  0  0  0  0  0  0  0
    0.7238    0.5159    0.2367 H   0  0  0  0  0  0  0  0  0  0  0  0
   -0.0563    0.7108    1.8022 H   0  0  0  0  0  0  0  0  0  0  0  0
   -1.6147    1.0175   -0.8115 H   0  0  0  0  0  0  0  0  0  0  0  0
   -2.2514    0.9654    0.8265 H   0  0  0  0  0  0  0  0  0  0  0  0
   -1.5246   -0.4807    0.1279 H   0  0  0  0  0  0  0  0  0  0  0  0
    1.0090    0.5306   -3.2990 H   0  0  0  0  0  0  0  0  0  0  0  0
    0.2337    0.7192   -1.7297 H   0  0  0  0  0  0  0  0  0  0  0  0
    2.4099   -0.2506   -0.6931 H   0  0  0  0  0  0  0  0  0  0  0  0
    2.9787   -0.5029   -2.3381 H   0  0  0  0  0  0  0  0  0  0  0  0
    1.5579   -1.3760   -1.7614 H   0  0  0  0  0  0  0  0  0  0  0  0
    4.9516    0.2781  -10.8174 H   0  0  0  0  0  0  0  0  0  0  0  0
    5.3927   -5.0309   -6.9805 H   0  0  0  0  0  0  0  0  0  0  0  0
    4.0430   -3.7206   -2.9114 H   0  0  0  0  0  0  0  0  0  0  0  0
    3.5135   -2.3515   -3.9375 H   0  0  0  0  0  0  0  0  0  0  0  0
    5.7857   -1.4084   -3.9094 H   0  0  0  0  0  0  0  0  0  0  0  0
    5.2567   -1.6734   -2.2418 H   0  0  0  0  0  0  0  0  0  0  0  0
    6.3915   -2.7993   -2.9972 H   0  0  0  0  0  0  0  0  0  0  0  0
    5.9210   -2.0403  -11.6488 H   0  0  0  0  0  0  0  0  0  0  0  0
    1.3057   -5.8420   -9.6922 H   0  0  0  0  0  0  0  0  0  0  0  0
    4.3401   -7.0782  -13.5535 H   0  0  0  0  0  0  0  0  0  0  0  0
    2.4752   -9.7905  -12.5701 H   0  0  0  0  0  0  0  0  0  0  0  0
    1.3316   -9.3715  -14.7411 H   0  0  0  0  0  0  0  0  0  0  0  0
    0.8399   -6.8054  -14.8423 H   0  0  0  0  0  0  0  0  0  0  0  0
   -0.7743   -6.1875  -12.8256 H   0  0  0  0  0  0  0  0  0  0  0  0
   -1.2801   -8.3741  -11.4825 H   0  0  0  0  0  0  0  0  0  0  0  0
   -1.1702   -9.4916  -13.8803 H   0  0  0  0  0  0  0  0  0  0  0  0
   -0.1561  -10.4515  -12.7742 H   0  0  0  0  0  0  0  0  0  0  0  0
    0.9038   -9.1944  -10.6103 H   0  0  0  0  0  0  0  0  0  0  0  0
  1  2  2  0  0  0  0
  2  3  1  0  0  0  0
  3  4  2  0  0  0  0
  3  5  1  0  0  0  0
  5  6  2  0  0  0  0
  6  7  1  0  0  0  0
  7  8  2  0  0  0  0
  8  9  1  0  0  0  0
  9 10  2  0  0  0  0
 10 11  1  0  0  0  0
 11 12  2  0  0  0  0
 12 13  1  0  0  0  0
 13 14  3  0  0  0  0
 12 15  1  0  0  0  0
 15 16  3  0  0  0  0
  8 17  1  0  0  0  0
 17 18  1  0  0  0  0
 18 19  1  0  0  0  0
 19 20  2  0  0  0  0
 20 21  1  0  0  0  0
 21 22  1  0  0  0  0
 21 23  1  0  0  0  0
  1 24  1  0  0  0  0
 24 25  2  0  0  0  0
 25 26  1  0  0  0  0
 25 27  1  0  0  0  0
 27 28  2  0  0  0  0
 28 29  1  0  0  0  0
 29 30  2  0  0  0  0
 30 31  1  0  0  0  0
 31 32  2  0  0  0  0
 32 33  1  0  0  0  0
 33 34  1  0  0  0  0
 34 35  1  0  0  0  0
 32 36  1  0  0  0  0
 36 37  2  0  0  0  0
 28 38  1  0  0  0  0
 38 39  2  0  0  0  0
 39 40  1  0  0  0  0
 40 41  2  0  0  0  0
 41 42  1  0  0  0  0
 42 43  2  0  0  0  0
 43 44  1  0  0  0  0
 44 45  1  0  0  0  0
 45 46  1  0  0  0  0
 44 47  2  0  0  0  0
 39 48  1  0  0  0  0
 48 49  1  0  0  0  0
 49 50  1  0  0  0  0
 50 51  1  0  0  0  0
 51 52  1  0  0  0  0
 52 53  1  0  0  0  0
 53 54  2  0  0  0  0
 54 55  1  0  0  0  0
 55 56  1  0  0  0  0
 53 57  1  0  0  0  0
 57 58  1  0  0  0  0
 58 59  1  0  0  0  0
 59 60  1  0  0  0  0
 60 61  1  0  0  0  0
 61 62  1  0  0  0  0
 62 63  2  0  0  0  0
 63 64  1  0  0  0  0
 64 65  2  0  0  0  0
 65 66  1  0  0  0  0
 66 67  1  0  0  0  0
 67 68  1  0  0  0  0
 66 69  2  0  0  0  0
 61 70  2  0  0  0  0
 70 71  1  0  0  0  0
 71 72  1  0  0  0  0
 72 73  1  0  0  0  0
 73 74  1  0  0  0  0
 74 75  1  0  0  0  0
 75 76  1  0  0  0  0
 76 77  1  0  0  0  0
 77 78  1  0  0  0  0
 78 79  1  0  0  0  0
 79 80  1  0  0  0  0
 77 81  1  0  0  0  0
 81 82  1  0  0  0  0
 74 83  1  0  0  0  0
 83 84  1  0  0  0  0
 70 85  1  0  0  0  0
 85 86  2  0  0  0  0
 86 87  1  0  0  0  0
 86 88  1  0  0  0  0
 88 89  2  0  0  0  0
 89 90  1  0  0  0  0
 90 91  2  0  0  0  0
 91 92  1  0  0  0  0
 92 93  2  0  0  0  0
 93 94  1  0  0  0  0
 94 95  1  0  0  0  0
 95 96  1  0  0  0  0
 93 97  1  0  0  0  0
 97 98  2  0  0  0  0
 89 99  1  0  0  0  0
 99100  2  0  0  0  0
100101  1  0  0  0  0
101102  2  0  0  0  0
101103  1  0  0  0  0
103104  2  0  0  0  0
104105  1  0  0  0  0
105106  2  0  0  0  0
106107  1  0  0  0  0
107108  2  0  0  0  0
108109  1  0  0  0  0
109110  2  0  0  0  0
110111  1  0  0  0  0
111112  3  0  0  0  0
110113  1  0  0  0  0
113114  3  0  0  0  0
106115  1  0  0  0  0
115116  1  0  0  0  0
116117  1  0  0  0  0
117118  2  0  0  0  0
118119  1  0  0  0  0
119120  1  0  0  0  0
119121  1  0  0  0  0
 11  2  1  0  0  0  0
 23 17  1  0  0  0  0
 37 24  1  0  0  0  0
 80 38  1  0  0  0  0
 98 85  1  0  0  0  0
109100  1  0  0  0  0
121115  1  0  0  0  0
 10  5  1  0  0  0  0
 22 18  1  0  0  0  0
 37 29  1  0  0  0  0
 47 40  1  0  0  0  0
 79 48  2  0  0  0  0
 98 90  1  0  0  0  0
108103  1  0  0  0  0
120116  1  0  0  0  0
 23  7  1  0  0  0  0
 78 50  2  0  0  0  0
121105  1  0  0  0  0
 76 51  2  0  0  0  0
 56 52  2  0  0  0  0
 75 57  2  0  0  0  0
 73 58  2  0  0  0  0
 72 60  2  0  0  0  0
 69 62  1  0  0  0  0
  1122  1  0  0  0  0
  6123  1  0  0  0  0
  9124  1  0  0  0  0
 17125  1  0  0  0  0
 18126  1  0  0  0  0
 19127  1  0  0  0  0
 20128  1  0  0  0  0
 21129  1  0  0  0  0
 22130  1  0  0  0  0
 22131  1  0  0  0  0
 23132  1  0  0  0  0
 27133  1  0  0  0  0
 31134  1  0  0  0  0
 34135  1  0  0  0  0
 34136  1  0  0  0  0
 35137  1  0  0  0  0
 35138  1  0  0  0  0
 35139  1  0  0  0  0
 41140  1  0  0  0  0
 42141  1  0  0  0  0
 43142  1  0  0  0  0
 45143  1  0  0  0  0
 45144  1  0  0  0  0
 46145  1  0  0  0  0
 46146  1  0  0  0  0
 46147  1  0  0  0  0
 47148  1  0  0  0  0
 63149  1  0  0  0  0
 64150  1  0  0  0  0
 65151  1  0  0  0  0
 67152  1  0  0  0  0
 67153  1  0  0  0  0
 68154  1  0  0  0  0
 68155  1  0  0  0  0
 68156  1  0  0  0  0
 69157  1  0  0  0  0
 81158  1  0  0  0  0
 81159  1  0  0  0  0
 82160  1  0  0  0  0
 82161  1  0  0  0  0
 82162  1  0  0  0  0
 83163  1  0  0  0  0
 83164  1  0  0  0  0
 84165  1  0  0  0  0
 84166  1  0  0  0  0
 84167  1  0  0  0  0
 88168  1  0  0  0  0
 92169  1  0  0  0  0
 95170  1  0  0  0  0
 95171  1  0  0  0  0
 96172  1  0  0  0  0
 96173  1  0  0  0  0
 96174  1  0  0  0  0
 99175  1  0  0  0  0
104176  1  0  0  0  0
107177  1  0  0  0  0
115178  1  0  0  0  0
116179  1  0  0  0  0
117180  1  0  0  0  0
118181  1  0  0  0  0
119182  1  0  0  0  0
120183  1  0  0  0  0
120184  1  0  0  0  0
121185  1  0  0  0  0
M  END
