
  xtb     02272220043D
 energy: -352.527599991170 gnorm: 0.000940473258 xtb: 6.4.1 (unknown)
207233  0     0  0            999 V2000
  -11.0900    5.7401    7.2550 C   0  0  0  0  0  0  0  0  0  0  0  0
  -10.1970    6.4995    7.9358 C   0  0  0  0  0  0  0  0  0  0  0  0
   -8.7362    6.2150    8.0180 C   0  0  0  0  0  0  0  0  0  0  0  0
   -8.1671    5.1744    7.7647 O   0  0  0  0  0  0  0  0  0  0  0  0
   -8.1370    7.4079    8.6421 C   0  0  0  0  0  0  0  0  0  0  0  0
   -6.7793    7.6609    8.8278 C   0  0  0  0  0  0  0  0  0  0  0  0
   -6.5124    8.8540    9.4537 C   0  0  0  0  0  0  0  0  0  0  0  0
   -7.5229    9.7274    9.8804 C   0  0  0  0  0  0  0  0  0  0  0  0
   -8.8651    9.4838    9.7180 C   0  0  0  0  0  0  0  0  0  0  0  0
   -9.1600    8.2772    9.0718 C   0  0  0  0  0  0  0  0  0  0  0  0
  -10.4528    7.6954    8.7216 C   0  0  0  0  0  0  0  0  0  0  0  0
  -11.6777    8.2009    9.0674 C   0  0  0  0  0  0  0  0  0  0  0  0
  -11.8758    9.3702    9.8315 C   0  0  0  0  0  0  0  0  0  0  0  0
  -12.1126   10.3098   10.4475 N   0  0  0  0  0  0  0  0  0  0  0  0
  -12.9179    7.6127    8.7411 C   0  0  0  0  0  0  0  0  0  0  0  0
  -13.9641    7.1934    8.5215 N   0  0  0  0  0  0  0  0  0  0  0  0
   -6.5355   10.7313   10.4228 C   0  0  0  0  0  0  0  0  0  0  0  0
   -6.2890   11.9892    9.5631 C   0  0  0  0  0  0  0  0  0  0  0  0
   -4.9701   12.5240   10.0727 C   0  0  0  0  0  0  0  0  0  0  0  0
   -4.0150   11.6980    9.6653 C   0  0  0  0  0  0  0  0  0  0  0  0
   -4.6723   10.5907    8.8735 C   0  0  0  0  0  0  0  0  0  0  0  0
   -5.8281   11.3726    8.2359 C   0  0  0  0  0  0  0  0  0  0  0  0
   -5.4100    9.7588    9.9447 C   0  0  0  0  0  0  0  0  0  0  0  0
  -10.7070    4.7491    6.2871 C   0  0  0  0  0  0  0  0  0  0  0  0
  -11.4028    3.5591    6.1340 C   0  0  0  0  0  0  0  0  0  0  0  0
  -10.9972    2.5674    5.2518 C   0  0  0  0  0  0  0  0  0  0  0  0
   -9.8755    2.7191    4.4433 C   0  0  0  0  0  0  0  0  0  0  0  0
   -9.1706    3.9581    4.5387 C   0  0  0  0  0  0  0  0  0  0  0  0
   -8.0751    4.1398    3.7904 N   0  0  0  0  0  0  0  0  0  0  0  0
   -7.4406    5.2792    3.8594 C   0  0  0  0  0  0  0  0  0  0  0  0
   -7.9413    6.3329    4.6423 C   0  0  0  0  0  0  0  0  0  0  0  0
   -8.9922    6.1816    5.4019 N   0  0  0  0  0  0  0  0  0  0  0  0
   -9.6000    4.9832    5.4217 C   0  0  0  0  0  0  0  0  0  0  0  0
   -9.3507    1.6886    3.6003 C   0  0  0  0  0  0  0  0  0  0  0  0
   -9.9339    0.4930    3.1958 C   0  0  0  0  0  0  0  0  0  0  0  0
  -11.3454    0.1179    3.3161 C   0  0  0  0  0  0  0  0  0  0  0  0
  -11.6976   -1.1436    3.7856 C   0  0  0  0  0  0  0  0  0  0  0  0
  -13.0301   -1.5081    3.8460 C   0  0  0  0  0  0  0  0  0  0  0  0
  -14.0141   -0.6294    3.4303 C   0  0  0  0  0  0  0  0  0  0  0  0
  -13.6794    0.6306    2.9467 C   0  0  0  0  0  0  0  0  0  0  0  0
  -14.7414    1.5653    2.4431 C   0  0  0  0  0  0  0  0  0  0  0  0
  -15.0138    1.3113    0.9592 C   0  0  0  0  0  0  0  0  0  0  0  0
  -12.3430    0.9916    2.8906 C   0  0  0  0  0  0  0  0  0  0  0  0
   -9.0077   -0.3312    2.5340 C   0  0  0  0  0  0  0  0  0  0  0  0
   -9.1413   -1.9207    1.8077 S   0  0  0  0  0  0  0  0  0  0  0  0
   -7.4720   -1.8244    1.3548 C   0  0  0  0  0  0  0  0  0  0  0  0
   -6.4974   -2.5839    0.6888 C   0  0  0  0  0  0  0  0  0  0  0  0
   -6.5869   -3.8133   -0.0000 C   0  0  0  0  0  0  0  0  0  0  0  0
   -5.4346   -4.3029   -0.7012 C   0  0  0  0  0  0  0  0  0  0  0  0
   -5.6757   -5.4340   -1.3453 N   0  0  0  0  0  0  0  0  0  0  0  0
   -7.2198   -5.8509   -1.0865 S   0  0  0  0  0  0  0  0  0  0  0  0
   -7.6395   -4.6028   -0.1449 N   0  0  0  0  0  0  0  0  0  0  0  0
   -4.2181   -3.5945   -0.5945 C   0  0  0  0  0  0  0  0  0  0  0  0
   -2.9311   -3.8922   -1.0708 C   0  0  0  0  0  0  0  0  0  0  0  0
   -2.1234   -5.0823   -2.0359 S   0  0  0  0  0  0  0  0  0  0  0  0
   -0.6102   -4.2472   -1.7638 C   0  0  0  0  0  0  0  0  0  0  0  0
    0.7154   -4.5099   -2.1701 C   0  0  0  0  0  0  0  0  0  0  0  0
    1.0786   -5.7090   -2.9280 C   0  0  0  0  0  0  0  0  0  0  0  0
    2.1493   -6.5110   -2.5383 C   0  0  0  0  0  0  0  0  0  0  0  0
    2.4218   -7.6765   -3.2272 C   0  0  0  0  0  0  0  0  0  0  0  0
    1.6286   -8.0615   -4.2958 C   0  0  0  0  0  0  0  0  0  0  0  0
    0.5545   -7.2776   -4.6943 C   0  0  0  0  0  0  0  0  0  0  0  0
   -0.3653   -7.7087   -5.7995 C   0  0  0  0  0  0  0  0  0  0  0  0
   -1.6444   -8.3114   -5.2145 C   0  0  0  0  0  0  0  0  0  0  0  0
    0.2936   -6.1019   -4.0052 C   0  0  0  0  0  0  0  0  0  0  0  0
    1.5821   -3.5451   -1.6886 C   0  0  0  0  0  0  0  0  0  0  0  0
    0.7709   -2.3368   -0.7057 S   0  0  0  0  0  0  0  0  0  0  0  0
   -0.7480   -3.1153   -0.9594 C   0  0  0  0  0  0  0  0  0  0  0  0
   -2.0764   -2.9101   -0.5679 C   0  0  0  0  0  0  0  0  0  0  0  0
   -2.7815   -2.0041    0.1764 N   0  0  0  0  0  0  0  0  0  0  0  0
   -4.1112   -2.3967    0.1680 C   0  0  0  0  0  0  0  0  0  0  0  0
   -5.2877   -1.8307    0.7253 C   0  0  0  0  0  0  0  0  0  0  0  0
   -5.5429   -0.6314    1.3685 N   0  0  0  0  0  0  0  0  0  0  0  0
   -6.8592   -0.6299    1.7418 C   0  0  0  0  0  0  0  0  0  0  0  0
   -7.7344    0.2293    2.4151 C   0  0  0  0  0  0  0  0  0  0  0  0
   -7.6781    1.8245    3.0833 S   0  0  0  0  0  0  0  0  0  0  0  0
   -4.8139    0.6166    1.3516 C   0  0  0  0  0  0  0  0  0  0  0  0
   -4.5667    1.1028   -0.0743 C   0  0  0  0  0  0  0  0  0  0  0  0
   -2.0726   -1.1308    1.0849 C   0  0  0  0  0  0  0  0  0  0  0  0
   -2.2710   -1.5528    2.5385 C   0  0  0  0  0  0  0  0  0  0  0  0
    2.9739   -3.3628   -1.9361 C   0  0  0  0  0  0  0  0  0  0  0  0
    3.7328   -3.8386   -2.9663 C   0  0  0  0  0  0  0  0  0  0  0  0
    5.0869   -3.4277   -2.9139 C   0  0  0  0  0  0  0  0  0  0  0  0
    6.1110   -3.7116   -3.8322 C   0  0  0  0  0  0  0  0  0  0  0  0
    5.8867   -4.6090   -4.9709 C   0  0  0  0  0  0  0  0  0  0  0  0
    5.2832   -5.8513   -4.7953 C   0  0  0  0  0  0  0  0  0  0  0  0
    5.0780   -6.7074   -5.8600 C   0  0  0  0  0  0  0  0  0  0  0  0
    5.4653   -6.3473   -7.1453 C   0  0  0  0  0  0  0  0  0  0  0  0
    5.2980   -7.3341   -8.5939 S   0  0  0  0  0  0  0  0  0  0  0  0
    4.2917   -8.7615   -8.0642 C   0  0  0  0  0  0  0  0  0  0  0  0
    2.8287   -8.4029   -7.8851 C   0  0  0  0  0  0  0  0  0  0  0  0
    6.0713   -5.0991   -7.3068 C   0  0  0  0  0  0  0  0  0  0  0  0
    6.4502   -4.7166   -8.5422 F   0  0  0  0  0  0  0  0  0  0  0  0
    6.2869   -4.2405   -6.2544 C   0  0  0  0  0  0  0  0  0  0  0  0
    7.3443   -3.1132   -3.6041 C   0  0  0  0  0  0  0  0  0  0  0  0
    7.5877   -2.2570   -2.4965 C   0  0  0  0  0  0  0  0  0  0  0  0
    6.5590   -1.9674   -1.5738 C   0  0  0  0  0  0  0  0  0  0  0  0
    6.7579   -1.0376   -0.4584 C   0  0  0  0  0  0  0  0  0  0  0  0
    7.3131    0.2252   -0.6695 C   0  0  0  0  0  0  0  0  0  0  0  0
    7.4451    1.1169    0.3712 C   0  0  0  0  0  0  0  0  0  0  0  0
    7.0447    0.7883    1.6673 C   0  0  0  0  0  0  0  0  0  0  0  0
    7.2867    2.0125    2.9128 S   0  0  0  0  0  0  0  0  0  0  0  0
    5.9441    1.6914    4.1265 C   0  0  0  0  0  0  0  0  0  0  0  0
    5.6680    2.9680    4.8961 C   0  0  0  0  0  0  0  0  0  0  0  0
    6.5252   -0.4870    1.8694 C   0  0  0  0  0  0  0  0  0  0  0  0
    6.3649   -1.3812    0.8307 C   0  0  0  0  0  0  0  0  0  0  0  0
    6.1644   -0.9045    3.1044 F   0  0  0  0  0  0  0  0  0  0  0  0
    5.3413   -2.5786   -1.8031 C   0  0  0  0  0  0  0  0  0  0  0  0
    3.9035   -2.3532   -0.8418 S   0  0  0  0  0  0  0  0  0  0  0  0
    8.9244   -1.8306   -2.4632 C   0  0  0  0  0  0  0  0  0  0  0  0
    9.6966   -2.3104   -3.5047 C   0  0  0  0  0  0  0  0  0  0  0  0
    8.7725   -3.3467   -4.5737 S   0  0  0  0  0  0  0  0  0  0  0  0
   11.0534   -1.9431   -3.6417 C   0  0  0  0  0  0  0  0  0  0  0  0
   11.9710   -2.2719   -4.5965 C   0  0  0  0  0  0  0  0  0  0  0  0
   11.7511   -3.1765   -5.7405 C   0  0  0  0  0  0  0  0  0  0  0  0
   10.7329   -3.7756   -6.0269 O   0  0  0  0  0  0  0  0  0  0  0  0
   13.0239   -3.2238   -6.4772 C   0  0  0  0  0  0  0  0  0  0  0  0
   13.2901   -3.9521   -7.6352 C   0  0  0  0  0  0  0  0  0  0  0  0
   14.5705   -3.7983   -8.1086 C   0  0  0  0  0  0  0  0  0  0  0  0
   15.5188   -2.9840   -7.4739 C   0  0  0  0  0  0  0  0  0  0  0  0
   15.2707   -2.2660   -6.3287 C   0  0  0  0  0  0  0  0  0  0  0  0
   13.9702   -2.4028   -5.8310 C   0  0  0  0  0  0  0  0  0  0  0  0
   13.3428   -1.7953   -4.6598 C   0  0  0  0  0  0  0  0  0  0  0  0
   13.9536   -0.9196   -3.7998 C   0  0  0  0  0  0  0  0  0  0  0  0
   13.3575   -0.3040   -2.6788 C   0  0  0  0  0  0  0  0  0  0  0  0
   12.9600    0.2444   -1.7508 N   0  0  0  0  0  0  0  0  0  0  0  0
   15.2918   -0.4865   -3.9148 C   0  0  0  0  0  0  0  0  0  0  0  0
   16.3675   -0.0857   -3.9399 N   0  0  0  0  0  0  0  0  0  0  0  0
   16.5841   -3.2901   -8.4968 C   0  0  0  0  0  0  0  0  0  0  0  0
   16.8576   -2.1984   -9.5532 C   0  0  0  0  0  0  0  0  0  0  0  0
   17.5618   -2.9409  -10.6659 C   0  0  0  0  0  0  0  0  0  0  0  0
   16.6652   -3.7130  -11.2664 C   0  0  0  0  0  0  0  0  0  0  0  0
   15.3396   -3.5051  -10.5701 C   0  0  0  0  0  0  0  0  0  0  0  0
   15.4717   -2.0251  -10.1881 C   0  0  0  0  0  0  0  0  0  0  0  0
   15.5273   -4.1984   -9.2037 C   0  0  0  0  0  0  0  0  0  0  0  0
  -12.1524    5.8844    7.3993 H   0  0  0  0  0  0  0  0  0  0  0  0
   -6.0351    6.9556    8.4924 H   0  0  0  0  0  0  0  0  0  0  0  0
   -9.6295   10.1620   10.0586 H   0  0  0  0  0  0  0  0  0  0  0  0
   -6.6176   10.9509   11.4855 H   0  0  0  0  0  0  0  0  0  0  0  0
   -7.1205   12.6878    9.5298 H   0  0  0  0  0  0  0  0  0  0  0  0
   -4.8767   13.3887   10.7030 H   0  0  0  0  0  0  0  0  0  0  0  0
   -2.9645   11.7347    9.8871 H   0  0  0  0  0  0  0  0  0  0  0  0
   -4.0305   10.0150    8.2117 H   0  0  0  0  0  0  0  0  0  0  0  0
   -6.5765   10.7455    7.7549 H   0  0  0  0  0  0  0  0  0  0  0  0
   -5.4767   12.1258    7.5325 H   0  0  0  0  0  0  0  0  0  0  0  0
   -4.7392    9.3315   10.6878 H   0  0  0  0  0  0  0  0  0  0  0  0
  -12.2557    3.3715    6.7701 H   0  0  0  0  0  0  0  0  0  0  0  0
  -11.5454    1.6395    5.2289 H   0  0  0  0  0  0  0  0  0  0  0  0
   -6.5437    5.3789    3.2645 H   0  0  0  0  0  0  0  0  0  0  0  0
   -7.4829    7.3128    4.6359 H   0  0  0  0  0  0  0  0  0  0  0  0
  -10.9296   -1.8264    4.1159 H   0  0  0  0  0  0  0  0  0  0  0  0
  -13.3012   -2.4848    4.2182 H   0  0  0  0  0  0  0  0  0  0  0  0
  -15.0531   -0.9215    3.4792 H   0  0  0  0  0  0  0  0  0  0  0  0
  -14.4192    2.5997    2.5793 H   0  0  0  0  0  0  0  0  0  0  0  0
  -15.6633    1.4167    3.0087 H   0  0  0  0  0  0  0  0  0  0  0  0
  -14.1084    1.4667    0.3768 H   0  0  0  0  0  0  0  0  0  0  0  0
  -15.7836    1.9864    0.5926 H   0  0  0  0  0  0  0  0  0  0  0  0
  -15.3468    0.2874    0.8053 H   0  0  0  0  0  0  0  0  0  0  0  0
  -12.0648    1.9646    2.5100 H   0  0  0  0  0  0  0  0  0  0  0  0
    2.7496   -6.2259   -1.6871 H   0  0  0  0  0  0  0  0  0  0  0  0
    3.2485   -8.3002   -2.9184 H   0  0  0  0  0  0  0  0  0  0  0  0
    1.8386   -8.9859   -4.8148 H   0  0  0  0  0  0  0  0  0  0  0  0
    0.1272   -8.4489   -6.4321 H   0  0  0  0  0  0  0  0  0  0  0  0
   -0.6251   -6.8481   -6.4197 H   0  0  0  0  0  0  0  0  0  0  0  0
   -2.3189   -8.6160   -6.0111 H   0  0  0  0  0  0  0  0  0  0  0  0
   -1.4075   -9.1824   -4.6074 H   0  0  0  0  0  0  0  0  0  0  0  0
   -2.1539   -7.5859   -4.5846 H   0  0  0  0  0  0  0  0  0  0  0  0
   -0.5336   -5.4798   -4.3139 H   0  0  0  0  0  0  0  0  0  0  0  0
   -5.4385    1.3438    1.8761 H   0  0  0  0  0  0  0  0  0  0  0  0
   -3.8843    0.5288    1.9146 H   0  0  0  0  0  0  0  0  0  0  0  0
   -4.0135    0.3667   -0.6530 H   0  0  0  0  0  0  0  0  0  0  0  0
   -5.5161    1.2818   -0.5734 H   0  0  0  0  0  0  0  0  0  0  0  0
   -4.0042    2.0325   -0.0569 H   0  0  0  0  0  0  0  0  0  0  0  0
   -1.0132   -1.2123    0.8293 H   0  0  0  0  0  0  0  0  0  0  0  0
   -2.3595   -0.0913    0.9243 H   0  0  0  0  0  0  0  0  0  0  0  0
   -1.7355   -0.8748    3.1976 H   0  0  0  0  0  0  0  0  0  0  0  0
   -3.3240   -1.5508    2.8100 H   0  0  0  0  0  0  0  0  0  0  0  0
   -1.8846   -2.5583    2.6883 H   0  0  0  0  0  0  0  0  0  0  0  0
    3.3258   -4.4326   -3.7634 H   0  0  0  0  0  0  0  0  0  0  0  0
    4.9903   -6.1682   -3.8059 H   0  0  0  0  0  0  0  0  0  0  0  0
    4.6168   -7.6630   -5.6716 H   0  0  0  0  0  0  0  0  0  0  0  0
    4.4165   -9.4765   -8.8776 H   0  0  0  0  0  0  0  0  0  0  0  0
    4.7331   -9.1828   -7.1620 H   0  0  0  0  0  0  0  0  0  0  0  0
    2.4276   -7.9955   -8.8101 H   0  0  0  0  0  0  0  0  0  0  0  0
    2.6978   -7.6619   -7.0992 H   0  0  0  0  0  0  0  0  0  0  0  0
    2.2619   -9.2952   -7.6252 H   0  0  0  0  0  0  0  0  0  0  0  0
    6.7477   -3.2850   -6.4456 H   0  0  0  0  0  0  0  0  0  0  0  0
    7.6053    0.5197   -1.6657 H   0  0  0  0  0  0  0  0  0  0  0  0
    7.8594    2.0982    0.2000 H   0  0  0  0  0  0  0  0  0  0  0  0
    6.2646    0.8918    4.7926 H   0  0  0  0  0  0  0  0  0  0  0  0
    5.0681    1.3747    3.5629 H   0  0  0  0  0  0  0  0  0  0  0  0
    6.5602    3.2952    5.4248 H   0  0  0  0  0  0  0  0  0  0  0  0
    5.3573    3.7621    4.2206 H   0  0  0  0  0  0  0  0  0  0  0  0
    4.8763    2.7946    5.6220 H   0  0  0  0  0  0  0  0  0  0  0  0
    5.9617   -2.3574    1.0506 H   0  0  0  0  0  0  0  0  0  0  0  0
    9.3297   -1.1984   -1.6927 H   0  0  0  0  0  0  0  0  0  0  0  0
   11.3845   -1.2816   -2.8501 H   0  0  0  0  0  0  0  0  0  0  0  0
   12.5294   -4.5690   -8.0873 H   0  0  0  0  0  0  0  0  0  0  0  0
   16.0147   -1.6506   -5.8517 H   0  0  0  0  0  0  0  0  0  0  0  0
   17.4935   -3.7483   -8.1130 H   0  0  0  0  0  0  0  0  0  0  0  0
   17.3491   -1.3081   -9.1705 H   0  0  0  0  0  0  0  0  0  0  0  0
   18.6162   -2.8720  -10.8594 H   0  0  0  0  0  0  0  0  0  0  0  0
   16.8209   -4.4180  -12.0617 H   0  0  0  0  0  0  0  0  0  0  0  0
   14.4482   -3.8050  -11.1142 H   0  0  0  0  0  0  0  0  0  0  0  0
   14.7069   -1.6747   -9.4975 H   0  0  0  0  0  0  0  0  0  0  0  0
   15.4980   -1.3759  -11.0617 H   0  0  0  0  0  0  0  0  0  0  0  0
   15.7308   -5.2639   -9.2911 H   0  0  0  0  0  0  0  0  0  0  0  0
  1  2  2  0  0  0  0
  2  3  1  0  0  0  0
  3  4  2  0  0  0  0
  3  5  1  0  0  0  0
  5  6  2  0  0  0  0
  6  7  1  0  0  0  0
  7  8  2  0  0  0  0
  8  9  1  0  0  0  0
  9 10  2  0  0  0  0
 10 11  1  0  0  0  0
 11 12  2  0  0  0  0
 12 13  1  0  0  0  0
 13 14  3  0  0  0  0
 12 15  1  0  0  0  0
 15 16  3  0  0  0  0
  8 17  1  0  0  0  0
 17 18  1  0  0  0  0
 18 19  1  0  0  0  0
 19 20  2  0  0  0  0
 20 21  1  0  0  0  0
 21 22  1  0  0  0  0
 21 23  1  0  0  0  0
  1 24  1  0  0  0  0
 24 25  2  0  0  0  0
 25 26  1  0  0  0  0
 26 27  2  0  0  0  0
 27 28  1  0  0  0  0
 28 29  2  0  0  0  0
 29 30  1  0  0  0  0
 30 31  2  0  0  0  0
 31 32  1  0  0  0  0
 32 33  2  0  0  0  0
 27 34  1  0  0  0  0
 34 35  2  0  0  0  0
 35 36  1  0  0  0  0
 36 37  2  0  0  0  0
 37 38  1  0  0  0  0
 38 39  2  0  0  0  0
 39 40  1  0  0  0  0
 40 41  1  0  0  0  0
 41 42  1  0  0  0  0
 40 43  2  0  0  0  0
 35 44  1  0  0  0  0
 44 45  1  0  0  0  0
 45 46  1  0  0  0  0
 46 47  1  0  0  0  0
 47 48  1  0  0  0  0
 48 49  1  0  0  0  0
 49 50  2  0  0  0  0
 50 51  1  0  0  0  0
 51 52  1  0  0  0  0
 49 53  1  0  0  0  0
 53 54  1  0  0  0  0
 54 55  1  0  0  0  0
 55 56  1  0  0  0  0
 56 57  1  0  0  0  0
 57 58  1  0  0  0  0
 58 59  2  0  0  0  0
 59 60  1  0  0  0  0
 60 61  2  0  0  0  0
 61 62  1  0  0  0  0
 62 63  1  0  0  0  0
 63 64  1  0  0  0  0
 62 65  2  0  0  0  0
 57 66  2  0  0  0  0
 66 67  1  0  0  0  0
 67 68  1  0  0  0  0
 68 69  1  0  0  0  0
 69 70  1  0  0  0  0
 70 71  1  0  0  0  0
 71 72  1  0  0  0  0
 72 73  1  0  0  0  0
 73 74  1  0  0  0  0
 74 75  1  0  0  0  0
 75 76  1  0  0  0  0
 73 77  1  0  0  0  0
 77 78  1  0  0  0  0
 70 79  1  0  0  0  0
 79 80  1  0  0  0  0
 66 81  1  0  0  0  0
 81 82  2  0  0  0  0
 82 83  1  0  0  0  0
 83 84  2  0  0  0  0
 84 85  1  0  0  0  0
 85 86  2  0  0  0  0
 86 87  1  0  0  0  0
 87 88  2  0  0  0  0
 88 89  1  0  0  0  0
 89 90  1  0  0  0  0
 90 91  1  0  0  0  0
 88 92  1  0  0  0  0
 92 93  1  0  0  0  0
 92 94  2  0  0  0  0
 84 95  1  0  0  0  0
 95 96  2  0  0  0  0
 96 97  1  0  0  0  0
 97 98  1  0  0  0  0
 98 99  2  0  0  0  0
 99100  1  0  0  0  0
100101  2  0  0  0  0
101102  1  0  0  0  0
102103  1  0  0  0  0
103104  1  0  0  0  0
101105  1  0  0  0  0
105106  2  0  0  0  0
105107  1  0  0  0  0
 97108  2  0  0  0  0
108109  1  0  0  0  0
 96110  1  0  0  0  0
110111  2  0  0  0  0
111112  1  0  0  0  0
111113  1  0  0  0  0
113114  2  0  0  0  0
114115  1  0  0  0  0
115116  2  0  0  0  0
115117  1  0  0  0  0
117118  2  0  0  0  0
118119  1  0  0  0  0
119120  2  0  0  0  0
120121  1  0  0  0  0
121122  2  0  0  0  0
122123  1  0  0  0  0
123124  2  0  0  0  0
124125  1  0  0  0  0
125126  3  0  0  0  0
124127  1  0  0  0  0
127128  3  0  0  0  0
120129  1  0  0  0  0
129130  1  0  0  0  0
130131  1  0  0  0  0
131132  2  0  0  0  0
132133  1  0  0  0  0
133134  1  0  0  0  0
133135  1  0  0  0  0
 11  2  1  0  0  0  0
 23 17  1  0  0  0  0
 33 24  1  0  0  0  0
 76 34  1  0  0  0  0
109 81  1  0  0  0  0
123114  1  0  0  0  0
135129  1  0  0  0  0
 10  5  1  0  0  0  0
 22 18  1  0  0  0  0
 33 28  1  0  0  0  0
 43 36  1  0  0  0  0
 75 44  2  0  0  0  0
108 83  1  0  0  0  0
122117  1  0  0  0  0
134130  1  0  0  0  0
 23  7  1  0  0  0  0
 74 46  2  0  0  0  0
 94 85  1  0  0  0  0
112 95  1  0  0  0  0
135119  1  0  0  0  0
 72 47  2  0  0  0  0
106 98  1  0  0  0  0
 52 48  2  0  0  0  0
 71 53  2  0  0  0  0
 69 54  2  0  0  0  0
 68 56  2  0  0  0  0
 65 58  1  0  0  0  0
  1136  1  0  0  0  0
  6137  1  0  0  0  0
  9138  1  0  0  0  0
 17139  1  0  0  0  0
 18140  1  0  0  0  0
 19141  1  0  0  0  0
 20142  1  0  0  0  0
 21143  1  0  0  0  0
 22144  1  0  0  0  0
 22145  1  0  0  0  0
 23146  1  0  0  0  0
 25147  1  0  0  0  0
 26148  1  0  0  0  0
 30149  1  0  0  0  0
 31150  1  0  0  0  0
 37151  1  0  0  0  0
 38152  1  0  0  0  0
 39153  1  0  0  0  0
 41154  1  0  0  0  0
 41155  1  0  0  0  0
 42156  1  0  0  0  0
 42157  1  0  0  0  0
 42158  1  0  0  0  0
 43159  1  0  0  0  0
 59160  1  0  0  0  0
 60161  1  0  0  0  0
 61162  1  0  0  0  0
 63163  1  0  0  0  0
 63164  1  0  0  0  0
 64165  1  0  0  0  0
 64166  1  0  0  0  0
 64167  1  0  0  0  0
 65168  1  0  0  0  0
 77169  1  0  0  0  0
 77170  1  0  0  0  0
 78171  1  0  0  0  0
 78172  1  0  0  0  0
 78173  1  0  0  0  0
 79174  1  0  0  0  0
 79175  1  0  0  0  0
 80176  1  0  0  0  0
 80177  1  0  0  0  0
 80178  1  0  0  0  0
 82179  1  0  0  0  0
 86180  1  0  0  0  0
 87181  1  0  0  0  0
 90182  1  0  0  0  0
 90183  1  0  0  0  0
 91184  1  0  0  0  0
 91185  1  0  0  0  0
 91186  1  0  0  0  0
 94187  1  0  0  0  0
 99188  1  0  0  0  0
100189  1  0  0  0  0
103190  1  0  0  0  0
103191  1  0  0  0  0
104192  1  0  0  0  0
104193  1  0  0  0  0
104194  1  0  0  0  0
106195  1  0  0  0  0
110196  1  0  0  0  0
113197  1  0  0  0  0
118198  1  0  0  0  0
121199  1  0  0  0  0
129200  1  0  0  0  0
130201  1  0  0  0  0
131202  1  0  0  0  0
132203  1  0  0  0  0
133204  1  0  0  0  0
134205  1  0  0  0  0
134206  1  0  0  0  0
135207  1  0  0  0  0
M  END
