
  xtb     02242215213D
 energy: -433.313125995580 gnorm: 0.000958731907 xtb: 6.4.1 (unknown)
262292  0     0  0            999 V2000
    2.1873  -14.0278   -4.2789 C   0  0  0  0  0  0  0  0  0  0  0  0
    3.4030  -14.4970   -3.8672 C   0  0  0  0  0  0  0  0  0  0  0  0
    4.1716  -14.0280   -2.6998 C   0  0  0  0  0  0  0  0  0  0  0  0
    3.8247  -13.2300   -1.8500 O   0  0  0  0  0  0  0  0  0  0  0  0
    5.4669  -14.7252   -2.7542 C   0  0  0  0  0  0  0  0  0  0  0  0
    6.5368  -14.5643   -1.8772 C   0  0  0  0  0  0  0  0  0  0  0  0
    7.6337  -15.3303   -2.1892 C   0  0  0  0  0  0  0  0  0  0  0  0
    7.6632  -16.1942   -3.2925 C   0  0  0  0  0  0  0  0  0  0  0  0
    6.6106  -16.3690   -4.1590 C   0  0  0  0  0  0  0  0  0  0  0  0
    5.4827  -15.5983   -3.8605 C   0  0  0  0  0  0  0  0  0  0  0  0
    4.1940  -15.5098   -4.5440 C   0  0  0  0  0  0  0  0  0  0  0  0
    3.8113  -16.2791   -5.6130 C   0  0  0  0  0  0  0  0  0  0  0  0
    2.5553  -16.2390   -6.2540 C   0  0  0  0  0  0  0  0  0  0  0  0
    1.5628  -16.2831   -6.8316 N   0  0  0  0  0  0  0  0  0  0  0  0
    4.6222  -17.2587   -6.2238 C   0  0  0  0  0  0  0  0  0  0  0  0
    5.2184  -18.0707   -6.7751 N   0  0  0  0  0  0  0  0  0  0  0  0
    9.0823  -16.6245   -3.0180 C   0  0  0  0  0  0  0  0  0  0  0  0
   10.2023  -16.0133   -3.8964 C   0  0  0  0  0  0  0  0  0  0  0  0
    9.6959  -14.6728   -4.3682 C   0  0  0  0  0  0  0  0  0  0  0  0
    9.6676  -13.8589   -3.3213 C   0  0  0  0  0  0  0  0  0  0  0  0
   10.1543  -14.6348   -2.1223 C   0  0  0  0  0  0  0  0  0  0  0  0
   11.1775  -15.5623   -2.7971 C   0  0  0  0  0  0  0  0  0  0  0  0
    9.0479  -15.6654   -1.7865 C   0  0  0  0  0  0  0  0  0  0  0  0
    1.3638  -13.0229   -3.7325 C   0  0  0  0  0  0  0  0  0  0  0  0
    0.1763  -12.6416   -4.3320 C   0  0  0  0  0  0  0  0  0  0  0  0
   -0.4908  -11.5967   -3.6774 C   0  0  0  0  0  0  0  0  0  0  0  0
   -1.7069  -10.9585   -4.0425 C   0  0  0  0  0  0  0  0  0  0  0  0
   -2.5407  -11.4593   -5.1030 C   0  0  0  0  0  0  0  0  0  0  0  0
   -2.7299  -12.7661   -5.4746 C   0  0  0  0  0  0  0  0  0  0  0  0
   -3.5787  -12.9858   -6.5721 C   0  0  0  0  0  0  0  0  0  0  0  0
   -4.0982  -11.8543   -7.1393 C   0  0  0  0  0  0  0  0  0  0  0  0
   -5.1142  -11.8706   -8.5592 S   0  0  0  0  0  0  0  0  0  0  0  0
   -5.6854  -10.1367   -8.6366 C   0  0  0  0  0  0  0  0  0  0  0  0
   -6.7568   -9.8345   -7.6083 C   0  0  0  0  0  0  0  0  0  0  0  0
   -3.5266  -10.3085   -6.2290 Se  0  0  0  0  0  2  0  0  0  0  0  0
   -2.0114   -9.8071   -3.3279 C   0  0  0  0  0  0  0  0  0  0  0  0
   -1.2423   -9.3138   -2.2451 C   0  0  0  0  0  0  0  0  0  0  0  0
   -0.1234  -10.0411   -1.7833 C   0  0  0  0  0  0  0  0  0  0  0  0
    0.5921   -9.6508   -0.5903 C   0  0  0  0  0  0  0  0  0  0  0  0
    0.0493   -9.0842    0.5339 C   0  0  0  0  0  0  0  0  0  0  0  0
    0.9486   -8.7510    1.5647 C   0  0  0  0  0  0  0  0  0  0  0  0
    2.2543   -9.0425    1.2907 C   0  0  0  0  0  0  0  0  0  0  0  0
    3.6699   -8.7737    2.2794 S   0  0  0  0  0  0  0  0  0  0  0  0
    2.9284   -8.4469    3.9264 C   0  0  0  0  0  0  0  0  0  0  0  0
    4.0248   -8.4414    4.9737 C   0  0  0  0  0  0  0  0  0  0  0  0
    2.4644   -9.8547   -0.3883 Se  0  0  0  0  0  2  0  0  0  0  0  0
    0.2464  -11.1439   -2.5517 C   0  0  0  0  0  0  0  0  0  0  0  0
    1.6802  -12.0870   -2.2854 S   0  0  0  0  0  0  0  0  0  0  0  0
   -1.7143   -8.0578   -1.8001 C   0  0  0  0  0  0  0  0  0  0  0  0
   -2.8263   -7.6082   -2.4568 C   0  0  0  0  0  0  0  0  0  0  0  0
   -3.3656   -8.7628   -3.6606 S   0  0  0  0  0  0  0  0  0  0  0  0
   -3.4571   -6.3450   -2.2780 C   0  0  0  0  0  0  0  0  0  0  0  0
   -4.6451   -5.8433   -2.7712 C   0  0  0  0  0  0  0  0  0  0  0  0
   -5.6338   -6.5585   -3.6343 C   0  0  0  0  0  0  0  0  0  0  0  0
   -5.3318   -6.3453   -5.1188 C   0  0  0  0  0  0  0  0  0  0  0  0
   -4.8336   -4.5058   -2.3755 C   0  0  0  0  0  0  0  0  0  0  0  0
   -6.1040   -3.3470   -2.6976 S   0  0  0  0  0  0  0  0  0  0  0  0
   -5.2277   -2.1621   -1.7909 C   0  0  0  0  0  0  0  0  0  0  0  0
   -5.3387   -0.8088   -1.4114 C   0  0  0  0  0  0  0  0  0  0  0  0
   -6.3950    0.1290   -1.5327 C   0  0  0  0  0  0  0  0  0  0  0  0
   -7.5640   -0.2112   -2.0692 N   0  0  0  0  0  0  0  0  0  0  0  0
   -8.5411    0.6818   -2.1197 C   0  0  0  0  0  0  0  0  0  0  0  0
   -9.8107    0.1459   -2.5425 C   0  0  0  0  0  0  0  0  0  0  0  0
   -9.7767   -1.3533   -3.4234 S   0  0  0  0  0  0  0  0  0  0  0  0
  -11.5033   -1.4332   -3.4676 C   0  0  0  0  0  0  0  0  0  0  0  0
  -12.2353   -2.5329   -4.1565 C   0  0  0  0  0  0  0  0  0  0  0  0
  -11.9383   -2.5520   -5.6560 C   0  0  0  0  0  0  0  0  0  0  0  0
  -12.0307   -0.3589   -2.8085 C   0  0  0  0  0  0  0  0  0  0  0  0
  -11.0930    0.5418   -2.2750 C   0  0  0  0  0  0  0  0  0  0  0  0
  -13.3580   -0.1738   -2.6720 F   0  0  0  0  0  0  0  0  0  0  0  0
   -8.3008    2.0285   -1.7167 C   0  0  0  0  0  0  0  0  0  0  0  0
   -9.1584    3.1612   -1.9618 C   0  0  0  0  0  0  0  0  0  0  0  0
  -10.0922    3.4117   -2.9302 C   0  0  0  0  0  0  0  0  0  0  0  0
  -10.5809    4.7269   -2.8432 C   0  0  0  0  0  0  0  0  0  0  0  0
  -11.5129    5.2009   -3.6929 F   0  0  0  0  0  0  0  0  0  0  0  0
  -10.0485    5.4857   -1.8394 C   0  0  0  0  0  0  0  0  0  0  0  0
  -10.3579    6.9019   -1.4950 C   0  0  0  0  0  0  0  0  0  0  0  0
   -9.1075    7.7789   -1.5493 C   0  0  0  0  0  0  0  0  0  0  0  0
   -8.8753    4.5612   -0.9698 S   0  0  0  0  0  0  0  0  0  0  0  0
   -7.1743    2.3426   -1.0963 N   0  0  0  0  0  0  0  0  0  0  0  0
   -6.2251    1.4222   -0.9572 C   0  0  0  0  0  0  0  0  0  0  0  0
   -4.9828    1.7453   -0.3583 C   0  0  0  0  0  0  0  0  0  0  0  0
   -4.4753    2.9575    0.1513 C   0  0  0  0  0  0  0  0  0  0  0  0
   -5.0071    4.5719    0.4795 S   0  0  0  0  0  0  0  0  0  0  0  0
   -3.3833    4.9835    0.9819 C   0  0  0  0  0  0  0  0  0  0  0  0
   -2.7974    6.1763    1.4506 C   0  0  0  0  0  0  0  0  0  0  0  0
   -3.5551    7.4616    1.5477 C   0  0  0  0  0  0  0  0  0  0  0  0
   -3.6304    8.1360    0.1765 C   0  0  0  0  0  0  0  0  0  0  0  0
   -1.4512    6.0126    1.6814 C   0  0  0  0  0  0  0  0  0  0  0  0
   -0.9004    4.3717    1.3593 S   0  0  0  0  0  0  0  0  0  0  0  0
   -2.4939    3.9153    0.8877 C   0  0  0  0  0  0  0  0  0  0  0  0
   -3.1201    2.7540    0.4203 C   0  0  0  0  0  0  0  0  0  0  0  0
   -2.7648    1.4578    0.1363 N   0  0  0  0  0  0  0  0  0  0  0  0
   -1.3977    1.1503   -0.2328 C   0  0  0  0  0  0  0  0  0  0  0  0
   -0.9766    1.9245   -1.4808 C   0  0  0  0  0  0  0  0  0  0  0  0
   -3.9054    0.8250   -0.3217 C   0  0  0  0  0  0  0  0  0  0  0  0
   -4.1462   -0.5060   -0.7064 C   0  0  0  0  0  0  0  0  0  0  0  0
   -3.3686   -1.6421   -0.5879 N   0  0  0  0  0  0  0  0  0  0  0  0
   -4.0260   -2.6432   -1.2624 C   0  0  0  0  0  0  0  0  0  0  0  0
   -3.8057   -3.9841   -1.5895 C   0  0  0  0  0  0  0  0  0  0  0  0
   -2.5795   -5.1631   -1.3035 S   0  0  0  0  0  0  0  0  0  0  0  0
   -2.4771   -1.9532    0.5107 C   0  0  0  0  0  0  0  0  0  0  0  0
   -3.1698   -2.8280    1.5554 C   0  0  0  0  0  0  0  0  0  0  0  0
   -0.5177    6.9827    2.1881 C   0  0  0  0  0  0  0  0  0  0  0  0
    0.7103    7.3490    1.6747 C   0  0  0  0  0  0  0  0  0  0  0  0
    1.2899    6.8644    0.4988 N   0  0  0  0  0  0  0  0  0  0  0  0
    1.7099    7.8215   -0.4325 C   0  0  0  0  0  0  0  0  0  0  0  0
    2.9031    7.6856   -1.1393 C   0  0  0  0  0  0  0  0  0  0  0  0
    3.2828    8.6510   -2.0482 C   0  0  0  0  0  0  0  0  0  0  0  0
    2.5021    9.7798   -2.2742 C   0  0  0  0  0  0  0  0  0  0  0  0
    2.9313   10.8105   -3.2735 C   0  0  0  0  0  0  0  0  0  0  0  0
    1.3227    9.9158   -1.5554 C   0  0  0  0  0  0  0  0  0  0  0  0
    0.9258    8.9526   -0.6486 C   0  0  0  0  0  0  0  0  0  0  0  0
    1.7379    5.5397    0.4530 C   0  0  0  0  0  0  0  0  0  0  0  0
    2.1253    4.8793    1.6183 C   0  0  0  0  0  0  0  0  0  0  0  0
    2.5112    3.5551    1.5679 C   0  0  0  0  0  0  0  0  0  0  0  0
    2.5368    2.8591    0.3653 C   0  0  0  0  0  0  0  0  0  0  0  0
    2.9645    1.4230    0.3289 C   0  0  0  0  0  0  0  0  0  0  0  0
    2.1746    3.5331   -0.7942 C   0  0  0  0  0  0  0  0  0  0  0  0
    1.7728    4.8530   -0.7581 C   0  0  0  0  0  0  0  0  0  0  0  0
    1.3280    8.3347    2.4769 C   0  0  0  0  0  0  0  0  0  0  0  0
    2.8335    9.1620    2.3692 S   0  0  0  0  0  0  0  0  0  0  0  0
    2.5366    9.9437    3.9267 C   0  0  0  0  0  0  0  0  0  0  0  0
    1.2641    9.6379    4.4347 C   0  0  0  0  0  0  0  0  0  0  0  0
    0.7334   10.0910    5.6093 N   0  0  0  0  0  0  0  0  0  0  0  0
    0.9865   11.3872    6.0836 C   0  0  0  0  0  0  0  0  0  0  0  0
    1.0012   12.4691    5.2051 C   0  0  0  0  0  0  0  0  0  0  0  0
    1.2625   13.7395    5.6767 C   0  0  0  0  0  0  0  0  0  0  0  0
    1.5063   13.9675    7.0268 C   0  0  0  0  0  0  0  0  0  0  0  0
    1.8320   15.3423    7.5190 C   0  0  0  0  0  0  0  0  0  0  0  0
    1.4688   12.8846    7.8974 C   0  0  0  0  0  0  0  0  0  0  0  0
    1.2131   11.6075    7.4389 C   0  0  0  0  0  0  0  0  0  0  0  0
   -0.0727    9.2250    6.3769 C   0  0  0  0  0  0  0  0  0  0  0  0
   -1.2412    9.6964    6.9646 C   0  0  0  0  0  0  0  0  0  0  0  0
   -2.0297    8.8418    7.7102 C   0  0  0  0  0  0  0  0  0  0  0  0
   -1.6774    7.5088    7.8822 C   0  0  0  0  0  0  0  0  0  0  0  0
   -2.5502    6.5744    8.6618 C   0  0  0  0  0  0  0  0  0  0  0  0
   -0.5002    7.0531    7.2985 C   0  0  0  0  0  0  0  0  0  0  0  0
    0.3025    7.8961    6.5570 C   0  0  0  0  0  0  0  0  0  0  0  0
    0.6158    8.6862    3.6087 C   0  0  0  0  0  0  0  0  0  0  0  0
   -0.8818    7.8237    3.6902 S   0  0  0  0  0  0  0  0  0  0  0  0
    3.5541   10.7132    4.5198 C   0  0  0  0  0  0  0  0  0  0  0  0
    4.9023   10.5774    4.3374 C   0  0  0  0  0  0  0  0  0  0  0  0
    5.8108   11.7042    4.6508 C   0  0  0  0  0  0  0  0  0  0  0  0
    5.5330   12.7169    5.2582 O   0  0  0  0  0  0  0  0  0  0  0  0
    7.1016   11.3513    4.0229 C   0  0  0  0  0  0  0  0  0  0  0  0
    8.2450   12.1422    3.9354 C   0  0  0  0  0  0  0  0  0  0  0  0
    9.2876   11.5488    3.2641 C   0  0  0  0  0  0  0  0  0  0  0  0
    9.2006   10.2662    2.7076 C   0  0  0  0  0  0  0  0  0  0  0  0
    8.0819    9.4713    2.7902 C   0  0  0  0  0  0  0  0  0  0  0  0
    7.0152   10.0525    3.4795 C   0  0  0  0  0  0  0  0  0  0  0  0
    5.7003    9.5022    3.8025 C   0  0  0  0  0  0  0  0  0  0  0  0
    5.3929    8.1633    3.8484 C   0  0  0  0  0  0  0  0  0  0  0  0
    4.2315    7.6539    4.4600 C   0  0  0  0  0  0  0  0  0  0  0  0
    3.3317    7.1898    5.0050 N   0  0  0  0  0  0  0  0  0  0  0  0
    6.2360    7.1359    3.3861 C   0  0  0  0  0  0  0  0  0  0  0  0
    6.8667    6.2539    3.0063 N   0  0  0  0  0  0  0  0  0  0  0  0
   10.6128   10.3120    2.1786 C   0  0  0  0  0  0  0  0  0  0  0  0
   11.6700    9.5148    2.9714 C   0  0  0  0  0  0  0  0  0  0  0  0
   12.9840   10.1192    2.5323 C   0  0  0  0  0  0  0  0  0  0  0  0
   13.0687   11.3313    3.0655 C   0  0  0  0  0  0  0  0  0  0  0  0
   11.8129   11.5666    3.8736 C   0  0  0  0  0  0  0  0  0  0  0  0
   11.5457   10.1389    4.3674 C   0  0  0  0  0  0  0  0  0  0  0  0
   10.7125   11.7398    2.8050 C   0  0  0  0  0  0  0  0  0  0  0  0
    1.7756  -14.4603   -5.1833 H   0  0  0  0  0  0  0  0  0  0  0  0
    6.4700  -13.8843   -1.0424 H   0  0  0  0  0  0  0  0  0  0  0  0
    6.6521  -17.0382   -5.0019 H   0  0  0  0  0  0  0  0  0  0  0  0
    9.2326  -17.6866   -2.8347 H   0  0  0  0  0  0  0  0  0  0  0  0
   10.5863  -16.6786   -4.6650 H   0  0  0  0  0  0  0  0  0  0  0  0
    9.3660  -14.4769   -5.3717 H   0  0  0  0  0  0  0  0  0  0  0  0
    9.3089  -12.8472   -3.2747 H   0  0  0  0  0  0  0  0  0  0  0  0
   10.4948  -14.0454   -1.2749 H   0  0  0  0  0  0  0  0  0  0  0  0
   11.5152  -16.3756   -2.1562 H   0  0  0  0  0  0  0  0  0  0  0  0
   12.0376  -15.0236   -3.1922 H   0  0  0  0  0  0  0  0  0  0  0  0
    9.1726  -16.1017   -0.7973 H   0  0  0  0  0  0  0  0  0  0  0  0
   -0.1607  -13.0869   -5.2513 H   0  0  0  0  0  0  0  0  0  0  0  0
   -2.3040  -13.5847   -4.9194 H   0  0  0  0  0  0  0  0  0  0  0  0
   -3.8083  -13.9697   -6.9429 H   0  0  0  0  0  0  0  0  0  0  0  0
   -4.8051   -9.4996   -8.5045 H   0  0  0  0  0  0  0  0  0  0  0  0
   -6.0655  -10.0171   -9.6507 H   0  0  0  0  0  0  0  0  0  0  0  0
   -6.3676   -9.9629   -6.5978 H   0  0  0  0  0  0  0  0  0  0  0  0
   -7.0930   -8.8058   -7.7201 H   0  0  0  0  0  0  0  0  0  0  0  0
   -7.6077  -10.4986   -7.7404 H   0  0  0  0  0  0  0  0  0  0  0  0
   -1.0122   -8.9426    0.6505 H   0  0  0  0  0  0  0  0  0  0  0  0
    0.6163   -8.3021    2.4846 H   0  0  0  0  0  0  0  0  0  0  0  0
    2.2034   -9.2381    4.1158 H   0  0  0  0  0  0  0  0  0  0  0  0
    2.4248   -7.4812    3.8802 H   0  0  0  0  0  0  0  0  0  0  0  0
    3.5972   -8.2506    5.9557 H   0  0  0  0  0  0  0  0  0  0  0  0
    4.7566   -7.6676    4.7543 H   0  0  0  0  0  0  0  0  0  0  0  0
    4.5346   -9.4016    4.9942 H   0  0  0  0  0  0  0  0  0  0  0  0
   -1.2158   -7.4718   -1.0489 H   0  0  0  0  0  0  0  0  0  0  0  0
   -6.6260   -6.1585   -3.4128 H   0  0  0  0  0  0  0  0  0  0  0  0
   -5.6319   -7.6259   -3.4095 H   0  0  0  0  0  0  0  0  0  0  0  0
   -6.0826   -6.8458   -5.7244 H   0  0  0  0  0  0  0  0  0  0  0  0
   -4.3563   -6.7524   -5.3752 H   0  0  0  0  0  0  0  0  0  0  0  0
   -5.3420   -5.2841   -5.3558 H   0  0  0  0  0  0  0  0  0  0  0  0
  -11.9437   -3.4922   -3.7210 H   0  0  0  0  0  0  0  0  0  0  0  0
  -13.3052   -2.3914   -3.9898 H   0  0  0  0  0  0  0  0  0  0  0  0
  -12.2384   -1.6127   -6.1141 H   0  0  0  0  0  0  0  0  0  0  0  0
  -10.8739   -2.6965   -5.8252 H   0  0  0  0  0  0  0  0  0  0  0  0
  -12.4830   -3.3612   -6.1355 H   0  0  0  0  0  0  0  0  0  0  0  0
  -11.3655    1.4133   -1.7101 H   0  0  0  0  0  0  0  0  0  0  0  0
  -10.4029    2.7138   -3.6848 H   0  0  0  0  0  0  0  0  0  0  0  0
  -11.1079    7.2722   -2.1970 H   0  0  0  0  0  0  0  0  0  0  0  0
  -10.7821    6.9461   -0.4879 H   0  0  0  0  0  0  0  0  0  0  0  0
   -9.3569    8.8045   -1.2898 H   0  0  0  0  0  0  0  0  0  0  0  0
   -8.6795    7.7676   -2.5488 H   0  0  0  0  0  0  0  0  0  0  0  0
   -8.3612    7.4107   -0.8494 H   0  0  0  0  0  0  0  0  0  0  0  0
   -3.0775    8.1316    2.2624 H   0  0  0  0  0  0  0  0  0  0  0  0
   -4.5658    7.2434    1.8982 H   0  0  0  0  0  0  0  0  0  0  0  0
   -4.1853    9.0681    0.2459 H   0  0  0  0  0  0  0  0  0  0  0  0
   -2.6308    8.3514   -0.1954 H   0  0  0  0  0  0  0  0  0  0  0  0
   -4.1309    7.4858   -0.5368 H   0  0  0  0  0  0  0  0  0  0  0  0
   -1.3084    0.0863   -0.4412 H   0  0  0  0  0  0  0  0  0  0  0  0
   -0.7451    1.4178    0.6041 H   0  0  0  0  0  0  0  0  0  0  0  0
    0.0253    1.6234   -1.7709 H   0  0  0  0  0  0  0  0  0  0  0  0
   -0.9708    2.9940   -1.2910 H   0  0  0  0  0  0  0  0  0  0  0  0
   -1.6598    1.7143   -2.3012 H   0  0  0  0  0  0  0  0  0  0  0  0
   -1.5979   -2.4731    0.1163 H   0  0  0  0  0  0  0  0  0  0  0  0
   -2.1715   -1.0249    0.9906 H   0  0  0  0  0  0  0  0  0  0  0  0
   -4.0724   -2.3386    1.9145 H   0  0  0  0  0  0  0  0  0  0  0  0
   -3.4381   -3.7945    1.1390 H   0  0  0  0  0  0  0  0  0  0  0  0
   -2.5005   -2.9883    2.3959 H   0  0  0  0  0  0  0  0  0  0  0  0
    3.5344    6.8277   -0.9626 H   0  0  0  0  0  0  0  0  0  0  0  0
    4.2120    8.5330   -2.5872 H   0  0  0  0  0  0  0  0  0  0  0  0
    3.9553   11.1267   -3.0809 H   0  0  0  0  0  0  0  0  0  0  0  0
    2.8954   10.3972   -4.2815 H   0  0  0  0  0  0  0  0  0  0  0  0
    2.2832   11.6824   -3.2364 H   0  0  0  0  0  0  0  0  0  0  0  0
    0.6990   10.7849   -1.7092 H   0  0  0  0  0  0  0  0  0  0  0  0
    0.0008    9.0715   -0.1020 H   0  0  0  0  0  0  0  0  0  0  0  0
    2.1239    5.4066    2.5613 H   0  0  0  0  0  0  0  0  0  0  0  0
    2.8063    3.0557    2.4791 H   0  0  0  0  0  0  0  0  0  0  0  0
    4.0360    1.3455    0.5128 H   0  0  0  0  0  0  0  0  0  0  0  0
    2.7516    0.9757   -0.6392 H   0  0  0  0  0  0  0  0  0  0  0  0
    2.4540    0.8501    1.1014 H   0  0  0  0  0  0  0  0  0  0  0  0
    2.2012    3.0169   -1.7435 H   0  0  0  0  0  0  0  0  0  0  0  0
    1.4741    5.3587   -1.6645 H   0  0  0  0  0  0  0  0  0  0  0  0
    0.8115   12.3040    4.1543 H   0  0  0  0  0  0  0  0  0  0  0  0
    1.2789   14.5690    4.9853 H   0  0  0  0  0  0  0  0  0  0  0  0
    1.2599   16.0941    6.9796 H   0  0  0  0  0  0  0  0  0  0  0  0
    1.6278   15.4354    8.5827 H   0  0  0  0  0  0  0  0  0  0  0  0
    2.8908   15.5461    7.3565 H   0  0  0  0  0  0  0  0  0  0  0  0
    1.6552   13.0406    8.9498 H   0  0  0  0  0  0  0  0  0  0  0  0
    1.1996   10.7718    8.1226 H   0  0  0  0  0  0  0  0  0  0  0  0
   -1.5270   10.7295    6.8313 H   0  0  0  0  0  0  0  0  0  0  0  0
   -2.9377    9.2168    8.1597 H   0  0  0  0  0  0  0  0  0  0  0  0
   -3.2193    7.1225    9.3203 H   0  0  0  0  0  0  0  0  0  0  0  0
   -1.9491    5.8904    9.2572 H   0  0  0  0  0  0  0  0  0  0  0  0
   -3.1570    5.9783    7.9795 H   0  0  0  0  0  0  0  0  0  0  0  0
   -0.2030    6.0235    7.4332 H   0  0  0  0  0  0  0  0  0  0  0  0
    1.2244    7.5361    6.1247 H   0  0  0  0  0  0  0  0  0  0  0  0
    3.2590   11.5416    5.1547 H   0  0  0  0  0  0  0  0  0  0  0  0
    8.2713   13.1294    4.3697 H   0  0  0  0  0  0  0  0  0  0  0  0
    8.0188    8.4890    2.3510 H   0  0  0  0  0  0  0  0  0  0  0  0
   10.7206   10.2080    1.1005 H   0  0  0  0  0  0  0  0  0  0  0  0
   11.5768    8.4349    2.8951 H   0  0  0  0  0  0  0  0  0  0  0  0
   13.6686    9.6411    1.8563 H   0  0  0  0  0  0  0  0  0  0  0  0
   13.8378   12.0679    2.9236 H   0  0  0  0  0  0  0  0  0  0  0  0
   11.8520   12.3559    4.6197 H   0  0  0  0  0  0  0  0  0  0  0  0
   12.3205    9.7865    5.0463 H   0  0  0  0  0  0  0  0  0  0  0  0
   10.5689   10.0038    4.8279 H   0  0  0  0  0  0  0  0  0  0  0  0
   10.8906   12.5871    2.1449 H   0  0  0  0  0  0  0  0  0  0  0  0
  1  2  2  0  0  0  0
  2  3  1  0  0  0  0
  3  4  2  0  0  0  0
  3  5  1  0  0  0  0
  5  6  2  0  0  0  0
  6  7  1  0  0  0  0
  7  8  2  0  0  0  0
  8  9  1  0  0  0  0
  9 10  2  0  0  0  0
 10 11  1  0  0  0  0
 11 12  2  0  0  0  0
 12 13  1  0  0  0  0
 13 14  3  0  0  0  0
 12 15  1  0  0  0  0
 15 16  3  0  0  0  0
  8 17  1  0  0  0  0
 17 18  1  0  0  0  0
 18 19  1  0  0  0  0
 19 20  2  0  0  0  0
 20 21  1  0  0  0  0
 21 22  1  0  0  0  0
 21 23  1  0  0  0  0
  1 24  1  0  0  0  0
 24 25  2  0  0  0  0
 25 26  1  0  0  0  0
 26 27  2  0  0  0  0
 27 28  1  0  0  0  0
 28 29  2  0  0  0  0
 29 30  1  0  0  0  0
 30 31  2  0  0  0  0
 31 32  1  0  0  0  0
 32 33  1  0  0  0  0
 33 34  1  0  0  0  0
 31 35  1  0  0  0  0
 27 36  1  0  0  0  0
 36 37  2  0  0  0  0
 37 38  1  0  0  0  0
 38 39  1  0  0  0  0
 39 40  2  0  0  0  0
 40 41  1  0  0  0  0
 41 42  2  0  0  0  0
 42 43  1  0  0  0  0
 43 44  1  0  0  0  0
 44 45  1  0  0  0  0
 42 46  1  0  0  0  0
 38 47  2  0  0  0  0
 47 48  1  0  0  0  0
 37 49  1  0  0  0  0
 49 50  2  0  0  0  0
 50 51  1  0  0  0  0
 50 52  1  0  0  0  0
 52 53  2  0  0  0  0
 53 54  1  0  0  0  0
 54 55  1  0  0  0  0
 53 56  1  0  0  0  0
 56 57  1  0  0  0  0
 57 58  1  0  0  0  0
 58 59  1  0  0  0  0
 59 60  2  0  0  0  0
 60 61  1  0  0  0  0
 61 62  2  0  0  0  0
 62 63  1  0  0  0  0
 63 64  1  0  0  0  0
 64 65  1  0  0  0  0
 65 66  1  0  0  0  0
 66 67  1  0  0  0  0
 65 68  2  0  0  0  0
 68 69  1  0  0  0  0
 68 70  1  0  0  0  0
 62 71  1  0  0  0  0
 71 72  1  0  0  0  0
 72 73  2  0  0  0  0
 73 74  1  0  0  0  0
 74 75  1  0  0  0  0
 74 76  2  0  0  0  0
 76 77  1  0  0  0  0
 77 78  1  0  0  0  0
 76 79  1  0  0  0  0
 71 80  2  0  0  0  0
 80 81  1  0  0  0  0
 81 82  2  0  0  0  0
 82 83  1  0  0  0  0
 83 84  1  0  0  0  0
 84 85  1  0  0  0  0
 85 86  1  0  0  0  0
 86 87  1  0  0  0  0
 87 88  1  0  0  0  0
 86 89  2  0  0  0  0
 89 90  1  0  0  0  0
 90 91  1  0  0  0  0
 91 92  1  0  0  0  0
 92 93  1  0  0  0  0
 93 94  1  0  0  0  0
 94 95  1  0  0  0  0
 93 96  1  0  0  0  0
 96 97  2  0  0  0  0
 97 98  1  0  0  0  0
 98 99  1  0  0  0  0
 99100  1  0  0  0  0
100101  1  0  0  0  0
 98102  1  0  0  0  0
102103  1  0  0  0  0
 89104  1  0  0  0  0
104105  2  0  0  0  0
105106  1  0  0  0  0
106107  1  0  0  0  0
107108  2  0  0  0  0
108109  1  0  0  0  0
109110  2  0  0  0  0
110111  1  0  0  0  0
110112  1  0  0  0  0
112113  2  0  0  0  0
106114  1  0  0  0  0
114115  2  0  0  0  0
115116  1  0  0  0  0
116117  2  0  0  0  0
117118  1  0  0  0  0
117119  1  0  0  0  0
119120  2  0  0  0  0
105121  1  0  0  0  0
121122  1  0  0  0  0
122123  1  0  0  0  0
123124  2  0  0  0  0
124125  1  0  0  0  0
125126  1  0  0  0  0
126127  2  0  0  0  0
127128  1  0  0  0  0
128129  2  0  0  0  0
129130  1  0  0  0  0
129131  1  0  0  0  0
131132  2  0  0  0  0
125133  1  0  0  0  0
133134  2  0  0  0  0
134135  1  0  0  0  0
135136  2  0  0  0  0
136137  1  0  0  0  0
136138  1  0  0  0  0
138139  2  0  0  0  0
124140  1  0  0  0  0
140141  1  0  0  0  0
123142  1  0  0  0  0
142143  2  0  0  0  0
143144  1  0  0  0  0
144145  2  0  0  0  0
144146  1  0  0  0  0
146147  2  0  0  0  0
147148  1  0  0  0  0
148149  2  0  0  0  0
149150  1  0  0  0  0
150151  2  0  0  0  0
151152  1  0  0  0  0
152153  2  0  0  0  0
153154  1  0  0  0  0
154155  3  0  0  0  0
153156  1  0  0  0  0
156157  3  0  0  0  0
149158  1  0  0  0  0
158159  1  0  0  0  0
159160  1  0  0  0  0
160161  2  0  0  0  0
161162  1  0  0  0  0
162163  1  0  0  0  0
162164  1  0  0  0  0
 11  2  1  0  0  0  0
 23 17  1  0  0  0  0
 48 24  1  0  0  0  0
101 52  1  0  0  0  0
141104  1  0  0  0  0
152143  1  0  0  0  0
164158  1  0  0  0  0
 10  5  1  0  0  0  0
 22 18  1  0  0  0  0
 47 26  1  0  0  0  0
100 56  2  0  0  0  0
113107  1  0  0  0  0
120114  1  0  0  0  0
140121  2  0  0  0  0
151146  1  0  0  0  0
163159  1  0  0  0  0
 23  7  1  0  0  0  0
 35 28  1  0  0  0  0
 51 36  1  0  0  0  0
 99 58  2  0  0  0  0
132126  1  0  0  0  0
139133  1  0  0  0  0
164148  1  0  0  0  0
 46 39  1  0  0  0  0
 97 59  1  0  0  0  0
 81 60  1  0  0  0  0
 96 82  1  0  0  0  0
 69 63  2  0  0  0  0
 79 72  1  0  0  0  0
 92 83  2  0  0  0  0
 91 85  2  0  0  0  0
  1165  1  0  0  0  0
  6166  1  0  0  0  0
  9167  1  0  0  0  0
 17168  1  0  0  0  0
 18169  1  0  0  0  0
 19170  1  0  0  0  0
 20171  1  0  0  0  0
 21172  1  0  0  0  0
 22173  1  0  0  0  0
 22174  1  0  0  0  0
 23175  1  0  0  0  0
 25176  1  0  0  0  0
 29177  1  0  0  0  0
 30178  1  0  0  0  0
 33179  1  0  0  0  0
 33180  1  0  0  0  0
 34181  1  0  0  0  0
 34182  1  0  0  0  0
 34183  1  0  0  0  0
 40184  1  0  0  0  0
 41185  1  0  0  0  0
 44186  1  0  0  0  0
 44187  1  0  0  0  0
 45188  1  0  0  0  0
 45189  1  0  0  0  0
 45190  1  0  0  0  0
 49191  1  0  0  0  0
 54192  1  0  0  0  0
 54193  1  0  0  0  0
 55194  1  0  0  0  0
 55195  1  0  0  0  0
 55196  1  0  0  0  0
 66197  1  0  0  0  0
 66198  1  0  0  0  0
 67199  1  0  0  0  0
 67200  1  0  0  0  0
 67201  1  0  0  0  0
 69202  1  0  0  0  0
 73203  1  0  0  0  0
 77204  1  0  0  0  0
 77205  1  0  0  0  0
 78206  1  0  0  0  0
 78207  1  0  0  0  0
 78208  1  0  0  0  0
 87209  1  0  0  0  0
 87210  1  0  0  0  0
 88211  1  0  0  0  0
 88212  1  0  0  0  0
 88213  1  0  0  0  0
 94214  1  0  0  0  0
 94215  1  0  0  0  0
 95216  1  0  0  0  0
 95217  1  0  0  0  0
 95218  1  0  0  0  0
102219  1  0  0  0  0
102220  1  0  0  0  0
103221  1  0  0  0  0
103222  1  0  0  0  0
103223  1  0  0  0  0
108224  1  0  0  0  0
109225  1  0  0  0  0
111226  1  0  0  0  0
111227  1  0  0  0  0
111228  1  0  0  0  0
112229  1  0  0  0  0
113230  1  0  0  0  0
115231  1  0  0  0  0
116232  1  0  0  0  0
118233  1  0  0  0  0
118234  1  0  0  0  0
118235  1  0  0  0  0
119236  1  0  0  0  0
120237  1  0  0  0  0
127238  1  0  0  0  0
128239  1  0  0  0  0
130240  1  0  0  0  0
130241  1  0  0  0  0
130242  1  0  0  0  0
131243  1  0  0  0  0
132244  1  0  0  0  0
134245  1  0  0  0  0
135246  1  0  0  0  0
137247  1  0  0  0  0
137248  1  0  0  0  0
137249  1  0  0  0  0
138250  1  0  0  0  0
139251  1  0  0  0  0
142252  1  0  0  0  0
147253  1  0  0  0  0
150254  1  0  0  0  0
158255  1  0  0  0  0
159256  1  0  0  0  0
160257  1  0  0  0  0
161258  1  0  0  0  0
162259  1  0  0  0  0
163260  1  0  0  0  0
163261  1  0  0  0  0
164262  1  0  0  0  0
M  END
