229

C         -2.33600        5.31870       -0.35500
C         -2.86760        4.81120        0.78910
C         -4.34710        4.82650        0.96020
O         -5.16740        5.05440        0.09760
C         -4.58590        4.55950        2.38830
C         -5.81120        4.53660        3.05150
C         -5.71590        4.26560        4.39430
C         -4.48860        4.09090        5.04880
C         -3.27270        4.11190        4.40810
C         -3.35170        4.32170        3.02870
C         -2.29490        4.28920        2.01570
C         -1.11300        3.61990        2.18790
C         -0.16990        3.27210        1.20020
N          0.63170        2.86070        0.48720
C         -0.71520        3.01890        3.40080
N         -0.31670        2.48850        4.33850
C         -5.14550        3.87700        6.39150
C         -5.19580        2.42760        6.93490
C         -5.12830        1.53050        5.72470
C         -6.27560        1.65230        5.07070
C         -7.14430        2.62330        5.83150
C         -6.69210        2.32040        7.26870
C         -6.51210        4.02740        5.65070
C         -0.97910        5.60000       -0.64340
C         -0.36240        5.70950       -1.87240
C          1.03040        5.72850       -1.62810
C          2.15000        5.57810       -2.47090
C          2.06240        5.65660       -3.92840
C          1.26470        6.63170       -4.52670
C          1.19930        6.73990       -5.90150
C          1.91870        5.87680       -6.71980
C          1.81890        5.97080       -8.21460
C          0.67810        5.09160       -8.73150
C          2.70240        4.89770       -6.12160
C          2.78400        4.79070       -4.74810
C          3.31870        5.27520       -1.78960
C          3.44220        5.22780       -0.37150
C          2.34490        5.46830        0.46850
C          2.35040        5.36050        1.92980
C          1.67730        6.31140        2.69410
C          1.63280        6.20340        4.06900
C          2.24100        5.13740        4.72230
C          2.16190        5.01940        6.21720
C          0.75840        4.60540        6.66240
C          2.89140        4.17920        3.95590
C          2.95300        4.28750        2.57960
C          1.15860        5.68140       -0.21430
O         -0.06520        5.65750        0.36450
C          4.75410        4.75390       -0.12960
C          5.31280        4.49150       -1.35730
O          4.47920        4.87350       -2.36500
C          6.38940        3.59840       -1.65830
C          6.81760        3.14580       -2.90080
C          6.60830        3.90180       -4.13180
C          6.35150        3.25530       -5.33900
C          6.11590        3.99390       -6.48250
C          6.11350        5.37650       -6.43620
C          6.37420        6.03990       -5.24370
C          6.30490        7.53740       -5.16850
C          4.88560        7.97030       -4.79450
C          6.63680        5.29500       -4.10640
C          7.36810        1.84480       -2.79950
S          7.76250        0.59700       -3.97460
C          7.67430       -0.61120       -2.72670
C          7.39610       -1.99220       -2.60640
C          7.36880       -3.08800       -3.50210
C          6.74400       -4.32750       -3.09310
N          6.80820       -5.25270       -4.03400
S          7.57990       -4.63860       -5.31910
N          7.85580       -3.15530       -4.72870
C          6.02760       -4.36840       -1.87080
C          4.92650       -5.13880       -1.43860
S          3.93020       -6.45850       -1.97980
C          2.69020       -5.99230       -0.82750
C          1.34140       -6.38340       -0.62660
C          0.69160       -7.48630       -1.33460
C         -0.11400       -8.39020       -0.64890
C         -0.70950       -9.43700       -1.32630
C         -0.50420       -9.59450       -2.68560
C          0.30760       -8.70940       -3.38420
C          0.50770       -8.85540       -4.86530
C         -0.56140       -8.07070       -5.62840
C          0.89820       -7.65860       -2.69950
C          0.72120       -5.55540        0.28340
S          1.79770       -4.33680        0.94590
C          3.08670       -4.92160       -0.03160
C          4.36880       -4.46080       -0.35150
N          5.11560       -3.36200       -0.03680
C          6.12740       -3.27780       -0.96760
C          6.96690       -2.18150       -1.26820
N          7.13380       -1.01020       -0.55330
C          7.50130       -0.04750       -1.45910
C          7.36060        1.34130       -1.49860
S          6.80580        2.49980       -0.34810
C          7.45430       -0.89100        0.85240
C          8.94770       -0.63670        1.05010
C          4.59160       -2.35990        0.86230
C          4.75970       -2.76370        2.32490
C         -0.66340       -5.27730        0.59950
C         -1.70850       -5.94220        1.16930
C         -2.74670       -4.98370        1.36770
C         -4.02700       -5.05780        1.94120
C         -4.57880       -6.27400        2.54250
C         -3.79200       -7.09110        3.35140
C         -4.32380       -8.22640        3.93010
C         -5.65030       -8.58170        3.71910
C         -6.23830       -9.78880        4.39020
C         -6.83190       -9.40540        5.74760
C         -6.43570       -7.76050        2.91930
C         -5.91270       -6.62160        2.34070
C         -4.72020       -3.85290        1.93010
C         -4.21480       -2.64970        1.36200
C         -2.94480       -2.57850        0.75890
C         -2.46370       -1.38080        0.07240
C         -3.35090       -0.60990       -0.68170
C         -2.91070        0.50890       -1.35850
C         -1.57620        0.89450       -1.31420
C         -1.09930        2.08560       -2.09400
C         -0.71820        1.68800       -3.52130
C         -0.69140        0.12230       -0.56960
C         -1.12320       -0.99790        0.11360
C         -2.23390       -3.76700        0.84190
O         -0.97320       -3.96060        0.40060
C         -5.19020       -1.66840        1.62750
C         -6.21440       -2.29150        2.31030
O         -5.92890       -3.62150        2.48900
C         -7.39680       -1.81540        2.92100
C         -7.98340       -0.58550        2.83510
C         -7.65690        0.53020        1.89530
O         -6.81540        0.56220        1.02160
C         -8.60870        1.59540        2.22040
C         -9.43320        1.18060        3.24520
S        -10.57860        2.37290        3.73210
C         -9.94320        3.47280        2.51870
C        -10.38850        4.76160        2.27290
C         -9.76700        5.49050        1.27710
C         -8.71630        4.94910        0.53400
C         -8.26850        3.66890        0.77100
C         -8.88080        2.91180        1.77280
C         -9.10330       -0.15700        3.66480
C         -9.72530       -0.81500        4.69570
C         -9.43390       -2.11030        5.16310
N         -9.26340       -3.15590        5.60700
C        -10.76690       -0.19830        5.42050
N        -11.60850        0.29340        6.02640
H         -3.04450        5.54310       -1.14420
H         -6.73350        4.71000        2.52020
H         -2.33410        3.98120        4.92110
H         -4.90460        4.60670        7.16170
H         -4.48730        2.21670        7.73100
H         -4.25890        0.96780        5.43950
H         -6.53870        1.21450        4.12610
H         -8.21160        2.58160        5.62730
H         -6.97950        1.32350        7.59940
H         -7.03020        3.05950        7.99350
H         -7.18500        4.82390        5.96240
H         -0.85150        5.68430       -2.82500
H          0.71980        7.32740       -3.90550
H          0.58750        7.51110       -6.34830
H          2.75710        5.64400       -8.66770
H          1.63730        7.00620       -8.51070
H          0.60770        5.15720       -9.81480
H         -0.26930        5.40950       -8.30190
H          0.84690        4.05320       -8.45570
H          3.26440        4.21370       -6.74020
H          3.40200        4.02450       -4.30860
H          1.20050        7.14720        2.20250
H          1.11950        6.95920        4.64700
H          2.41550        5.98030        6.67330
H          2.88270        4.27740        6.56510
H          0.48070        3.66400        6.19420
H          0.72340        4.48600        7.74300
H          0.02900        5.35980        6.37400
H          3.35220        3.33220        4.44380
H          3.43540        3.51700        1.99780
H          5.21200        4.57320        0.82130
H          6.31590        2.17800       -5.37960
H          5.92380        3.48400       -7.41550
H          5.91020        5.94800       -7.33040
H          6.57480        7.97420       -6.13200
H          7.00520        7.90660       -4.41640
H          4.17440        7.62720       -5.54270
H          4.59920        7.53850       -3.83830
H          4.82260        9.05370       -4.72220
H          6.87040        5.80400       -3.18210
H         -0.24110       -8.28470        0.41690
H         -1.33170      -10.13850       -0.79000
H         -0.96980      -10.41750       -3.20860
H          1.49530       -8.48210       -5.14210
H          0.44860       -9.90920       -5.14440
H         -0.51040       -7.01490       -5.37210
H         -0.41720       -8.17560       -6.70110
H         -1.55390       -8.43610       -5.37350
H          1.52130       -6.95850       -3.23640
H          6.88430       -0.06060        1.28320
H          7.18150       -1.82150        1.34790
H          9.17460       -0.59410        2.11180
H          9.23790        0.30700        0.59530
H          9.53140       -1.43600        0.59840
H          3.52160       -2.25350        0.65150
H          5.06510       -1.40340        0.65230
H          4.20540       -3.67710        2.52430
H          5.80390       -2.93770        2.57430
H          4.37220       -1.97850        2.96730
H         -1.74730       -6.97900        1.42690
H         -2.76780       -6.81410        3.55300
H         -3.70120       -8.84590        4.56060
H         -7.02300      -10.21650        3.76270
H         -5.46550      -10.54670        4.53590
H         -7.26410      -10.27670        6.23440
H         -7.60900       -8.65510        5.62180
H         -6.06100       -8.99200        6.39410
H         -7.47130       -8.01830        2.74880
H         -6.53610       -5.99910        1.71710
H         -4.38510       -0.90690       -0.76200
H         -3.61530        1.09190       -1.93460
H         -1.88890        2.84050       -2.12800
H         -0.22920        2.52140       -1.60080
H         -1.57800        1.27590       -4.04540
H          0.06600        0.93480       -3.50500
H         -0.35460        2.55400       -4.07080
H          0.34670        0.41550       -0.51660
H         -0.42240       -1.57480        0.69770
H         -5.13850       -0.62930        1.38350
H         -7.86390       -2.55280        3.56300
H        -11.20010        5.17920        2.84820
H        -10.10010        6.49660        1.07190
H         -8.23810        5.54390       -0.22830
H         -7.44970        3.24630        0.21060
