174

C         -6.10990       -7.39000        1.05010
C         -6.76730       -8.33430        0.33290
C         -7.60430       -9.36150        1.00920
O         -7.61900       -9.62310        2.19070
C         -8.44350       -9.94420       -0.05670
C         -9.47000      -10.87420        0.09290
C        -10.08480      -11.22560       -1.08470
C         -9.72110      -10.67940       -2.32360
C         -8.71110       -9.76240       -2.48790
C         -8.05940       -9.40690       -1.30390
C         -6.91480       -8.52410       -1.09790
C         -6.00860       -8.16900       -2.06250
C         -4.75940       -7.56600       -1.80600
N         -3.69710       -7.14540       -1.68930
C         -6.16240       -8.44060       -3.43670
N         -6.23660       -8.60620       -4.57080
C        -10.75290      -11.48530       -3.07190
C        -10.25760      -12.71770       -3.86870
C         -8.99240      -13.18450       -3.19160
C         -9.32970      -13.70740       -2.02030
C        -10.82890      -13.60340       -1.88400
C        -11.24660      -13.77530       -3.35330
C        -11.15220      -12.10010       -1.69340
C         -5.55900       -6.16790        0.54970
C         -4.39380       -5.61140        1.11880
N         -3.64440       -5.99530        2.16070
N         -2.66130       -5.13880        2.18160
C         -1.60580       -5.23120        3.14850
C         -0.42740       -6.00890        2.56990
N         -2.65900       -4.22130        1.25660
C         -3.76060       -4.47580        0.53730
C         -4.28180       -3.83800       -0.60880
C         -5.51240       -4.31740       -1.04990
C         -6.11110       -5.44550       -0.50520
C         -3.56430       -2.77350       -1.24120
C         -3.65620       -2.31310       -2.54520
C         -4.39440       -2.95320       -3.63660
C         -4.31330       -4.33130       -3.83470
C         -4.98200       -4.91340       -4.89360
C         -5.72050       -4.13340       -5.76830
C         -5.79180       -2.75680       -5.59980
C         -6.60760       -1.90590       -6.53060
C         -8.03060       -1.73540       -5.99520
C         -5.12660       -2.17780       -4.52870
C         -2.82810       -1.19220       -2.74490
S         -2.51040       -0.19770       -4.14740
C         -1.36120        0.70140       -3.21710
C         -0.41970        1.72630       -3.39790
C          0.00030        2.41120       -4.55930
C          1.15370        3.26330       -4.48370
N          1.47980        3.77920       -5.65850
S          0.42230        3.24610       -6.76340
N         -0.48990        2.33290       -5.78630
C          1.75570        3.48780       -3.22660
C          2.83170        4.30490       -2.84140
S          4.01790        5.34090       -3.55860
C          4.64360        5.69190       -1.96400
C          5.73050        6.46920       -1.51860
C          6.64850        7.13500       -2.44400
C          8.02790        6.99000       -2.31070
C          8.87270        7.57530       -3.23320
C          8.35630        8.29890       -4.29550
C          6.98400        8.44680       -4.44780
C          6.40670        9.17090       -5.62910
C          6.00550        8.17010       -6.71470
C          6.14030        7.85940       -3.51620
C          5.84360        6.42170       -0.13810
S          4.62630        5.39050        0.60320
C          3.95170        5.03140       -0.94510
C          2.91910        4.23440       -1.44960
N          1.95590        3.39130       -0.95410
C          1.24200        2.90000       -2.03710
C          0.23090        1.91160       -2.14530
N         -0.28080        0.99330       -1.24780
C         -1.24240        0.26380       -1.89500
C         -2.08180       -0.82480       -1.62190
S         -2.40630       -1.87050       -0.28490
C          0.24810        0.52760        0.01380
C         -0.67800        0.86500        1.18300
C          1.51250        3.60120        0.40800
C          0.78060        4.93600        0.54800
C          6.73960        7.10000        0.73130
C          7.45930        8.25420        0.49620
C          8.26910        8.69770        1.54610
C          9.05690        9.96500        1.46080
C          8.35340       11.08940        2.22460
C          8.20440        7.92770        2.70690
Se         7.02780        6.46770        2.47160
C          9.00010        8.10130        3.85810
C          8.85220        7.54470        5.09520
C         10.02120        7.40610        5.99760
O         11.08900        7.97030        5.89730
C          9.62260        6.39010        6.99480
C         10.42070        5.81060        7.97790
C          9.77600        4.86310        8.73700
C          8.43730        4.50450        8.53000
C          7.63430        5.07220        7.56940
C          8.26880        6.04590        6.79590
C          7.73470        6.88050        5.72310
C          6.40990        7.20020        5.54470
C          5.34770        6.59940        6.24520
N          4.44400        6.12670        6.77400
C          5.99720        8.26140        4.71240
N          5.63840        9.15260        4.08240
C          8.45310        3.48960        9.64550
C          7.77200        3.87890       10.98040
C          7.82590        5.38430       11.06430
C          9.08970        5.73290       11.26560
C          9.91290        4.46970       11.32160
C          8.89590        3.51200       11.96260
C          9.94170        3.89640        9.88290
H         -6.01180       -7.56830        2.11500
H         -9.72530      -11.26580        1.06520
H         -8.44360       -9.34240       -3.44370
H        -11.50550      -10.91500       -3.61310
H        -10.19890      -12.56680       -4.94330
H         -8.00810      -13.03790       -3.59640
H         -8.68310      -14.08600       -1.25030
H        -11.29110      -14.26040       -1.15190
H        -11.03500      -14.77220       -3.73730
H        -12.28940      -13.52230       -3.54070
H        -12.16710      -11.93670       -1.33560
H         -2.01120       -5.74030        4.02460
H         -1.30170       -4.21460        3.40740
H         -0.05070       -5.50780        1.68170
H          0.37040       -6.07300        3.30440
H         -0.73860       -7.01490        2.29940
H         -6.00930       -3.81240       -1.86310
H         -7.05870       -5.76870       -0.91310
H         -3.72490       -4.93950       -3.16360
H         -4.92320       -5.98170       -5.04190
H         -6.23720       -4.59840       -6.59540
H         -6.64740       -2.37220       -7.51680
H         -6.14150       -0.92420       -6.63430
H         -8.62050       -1.12000       -6.67060
H         -8.01310       -1.25870       -5.01740
H         -8.51540       -2.70410       -5.89500
H         -5.18500       -1.10890       -4.38010
H          8.42910        6.40870       -1.49370
H          9.94160        7.46000       -3.12860
H          9.02530        8.74830       -5.01520
H          7.14100        9.87030       -6.03300
H          5.52580        9.73810       -5.32110
H          5.26800        7.46930       -6.33040
H          6.87360        7.60440       -7.04600
H          5.58100        8.68850       -7.57100
H          5.07120        7.97560       -3.61920
H          1.25050        0.93520        0.15080
H          0.34090       -0.56260       -0.04870
H         -0.18870        0.62470        2.12280
H         -1.59130        0.28090        1.11130
H         -0.95310        1.91750        1.18650
H          0.84840        2.80310        0.71560
H          2.39970        3.59600        1.04890
H         -0.09020        4.95860       -0.10400
H          0.45440        5.06850        1.57560
H          1.43310        5.76420        0.28450
H          7.38800        8.78550       -0.43770
H         10.05590        9.81640        1.87750
H          9.16400       10.24760        0.41180
H          8.24800       10.82830        3.27480
H          8.92450       12.01130        2.14650
H          7.35950       11.25680        1.81720
H          9.91590        8.67060        3.72440
H         11.45050        6.10690        8.10310
H          6.60690        4.78770        7.40910
H          8.24660        2.46060        9.35730
H          6.79800        3.42400       11.14000
H          6.97520        6.02270       10.91390
H          9.50610        6.72180       11.31780
H         10.88860        4.55300       11.79350
H          9.19310        2.46530       11.91090
H          8.65880        3.77670       12.99190
H         10.70620        3.13180        9.75710
