
  xtb     02132208163D
 energy: -252.151754946953 gnorm: 0.000403902993 xtb: 6.4.1 (unknown)
146165  0     0  0            999 V2000
   -9.3905    1.2646    2.2918 C   0  0  0  0  0  0  0  0  0  0  0  0
   -9.2472    0.9878    3.6211 C   0  0  0  0  0  0  0  0  0  0  0  0
   -8.0653    1.2624    4.4521 C   0  0  0  0  0  0  0  0  0  0  0  0
   -6.9696    1.6397    4.0772 O   0  0  0  0  0  0  0  0  0  0  0  0
   -8.4760    1.0088    5.8424 C   0  0  0  0  0  0  0  0  0  0  0  0
   -7.7004    1.1764    6.9881 C   0  0  0  0  0  0  0  0  0  0  0  0
   -8.3511    0.8557    8.1547 C   0  0  0  0  0  0  0  0  0  0  0  0
   -9.6799    0.4101    8.1834 C   0  0  0  0  0  0  0  0  0  0  0  0
  -10.4572    0.2428    7.0618 C   0  0  0  0  0  0  0  0  0  0  0  0
   -9.8112    0.5532    5.8610 C   0  0  0  0  0  0  0  0  0  0  0  0
  -10.2912    0.4655    4.4842 C   0  0  0  0  0  0  0  0  0  0  0  0
  -11.4634   -0.1124    4.0746 C   0  0  0  0  0  0  0  0  0  0  0  0
  -12.4451   -0.6204    4.9511 C   0  0  0  0  0  0  0  0  0  0  0  0
  -13.2822   -1.0486    5.6100 N   0  0  0  0  0  0  0  0  0  0  0  0
  -11.8270   -0.3602    2.7317 C   0  0  0  0  0  0  0  0  0  0  0  0
  -12.1806   -0.6600    1.6811 N   0  0  0  0  0  0  0  0  0  0  0  0
   -9.6850    0.2730    9.6857 C   0  0  0  0  0  0  0  0  0  0  0  0
   -9.5569   -1.1590   10.2471 C   0  0  0  0  0  0  0  0  0  0  0  0
   -9.1087   -0.9491   11.6756 C   0  0  0  0  0  0  0  0  0  0  0  0
   -7.8496   -0.5315   11.6464 C   0  0  0  0  0  0  0  0  0  0  0  0
   -7.4256   -0.4513   10.1976 C   0  0  0  0  0  0  0  0  0  0  0  0
   -8.2343   -1.6208    9.6215 C   0  0  0  0  0  0  0  0  0  0  0  0
   -8.2028    0.7663    9.6528 C   0  0  0  0  0  0  0  0  0  0  0  0
   -8.4251    1.6545    1.3443 C   0  0  0  0  0  0  0  0  0  0  0  0
   -6.7078    1.7132    1.6272 S   0  0  0  0  0  0  0  0  0  0  0  0
   -6.3862    1.9358   -0.0611 C   0  0  0  0  0  0  0  0  0  0  0  0
   -7.5605    2.0137   -0.8154 C   0  0  0  0  0  0  0  0  0  0  0  0
   -7.6315    2.2549   -2.2642 C   0  0  0  0  0  0  0  0  0  0  0  0
   -6.6544    2.4556   -2.9716 O   0  0  0  0  0  0  0  0  0  0  0  0
   -8.9889    2.2164   -2.8020 C   0  0  0  0  0  0  0  0  0  0  0  0
   -9.2835    2.3174   -4.1407 C   0  0  0  0  0  0  0  0  0  0  0  0
   -8.3315    2.4924   -5.2675 C   0  0  0  0  0  0  0  0  0  0  0  0
   -9.0028    2.4948   -6.6329 C   0  0  0  0  0  0  0  0  0  0  0  0
  -10.9908    2.2175   -4.4030 S   0  0  0  0  0  0  0  0  0  0  0  0
  -11.3195    2.0694   -2.7108 C   0  0  0  0  0  0  0  0  0  0  0  0
  -12.7160    1.9069   -2.2320 C   0  0  0  0  0  0  0  0  0  0  0  0
  -13.0024    0.4537   -1.8393 C   0  0  0  0  0  0  0  0  0  0  0  0
  -10.1541    2.0748   -1.9850 C   0  0  0  0  0  0  0  0  0  0  0  0
  -10.0846    2.0179   -0.5290 C   0  0  0  0  0  0  0  0  0  0  0  0
  -11.0680    2.1115    0.1885 O   0  0  0  0  0  0  0  0  0  0  0  0
   -8.7122    1.8844   -0.0078 C   0  0  0  0  0  0  0  0  0  0  0  0
   -5.0198    1.9936   -0.4537 C   0  0  0  0  0  0  0  0  0  0  0  0
   -3.8659    2.6401    0.7188 S   0  0  0  0  0  0  0  0  0  0  0  0
   -2.5665    2.2852   -0.3507 C   0  0  0  0  0  0  0  0  0  0  0  0
   -1.1791    2.3685   -0.4576 C   0  0  0  0  0  0  0  0  0  0  0  0
    0.1999    2.9315    0.4365 S   0  0  0  0  0  0  0  0  0  0  0  0
    1.2410    2.3523   -0.8392 C   0  0  0  0  0  0  0  0  0  0  0  0
    0.5494    1.7608   -1.9020 C   0  0  0  0  0  0  0  0  0  0  0  0
   -0.8353    1.7831   -1.6966 C   0  0  0  0  0  0  0  0  0  0  0  0
   -1.9598    1.3550   -2.3399 N   0  0  0  0  0  0  0  0  0  0  0  0
   -3.0257    1.6705   -1.5384 C   0  0  0  0  0  0  0  0  0  0  0  0
   -4.4112    1.5167   -1.5933 C   0  0  0  0  0  0  0  0  0  0  0  0
   -2.0365    0.8185   -3.6750 C   0  0  0  0  0  0  0  0  0  0  0  0
   -2.4760    1.8847   -4.6755 C   0  0  0  0  0  0  0  0  0  0  0  0
    1.5966    1.1109   -3.1392 S   0  0  0  0  0  0  0  0  0  0  0  0
    2.9771    1.6223   -2.2164 C   0  0  0  0  0  0  0  0  0  0  0  0
    4.3699    1.5751   -2.2474 C   0  0  0  0  0  0  0  0  0  0  0  0
    4.8251    2.2378   -1.0842 C   0  0  0  0  0  0  0  0  0  0  0  0
    3.7522    2.6845   -0.3580 N   0  0  0  0  0  0  0  0  0  0  0  0
    3.7885    3.3123    0.9384 C   0  0  0  0  0  0  0  0  0  0  0  0
    3.7803    2.2782    2.0615 C   0  0  0  0  0  0  0  0  0  0  0  0
    2.6270    2.2913   -1.0238 C   0  0  0  0  0  0  0  0  0  0  0  0
    6.2157    2.2549   -0.9604 C   0  0  0  0  0  0  0  0  0  0  0  0
    6.8248    1.5866   -2.0028 C   0  0  0  0  0  0  0  0  0  0  0  0
    5.6779    0.9487   -3.1754 S   0  0  0  0  0  0  0  0  0  0  0  0
    8.2139    1.3427   -2.1680 C   0  0  0  0  0  0  0  0  0  0  0  0
    9.2698    1.9505   -1.5228 C   0  0  0  0  0  0  0  0  0  0  0  0
   10.5130    1.4269   -1.8863 C   0  0  0  0  0  0  0  0  0  0  0  0
   12.0250    2.0480   -1.2317 S   0  0  0  0  0  0  0  0  0  0  0  0
   12.7423    0.5570   -0.4381 C   0  0  0  0  0  0  0  0  0  0  0  0
   11.9634    0.1623    0.7987 C   0  0  0  0  0  0  0  0  0  0  0  0
   10.4370    0.3900   -2.8079 C   0  0  0  0  0  0  0  0  0  0  0  0
    8.7696    0.0916   -3.2367 S   0  0  0  0  0  0  0  0  0  0  0  0
   11.5176   -0.2790   -3.4236 C   0  0  0  0  0  0  0  0  0  0  0  0
   11.5178   -1.4905   -4.0433 C   0  0  0  0  0  0  0  0  0  0  0  0
   12.5950   -1.8481   -5.0036 C   0  0  0  0  0  0  0  0  0  0  0  0
   13.6525   -1.2772   -5.1503 O   0  0  0  0  0  0  0  0  0  0  0  0
   12.0761   -3.0085   -5.7552 C   0  0  0  0  0  0  0  0  0  0  0  0
   12.6693   -3.6469   -6.8420 C   0  0  0  0  0  0  0  0  0  0  0  0
   11.9372   -4.6962   -7.3441 C   0  0  0  0  0  0  0  0  0  0  0  0
   10.6928   -5.0739   -6.8211 C   0  0  0  0  0  0  0  0  0  0  0  0
   10.0965   -4.4582   -5.7469 C   0  0  0  0  0  0  0  0  0  0  0  0
   10.8372   -3.4045   -5.2075 C   0  0  0  0  0  0  0  0  0  0  0  0
   10.5630   -2.5769   -4.0366 C   0  0  0  0  0  0  0  0  0  0  0  0
    9.7556   -2.9376   -2.9883 C   0  0  0  0  0  0  0  0  0  0  0  0
    9.7592   -2.2772   -1.7441 C   0  0  0  0  0  0  0  0  0  0  0  0
    9.7774   -1.8099   -0.6949 N   0  0  0  0  0  0  0  0  0  0  0  0
    8.9196   -4.0714   -2.9856 C   0  0  0  0  0  0  0  0  0  0  0  0
    8.2135   -4.9750   -2.9257 N   0  0  0  0  0  0  0  0  0  0  0  0
   10.5274   -6.1983   -7.8120 C   0  0  0  0  0  0  0  0  0  0  0  0
   10.7752   -7.6403   -7.3045 C   0  0  0  0  0  0  0  0  0  0  0  0
   11.7307   -7.5254   -6.1426 C   0  0  0  0  0  0  0  0  0  0  0  0
   12.9149   -7.1752   -6.6265 C   0  0  0  0  0  0  0  0  0  0  0  0
   12.7816   -7.0470   -8.1239 C   0  0  0  0  0  0  0  0  0  0  0  0
   11.7348   -8.1391   -8.3964 C   0  0  0  0  0  0  0  0  0  0  0  0
   11.9196   -5.7865   -8.3862 C   0  0  0  0  0  0  0  0  0  0  0  0
  -10.3849    1.1661    1.8720 H   0  0  0  0  0  0  0  0  0  0  0  0
   -6.6827    1.5280    6.9212 H   0  0  0  0  0  0  0  0  0  0  0  0
  -11.4800   -0.0930    7.1000 H   0  0  0  0  0  0  0  0  0  0  0  0
  -10.4227    0.8734   10.2144 H   0  0  0  0  0  0  0  0  0  0  0  0
  -10.4302   -1.7872   10.0950 H   0  0  0  0  0  0  0  0  0  0  0  0
   -9.7496   -1.0689   12.5292 H   0  0  0  0  0  0  0  0  0  0  0  0
   -7.2286   -0.2326   12.4705 H   0  0  0  0  0  0  0  0  0  0  0  0
   -6.3571   -0.4351   10.0003 H   0  0  0  0  0  0  0  0  0  0  0  0
   -8.2472   -1.6592    8.5338 H   0  0  0  0  0  0  0  0  0  0  0  0
   -7.9061   -2.5811   10.0155 H   0  0  0  0  0  0  0  0  0  0  0  0
   -7.9503    1.6945   10.1622 H   0  0  0  0  0  0  0  0  0  0  0  0
   -7.7849    3.4281   -5.1108 H   0  0  0  0  0  0  0  0  0  0  0  0
   -7.5814    1.6971   -5.2110 H   0  0  0  0  0  0  0  0  0  0  0  0
   -9.7218    3.3083   -6.7044 H   0  0  0  0  0  0  0  0  0  0  0  0
   -9.5278    1.5573   -6.8036 H   0  0  0  0  0  0  0  0  0  0  0  0
   -8.2597    2.6221   -7.4158 H   0  0  0  0  0  0  0  0  0  0  0  0
  -12.8616    2.5380   -1.3528 H   0  0  0  0  0  0  0  0  0  0  0  0
  -13.4060    2.2205   -3.0180 H   0  0  0  0  0  0  0  0  0  0  0  0
  -14.0494    0.3483   -1.5698 H   0  0  0  0  0  0  0  0  0  0  0  0
  -12.4008    0.1688   -0.9811 H   0  0  0  0  0  0  0  0  0  0  0  0
  -12.7849   -0.2180   -2.6672 H   0  0  0  0  0  0  0  0  0  0  0  0
   -4.9537    1.0739   -2.4055 H   0  0  0  0  0  0  0  0  0  0  0  0
   -1.0489    0.4325   -3.9390 H   0  0  0  0  0  0  0  0  0  0  0  0
   -2.7505   -0.0106   -3.6735 H   0  0  0  0  0  0  0  0  0  0  0  0
   -2.5340    1.4559   -5.6718 H   0  0  0  0  0  0  0  0  0  0  0  0
   -1.7621    2.7049   -4.6896 H   0  0  0  0  0  0  0  0  0  0  0  0
   -3.4530    2.2768   -4.4029 H   0  0  0  0  0  0  0  0  0  0  0  0
    2.9135    3.9623    1.0248 H   0  0  0  0  0  0  0  0  0  0  0  0
    4.6910    3.9263    0.9934 H   0  0  0  0  0  0  0  0  0  0  0  0
    3.8221    2.7777    3.0250 H   0  0  0  0  0  0  0  0  0  0  0  0
    4.6366    1.6139    1.9716 H   0  0  0  0  0  0  0  0  0  0  0  0
    2.8710    1.6839    2.0171 H   0  0  0  0  0  0  0  0  0  0  0  0
    6.7622    2.6916   -0.1456 H   0  0  0  0  0  0  0  0  0  0  0  0
    9.1587    2.7525   -0.8173 H   0  0  0  0  0  0  0  0  0  0  0  0
   13.7605    0.8586   -0.1929 H   0  0  0  0  0  0  0  0  0  0  0  0
   12.7685   -0.2469   -1.1709 H   0  0  0  0  0  0  0  0  0  0  0  0
   11.8845    1.0029    1.4847 H   0  0  0  0  0  0  0  0  0  0  0  0
   12.4731   -0.6551    1.3046 H   0  0  0  0  0  0  0  0  0  0  0  0
   10.9646   -0.1731    0.5293 H   0  0  0  0  0  0  0  0  0  0  0  0
   12.4460    0.2842   -3.4810 H   0  0  0  0  0  0  0  0  0  0  0  0
   13.6243   -3.3207   -7.2233 H   0  0  0  0  0  0  0  0  0  0  0  0
    9.1366   -4.7505   -5.3535 H   0  0  0  0  0  0  0  0  0  0  0  0
    9.6644   -6.1313   -8.4714 H   0  0  0  0  0  0  0  0  0  0  0  0
    9.8721   -8.2182   -7.1276 H   0  0  0  0  0  0  0  0  0  0  0  0
   11.4412   -7.6495   -5.1156 H   0  0  0  0  0  0  0  0  0  0  0  0
   13.8140   -6.9486   -6.0838 H   0  0  0  0  0  0  0  0  0  0  0  0
   13.7066   -7.0871   -8.6932 H   0  0  0  0  0  0  0  0  0  0  0  0
   12.1115   -9.1417   -8.1997 H   0  0  0  0  0  0  0  0  0  0  0  0
   11.3122   -8.0950   -9.3993 H   0  0  0  0  0  0  0  0  0  0  0  0
   11.9689   -5.4597   -9.4232 H   0  0  0  0  0  0  0  0  0  0  0  0
  1  2  2  0  0  0  0
  2  3  1  0  0  0  0
  3  4  2  0  0  0  0
  3  5  1  0  0  0  0
  5  6  2  0  0  0  0
  6  7  1  0  0  0  0
  7  8  2  0  0  0  0
  8  9  1  0  0  0  0
  9 10  2  0  0  0  0
 10 11  1  0  0  0  0
 11 12  2  0  0  0  0
 12 13  1  0  0  0  0
 13 14  3  0  0  0  0
 12 15  1  0  0  0  0
 15 16  3  0  0  0  0
  8 17  1  0  0  0  0
 17 18  1  0  0  0  0
 18 19  1  0  0  0  0
 19 20  2  0  0  0  0
 20 21  1  0  0  0  0
 21 22  1  0  0  0  0
 21 23  1  0  0  0  0
  1 24  1  0  0  0  0
 24 25  1  0  0  0  0
 25 26  1  0  0  0  0
 26 27  2  0  0  0  0
 27 28  1  0  0  0  0
 28 29  2  0  0  0  0
 28 30  1  0  0  0  0
 30 31  2  0  0  0  0
 31 32  1  0  0  0  0
 32 33  1  0  0  0  0
 31 34  1  0  0  0  0
 34 35  1  0  0  0  0
 35 36  1  0  0  0  0
 36 37  1  0  0  0  0
 35 38  2  0  0  0  0
 38 39  1  0  0  0  0
 39 40  2  0  0  0  0
 39 41  1  0  0  0  0
 26 42  1  0  0  0  0
 42 43  1  0  0  0  0
 43 44  1  0  0  0  0
 44 45  1  0  0  0  0
 45 46  1  0  0  0  0
 46 47  1  0  0  0  0
 47 48  2  0  0  0  0
 48 49  1  0  0  0  0
 49 50  1  0  0  0  0
 50 51  1  0  0  0  0
 51 52  1  0  0  0  0
 50 53  1  0  0  0  0
 53 54  1  0  0  0  0
 48 55  1  0  0  0  0
 55 56  1  0  0  0  0
 56 57  1  0  0  0  0
 57 58  2  0  0  0  0
 58 59  1  0  0  0  0
 59 60  1  0  0  0  0
 60 61  1  0  0  0  0
 59 62  1  0  0  0  0
 58 63  1  0  0  0  0
 63 64  2  0  0  0  0
 64 65  1  0  0  0  0
 64 66  1  0  0  0  0
 66 67  2  0  0  0  0
 67 68  1  0  0  0  0
 68 69  1  0  0  0  0
 69 70  1  0  0  0  0
 70 71  1  0  0  0  0
 68 72  2  0  0  0  0
 72 73  1  0  0  0  0
 72 74  1  0  0  0  0
 74 75  2  0  0  0  0
 75 76  1  0  0  0  0
 76 77  2  0  0  0  0
 76 78  1  0  0  0  0
 78 79  2  0  0  0  0
 79 80  1  0  0  0  0
 80 81  2  0  0  0  0
 81 82  1  0  0  0  0
 82 83  2  0  0  0  0
 83 84  1  0  0  0  0
 84 85  2  0  0  0  0
 85 86  1  0  0  0  0
 86 87  3  0  0  0  0
 85 88  1  0  0  0  0
 88 89  3  0  0  0  0
 81 90  1  0  0  0  0
 90 91  1  0  0  0  0
 91 92  1  0  0  0  0
 92 93  2  0  0  0  0
 93 94  1  0  0  0  0
 94 95  1  0  0  0  0
 94 96  1  0  0  0  0
 11  2  1  0  0  0  0
 23 17  1  0  0  0  0
 41 24  2  0  0  0  0
 52 42  2  0  0  0  0
 62 56  2  0  0  0  0
 73 66  1  0  0  0  0
 84 75  1  0  0  0  0
 96 90  1  0  0  0  0
 10  5  1  0  0  0  0
 22 18  1  0  0  0  0
 41 27  1  0  0  0  0
 51 44  2  0  0  0  0
 65 57  1  0  0  0  0
 83 78  1  0  0  0  0
 95 91  1  0  0  0  0
 23  7  1  0  0  0  0
 38 30  1  0  0  0  0
 49 45  2  0  0  0  0
 96 80  1  0  0  0  0
 62 47  1  0  0  0  0
  1 97  1  0  0  0  0
  6 98  1  0  0  0  0
  9 99  1  0  0  0  0
 17100  1  0  0  0  0
 18101  1  0  0  0  0
 19102  1  0  0  0  0
 20103  1  0  0  0  0
 21104  1  0  0  0  0
 22105  1  0  0  0  0
 22106  1  0  0  0  0
 23107  1  0  0  0  0
 32108  1  0  0  0  0
 32109  1  0  0  0  0
 33110  1  0  0  0  0
 33111  1  0  0  0  0
 33112  1  0  0  0  0
 36113  1  0  0  0  0
 36114  1  0  0  0  0
 37115  1  0  0  0  0
 37116  1  0  0  0  0
 37117  1  0  0  0  0
 52118  1  0  0  0  0
 53119  1  0  0  0  0
 53120  1  0  0  0  0
 54121  1  0  0  0  0
 54122  1  0  0  0  0
 54123  1  0  0  0  0
 60124  1  0  0  0  0
 60125  1  0  0  0  0
 61126  1  0  0  0  0
 61127  1  0  0  0  0
 61128  1  0  0  0  0
 63129  1  0  0  0  0
 67130  1  0  0  0  0
 70131  1  0  0  0  0
 70132  1  0  0  0  0
 71133  1  0  0  0  0
 71134  1  0  0  0  0
 71135  1  0  0  0  0
 74136  1  0  0  0  0
 79137  1  0  0  0  0
 82138  1  0  0  0  0
 90139  1  0  0  0  0
 91140  1  0  0  0  0
 92141  1  0  0  0  0
 93142  1  0  0  0  0
 94143  1  0  0  0  0
 95144  1  0  0  0  0
 95145  1  0  0  0  0
 96146  1  0  0  0  0
M  END
