
  xtb     02192209223D
 energy: -389.386647217484 gnorm: 0.000540589291 xtb: 6.4.1 (unknown)
231260  0     0  0            999 V2000
    8.7411  -11.9863   -0.7605 C   0  0  0  0  0  0  0  0  0  0  0  0
    7.9877  -13.1233   -0.6647 C   0  0  0  0  0  0  0  0  0  0  0  0
    6.6252  -13.2288   -0.1144 C   0  0  0  0  0  0  0  0  0  0  0  0
    5.9288  -12.3378    0.3355 O   0  0  0  0  0  0  0  0  0  0  0  0
    6.2568  -14.6517   -0.2021 C   0  0  0  0  0  0  0  0  0  0  0  0
    5.0520  -15.2270    0.1946 C   0  0  0  0  0  0  0  0  0  0  0  0
    4.9823  -16.5823   -0.0191 C   0  0  0  0  0  0  0  0  0  0  0  0
    6.0388  -17.3137   -0.5786 C   0  0  0  0  0  0  0  0  0  0  0  0
    7.2341  -16.7588   -0.9695 C   0  0  0  0  0  0  0  0  0  0  0  0
    7.3230  -15.3777   -0.7703 C   0  0  0  0  0  0  0  0  0  0  0  0
    8.4075  -14.4487   -1.0818 C   0  0  0  0  0  0  0  0  0  0  0  0
    9.5876  -14.7867   -1.6949 C   0  0  0  0  0  0  0  0  0  0  0  0
   10.6235  -13.8997   -2.0560 C   0  0  0  0  0  0  0  0  0  0  0  0
   11.5136  -13.2577   -2.3982 N   0  0  0  0  0  0  0  0  0  0  0  0
    9.9399  -16.0969   -2.0819 C   0  0  0  0  0  0  0  0  0  0  0  0
   10.3018  -17.1314   -2.4250 N   0  0  0  0  0  0  0  0  0  0  0  0
    5.2761  -18.6133   -0.5182 C   0  0  0  0  0  0  0  0  0  0  0  0
    4.6654  -19.1498   -1.8366 C   0  0  0  0  0  0  0  0  0  0  0  0
    4.4241  -17.9489   -2.7173 C   0  0  0  0  0  0  0  0  0  0  0  0
    3.4238  -17.2551   -2.1907 C   0  0  0  0  0  0  0  0  0  0  0  0
    2.9703  -17.9747   -0.9445 C   0  0  0  0  0  0  0  0  0  0  0  0
    3.2302  -19.4306   -1.3631 C   0  0  0  0  0  0  0  0  0  0  0  0
    4.0983  -17.7979    0.1025 C   0  0  0  0  0  0  0  0  0  0  0  0
    8.4237  -10.6505   -0.4510 C   0  0  0  0  0  0  0  0  0  0  0  0
    9.3142   -9.6162   -0.6790 C   0  0  0  0  0  0  0  0  0  0  0  0
    8.8142   -8.3419   -0.3786 C   0  0  0  0  0  0  0  0  0  0  0  0
    9.4492   -7.0817   -0.5424 C   0  0  0  0  0  0  0  0  0  0  0  0
   10.7391   -6.9370   -1.1726 C   0  0  0  0  0  0  0  0  0  0  0  0
   11.7097   -6.0100   -0.8940 C   0  0  0  0  0  0  0  0  0  0  0  0
   12.8553   -6.0463   -1.7074 C   0  0  0  0  0  0  0  0  0  0  0  0
   12.8383   -6.9908   -2.6968 C   0  0  0  0  0  0  0  0  0  0  0  0
   14.1127   -7.1929   -3.8732 S   0  0  0  0  0  0  0  0  0  0  0  0
   13.7241   -8.8422   -4.5622 C   0  0  0  0  0  0  0  0  0  0  0  0
   14.0541   -9.9635   -3.5989 C   0  0  0  0  0  0  0  0  0  0  0  0
   11.2402   -7.9777   -2.6673 Se  0  0  0  0  0  2  0  0  0  0  0  0
    8.7289   -5.9818   -0.0911 C   0  0  0  0  0  0  0  0  0  0  0  0
    7.4287   -6.0673    0.4713 C   0  0  0  0  0  0  0  0  0  0  0  0
    6.7712   -7.3121    0.5628 C   0  0  0  0  0  0  0  0  0  0  0  0
    5.4051   -7.4289    1.0199 C   0  0  0  0  0  0  0  0  0  0  0  0
    4.3623   -6.5762    0.7734 C   0  0  0  0  0  0  0  0  0  0  0  0
    3.1214   -6.9393    1.3284 C   0  0  0  0  0  0  0  0  0  0  0  0
    3.1319   -8.0967    2.0561 C   0  0  0  0  0  0  0  0  0  0  0  0
    1.7302   -8.7263    2.8915 S   0  0  0  0  0  0  0  0  0  0  0  0
    2.2879  -10.4049    3.3497 C   0  0  0  0  0  0  0  0  0  0  0  0
    2.3237  -11.3546    2.1695 C   0  0  0  0  0  0  0  0  0  0  0  0
    4.8448   -8.8789    2.0828 Se  0  0  0  0  0  2  0  0  0  0  0  0
    7.5011   -8.4242    0.1536 C   0  0  0  0  0  0  0  0  0  0  0  0
    6.9095  -10.0581    0.1940 S   0  0  0  0  0  0  0  0  0  0  0  0
    6.9437   -4.8007    0.8633 C   0  0  0  0  0  0  0  0  0  0  0  0
    7.7905   -3.7650    0.5783 C   0  0  0  0  0  0  0  0  0  0  0  0
    9.2672   -4.3217   -0.1789 S   0  0  0  0  0  0  0  0  0  0  0  0
    7.5073   -2.3825    0.7598 C   0  0  0  0  0  0  0  0  0  0  0  0
    8.3116   -1.2755    0.5616 C   0  0  0  0  0  0  0  0  0  0  0  0
    9.7542   -1.3112    0.3071 C   0  0  0  0  0  0  0  0  0  0  0  0
   10.6075   -1.9921    1.1716 C   0  0  0  0  0  0  0  0  0  0  0  0
   11.9672   -2.0009    0.9276 C   0  0  0  0  0  0  0  0  0  0  0  0
   12.4839   -1.3308   -0.1678 C   0  0  0  0  0  0  0  0  0  0  0  0
   11.6478   -0.6329   -1.0296 C   0  0  0  0  0  0  0  0  0  0  0  0
   12.2058    0.1520   -2.1810 C   0  0  0  0  0  0  0  0  0  0  0  0
   12.4190    1.6107   -1.7713 C   0  0  0  0  0  0  0  0  0  0  0  0
   10.2837   -0.6257   -0.7788 C   0  0  0  0  0  0  0  0  0  0  0  0
    7.5724   -0.0803    0.6649 C   0  0  0  0  0  0  0  0  0  0  0  0
    8.0002    1.6041    0.4715 S   0  0  0  0  0  0  0  0  0  0  0  0
    6.3516    2.0391    0.7832 C   0  0  0  0  0  0  0  0  0  0  0  0
    5.5366    3.1853    0.8463 C   0  0  0  0  0  0  0  0  0  0  0  0
    5.8210    4.5663    0.7611 C   0  0  0  0  0  0  0  0  0  0  0  0
    4.7483    5.5128    0.9142 C   0  0  0  0  0  0  0  0  0  0  0  0
    5.1705    6.7659    0.8584 N   0  0  0  0  0  0  0  0  0  0  0  0
    6.7731    6.7601    0.6294 S   0  0  0  0  0  0  0  0  0  0  0  0
    6.9932    5.1568    0.5905 N   0  0  0  0  0  0  0  0  0  0  0  0
    3.4208    5.0382    1.0121 C   0  0  0  0  0  0  0  0  0  0  0  0
    2.1802    5.6949    0.9403 C   0  0  0  0  0  0  0  0  0  0  0  0
    1.5535    7.3049    0.8149 S   0  0  0  0  0  0  0  0  0  0  0  0
   -0.0523    6.6406    0.6320 C   0  0  0  0  0  0  0  0  0  0  0  0
   -1.3136    7.2396    0.4469 C   0  0  0  0  0  0  0  0  0  0  0  0
   -1.5193    8.6902    0.3794 C   0  0  0  0  0  0  0  0  0  0  0  0
   -0.7975    9.4497   -0.5351 C   0  0  0  0  0  0  0  0  0  0  0  0
   -1.0192   10.8112   -0.6221 C   0  0  0  0  0  0  0  0  0  0  0  0
   -1.9594   11.4193    0.1909 C   0  0  0  0  0  0  0  0  0  0  0  0
   -2.6752   10.6786    1.1229 C   0  0  0  0  0  0  0  0  0  0  0  0
   -3.6761   11.3370    2.0276 C   0  0  0  0  0  0  0  0  0  0  0  0
   -3.0182   11.7679    3.3395 C   0  0  0  0  0  0  0  0  0  0  0  0
   -2.4311    9.3172    1.2222 C   0  0  0  0  0  0  0  0  0  0  0  0
   -2.3098    6.2878    0.3267 C   0  0  0  0  0  0  0  0  0  0  0  0
   -1.6870    4.6475    0.4751 S   0  0  0  0  0  0  0  0  0  0  0  0
   -0.0806    5.2455    0.6835 C   0  0  0  0  0  0  0  0  0  0  0  0
    1.1959    4.7035    0.8728 C   0  0  0  0  0  0  0  0  0  0  0  0
    1.7741    3.4633    0.9385 N   0  0  0  0  0  0  0  0  0  0  0  0
    3.1406    3.6451    1.0373 C   0  0  0  0  0  0  0  0  0  0  0  0
    4.2158    2.7264    1.0983 C   0  0  0  0  0  0  0  0  0  0  0  0
    4.2364    1.3498    1.2510 N   0  0  0  0  0  0  0  0  0  0  0  0
    5.5282    0.9398    1.0387 C   0  0  0  0  0  0  0  0  0  0  0  0
    6.2245   -0.2706    0.9720 C   0  0  0  0  0  0  0  0  0  0  0  0
    5.8398   -1.9457    1.1258 S   0  0  0  0  0  0  0  0  0  0  0  0
    3.3675    0.5413    2.0796 C   0  0  0  0  0  0  0  0  0  0  0  0
    3.9689    0.3233    3.4681 C   0  0  0  0  0  0  0  0  0  0  0  0
    1.0306    2.2871    0.5437 C   0  0  0  0  0  0  0  0  0  0  0  0
    0.0540    1.8265    1.6259 C   0  0  0  0  0  0  0  0  0  0  0  0
   -3.6937    6.4279    0.0261 C   0  0  0  0  0  0  0  0  0  0  0  0
   -4.6116    5.4134   -0.0181 C   0  0  0  0  0  0  0  0  0  0  0  0
   -5.9098    5.8232   -0.3939 C   0  0  0  0  0  0  0  0  0  0  0  0
   -7.0764    5.0258   -0.4593 C   0  0  0  0  0  0  0  0  0  0  0  0
   -7.0241    3.5927   -0.2614 C   0  0  0  0  0  0  0  0  0  0  0  0
   -6.0622    2.7362   -0.7240 C   0  0  0  0  0  0  0  0  0  0  0  0
   -6.2031    1.3843   -0.3527 C   0  0  0  0  0  0  0  0  0  0  0  0
   -7.2920    1.1185    0.4248 C   0  0  0  0  0  0  0  0  0  0  0  0
   -7.7960   -0.4087    1.1177 S   0  0  0  0  0  0  0  0  0  0  0  0
   -7.2371   -1.6086   -0.1471 C   0  0  0  0  0  0  0  0  0  0  0  0
   -7.9460   -1.4128   -1.4717 C   0  0  0  0  0  0  0  0  0  0  0  0
   -8.3207    2.6549    0.7476 Se  0  0  0  0  0  2  0  0  0  0  0  0
   -8.2601    5.7021   -0.7198 C   0  0  0  0  0  0  0  0  0  0  0  0
   -8.3221    7.1005   -0.9546 C   0  0  0  0  0  0  0  0  0  0  0  0
   -7.1599    7.9093   -0.8650 C   0  0  0  0  0  0  0  0  0  0  0  0
   -7.2291    9.3456   -0.8832 C   0  0  0  0  0  0  0  0  0  0  0  0
   -6.2294   10.2335   -1.1967 C   0  0  0  0  0  0  0  0  0  0  0  0
   -6.5092   11.5875   -0.9698 C   0  0  0  0  0  0  0  0  0  0  0  0
   -7.7443   11.8386   -0.4354 C   0  0  0  0  0  0  0  0  0  0  0  0
   -8.2967   13.4394   -0.0064 S   0  0  0  0  0  0  0  0  0  0  0  0
  -10.0787   13.1502    0.2782 C   0  0  0  0  0  0  0  0  0  0  0  0
  -10.8442   13.0036   -1.0215 C   0  0  0  0  0  0  0  0  0  0  0  0
   -8.7360   10.2660   -0.1975 Se  0  0  0  0  0  2  0  0  0  0  0  0
   -5.9731    7.2204   -0.6199 C   0  0  0  0  0  0  0  0  0  0  0  0
   -4.4067    7.9603   -0.4177 S   0  0  0  0  0  0  0  0  0  0  0  0
   -9.6252    7.5251   -1.2508 C   0  0  0  0  0  0  0  0  0  0  0  0
  -10.5756    6.5351   -1.1592 C   0  0  0  0  0  0  0  0  0  0  0  0
   -9.8374    4.9728   -0.8239 S   0  0  0  0  0  0  0  0  0  0  0  0
  -11.9690    6.6380   -1.3232 C   0  0  0  0  0  0  0  0  0  0  0  0
  -12.7272    7.7680   -1.1488 C   0  0  0  0  0  0  0  0  0  0  0  0
  -12.3445    8.9815   -0.3951 C   0  0  0  0  0  0  0  0  0  0  0  0
  -11.2534    9.3056    0.0449 O   0  0  0  0  0  0  0  0  0  0  0  0
  -13.5958    9.7296   -0.1796 C   0  0  0  0  0  0  0  0  0  0  0  0
  -13.7407   10.9126    0.5421 C   0  0  0  0  0  0  0  0  0  0  0  0
  -15.0272   11.3935    0.5761 C   0  0  0  0  0  0  0  0  0  0  0  0
  -16.0944   10.7434   -0.0584 C   0  0  0  0  0  0  0  0  0  0  0  0
  -15.9667    9.5720   -0.7668 C   0  0  0  0  0  0  0  0  0  0  0  0
  -14.6651    9.0660   -0.8125 C   0  0  0  0  0  0  0  0  0  0  0  0
  -14.1424    7.8625   -1.4521 C   0  0  0  0  0  0  0  0  0  0  0  0
  -14.8487    7.0195   -2.2705 C   0  0  0  0  0  0  0  0  0  0  0  0
  -14.2989    5.9274   -2.9756 C   0  0  0  0  0  0  0  0  0  0  0  0
  -13.9254    5.0428   -3.6054 N   0  0  0  0  0  0  0  0  0  0  0  0
  -16.2226    7.1534   -2.5582 C   0  0  0  0  0  0  0  0  0  0  0  0
  -17.3386    7.1973   -2.8250 N   0  0  0  0  0  0  0  0  0  0  0  0
  -17.0981   11.7704    0.4016 C   0  0  0  0  0  0  0  0  0  0  0  0
  -18.0251   11.3921    1.5832 C   0  0  0  0  0  0  0  0  0  0  0  0
  -17.2823   10.3623    2.3978 C   0  0  0  0  0  0  0  0  0  0  0  0
  -16.2719   10.9748    3.0004 C   0  0  0  0  0  0  0  0  0  0  0  0
  -16.3136   12.4302    2.6046 C   0  0  0  0  0  0  0  0  0  0  0  0
  -17.8317   12.6312    2.4719 C   0  0  0  0  0  0  0  0  0  0  0  0
  -15.9097   12.4937    1.1105 C   0  0  0  0  0  0  0  0  0  0  0  0
    9.7434  -12.0956   -1.1568 H   0  0  0  0  0  0  0  0  0  0  0  0
    4.2656  -14.6246    0.6222 H   0  0  0  0  0  0  0  0  0  0  0  0
    8.0354  -17.3382   -1.3962 H   0  0  0  0  0  0  0  0  0  0  0  0
    5.7234  -19.4022    0.0831 H   0  0  0  0  0  0  0  0  0  0  0  0
    5.2149  -19.9721   -2.2866 H   0  0  0  0  0  0  0  0  0  0  0  0
    5.0245  -17.7046   -3.5740 H   0  0  0  0  0  0  0  0  0  0  0  0
    3.0217  -16.3147   -2.5194 H   0  0  0  0  0  0  0  0  0  0  0  0
    1.9756  -17.7277   -0.5827 H   0  0  0  0  0  0  0  0  0  0  0  0
    2.5775  -19.7594   -2.1703 H   0  0  0  0  0  0  0  0  0  0  0  0
    3.1764  -20.1366   -0.5356 H   0  0  0  0  0  0  0  0  0  0  0  0
    3.7740  -18.0558    1.1090 H   0  0  0  0  0  0  0  0  0  0  0  0
   10.3124   -9.8126   -1.0353 H   0  0  0  0  0  0  0  0  0  0  0  0
   11.6353   -5.3285   -0.0638 H   0  0  0  0  0  0  0  0  0  0  0  0
   13.6922   -5.3853   -1.5631 H   0  0  0  0  0  0  0  0  0  0  0  0
   14.3232   -8.9083   -5.4698 H   0  0  0  0  0  0  0  0  0  0  0  0
   12.6636   -8.8368   -4.8331 H   0  0  0  0  0  0  0  0  0  0  0  0
   15.1120   -9.9505   -3.3476 H   0  0  0  0  0  0  0  0  0  0  0  0
   13.8096  -10.9223   -4.0500 H   0  0  0  0  0  0  0  0  0  0  0  0
   13.4776   -9.8657   -2.6789 H   0  0  0  0  0  0  0  0  0  0  0  0
    4.4647   -5.7148    0.1347 H   0  0  0  0  0  0  0  0  0  0  0  0
    2.2254   -6.3606    1.1833 H   0  0  0  0  0  0  0  0  0  0  0  0
    3.2734  -10.2999    3.8147 H   0  0  0  0  0  0  0  0  0  0  0  0
    1.5703  -10.7337    4.1013 H   0  0  0  0  0  0  0  0  0  0  0  0
    2.5914  -12.3511    2.5141 H   0  0  0  0  0  0  0  0  0  0  0  0
    1.3499  -11.3978    1.6867 H   0  0  0  0  0  0  0  0  0  0  0  0
    3.0662  -11.0384    1.4366 H   0  0  0  0  0  0  0  0  0  0  0  0
    6.0039   -4.6526    1.3639 H   0  0  0  0  0  0  0  0  0  0  0  0
   10.2020   -2.5007    2.0341 H   0  0  0  0  0  0  0  0  0  0  0  0
   12.6289   -2.5300    1.5978 H   0  0  0  0  0  0  0  0  0  0  0  0
   13.5482   -1.3454   -0.3536 H   0  0  0  0  0  0  0  0  0  0  0  0
   11.5142    0.1130   -3.0249 H   0  0  0  0  0  0  0  0  0  0  0  0
   13.1575   -0.2786   -2.4983 H   0  0  0  0  0  0  0  0  0  0  0  0
   12.8096    2.1872   -2.6065 H   0  0  0  0  0  0  0  0  0  0  0  0
   11.4795    2.0547   -1.4500 H   0  0  0  0  0  0  0  0  0  0  0  0
   13.1250    1.6721   -0.9461 H   0  0  0  0  0  0  0  0  0  0  0  0
    9.6197   -0.0925   -1.4442 H   0  0  0  0  0  0  0  0  0  0  0  0
   -0.0814    8.9689   -1.1847 H   0  0  0  0  0  0  0  0  0  0  0  0
   -0.4623   11.3995   -1.3365 H   0  0  0  0  0  0  0  0  0  0  0  0
   -2.1411   12.4809    0.1026 H   0  0  0  0  0  0  0  0  0  0  0  0
   -4.1014   12.2117    1.5317 H   0  0  0  0  0  0  0  0  0  0  0  0
   -4.4899   10.6408    2.2411 H   0  0  0  0  0  0  0  0  0  0  0  0
   -3.7472   12.2430    3.9919 H   0  0  0  0  0  0  0  0  0  0  0  0
   -2.5996   10.9061    3.8546 H   0  0  0  0  0  0  0  0  0  0  0  0
   -2.2134   12.4734    3.1452 H   0  0  0  0  0  0  0  0  0  0  0  0
   -2.9617    8.7316    1.9600 H   0  0  0  0  0  0  0  0  0  0  0  0
    2.4146    1.0450    2.1948 H   0  0  0  0  0  0  0  0  0  0  0  0
    3.2164   -0.4240    1.5856 H   0  0  0  0  0  0  0  0  0  0  0  0
    3.2746   -0.2467    4.0794 H   0  0  0  0  0  0  0  0  0  0  0  0
    4.1572    1.2804    3.9505 H   0  0  0  0  0  0  0  0  0  0  0  0
    4.9043   -0.2257    3.4075 H   0  0  0  0  0  0  0  0  0  0  0  0
    0.4555    2.5422   -0.3542 H   0  0  0  0  0  0  0  0  0  0  0  0
    1.7341    1.4995    0.2724 H   0  0  0  0  0  0  0  0  0  0  0  0
   -0.7422    2.5553    1.7473 H   0  0  0  0  0  0  0  0  0  0  0  0
   -0.3898    0.8776    1.3381 H   0  0  0  0  0  0  0  0  0  0  0  0
    0.5447    1.7062    2.5891 H   0  0  0  0  0  0  0  0  0  0  0  0
   -4.3644    4.4035    0.2552 H   0  0  0  0  0  0  0  0  0  0  0  0
   -5.2621    3.0641   -1.3667 H   0  0  0  0  0  0  0  0  0  0  0  0
   -5.4969    0.6324   -0.6606 H   0  0  0  0  0  0  0  0  0  0  0  0
   -7.4775   -2.5768    0.2912 H   0  0  0  0  0  0  0  0  0  0  0  0
   -6.1556   -1.5229   -0.2421 H   0  0  0  0  0  0  0  0  0  0  0  0
   -7.6164   -2.1685   -2.1820 H   0  0  0  0  0  0  0  0  0  0  0  0
   -7.7281   -0.4294   -1.8838 H   0  0  0  0  0  0  0  0  0  0  0  0
   -9.0219   -1.5014   -1.3414 H   0  0  0  0  0  0  0  0  0  0  0  0
   -5.3002    9.9253   -1.6447 H   0  0  0  0  0  0  0  0  0  0  0  0
   -5.8072   12.3729   -1.1906 H   0  0  0  0  0  0  0  0  0  0  0  0
  -10.1666   12.2538    0.9000 H   0  0  0  0  0  0  0  0  0  0  0  0
  -10.4149   14.0199    0.8424 H   0  0  0  0  0  0  0  0  0  0  0  0
  -10.5073   12.1184   -1.5620 H   0  0  0  0  0  0  0  0  0  0  0  0
  -11.9075   12.8934   -0.8181 H   0  0  0  0  0  0  0  0  0  0  0  0
  -10.6949   13.8768   -1.6527 H   0  0  0  0  0  0  0  0  0  0  0  0
   -9.8689    8.5069   -1.6118 H   0  0  0  0  0  0  0  0  0  0  0  0
  -12.4805    5.7121   -1.5565 H   0  0  0  0  0  0  0  0  0  0  0  0
  -12.8918   11.3752    1.0214 H   0  0  0  0  0  0  0  0  0  0  0  0
  -16.7992    9.0782   -1.2394 H   0  0  0  0  0  0  0  0  0  0  0  0
  -17.6256   12.3066   -0.3846 H   0  0  0  0  0  0  0  0  0  0  0  0
  -19.0408   11.1351    1.2952 H   0  0  0  0  0  0  0  0  0  0  0  0
  -17.5262    9.3162    2.4065 H   0  0  0  0  0  0  0  0  0  0  0  0
  -15.5026   10.5422    3.6129 H   0  0  0  0  0  0  0  0  0  0  0  0
  -15.7721   13.1185    3.2484 H   0  0  0  0  0  0  0  0  0  0  0  0
  -18.1049   13.5643    1.9810 H   0  0  0  0  0  0  0  0  0  0  0  0
  -18.3519   12.5509    3.4251 H   0  0  0  0  0  0  0  0  0  0  0  0
  -15.6639   13.5044    0.7898 H   0  0  0  0  0  0  0  0  0  0  0  0
  1  2  2  0  0  0  0
  2  3  1  0  0  0  0
  3  4  2  0  0  0  0
  3  5  1  0  0  0  0
  5  6  2  0  0  0  0
  6  7  1  0  0  0  0
  7  8  2  0  0  0  0
  8  9  1  0  0  0  0
  9 10  2  0  0  0  0
 10 11  1  0  0  0  0
 11 12  2  0  0  0  0
 12 13  1  0  0  0  0
 13 14  3  0  0  0  0
 12 15  1  0  0  0  0
 15 16  3  0  0  0  0
  8 17  1  0  0  0  0
 17 18  1  0  0  0  0
 18 19  1  0  0  0  0
 19 20  2  0  0  0  0
 20 21  1  0  0  0  0
 21 22  1  0  0  0  0
 21 23  1  0  0  0  0
  1 24  1  0  0  0  0
 24 25  2  0  0  0  0
 25 26  1  0  0  0  0
 26 27  2  0  0  0  0
 27 28  1  0  0  0  0
 28 29  2  0  0  0  0
 29 30  1  0  0  0  0
 30 31  2  0  0  0  0
 31 32  1  0  0  0  0
 32 33  1  0  0  0  0
 33 34  1  0  0  0  0
 31 35  1  0  0  0  0
 27 36  1  0  0  0  0
 36 37  2  0  0  0  0
 37 38  1  0  0  0  0
 38 39  1  0  0  0  0
 39 40  2  0  0  0  0
 40 41  1  0  0  0  0
 41 42  2  0  0  0  0
 42 43  1  0  0  0  0
 43 44  1  0  0  0  0
 44 45  1  0  0  0  0
 42 46  1  0  0  0  0
 38 47  2  0  0  0  0
 47 48  1  0  0  0  0
 37 49  1  0  0  0  0
 49 50  2  0  0  0  0
 50 51  1  0  0  0  0
 50 52  1  0  0  0  0
 52 53  2  0  0  0  0
 53 54  1  0  0  0  0
 54 55  2  0  0  0  0
 55 56  1  0  0  0  0
 56 57  2  0  0  0  0
 57 58  1  0  0  0  0
 58 59  1  0  0  0  0
 59 60  1  0  0  0  0
 58 61  2  0  0  0  0
 53 62  1  0  0  0  0
 62 63  1  0  0  0  0
 63 64  1  0  0  0  0
 64 65  1  0  0  0  0
 65 66  1  0  0  0  0
 66 67  1  0  0  0  0
 67 68  2  0  0  0  0
 68 69  1  0  0  0  0
 69 70  1  0  0  0  0
 67 71  1  0  0  0  0
 71 72  1  0  0  0  0
 72 73  1  0  0  0  0
 73 74  1  0  0  0  0
 74 75  1  0  0  0  0
 75 76  1  0  0  0  0
 76 77  2  0  0  0  0
 77 78  1  0  0  0  0
 78 79  2  0  0  0  0
 79 80  1  0  0  0  0
 80 81  1  0  0  0  0
 81 82  1  0  0  0  0
 80 83  2  0  0  0  0
 75 84  2  0  0  0  0
 84 85  1  0  0  0  0
 85 86  1  0  0  0  0
 86 87  1  0  0  0  0
 87 88  1  0  0  0  0
 88 89  1  0  0  0  0
 89 90  1  0  0  0  0
 90 91  1  0  0  0  0
 91 92  1  0  0  0  0
 92 93  1  0  0  0  0
 93 94  1  0  0  0  0
 91 95  1  0  0  0  0
 95 96  1  0  0  0  0
 88 97  1  0  0  0  0
 97 98  1  0  0  0  0
 84 99  1  0  0  0  0
 99100  2  0  0  0  0
100101  1  0  0  0  0
101102  2  0  0  0  0
102103  1  0  0  0  0
103104  2  0  0  0  0
104105  1  0  0  0  0
105106  2  0  0  0  0
106107  1  0  0  0  0
107108  1  0  0  0  0
108109  1  0  0  0  0
106110  1  0  0  0  0
102111  1  0  0  0  0
111112  2  0  0  0  0
112113  1  0  0  0  0
113114  1  0  0  0  0
114115  2  0  0  0  0
115116  1  0  0  0  0
116117  2  0  0  0  0
117118  1  0  0  0  0
118119  1  0  0  0  0
119120  1  0  0  0  0
117121  1  0  0  0  0
113122  2  0  0  0  0
122123  1  0  0  0  0
112124  1  0  0  0  0
124125  2  0  0  0  0
125126  1  0  0  0  0
125127  1  0  0  0  0
127128  2  0  0  0  0
128129  1  0  0  0  0
129130  2  0  0  0  0
129131  1  0  0  0  0
131132  2  0  0  0  0
132133  1  0  0  0  0
133134  2  0  0  0  0
134135  1  0  0  0  0
135136  2  0  0  0  0
136137  1  0  0  0  0
137138  2  0  0  0  0
138139  1  0  0  0  0
139140  3  0  0  0  0
138141  1  0  0  0  0
141142  3  0  0  0  0
134143  1  0  0  0  0
143144  1  0  0  0  0
144145  1  0  0  0  0
145146  2  0  0  0  0
146147  1  0  0  0  0
147148  1  0  0  0  0
147149  1  0  0  0  0
 11  2  1  0  0  0  0
 23 17  1  0  0  0  0
 48 24  1  0  0  0  0
 94 52  1  0  0  0  0
123 99  1  0  0  0  0
137128  1  0  0  0  0
149143  1  0  0  0  0
 10  5  1  0  0  0  0
 22 18  1  0  0  0  0
 47 26  1  0  0  0  0
 61 54  1  0  0  0  0
 93 62  2  0  0  0  0
122101  1  0  0  0  0
136131  1  0  0  0  0
148144  1  0  0  0  0
 23  7  1  0  0  0  0
 35 28  1  0  0  0  0
 51 36  1  0  0  0  0
 92 64  2  0  0  0  0
110103  1  0  0  0  0
126111  1  0  0  0  0
149133  1  0  0  0  0
 46 39  1  0  0  0  0
 90 65  2  0  0  0  0
121114  1  0  0  0  0
 70 66  2  0  0  0  0
 89 71  2  0  0  0  0
 87 72  2  0  0  0  0
 86 74  2  0  0  0  0
 83 76  1  0  0  0  0
  1150  1  0  0  0  0
  6151  1  0  0  0  0
  9152  1  0  0  0  0
 17153  1  0  0  0  0
 18154  1  0  0  0  0
 19155  1  0  0  0  0
 20156  1  0  0  0  0
 21157  1  0  0  0  0
 22158  1  0  0  0  0
 22159  1  0  0  0  0
 23160  1  0  0  0  0
 25161  1  0  0  0  0
 29162  1  0  0  0  0
 30163  1  0  0  0  0
 33164  1  0  0  0  0
 33165  1  0  0  0  0
 34166  1  0  0  0  0
 34167  1  0  0  0  0
 34168  1  0  0  0  0
 40169  1  0  0  0  0
 41170  1  0  0  0  0
 44171  1  0  0  0  0
 44172  1  0  0  0  0
 45173  1  0  0  0  0
 45174  1  0  0  0  0
 45175  1  0  0  0  0
 49176  1  0  0  0  0
 55177  1  0  0  0  0
 56178  1  0  0  0  0
 57179  1  0  0  0  0
 59180  1  0  0  0  0
 59181  1  0  0  0  0
 60182  1  0  0  0  0
 60183  1  0  0  0  0
 60184  1  0  0  0  0
 61185  1  0  0  0  0
 77186  1  0  0  0  0
 78187  1  0  0  0  0
 79188  1  0  0  0  0
 81189  1  0  0  0  0
 81190  1  0  0  0  0
 82191  1  0  0  0  0
 82192  1  0  0  0  0
 82193  1  0  0  0  0
 83194  1  0  0  0  0
 95195  1  0  0  0  0
 95196  1  0  0  0  0
 96197  1  0  0  0  0
 96198  1  0  0  0  0
 96199  1  0  0  0  0
 97200  1  0  0  0  0
 97201  1  0  0  0  0
 98202  1  0  0  0  0
 98203  1  0  0  0  0
 98204  1  0  0  0  0
100205  1  0  0  0  0
104206  1  0  0  0  0
105207  1  0  0  0  0
108208  1  0  0  0  0
108209  1  0  0  0  0
109210  1  0  0  0  0
109211  1  0  0  0  0
109212  1  0  0  0  0
115213  1  0  0  0  0
116214  1  0  0  0  0
119215  1  0  0  0  0
119216  1  0  0  0  0
120217  1  0  0  0  0
120218  1  0  0  0  0
120219  1  0  0  0  0
124220  1  0  0  0  0
127221  1  0  0  0  0
132222  1  0  0  0  0
135223  1  0  0  0  0
143224  1  0  0  0  0
144225  1  0  0  0  0
145226  1  0  0  0  0
146227  1  0  0  0  0
147228  1  0  0  0  0
148229  1  0  0  0  0
148230  1  0  0  0  0
149231  1  0  0  0  0
M  END
