180

C         -9.43830       -4.84380        5.44290
C         -8.84010       -5.61940        6.38330
C         -9.66460       -6.49670        7.25790
O        -10.86480       -6.45130        7.40810
C         -8.71670       -7.46150        7.85150
C         -9.02170       -8.56330        8.64840
C         -7.92580       -9.29800        9.03300
C         -6.61920       -8.97230        8.64430
C         -6.30150       -7.88710        7.86350
C         -7.40180       -7.11800        7.47350
C         -7.45050       -5.88400        6.69330
C         -6.39980       -5.02140        6.51240
C         -6.53170       -3.70920        6.01100
N         -6.56100       -2.61220        5.67340
C         -5.06700       -5.30850        6.86460
N         -3.95640       -5.50170        7.08710
C         -6.02080      -10.14070        9.38680
C         -5.32750       -9.81850       10.72750
C         -5.27660      -11.15170       11.43810
C         -6.51270      -11.45720       11.81130
C         -7.41990      -10.33540       11.35960
C         -6.46280       -9.14580       11.51000
C         -7.47650      -10.50050        9.82590
C         -8.85820       -4.22330        4.29150
C         -7.71150       -4.73650        3.67170
C         -7.15280       -4.13480        2.56640
O         -6.03700       -4.58070        1.93130
C         -5.22050       -5.55160        2.55520
C         -3.93960       -5.65910        1.74330
C         -7.75850       -2.97890        2.01960
C         -8.90370       -2.47030        2.63010
C         -9.47550       -3.07920        3.73420
O        -10.58110       -2.62880        4.36330
C        -11.25080       -1.48620        3.86050
C        -12.48290       -1.26560        4.72330
C         -7.16730       -2.31030        0.88880
C         -7.76800       -1.44750       -0.01270
C         -9.20790       -1.22300       -0.16460
C        -10.09590       -2.29650       -0.20830
C        -11.44640       -2.06500       -0.37950
C        -11.92330       -0.77160       -0.51740
C        -11.05100        0.30830       -0.48990
C        -11.54450        1.70930       -0.70620
C        -11.39570        2.09530       -2.17930
C         -9.69530        0.06990       -0.31530
C         -6.81570       -0.84460       -0.85820
S         -6.94440        0.30460       -2.17230
C         -5.22400        0.24100       -2.36870
C         -4.21390        0.81190       -3.16420
C         -4.25350        1.66490       -4.28940
C         -3.02040        2.02930       -4.93480
N         -3.21390        2.78710       -6.00220
S         -4.80620        3.02650       -6.18110
N         -5.31120        2.17360       -4.90070
C         -1.79660        1.64300       -4.34320
C         -0.47150        2.04030       -4.58840
S          0.41670        3.02770       -5.69940
C          1.85230        2.79260       -4.72910
C          3.17470        3.26530       -4.84950
C          3.64930        4.03430       -6.00150
C          4.83320        3.68200       -6.64700
C          5.25120        4.39120       -7.75600
C          4.49480        5.44690       -8.23630
C          3.30300        5.80040       -7.61660
C          2.49220        6.96010       -8.11880
C          2.95890        8.26360       -7.46760
C          2.89160        5.08870       -6.49910
C          3.95500        2.83570       -3.78790
S          3.07160        1.80080       -2.67810
C          1.63460        1.97330       -3.61890
C          0.30920        1.52850       -3.54780
N         -0.47150        0.79340       -2.69530
C         -1.76780        0.83880       -3.17130
C         -2.98060        0.30050       -2.67600
N         -3.23980       -0.60740       -1.66400
C         -4.59730       -0.62750       -1.47270
C         -5.50610       -1.25690       -0.61320
S         -5.43630       -2.42860        0.65120
C         -2.45260       -1.75700       -1.27510
C         -2.93640       -3.02590       -1.97730
C          0.01720        0.43500       -1.38220
C          0.98870       -0.74440       -1.42740
C          5.28700        3.19550       -3.43930
S          6.17190        2.17990       -2.30640
C          7.51160        3.26450       -2.36730
C          8.78050        3.45970       -1.83620
C          9.27190        4.67320       -2.39730
N          8.32650        5.20450       -3.23850
C          8.47140        6.37260       -4.06910
C          8.80090        5.99360       -5.51140
C          7.25790        4.35280       -3.23510
C          5.99740        4.31020       -3.83450
C         10.53190        5.02880       -1.94760
C         11.03510        4.10670       -1.03560
S          9.91110        2.75790       -0.75650
C         12.23810        4.04820       -0.32140
C         13.26240        4.95520       -0.17830
C         13.32620        6.35510       -0.64090
O         12.58650        6.94820       -1.40470
C         14.50030        6.94610        0.03040
C         14.94280        8.23600       -0.01400
C         16.08840        8.59660        0.73010
C         16.58700        9.91500        0.72620
C         17.69300       10.25230        1.45580
C         18.33160        9.26240        2.21440
F         19.41890        9.61370        2.92730
C         17.89040        7.96910        2.25290
C         16.75270        7.60420        1.50710
C         16.27280        6.27340        1.52730
C         15.16170        5.94830        0.79670
C         14.44300        4.68920        0.62200
C         14.87440        3.47220        1.08760
C         16.04250        3.29300        1.85670
N         16.97520        3.07430        2.49030
C         14.26650        2.22360        0.84030
N         13.86110        1.16140        0.67320
H        -10.51010       -4.71890        5.55400
H        -10.04200       -8.78580        8.91870
H         -5.29400       -7.65010        7.56300
H         -5.46720      -10.85640        8.78180
H         -4.39110       -9.27510       10.63600
H         -4.38510      -11.74170       11.54350
H         -6.86010      -12.35350       12.29090
H         -8.38900      -10.26390       11.84620
H         -6.82610       -8.22350       11.06060
H         -6.19410       -8.96290       12.54900
H         -7.89330      -11.45730        9.51630
H         -7.28800       -5.64870        4.06070
H         -4.99420       -5.24620        3.58600
H         -5.73860       -6.52060        2.57770
H         -4.17280       -5.94130        0.72030
H         -3.43130       -4.69920        1.73110
H         -3.28610       -6.40640        2.18310
H         -9.32840       -1.56490        2.23270
H        -10.58840       -0.61220        3.91260
H        -11.53880       -1.64730        2.81230
H        -13.13810       -2.13040        4.66610
H        -12.18800       -1.12310        5.75920
H        -13.02030       -0.38680        4.37970
H         -9.71990       -3.30390       -0.10880
H        -12.13320       -2.89830       -0.41210
H        -12.98160       -0.60010       -0.65230
H        -12.59400        1.78490       -0.41490
H        -10.96710        2.40450       -0.09320
H        -10.35390        2.02790       -2.48400
H        -11.74230        3.11290       -2.34300
H        -11.97880        1.42400       -2.80590
H         -9.00820        0.90300       -0.28170
H          5.41190        2.84620       -6.28280
H          6.16800        4.11360       -8.25590
H          4.82670        5.99390       -9.10700
H          2.59760        7.04170       -9.20240
H          1.43780        6.79870       -7.88840
H          4.00540        8.45030       -7.69940
H          2.36880        9.10170       -7.83030
H          2.85190        8.20630       -6.38650
H          1.97110        5.36080       -6.00360
H         -2.53470       -1.88150       -0.19060
H         -1.41650       -1.58930       -1.54620
H         -3.95720       -3.26360       -1.69280
H         -2.89450       -2.89710       -3.05700
H         -2.29800       -3.86000       -1.69860
H          0.54840        1.30380       -0.97610
H         -0.83360        0.23430       -0.73060
H          0.56630       -1.59620       -1.95580
H          1.90420       -0.45760       -1.93700
H          1.24100       -1.04900       -0.41570
H          7.53560        6.93940       -4.03710
H          9.26870        6.98730       -3.64670
H          8.00580        5.38220       -5.93260
H          9.73120        5.43180       -5.55010
H          8.90900        6.89010       -6.11510
H          5.60030        5.05160       -4.50200
H         11.08350        5.90500       -2.23300
H         12.34600        3.12940        0.24380
H         14.42280        8.97390       -0.60670
H         16.07730       10.66030        0.13390
H         18.08680       11.25630        1.46430
H         18.40780        7.23240        2.84730
H         16.79600        5.54800        2.12880
