
  xtb     02252207183D
 energy: -428.874549058304 gnorm: 0.000782397572 xtb: 6.4.1 (unknown)
265296  0     0  0            999 V2000
   -6.0136   -1.6283   -6.3560 C   0  0  0  0  0  0  0  0  0  0  0  0
   -4.9024   -1.9765   -7.0716 C   0  0  0  0  0  0  0  0  0  0  0  0
   -3.5615   -1.3649   -6.9812 C   0  0  0  0  0  0  0  0  0  0  0  0
   -3.2503   -0.3105   -6.4593 O   0  0  0  0  0  0  0  0  0  0  0  0
   -2.6448   -2.2873   -7.6682 C   0  0  0  0  0  0  0  0  0  0  0  0
   -1.2570   -2.1829   -7.7414 C   0  0  0  0  0  0  0  0  0  0  0  0
   -0.6559   -3.2041   -8.4371 C   0  0  0  0  0  0  0  0  0  0  0  0
   -1.3835   -4.2533   -9.0174 C   0  0  0  0  0  0  0  0  0  0  0  0
   -2.7520   -4.3680   -8.9518 C   0  0  0  0  0  0  0  0  0  0  0  0
   -3.3850   -3.3373   -8.2489 C   0  0  0  0  0  0  0  0  0  0  0  0
   -4.7994   -3.1266   -7.9548 C   0  0  0  0  0  0  0  0  0  0  0  0
   -5.8378   -3.8616   -8.4659 C   0  0  0  0  0  0  0  0  0  0  0  0
   -7.2074   -3.6202   -8.2299 C   0  0  0  0  0  0  0  0  0  0  0  0
   -8.3421   -3.4910   -8.1029 N   0  0  0  0  0  0  0  0  0  0  0  0
   -5.6832   -4.9544   -9.3443 C   0  0  0  0  0  0  0  0  0  0  0  0
   -5.6339   -5.8508  -10.0603 N   0  0  0  0  0  0  0  0  0  0  0  0
   -0.1424   -4.9217   -9.5538 C   0  0  0  0  0  0  0  0  0  0  0  0
    0.1432   -4.7414  -11.0599 C   0  0  0  0  0  0  0  0  0  0  0  0
    1.6127   -5.0724  -11.1886 C   0  0  0  0  0  0  0  0  0  0  0  0
    2.2996   -4.0806  -10.6362 C   0  0  0  0  0  0  0  0  0  0  0  0
    1.3066   -3.0619  -10.1275 C   0  0  0  0  0  0  0  0  0  0  0  0
    0.2053   -3.2138  -11.1847 C   0  0  0  0  0  0  0  0  0  0  0  0
    0.6671   -3.7534   -8.9049 C   0  0  0  0  0  0  0  0  0  0  0  0
   -6.1882   -0.6004   -5.4069 C   0  0  0  0  0  0  0  0  0  0  0  0
   -7.3091   -0.4855   -4.6047 C   0  0  0  0  0  0  0  0  0  0  0  0
   -7.2396    0.5473   -3.6547 C   0  0  0  0  0  0  0  0  0  0  0  0
   -8.1695    0.8750   -2.6292 C   0  0  0  0  0  0  0  0  0  0  0  0
   -9.4847    0.2882   -2.5703 C   0  0  0  0  0  0  0  0  0  0  0  0
  -10.2420    0.0013   -1.4639 C   0  0  0  0  0  0  0  0  0  0  0  0
  -11.5350   -0.4916   -1.7059 C   0  0  0  0  0  0  0  0  0  0  0  0
  -11.8789   -0.6075   -3.0254 C   0  0  0  0  0  0  0  0  0  0  0  0
  -13.4012   -1.2734   -3.5645 S   0  0  0  0  0  0  0  0  0  0  0  0
  -13.3349   -0.9833   -5.3666 C   0  0  0  0  0  0  0  0  0  0  0  0
  -13.6141    0.4609   -5.7299 C   0  0  0  0  0  0  0  0  0  0  0  0
  -10.4664   -0.0763   -4.1443 Se  0  0  0  0  0  2  0  0  0  0  0  0
   -7.7145    1.7867   -1.6802 C   0  0  0  0  0  0  0  0  0  0  0  0
   -6.4569    2.4395   -1.7578 C   0  0  0  0  0  0  0  0  0  0  0  0
   -5.6056    2.2373   -2.8663 C   0  0  0  0  0  0  0  0  0  0  0  0
   -4.3843    2.9801   -3.0493 C   0  0  0  0  0  0  0  0  0  0  0  0
   -4.1290    4.2695   -2.6526 C   0  0  0  0  0  0  0  0  0  0  0  0
   -2.8453    4.7647   -2.9339 C   0  0  0  0  0  0  0  0  0  0  0  0
   -2.0164    3.8815   -3.5716 C   0  0  0  0  0  0  0  0  0  0  0  0
   -0.4012    4.2932   -4.0923 S   0  0  0  0  0  0  0  0  0  0  0  0
    0.2367    2.6962   -4.7143 C   0  0  0  0  0  0  0  0  0  0  0  0
    0.6301    1.7524   -3.5982 C   0  0  0  0  0  0  0  0  0  0  0  0
   -2.8783    2.2437   -3.9172 Se  0  0  0  0  0  2  0  0  0  0  0  0
   -6.0076    1.2420   -3.7542 C   0  0  0  0  0  0  0  0  0  0  0  0
   -5.0152    0.6418   -5.0392 S   0  0  0  0  0  0  0  0  0  0  0  0
   -6.1739    3.1735   -0.5867 C   0  0  0  0  0  0  0  0  0  0  0  0
   -7.1590    3.1238    0.3607 C   0  0  0  0  0  0  0  0  0  0  0  0
   -8.5513    2.2298   -0.2062 S   0  0  0  0  0  0  0  0  0  0  0  0
   -7.0195    3.6160    1.6905 C   0  0  0  0  0  0  0  0  0  0  0  0
   -7.6820    3.2888    2.8573 C   0  0  0  0  0  0  0  0  0  0  0  0
   -8.8351    2.3852    2.9674 C   0  0  0  0  0  0  0  0  0  0  0  0
   -8.7295    1.0508    2.5890 C   0  0  0  0  0  0  0  0  0  0  0  0
   -9.8208    0.2130    2.7193 C   0  0  0  0  0  0  0  0  0  0  0  0
  -11.0116    0.6938    3.2345 C   0  0  0  0  0  0  0  0  0  0  0  0
  -11.1246    2.0176    3.6388 C   0  0  0  0  0  0  0  0  0  0  0  0
  -12.3885    2.5250    4.2702 C   0  0  0  0  0  0  0  0  0  0  0  0
  -12.3141    2.3735    5.7910 C   0  0  0  0  0  0  0  0  0  0  0  0
  -10.0263    2.8543    3.5038 C   0  0  0  0  0  0  0  0  0  0  0  0
   -7.0434    3.8450    3.9859 C   0  0  0  0  0  0  0  0  0  0  0  0
   -7.2338    3.5638    5.7056 S   0  0  0  0  0  0  0  0  0  0  0  0
   -5.7076    4.3482    5.9864 C   0  0  0  0  0  0  0  0  0  0  0  0
   -4.7123    4.4175    6.9804 C   0  0  0  0  0  0  0  0  0  0  0  0
   -4.5920    3.7718    8.2347 C   0  0  0  0  0  0  0  0  0  0  0  0
   -3.2762    3.5390    8.7795 C   0  0  0  0  0  0  0  0  0  0  0  0
   -3.3108    2.8014    9.8763 N   0  0  0  0  0  0  0  0  0  0  0  0
   -4.8548    2.4438   10.2122 S   0  0  0  0  0  0  0  0  0  0  0  0
   -5.5411    3.2029    8.9576 N   0  0  0  0  0  0  0  0  0  0  0  0
   -2.1498    4.0766    8.1153 C   0  0  0  0  0  0  0  0  0  0  0  0
   -0.7615    3.8351    8.1972 C   0  0  0  0  0  0  0  0  0  0  0  0
    0.3253    2.6568    8.8697 S   0  0  0  0  0  0  0  0  0  0  0  0
    1.5522    3.1361    7.7077 C   0  0  0  0  0  0  0  0  0  0  0  0
    2.7239    2.5119    7.2305 C   0  0  0  0  0  0  0  0  0  0  0  0
    3.3216    1.3134    7.8208 C   0  0  0  0  0  0  0  0  0  0  0  0
    2.5263    0.2337    8.1925 C   0  0  0  0  0  0  0  0  0  0  0  0
    3.1105   -0.9046    8.7162 C   0  0  0  0  0  0  0  0  0  0  0  0
    4.4823   -0.9784    8.8759 C   0  0  0  0  0  0  0  0  0  0  0  0
    5.2921    0.0957    8.5247 C   0  0  0  0  0  0  0  0  0  0  0  0
    6.7859   -0.0035    8.6416 C   0  0  0  0  0  0  0  0  0  0  0  0
    7.3780   -0.6010    7.3632 C   0  0  0  0  0  0  0  0  0  0  0  0
    4.7010    1.2360    8.0040 C   0  0  0  0  0  0  0  0  0  0  0  0
    3.1852    3.1355    6.0744 C   0  0  0  0  0  0  0  0  0  0  0  0
    2.2697    4.5882    5.6843 S   0  0  0  0  0  0  0  0  0  0  0  0
    1.1599    4.2458    6.9563 C   0  0  0  0  0  0  0  0  0  0  0  0
   -0.1517    4.6381    7.2287 C   0  0  0  0  0  0  0  0  0  0  0  0
   -1.0906    5.3962    6.5751 N   0  0  0  0  0  0  0  0  0  0  0  0
   -2.3285    4.9812    7.0343 C   0  0  0  0  0  0  0  0  0  0  0  0
   -3.5807    5.0322    6.3782 C   0  0  0  0  0  0  0  0  0  0  0  0
   -3.8881    5.3555    5.0692 N   0  0  0  0  0  0  0  0  0  0  0  0
   -5.1479    4.8841    4.8227 C   0  0  0  0  0  0  0  0  0  0  0  0
   -5.9054    4.5908    3.6831 C   0  0  0  0  0  0  0  0  0  0  0  0
   -5.6461    4.6814    1.9798 S   0  0  0  0  0  0  0  0  0  0  0  0
   -3.0185    5.6598    3.9548 C   0  0  0  0  0  0  0  0  0  0  0  0
   -2.1545    4.4643    3.5621 C   0  0  0  0  0  0  0  0  0  0  0  0
   -0.7550    6.6859    6.0100 C   0  0  0  0  0  0  0  0  0  0  0  0
    0.1372    7.4902    6.9540 C   0  0  0  0  0  0  0  0  0  0  0  0
    3.9569    2.5869    5.0098 C   0  0  0  0  0  0  0  0  0  0  0  0
    4.4670    1.3239    4.8766 C   0  0  0  0  0  0  0  0  0  0  0  0
    4.7740    0.9646    3.5454 C   0  0  0  0  0  0  0  0  0  0  0  0
    5.1290   -0.3086    3.0541 C   0  0  0  0  0  0  0  0  0  0  0  0
    5.3581   -1.4409    3.9301 C   0  0  0  0  0  0  0  0  0  0  0  0
    6.3512   -2.3757    3.8215 C   0  0  0  0  0  0  0  0  0  0  0  0
    6.2844   -3.3319    4.8480 C   0  0  0  0  0  0  0  0  0  0  0  0
    7.2423   -4.6824    5.3334 S   0  0  0  0  0  0  0  0  0  0  0  0
    6.2055   -4.9787    6.7113 C   0  0  0  0  0  0  0  0  0  0  0  0
    6.6716   -6.3178    7.9564 Si  0  0  0  0  0  4  0  0  0  0  0  0
    7.5765   -7.6857    6.9764 C   0  0  0  0  0  0  0  0  0  0  0  0
    8.0994   -8.8336    7.8323 C   0  0  0  0  0  0  0  0  0  0  0  0
    7.8575   -5.4956    9.2202 C   0  0  0  0  0  0  0  0  0  0  0  0
    7.2968   -4.2065    9.8152 C   0  0  0  0  0  0  0  0  0  0  0  0
    5.0678   -6.9404    8.7958 C   0  0  0  0  0  0  0  0  0  0  0  0
    5.2996   -7.6084   10.1475 C   0  0  0  0  0  0  0  0  0  0  0  0
    5.1820   -4.0784    6.7755 C   0  0  0  0  0  0  0  0  0  0  0  0
    5.2212   -3.1465    5.7263 C   0  0  0  0  0  0  0  0  0  0  0  0
    4.2850   -1.7664    5.2856 S   0  0  0  0  0  0  0  0  0  0  0  0
    5.1811   -0.4534    1.6705 C   0  0  0  0  0  0  0  0  0  0  0  0
    4.9010    0.6118    0.7714 C   0  0  0  0  0  0  0  0  0  0  0  0
    4.6061    1.9078    1.2635 C   0  0  0  0  0  0  0  0  0  0  0  0
    4.2536    3.0238    0.4161 C   0  0  0  0  0  0  0  0  0  0  0  0
    3.1946    2.8061   -0.9690 S   0  0  0  0  0  0  0  0  0  0  0  0
    3.1654    4.5089   -1.2523 C   0  0  0  0  0  0  0  0  0  0  0  0
    2.5402    5.3528   -2.1827 C   0  0  0  0  0  0  0  0  0  0  0  0
    2.8408    6.6673   -1.9752 C   0  0  0  0  0  0  0  0  0  0  0  0
    2.1718    8.1584   -2.9214 Si  0  0  0  0  0  4  0  0  0  0  0  0
    1.6534    7.5861   -4.6660 C   0  0  0  0  0  0  0  0  0  0  0  0
    2.8050    7.0158   -5.4867 C   0  0  0  0  0  0  0  0  0  0  0  0
    3.5712    9.4622   -2.9641 C   0  0  0  0  0  0  0  0  0  0  0  0
    3.1694   10.7596   -3.6585 C   0  0  0  0  0  0  0  0  0  0  0  0
    0.6363    8.8067   -1.9778 C   0  0  0  0  0  0  0  0  0  0  0  0
    0.9441    9.2521   -0.5520 C   0  0  0  0  0  0  0  0  0  0  0  0
    3.9179    6.8823   -0.6122 S   0  0  0  0  0  0  0  0  0  0  0  0
    3.9526    5.1814   -0.3212 C   0  0  0  0  0  0  0  0  0  0  0  0
    4.5585    4.3436    0.6264 C   0  0  0  0  0  0  0  0  0  0  0  0
    4.5559    2.0373    2.6422 C   0  0  0  0  0  0  0  0  0  0  0  0
    4.0065    3.4603    3.4848 S   0  0  0  0  0  0  0  0  0  0  0  0
    4.8888    0.1682   -0.5559 C   0  0  0  0  0  0  0  0  0  0  0  0
    5.1070   -1.1905   -0.7037 C   0  0  0  0  0  0  0  0  0  0  0  0
    5.4427   -1.9593    0.8346 S   0  0  0  0  0  0  0  0  0  0  0  0
    4.9272   -1.8260   -1.9470 C   0  0  0  0  0  0  0  0  0  0  0  0
    5.0335   -3.1455   -2.2892 C   0  0  0  0  0  0  0  0  0  0  0  0
    5.6167   -4.2149   -1.4592 C   0  0  0  0  0  0  0  0  0  0  0  0
    5.9868   -4.1396   -0.3040 O   0  0  0  0  0  0  0  0  0  0  0  0
    5.6980   -5.4036   -2.3288 C   0  0  0  0  0  0  0  0  0  0  0  0
    6.2311   -6.6474   -2.0009 C   0  0  0  0  0  0  0  0  0  0  0  0
    6.1786   -7.5656   -3.0225 C   0  0  0  0  0  0  0  0  0  0  0  0
    5.6459   -7.2657   -4.2835 C   0  0  0  0  0  0  0  0  0  0  0  0
    5.1180   -6.0421   -4.6205 C   0  0  0  0  0  0  0  0  0  0  0  0
    5.1495   -5.0974   -3.5911 C   0  0  0  0  0  0  0  0  0  0  0  0
    4.6708   -3.7181   -3.5684 C   0  0  0  0  0  0  0  0  0  0  0  0
    3.9172   -3.1211   -4.5491 C   0  0  0  0  0  0  0  0  0  0  0  0
    3.3542   -1.8304   -4.4828 C   0  0  0  0  0  0  0  0  0  0  0  0
    2.8341   -0.8060   -4.5140 N   0  0  0  0  0  0  0  0  0  0  0  0
    3.5358   -3.7428   -5.7537 C   0  0  0  0  0  0  0  0  0  0  0  0
    3.1789   -4.1770   -6.7561 N   0  0  0  0  0  0  0  0  0  0  0  0
    5.9150   -8.6508   -4.8154 C   0  0  0  0  0  0  0  0  0  0  0  0
    4.7150   -9.6235   -4.9274 C   0  0  0  0  0  0  0  0  0  0  0  0
    3.7092   -9.1843   -3.8922 C   0  0  0  0  0  0  0  0  0  0  0  0
    4.2083   -9.4689   -2.6968 C   0  0  0  0  0  0  0  0  0  0  0  0
    5.5605  -10.1060   -2.9021 C   0  0  0  0  0  0  0  0  0  0  0  0
    5.3105  -10.8525   -4.2222 C   0  0  0  0  0  0  0  0  0  0  0  0
    6.5038   -8.9866   -3.4090 C   0  0  0  0  0  0  0  0  0  0  0  0
   -6.8903   -2.2555   -6.4700 H   0  0  0  0  0  0  0  0  0  0  0  0
   -0.7362   -1.3630   -7.2718 H   0  0  0  0  0  0  0  0  0  0  0  0
   -3.2939   -5.1876   -9.3934 H   0  0  0  0  0  0  0  0  0  0  0  0
    0.0373   -5.9368   -9.2055 H   0  0  0  0  0  0  0  0  0  0  0  0
   -0.5391   -5.2711  -11.7197 H   0  0  0  0  0  0  0  0  0  0  0  0
    1.9859   -5.9910  -11.6024 H   0  0  0  0  0  0  0  0  0  0  0  0
    3.3609   -4.0059  -10.4905 H   0  0  0  0  0  0  0  0  0  0  0  0
    1.6864   -2.0620   -9.9364 H   0  0  0  0  0  0  0  0  0  0  0  0
   -0.7258   -2.7096  -10.9317 H   0  0  0  0  0  0  0  0  0  0  0  0
    0.5346   -2.8950  -12.1725 H   0  0  0  0  0  0  0  0  0  0  0  0
    1.3906   -3.9843   -8.1260 H   0  0  0  0  0  0  0  0  0  0  0  0
   -8.1173   -1.1954   -4.6752 H   0  0  0  0  0  0  0  0  0  0  0  0
   -9.8649    0.1034   -0.4609 H   0  0  0  0  0  0  0  0  0  0  0  0
  -12.2118   -0.7614   -0.9139 H   0  0  0  0  0  0  0  0  0  0  0  0
  -12.3477   -1.3065   -5.7112 H   0  0  0  0  0  0  0  0  0  0  0  0
  -14.0924   -1.6485   -5.7800 H   0  0  0  0  0  0  0  0  0  0  0  0
  -14.5957    0.7605   -5.3700 H   0  0  0  0  0  0  0  0  0  0  0  0
  -13.5835    0.5800   -6.8107 H   0  0  0  0  0  0  0  0  0  0  0  0
  -12.8668    1.1213   -5.2900 H   0  0  0  0  0  0  0  0  0  0  0  0
   -4.8848    4.8903   -2.2016 H   0  0  0  0  0  0  0  0  0  0  0  0
   -2.5362    5.7645   -2.6805 H   0  0  0  0  0  0  0  0  0  0  0  0
   -0.5430    2.2698   -5.3532 H   0  0  0  0  0  0  0  0  0  0  0  0
    1.0974    2.9658   -5.3260 H   0  0  0  0  0  0  0  0  0  0  0  0
   -0.2438    1.4632   -3.0127 H   0  0  0  0  0  0  0  0  0  0  0  0
    1.3518    2.2232   -2.9341 H   0  0  0  0  0  0  0  0  0  0  0  0
    1.0807    0.8560   -4.0173 H   0  0  0  0  0  0  0  0  0  0  0  0
   -5.2256    3.6464   -0.4049 H   0  0  0  0  0  0  0  0  0  0  0  0
   -7.7925    0.6744    2.2052 H   0  0  0  0  0  0  0  0  0  0  0  0
   -9.7403   -0.8228    2.4222 H   0  0  0  0  0  0  0  0  0  0  0  0
  -11.8611    0.0330    3.3309 H   0  0  0  0  0  0  0  0  0  0  0  0
  -12.5318    3.5780    4.0196 H   0  0  0  0  0  0  0  0  0  0  0  0
  -13.2448    1.9634    3.8918 H   0  0  0  0  0  0  0  0  0  0  0  0
  -13.2234    2.7470    6.2561 H   0  0  0  0  0  0  0  0  0  0  0  0
  -12.1896    1.3271    6.0606 H   0  0  0  0  0  0  0  0  0  0  0  0
  -11.4664    2.9295    6.1853 H   0  0  0  0  0  0  0  0  0  0  0  0
  -10.0978    3.8883    3.8109 H   0  0  0  0  0  0  0  0  0  0  0  0
    1.4581    0.2775    8.0488 H   0  0  0  0  0  0  0  0  0  0  0  0
    2.4885   -1.7422    8.9950 H   0  0  0  0  0  0  0  0  0  0  0  0
    4.9340   -1.8734    9.2790 H   0  0  0  0  0  0  0  0  0  0  0  0
    7.2125    0.9876    8.8073 H   0  0  0  0  0  0  0  0  0  0  0  0
    7.0500   -0.6379    9.4900 H   0  0  0  0  0  0  0  0  0  0  0  0
    7.1358    0.0204    6.5032 H   0  0  0  0  0  0  0  0  0  0  0  0
    6.9752   -1.5961    7.1879 H   0  0  0  0  0  0  0  0  0  0  0  0
    8.4599   -0.6760    7.4424 H   0  0  0  0  0  0  0  0  0  0  0  0
    5.3166    2.0817    7.7298 H   0  0  0  0  0  0  0  0  0  0  0  0
   -2.3993    6.5270    4.1724 H   0  0  0  0  0  0  0  0  0  0  0  0
   -3.6699    5.9239    3.1178 H   0  0  0  0  0  0  0  0  0  0  0  0
   -1.5436    4.7205    2.7012 H   0  0  0  0  0  0  0  0  0  0  0  0
   -1.5023    4.1678    4.3793 H   0  0  0  0  0  0  0  0  0  0  0  0
   -2.7857    3.6187    3.2995 H   0  0  0  0  0  0  0  0  0  0  0  0
   -0.2380    6.5461    5.0540 H   0  0  0  0  0  0  0  0  0  0  0  0
   -1.6831    7.2387    5.8588 H   0  0  0  0  0  0  0  0  0  0  0  0
    0.2982    8.4825    6.5413 H   0  0  0  0  0  0  0  0  0  0  0  0
   -0.3341    7.5888    7.9295 H   0  0  0  0  0  0  0  0  0  0  0  0
    1.1032    7.0091    7.0783 H   0  0  0  0  0  0  0  0  0  0  0  0
    4.5427    0.6462    5.7028 H   0  0  0  0  0  0  0  0  0  0  0  0
    7.1119   -2.3543    3.0636 H   0  0  0  0  0  0  0  0  0  0  0  0
    8.4123   -7.2363    6.4377 H   0  0  0  0  0  0  0  0  0  0  0  0
    6.9072   -8.0892    6.2151 H   0  0  0  0  0  0  0  0  0  0  0  0
    7.2782   -9.3562    8.3161 H   0  0  0  0  0  0  0  0  0  0  0  0
    8.7717   -8.4646    8.6027 H   0  0  0  0  0  0  0  0  0  0  0  0
    8.6432   -9.5532    7.2227 H   0  0  0  0  0  0  0  0  0  0  0  0
    8.0820   -6.1920   10.0288 H   0  0  0  0  0  0  0  0  0  0  0  0
    8.8080   -5.2713    8.7326 H   0  0  0  0  0  0  0  0  0  0  0  0
    8.0015   -3.7651   10.5181 H   0  0  0  0  0  0  0  0  0  0  0  0
    6.3650   -4.3978   10.3423 H   0  0  0  0  0  0  0  0  0  0  0  0
    7.0994   -3.4826    9.0281 H   0  0  0  0  0  0  0  0  0  0  0  0
    4.3774   -6.1081    8.9355 H   0  0  0  0  0  0  0  0  0  0  0  0
    4.5629   -7.6466    8.1350 H   0  0  0  0  0  0  0  0  0  0  0  0
    5.7429   -6.9092   10.8516 H   0  0  0  0  0  0  0  0  0  0  0  0
    5.9682   -8.4594   10.0516 H   0  0  0  0  0  0  0  0  0  0  0  0
    4.3595   -7.9618   10.5682 H   0  0  0  0  0  0  0  0  0  0  0  0
    4.4346   -4.0820    7.5466 H   0  0  0  0  0  0  0  0  0  0  0  0
    1.8850    5.0189   -2.9646 H   0  0  0  0  0  0  0  0  0  0  0  0
    1.2144    8.4244   -5.2072 H   0  0  0  0  0  0  0  0  0  0  0  0
    0.8706    6.8318   -4.5830 H   0  0  0  0  0  0  0  0  0  0  0  0
    2.4526    6.6723   -6.4575 H   0  0  0  0  0  0  0  0  0  0  0  0
    3.5721    7.7685   -5.6509 H   0  0  0  0  0  0  0  0  0  0  0  0
    3.2605    6.1739   -4.9717 H   0  0  0  0  0  0  0  0  0  0  0  0
    3.8897    9.6863   -1.9446 H   0  0  0  0  0  0  0  0  0  0  0  0
    4.4448    9.0463   -3.4688 H   0  0  0  0  0  0  0  0  0  0  0  0
    3.9961   11.4680   -3.6649 H   0  0  0  0  0  0  0  0  0  0  0  0
    2.8779   10.5687   -4.6883 H   0  0  0  0  0  0  0  0  0  0  0  0
    2.3287   11.2238   -3.1491 H   0  0  0  0  0  0  0  0  0  0  0  0
   -0.1207    8.0215   -1.9484 H   0  0  0  0  0  0  0  0  0  0  0  0
    0.1939    9.6405   -2.5236 H   0  0  0  0  0  0  0  0  0  0  0  0
    1.3662    8.4312    0.0225 H   0  0  0  0  0  0  0  0  0  0  0  0
    1.6617   10.0685   -0.5503 H   0  0  0  0  0  0  0  0  0  0  0  0
    0.0407    9.5923   -0.0482 H   0  0  0  0  0  0  0  0  0  0  0  0
    5.2146    4.6889    1.4039 H   0  0  0  0  0  0  0  0  0  0  0  0
    4.6930    0.8010   -1.4025 H   0  0  0  0  0  0  0  0  0  0  0  0
    4.6215   -1.1404   -2.7294 H   0  0  0  0  0  0  0  0  0  0  0  0
    6.6379   -6.8342   -1.0194 H   0  0  0  0  0  0  0  0  0  0  0  0
    4.7185   -5.8245   -5.5971 H   0  0  0  0  0  0  0  0  0  0  0  0
    6.5803   -8.7113   -5.6744 H   0  0  0  0  0  0  0  0  0  0  0  0
    4.3366   -9.7590   -5.9370 H   0  0  0  0  0  0  0  0  0  0  0  0
    2.7925   -8.6754   -4.1263 H   0  0  0  0  0  0  0  0  0  0  0  0
    3.7920   -9.2449   -1.7321 H   0  0  0  0  0  0  0  0  0  0  0  0
    5.9515  -10.6819   -2.0675 H   0  0  0  0  0  0  0  0  0  0  0  0
    6.2212  -11.2232   -4.6908 H   0  0  0  0  0  0  0  0  0  0  0  0
    4.5938  -11.6656   -4.1168 H   0  0  0  0  0  0  0  0  0  0  0  0
    7.5528   -9.2700   -3.3492 H   0  0  0  0  0  0  0  0  0  0  0  0
  1  2  2  0  0  0  0
  2  3  1  0  0  0  0
  3  4  2  0  0  0  0
  3  5  1  0  0  0  0
  5  6  2  0  0  0  0
  6  7  1  0  0  0  0
  7  8  2  0  0  0  0
  8  9  1  0  0  0  0
  9 10  2  0  0  0  0
 10 11  1  0  0  0  0
 11 12  2  0  0  0  0
 12 13  1  0  0  0  0
 13 14  3  0  0  0  0
 12 15  1  0  0  0  0
 15 16  3  0  0  0  0
  8 17  1  0  0  0  0
 17 18  1  0  0  0  0
 18 19  1  0  0  0  0
 19 20  2  0  0  0  0
 20 21  1  0  0  0  0
 21 22  1  0  0  0  0
 21 23  1  0  0  0  0
  1 24  1  0  0  0  0
 24 25  2  0  0  0  0
 25 26  1  0  0  0  0
 26 27  2  0  0  0  0
 27 28  1  0  0  0  0
 28 29  2  0  0  0  0
 29 30  1  0  0  0  0
 30 31  2  0  0  0  0
 31 32  1  0  0  0  0
 32 33  1  0  0  0  0
 33 34  1  0  0  0  0
 31 35  1  0  0  0  0
 27 36  1  0  0  0  0
 36 37  2  0  0  0  0
 37 38  1  0  0  0  0
 38 39  1  0  0  0  0
 39 40  2  0  0  0  0
 40 41  1  0  0  0  0
 41 42  2  0  0  0  0
 42 43  1  0  0  0  0
 43 44  1  0  0  0  0
 44 45  1  0  0  0  0
 42 46  1  0  0  0  0
 38 47  2  0  0  0  0
 47 48  1  0  0  0  0
 37 49  1  0  0  0  0
 49 50  2  0  0  0  0
 50 51  1  0  0  0  0
 50 52  1  0  0  0  0
 52 53  2  0  0  0  0
 53 54  1  0  0  0  0
 54 55  2  0  0  0  0
 55 56  1  0  0  0  0
 56 57  2  0  0  0  0
 57 58  1  0  0  0  0
 58 59  1  0  0  0  0
 59 60  1  0  0  0  0
 58 61  2  0  0  0  0
 53 62  1  0  0  0  0
 62 63  1  0  0  0  0
 63 64  1  0  0  0  0
 64 65  1  0  0  0  0
 65 66  1  0  0  0  0
 66 67  1  0  0  0  0
 67 68  2  0  0  0  0
 68 69  1  0  0  0  0
 69 70  1  0  0  0  0
 67 71  1  0  0  0  0
 71 72  1  0  0  0  0
 72 73  1  0  0  0  0
 73 74  1  0  0  0  0
 74 75  1  0  0  0  0
 75 76  1  0  0  0  0
 76 77  2  0  0  0  0
 77 78  1  0  0  0  0
 78 79  2  0  0  0  0
 79 80  1  0  0  0  0
 80 81  1  0  0  0  0
 81 82  1  0  0  0  0
 80 83  2  0  0  0  0
 75 84  2  0  0  0  0
 84 85  1  0  0  0  0
 85 86  1  0  0  0  0
 86 87  1  0  0  0  0
 87 88  1  0  0  0  0
 88 89  1  0  0  0  0
 89 90  1  0  0  0  0
 90 91  1  0  0  0  0
 91 92  1  0  0  0  0
 92 93  1  0  0  0  0
 93 94  1  0  0  0  0
 91 95  1  0  0  0  0
 95 96  1  0  0  0  0
 88 97  1  0  0  0  0
 97 98  1  0  0  0  0
 84 99  1  0  0  0  0
 99100  2  0  0  0  0
100101  1  0  0  0  0
101102  2  0  0  0  0
102103  1  0  0  0  0
103104  2  0  0  0  0
104105  1  0  0  0  0
105106  1  0  0  0  0
106107  1  0  0  0  0
107108  1  0  0  0  0
108109  1  0  0  0  0
109110  1  0  0  0  0
108111  1  0  0  0  0
111112  1  0  0  0  0
108113  1  0  0  0  0
113114  1  0  0  0  0
107115  2  0  0  0  0
115116  1  0  0  0  0
116117  1  0  0  0  0
102118  1  0  0  0  0
118119  2  0  0  0  0
119120  1  0  0  0  0
120121  1  0  0  0  0
121122  1  0  0  0  0
122123  1  0  0  0  0
123124  1  0  0  0  0
124125  2  0  0  0  0
125126  1  0  0  0  0
126127  1  0  0  0  0
127128  1  0  0  0  0
126129  1  0  0  0  0
129130  1  0  0  0  0
126131  1  0  0  0  0
131132  1  0  0  0  0
125133  1  0  0  0  0
133134  1  0  0  0  0
134135  1  0  0  0  0
120136  2  0  0  0  0
136137  1  0  0  0  0
119138  1  0  0  0  0
138139  2  0  0  0  0
139140  1  0  0  0  0
139141  1  0  0  0  0
141142  2  0  0  0  0
142143  1  0  0  0  0
143144  2  0  0  0  0
143145  1  0  0  0  0
145146  2  0  0  0  0
146147  1  0  0  0  0
147148  2  0  0  0  0
148149  1  0  0  0  0
149150  2  0  0  0  0
150151  1  0  0  0  0
151152  2  0  0  0  0
152153  1  0  0  0  0
153154  3  0  0  0  0
152155  1  0  0  0  0
155156  3  0  0  0  0
148157  1  0  0  0  0
157158  1  0  0  0  0
158159  1  0  0  0  0
159160  2  0  0  0  0
160161  1  0  0  0  0
161162  1  0  0  0  0
161163  1  0  0  0  0
 11  2  1  0  0  0  0
 23 17  1  0  0  0  0
 48 24  1  0  0  0  0
 94 52  1  0  0  0  0
137 99  1  0  0  0  0
151142  1  0  0  0  0
163157  1  0  0  0  0
 10  5  1  0  0  0  0
 22 18  1  0  0  0  0
 47 26  1  0  0  0  0
 61 54  1  0  0  0  0
 93 62  2  0  0  0  0
136101  1  0  0  0  0
150145  1  0  0  0  0
162158  1  0  0  0  0
 23  7  1  0  0  0  0
 35 28  1  0  0  0  0
 51 36  1  0  0  0  0
 92 64  2  0  0  0  0
117103  1  0  0  0  0
140118  1  0  0  0  0
163147  1  0  0  0  0
 46 39  1  0  0  0  0
 90 65  2  0  0  0  0
116105  2  0  0  0  0
135121  2  0  0  0  0
 70 66  2  0  0  0  0
 89 71  2  0  0  0  0
134123  2  0  0  0  0
 87 72  2  0  0  0  0
 86 74  2  0  0  0  0
 83 76  1  0  0  0  0
  1164  1  0  0  0  0
  6165  1  0  0  0  0
  9166  1  0  0  0  0
 17167  1  0  0  0  0
 18168  1  0  0  0  0
 19169  1  0  0  0  0
 20170  1  0  0  0  0
 21171  1  0  0  0  0
 22172  1  0  0  0  0
 22173  1  0  0  0  0
 23174  1  0  0  0  0
 25175  1  0  0  0  0
 29176  1  0  0  0  0
 30177  1  0  0  0  0
 33178  1  0  0  0  0
 33179  1  0  0  0  0
 34180  1  0  0  0  0
 34181  1  0  0  0  0
 34182  1  0  0  0  0
 40183  1  0  0  0  0
 41184  1  0  0  0  0
 44185  1  0  0  0  0
 44186  1  0  0  0  0
 45187  1  0  0  0  0
 45188  1  0  0  0  0
 45189  1  0  0  0  0
 49190  1  0  0  0  0
 55191  1  0  0  0  0
 56192  1  0  0  0  0
 57193  1  0  0  0  0
 59194  1  0  0  0  0
 59195  1  0  0  0  0
 60196  1  0  0  0  0
 60197  1  0  0  0  0
 60198  1  0  0  0  0
 61199  1  0  0  0  0
 77200  1  0  0  0  0
 78201  1  0  0  0  0
 79202  1  0  0  0  0
 81203  1  0  0  0  0
 81204  1  0  0  0  0
 82205  1  0  0  0  0
 82206  1  0  0  0  0
 82207  1  0  0  0  0
 83208  1  0  0  0  0
 95209  1  0  0  0  0
 95210  1  0  0  0  0
 96211  1  0  0  0  0
 96212  1  0  0  0  0
 96213  1  0  0  0  0
 97214  1  0  0  0  0
 97215  1  0  0  0  0
 98216  1  0  0  0  0
 98217  1  0  0  0  0
 98218  1  0  0  0  0
100219  1  0  0  0  0
104220  1  0  0  0  0
109221  1  0  0  0  0
109222  1  0  0  0  0
110223  1  0  0  0  0
110224  1  0  0  0  0
110225  1  0  0  0  0
111226  1  0  0  0  0
111227  1  0  0  0  0
112228  1  0  0  0  0
112229  1  0  0  0  0
112230  1  0  0  0  0
113231  1  0  0  0  0
113232  1  0  0  0  0
114233  1  0  0  0  0
114234  1  0  0  0  0
114235  1  0  0  0  0
115236  1  0  0  0  0
124237  1  0  0  0  0
127238  1  0  0  0  0
127239  1  0  0  0  0
128240  1  0  0  0  0
128241  1  0  0  0  0
128242  1  0  0  0  0
129243  1  0  0  0  0
129244  1  0  0  0  0
130245  1  0  0  0  0
130246  1  0  0  0  0
130247  1  0  0  0  0
131248  1  0  0  0  0
131249  1  0  0  0  0
132250  1  0  0  0  0
132251  1  0  0  0  0
132252  1  0  0  0  0
135253  1  0  0  0  0
138254  1  0  0  0  0
141255  1  0  0  0  0
146256  1  0  0  0  0
149257  1  0  0  0  0
157258  1  0  0  0  0
158259  1  0  0  0  0
159260  1  0  0  0  0
160261  1  0  0  0  0
161262  1  0  0  0  0
162263  1  0  0  0  0
162264  1  0  0  0  0
163265  1  0  0  0  0
M  END
