207

C        -11.09000        5.74010        7.25500
C        -10.19700        6.49950        7.93580
C         -8.73620        6.21500        8.01800
O         -8.16710        5.17440        7.76470
C         -8.13700        7.40790        8.64210
C         -6.77930        7.66090        8.82780
C         -6.51240        8.85400        9.45370
C         -7.52290        9.72740        9.88040
C         -8.86510        9.48380        9.71800
C         -9.16000        8.27720        9.07180
C        -10.45280        7.69540        8.72160
C        -11.67770        8.20090        9.06740
C        -11.87580        9.37020        9.83150
N        -12.11260       10.30980       10.44750
C        -12.91790        7.61270        8.74110
N        -13.96410        7.19340        8.52150
C         -6.53550       10.73130       10.42280
C         -6.28900       11.98920        9.56310
C         -4.97010       12.52400       10.07270
C         -4.01500       11.69800        9.66530
C         -4.67230       10.59070        8.87350
C         -5.82810       11.37260        8.23590
C         -5.41000        9.75880        9.94470
C        -10.70700        4.74910        6.28710
C        -11.40280        3.55910        6.13400
C        -10.99720        2.56740        5.25180
C         -9.87550        2.71910        4.44330
C         -9.17060        3.95810        4.53870
N         -8.07510        4.13980        3.79040
C         -7.44060        5.27920        3.85940
C         -7.94130        6.33290        4.64230
N         -8.99220        6.18160        5.40190
C         -9.60000        4.98320        5.42170
C         -9.35070        1.68860        3.60030
C         -9.93390        0.49300        3.19580
C        -11.34540        0.11790        3.31610
C        -11.69760       -1.14360        3.78560
C        -13.03010       -1.50810        3.84600
C        -14.01410       -0.62940        3.43030
C        -13.67940        0.63060        2.94670
C        -14.74140        1.56530        2.44310
C        -15.01380        1.31130        0.95920
C        -12.34300        0.99160        2.89060
C         -9.00770       -0.33120        2.53400
S         -9.14130       -1.92070        1.80770
C         -7.47200       -1.82440        1.35480
C         -6.49740       -2.58390        0.68880
C         -6.58690       -3.81330       -0.00000
C         -5.43460       -4.30290       -0.70120
N         -5.67570       -5.43400       -1.34530
S         -7.21980       -5.85090       -1.08650
N         -7.63950       -4.60280       -0.14490
C         -4.21810       -3.59450       -0.59450
C         -2.93110       -3.89220       -1.07080
S         -2.12340       -5.08230       -2.03590
C         -0.61020       -4.24720       -1.76380
C          0.71540       -4.50990       -2.17010
C          1.07860       -5.70900       -2.92800
C          2.14930       -6.51100       -2.53830
C          2.42180       -7.67650       -3.22720
C          1.62860       -8.06150       -4.29580
C          0.55450       -7.27760       -4.69430
C         -0.36530       -7.70870       -5.79950
C         -1.64440       -8.31140       -5.21450
C          0.29360       -6.10190       -4.00520
C          1.58210       -3.54510       -1.68860
S          0.77090       -2.33680       -0.70570
C         -0.74800       -3.11530       -0.95940
C         -2.07640       -2.91010       -0.56790
N         -2.78150       -2.00410        0.17640
C         -4.11120       -2.39670        0.16800
C         -5.28770       -1.83070        0.72530
N         -5.54290       -0.63140        1.36850
C         -6.85920       -0.62990        1.74180
C         -7.73440        0.22930        2.41510
S         -7.67810        1.82450        3.08330
C         -4.81390        0.61660        1.35160
C         -4.56670        1.10280       -0.07430
C         -2.07260       -1.13080        1.08490
C         -2.27100       -1.55280        2.53850
C          2.97390       -3.36280       -1.93610
C          3.73280       -3.83860       -2.96630
C          5.08690       -3.42770       -2.91390
C          6.11100       -3.71160       -3.83220
C          5.88670       -4.60900       -4.97090
C          5.28320       -5.85130       -4.79530
C          5.07800       -6.70740       -5.86000
C          5.46530       -6.34730       -7.14530
S          5.29800       -7.33410       -8.59390
C          4.29170       -8.76150       -8.06420
C          2.82870       -8.40290       -7.88510
C          6.07130       -5.09910       -7.30680
F          6.45020       -4.71660       -8.54220
C          6.28690       -4.24050       -6.25440
C          7.34430       -3.11320       -3.60410
C          7.58770       -2.25700       -2.49650
C          6.55900       -1.96740       -1.57380
C          6.75790       -1.03760       -0.45840
C          7.31310        0.22520       -0.66950
C          7.44510        1.11690        0.37120
C          7.04470        0.78830        1.66730
S          7.28670        2.01250        2.91280
C          5.94410        1.69140        4.12650
C          5.66800        2.96800        4.89610
C          6.52520       -0.48700        1.86940
C          6.36490       -1.38120        0.83070
F          6.16440       -0.90450        3.10440
C          5.34130       -2.57860       -1.80310
S          3.90350       -2.35320       -0.84180
C          8.92440       -1.83060       -2.46320
C          9.69660       -2.31040       -3.50470
S          8.77250       -3.34670       -4.57370
C         11.05340       -1.94310       -3.64170
C         11.97100       -2.27190       -4.59650
C         11.75110       -3.17650       -5.74050
O         10.73290       -3.77560       -6.02690
C         13.02390       -3.22380       -6.47720
C         13.29010       -3.95210       -7.63520
C         14.57050       -3.79830       -8.10860
C         15.51880       -2.98400       -7.47390
C         15.27070       -2.26600       -6.32870
C         13.97020       -2.40280       -5.83100
C         13.34280       -1.79530       -4.65980
C         13.95360       -0.91960       -3.79980
C         13.35750       -0.30400       -2.67880
N         12.96000        0.24440       -1.75080
C         15.29180       -0.48650       -3.91480
N         16.36750       -0.08570       -3.93990
C         16.58410       -3.29010       -8.49680
C         16.85760       -2.19840       -9.55320
C         17.56180       -2.94090      -10.66590
C         16.66520       -3.71300      -11.26640
C         15.33960       -3.50510      -10.57010
C         15.47170       -2.02510      -10.18810
C         15.52730       -4.19840       -9.20370
H        -12.15240        5.88440        7.39930
H         -6.03510        6.95560        8.49240
H         -9.62950       10.16200       10.05860
H         -6.61760       10.95090       11.48550
H         -7.12050       12.68780        9.52980
H         -4.87670       13.38870       10.70300
H         -2.96450       11.73470        9.88710
H         -4.03050       10.01500        8.21170
H         -6.57650       10.74550        7.75490
H         -5.47670       12.12580        7.53250
H         -4.73920        9.33150       10.68780
H        -12.25570        3.37150        6.77010
H        -11.54540        1.63950        5.22890
H         -6.54370        5.37890        3.26450
H         -7.48290        7.31280        4.63590
H        -10.92960       -1.82640        4.11590
H        -13.30120       -2.48480        4.21820
H        -15.05310       -0.92150        3.47920
H        -14.41920        2.59970        2.57930
H        -15.66330        1.41670        3.00870
H        -14.10840        1.46670        0.37680
H        -15.78360        1.98640        0.59260
H        -15.34680        0.28740        0.80530
H        -12.06480        1.96460        2.51000
H          2.74960       -6.22590       -1.68710
H          3.24850       -8.30020       -2.91840
H          1.83860       -8.98590       -4.81480
H          0.12720       -8.44890       -6.43210
H         -0.62510       -6.84810       -6.41970
H         -2.31890       -8.61600       -6.01110
H         -1.40750       -9.18240       -4.60740
H         -2.15390       -7.58590       -4.58460
H         -0.53360       -5.47980       -4.31390
H         -5.43850        1.34380        1.87610
H         -3.88430        0.52880        1.91460
H         -4.01350        0.36670       -0.65300
H         -5.51610        1.28180       -0.57340
H         -4.00420        2.03250       -0.05690
H         -1.01320       -1.21230        0.82930
H         -2.35950       -0.09130        0.92430
H         -1.73550       -0.87480        3.19760
H         -3.32400       -1.55080        2.81000
H         -1.88460       -2.55830        2.68830
H          3.32580       -4.43260       -3.76340
H          4.99030       -6.16820       -3.80590
H          4.61680       -7.66300       -5.67160
H          4.41650       -9.47650       -8.87760
H          4.73310       -9.18280       -7.16200
H          2.42760       -7.99550       -8.81010
H          2.69780       -7.66190       -7.09920
H          2.26190       -9.29520       -7.62520
H          6.74770       -3.28500       -6.44560
H          7.60530        0.51970       -1.66570
H          7.85940        2.09820        0.20000
H          6.26460        0.89180        4.79260
H          5.06810        1.37470        3.56290
H          6.56020        3.29520        5.42480
H          5.35730        3.76210        4.22060
H          4.87630        2.79460        5.62200
H          5.96170       -2.35740        1.05060
H          9.32970       -1.19840       -1.69270
H         11.38450       -1.28160       -2.85010
H         12.52940       -4.56900       -8.08730
H         16.01470       -1.65060       -5.85170
H         17.49350       -3.74830       -8.11300
H         17.34910       -1.30810       -9.17050
H         18.61620       -2.87200      -10.85940
H         16.82090       -4.41800      -12.06170
H         14.44820       -3.80500      -11.11420
H         14.70690       -1.67470       -9.49750
H         15.49800       -1.37590      -11.06170
H         15.73080       -5.26390       -9.29110
