194

C          8.55210      -10.69420        1.32420
C          9.52680       -9.80800        1.61290
C         10.96530      -10.19960        1.51990
O         11.40830      -11.18280        0.97420
C         11.69950       -9.16930        2.27640
C         13.06260       -9.15080        2.57160
C         13.46190       -8.06470        3.31230
C         12.56930       -7.07650        3.75310
C         11.22530       -7.07860        3.47020
C         10.80240       -8.16190        2.69290
C          9.48220       -8.45300        2.14490
C          8.49100       -7.53110        1.95210
C          7.32510       -7.73860        1.18310
N          6.38680       -7.78910        0.52430
C          8.54910       -6.20090        2.42080
N          8.52970       -5.11440        2.79040
C         13.65350       -6.29270        4.44800
C         14.14730       -5.02130        3.72560
C         15.49140       -4.74400        4.35910
C         16.33750       -5.67310        3.93300
C         15.57940       -6.59430        3.00410
C         14.60450       -5.58990        2.37600
C         14.65020       -7.38750        3.94840
C          7.14410      -10.55430        1.62840
C          6.18750      -10.92480        0.67160
C          4.86860      -10.62830        0.91730
C          3.69280      -10.74980        0.01020
O          3.64050      -11.28740       -1.06870
C          2.59580      -10.06190        0.74390
C          3.05190       -9.69230        2.02560
C          4.46310      -10.03010        2.12680
C          5.39140       -9.77180        3.11860
C          6.72740      -10.01930        2.85100
C          2.20900       -9.01930        2.88820
C          0.94630       -8.66680        2.43810
C          0.50630       -8.97670        1.14830
C          1.34480       -9.71590        0.29560
C         -0.73080       -8.40720        0.65590
C         -1.58980       -8.84540       -0.33280
C         -1.54450      -10.18260       -0.92340
C         -1.78290      -10.36970       -2.28230
C         -1.69660      -11.63670       -2.82740
C         -1.36280      -12.72030       -2.03360
C         -1.13670      -12.55460       -0.67280
C         -0.71160      -13.70440        0.19390
C          0.78860      -13.61710        0.48440
C         -1.24760      -11.28580       -0.12730
C         -2.52900       -7.84370       -0.67470
S         -3.79680       -7.73520       -1.87710
C         -4.08540       -6.09020       -1.41140
C         -4.81380       -4.96200       -1.84120
C         -5.61610       -4.69800       -2.97600
C         -5.97380       -3.33490       -3.28790
N         -6.63150       -3.23890       -4.43190
S         -6.80140       -4.72140       -5.05880
N         -6.03460       -5.54880       -3.89890
C         -5.64950       -2.30530       -2.37430
C         -5.86200       -0.91270       -2.34760
S         -6.40820        0.35710       -3.39380
C         -5.99030        1.52460       -2.16240
C         -5.98540        2.92710       -2.13610
C         -6.40210        3.80870       -3.23940
C         -7.64360        4.43280       -3.20880
C         -7.98620        5.32260       -4.21040
C         -7.09470        5.60140       -5.23030
C         -5.85690        4.97240       -5.28230
C         -4.90880        5.25070       -6.41120
C         -5.20250        4.32770       -7.59520
C         -5.52640        4.06390       -4.28810
C         -5.48720        3.41070       -0.93880
S         -5.05110        2.12420        0.17990
C         -5.49600        0.93750       -0.99220
C         -5.41270       -0.45130       -1.10350
N         -4.91540       -1.49350       -0.36120
C         -5.00540       -2.62310       -1.15160
C         -4.44520       -3.90340       -0.97340
N         -3.49670       -4.34730       -0.06860
C         -3.27530       -5.67140       -0.35260
C         -2.38840       -6.66950        0.06340
S         -1.11460       -6.78800        1.21720
C         -2.42000       -3.55980        0.49900
C         -1.24400       -3.45630       -0.47180
C         -4.94290       -1.46420        1.08710
C         -6.33770       -1.12000        1.60860
C         -5.17280        4.75190       -0.59770
C         -4.66650        5.21050        0.58990
C         -4.30750        6.57550        0.56820
C         -3.75690        7.35680        1.60440
C         -3.44240        6.77920        2.89560
C         -2.85890        5.56940        3.15450
C         -2.67470        5.32760        4.52930
Cl        -1.91150        3.89890        5.10980
C         -3.13920        6.33650        5.33230
S         -3.11630        6.48670        7.07180
C         -3.80410        4.85630        7.59210
C         -4.72250        5.05280        8.78150
S         -3.79630        7.62590        4.37460
C         -3.50420        8.69510        1.31830
C         -3.76020        9.27650        0.04570
C         -4.34730        8.50180       -0.98780
C         -4.68790        9.06670       -2.27400
S         -4.52010        8.13830       -3.73830
C         -5.16360        9.43200       -4.69730
S         -5.36000        9.21390       -6.42040
C         -4.29360       10.56180       -7.05950
C         -2.84150       10.34650       -6.68670
C         -5.47990       10.50810       -3.90940
C         -5.19960       10.30850       -2.54430
Cl        -6.18420       11.96140       -4.49770
C         -4.58110        7.16780       -0.69390
S         -5.27550        6.01720       -1.80130
C         -3.29550       10.59500       -0.01190
C         -2.72360       11.05000        1.16670
S         -2.75620        9.82000        2.41340
C         -2.17720       12.34270        1.26530
C         -1.57160       12.97880        2.31690
C         -1.39040       12.42620        3.66990
O         -1.71620       11.32830        4.07150
C         -0.72840       13.48710        4.45300
C         -0.34160       13.48870        5.78530
Cl        -0.61030       12.12600        6.78720
C          0.27450       14.62560        6.30250
C          0.48410       15.71970        5.47950
Br         1.32380       17.25410        6.20740
C          0.10410       15.73990        4.14110
C         -0.50720       14.60830        3.63130
C         -1.01540       14.31540        2.28860
C         -0.94210       15.16890        1.21800
C         -1.40590       14.90020       -0.08740
N         -1.74830       14.76850       -1.17610
C         -0.37180       16.45910        1.26560
N          0.07550       17.51570        1.23190
H          8.86680      -11.60800        0.83110
H         13.71420       -9.93790        2.22610
H         10.54670       -6.31940        3.82240
H         13.52680       -6.15270        5.51970
H         13.43390       -4.20200        3.70890
H         15.66880       -3.95900        5.07050
H         17.36290       -5.81940        4.21740
H         16.17290       -7.20580        2.33000
H         13.80710       -6.04760        1.79340
H         15.11630       -4.84530        1.76880
H         15.19460       -7.97460        4.68560
H          6.48930      -11.35750       -0.27000
H          5.09450       -9.34830        4.06610
H          7.47160       -9.79610        3.60320
H          2.52830       -8.74220        3.88140
H          0.28860       -8.11010        3.09090
H          1.03850       -9.96060       -0.70900
H         -2.01260       -9.52310       -2.91100
H         -1.87820      -11.77760       -3.88250
H         -1.27820      -13.70350       -2.47300
H         -0.93020      -14.64900       -0.30700
H         -1.26240      -13.68220        1.13740
H          1.01860      -12.70530        1.03210
H          1.11200      -14.46930        1.07790
H          1.35500      -13.60370       -0.44390
H         -1.09640      -11.14790        0.93400
H         -8.32590        4.22840       -2.39670
H         -8.94870        5.81170       -4.18560
H         -7.35400        6.32180       -5.99240
H         -3.88120        5.09600       -6.07700
H         -5.01500        6.29010       -6.72690
H         -4.51380        4.52740       -8.41260
H         -5.09900        3.28600       -7.29900
H         -6.21820        4.48230       -7.95140
H         -4.56460        3.57080       -4.30620
H         -2.10010       -4.04730        1.42440
H         -2.77200       -2.55700        0.72500
H         -0.46220       -2.84130       -0.03540
H         -1.56880       -3.00110       -1.40530
H         -0.83060       -4.43750       -0.68860
H         -4.66960       -2.45110        1.46040
H         -4.22370       -0.71900        1.44410
H         -7.06880       -1.82660        1.22170
H         -6.62850       -0.11680        1.31010
H         -6.34170       -1.17140        2.69380
H         -4.56670        4.57850        1.45320
H         -2.50960        4.89400        2.39560
H         -4.34170        4.45280        6.73660
H         -2.96700        4.20570        7.84160
H         -5.54400        5.71660        8.52280
H         -5.13070        4.09360        9.09350
H         -4.17730        5.48760        9.61570
H         -4.43990       10.52460       -8.13810
H         -4.67780       11.50400       -6.67420
H         -2.23000       11.13180       -7.12590
H         -2.49150        9.38390       -7.05310
H         -2.71350       10.37370       -5.60610
H         -5.43500       11.03850       -1.79210
H         -3.33170       11.20530       -0.89640
H         -2.25830       12.90250        0.34130
H          0.58370       14.64910        7.33520
H          0.28860       16.61650        3.54280
