177

C         -1.17830       -9.33300       -8.93840
C         -2.43940       -9.68140       -9.35730
C         -3.68530       -9.43990       -8.62360
O         -3.82700       -8.83570       -7.57380
C         -4.75640      -10.08630       -9.40310
C         -6.11010      -10.14500       -9.08040
C         -6.87400      -10.82560       -9.99810
C         -6.33180      -11.39900      -11.15520
C         -4.99860      -11.34480      -11.48680
C         -4.20150      -10.66270      -10.56280
C         -2.76130      -10.40320      -10.56940
C         -1.89890      -10.76610      -11.57450
C         -0.51980      -10.47810      -11.62250
N          0.60540      -10.27890      -11.74770
C         -2.27320      -11.47750      -12.73280
N         -2.49460      -12.05860      -13.69860
C         -7.66750      -11.92790      -11.61650
C         -7.92100      -13.43560      -11.40720
C         -9.42480      -13.56520      -11.48940
C         -9.93690      -13.02560      -10.39060
C         -8.78770      -12.52170       -9.54750
C         -7.72660      -13.57500       -9.89170
C         -8.27170      -11.29120      -10.32390
C         -0.75600       -8.63600       -7.80140
S         -1.76900       -7.92130       -6.55990
C         -0.37530       -7.34140       -5.74890
C         -0.24860       -6.57910       -4.56870
C          1.04390       -6.25620       -4.16100
Si         2.28170       -6.96770       -5.40450
C          3.18790       -5.58970       -6.36460
C          2.22910       -4.60740       -7.03150
C          3.44250       -8.27650       -4.65050
C          4.42220       -7.67750       -3.64710
C          0.83140       -7.68660       -6.38080
C          0.60120       -8.40520       -7.53120
C          1.04320       -5.49320       -2.99950
C         -0.22490       -5.23320       -2.50590
S         -1.45950       -5.94660       -3.51300
C         -0.52750       -4.41760       -1.38250
C         -1.73730       -4.14690       -0.76940
C         -3.01110       -4.82320       -1.02860
C         -3.10160       -6.21130       -0.97320
C         -4.32270       -6.82760       -1.16650
C         -5.45690       -6.07060       -1.40320
C         -5.38610       -4.68420       -1.44660
C         -6.62270       -3.85310       -1.62900
C         -7.20410       -3.47030       -0.26620
C         -4.15710       -4.07100       -1.25550
C         -1.60390       -3.14430        0.21180
S         -2.76320       -2.36800        1.26410
C         -1.48230       -1.40660        1.92290
C         -1.30130       -0.35240        2.83220
C         -2.23890        0.42100        3.55060
C         -1.77740        1.56790        4.27830
N         -2.76740        2.24020        4.84440
S         -4.15980        1.49000        4.49840
N         -3.55400        0.28040        3.60820
C         -0.38970        1.81670        4.35080
C          0.33800        2.78870        5.05600
S          0.05490        4.18890        6.03210
C          1.78150        4.38820        6.20450
C          2.56350        5.33360        6.90450
C          1.95910        6.32740        7.78940
C          2.42180        6.48010        9.09290
C          1.73850        7.30120        9.97040
C          0.60090        7.97230        9.55930
C          0.13960        7.84980        8.25410
C         -1.11500        8.54030        7.80780
C         -2.30680        7.58630        7.91050
C          0.82540        7.02250        7.37960
C          3.90950        5.06700        6.76050
S          4.21470        3.62420        5.79510
C          2.51870        3.40190        5.54880
C          1.69060        2.49140        4.87950
N          1.83110        1.39600        4.06960
C          0.56030        0.97060        3.71320
C          0.08990       -0.05210        2.84740
N          0.72410       -0.88600        1.93960
C         -0.22940       -1.68880        1.37430
C         -0.30120       -2.67630        0.38410
S          0.79060       -3.46340       -0.70000
C          2.01730       -0.75940        1.30740
C          2.17730        0.59410        0.61970
C          3.08800        0.68130        4.04720
C          2.97520       -0.67580        4.73700
C          5.07240        5.79640        7.16160
C          6.33370        5.28910        7.43540
C          7.17020        6.38840        7.60090
C          6.38720        7.52150        7.41390
O          5.10240        7.14260        7.16690
C          6.84750        8.84940        7.27130
C          6.16440        9.99140        6.98750
C          6.86550       11.13450        6.34400
O          8.06220       11.29900        6.26140
C          5.79200       11.97550        5.77700
C          5.93910       13.09830        4.96570
C          4.75060       13.66240        4.56820
C          3.50170       13.14400        4.93720
C          3.33950       12.03980        5.74000
C          4.53660       11.46040        6.16550
C          4.76140       10.32360        7.05360
C          3.88930        9.84320        7.99500
C          4.33370        8.98730        9.02220
N          4.72600        8.36180        9.90090
C          2.56040       10.28510        8.12370
N          1.47790       10.64430        8.25540
C          2.74760       14.20830        4.18000
C          2.11760       15.36170        4.99900
C          2.94230       15.49420        6.25550
C          4.12430       15.98880        5.91300
C          4.12050       16.19870        4.41890
C          2.64380       16.56520        4.20090
C          4.13870       14.78990        3.77500
H         -0.35470       -9.64370       -9.57000
H         -6.48540       -9.68250       -8.18090
H         -4.60000      -11.79090      -12.38230
H         -8.01190      -11.56790      -12.58410
H         -7.33710      -14.08870      -12.05000
H         -9.94660      -13.97190      -12.33570
H        -10.97200      -12.89160      -10.13570
H         -8.99400      -12.34340       -8.49550
H         -6.72480      -13.32450       -9.54800
H         -7.99820      -14.56590       -9.53130
H         -9.02210      -10.50970      -10.42960
H          3.82870       -6.03770       -7.12460
H          3.84490       -5.04330       -5.68720
H          1.58410       -5.12330       -7.73850
H          2.77860       -3.83670       -7.56820
H          1.59790       -4.12450       -6.28920
H          4.00190       -8.76770       -5.44640
H          2.85450       -9.05130       -4.15780
H          3.88790       -7.20000       -2.82970
H          5.06520       -8.44960       -3.22910
H          5.05320       -6.93220       -4.12460
H          1.37350       -8.76880       -8.18660
H          1.93150       -5.12610       -2.51490
H         -2.21940       -6.79860       -0.76400
H         -4.39170       -7.90450       -1.12550
H         -6.40840       -6.56050       -1.55140
H         -7.36760       -4.41390       -2.19670
H         -6.38060       -2.94490       -2.18430
H         -7.46690       -4.36340        0.29650
H         -8.09720       -2.86240       -0.39040
H         -6.47510       -2.90580        0.31090
H         -4.08610       -2.99340       -1.29260
H          3.29640        5.93900        9.42200
H          2.09740        7.41170       10.98250
H          0.06930        8.60580       10.25370
H         -1.29100        9.41900        8.42870
H         -1.00500        8.87030        6.77300
H         -2.14620        6.70940        7.28690
H         -2.43680        7.25410        8.93810
H         -3.21970        8.08130        7.58740
H          0.47860        6.92040        6.36110
H          2.81660       -0.94180        2.02660
H          2.07410       -1.55240        0.55750
H          1.42680        0.70400       -0.15960
H          3.16170        0.66510        0.16490
H          2.05490        1.41180        1.32570
H          3.45840        0.58210        3.02580
H          3.80600        1.30260        4.58850
H          3.92810       -1.19600        4.69040
H          2.21300       -1.29380        4.26850
H          2.70520       -0.53980        5.78170
H          6.59030        4.25130        7.50200
H          8.21780        6.38170        7.82260
H          7.92820        8.93780        7.23970
H          6.91760       13.46460        4.69730
H          2.37660       11.64100        6.01550
H          2.09210       13.85590        3.38590
H          1.04260       15.28250        5.13690
H          2.61210       15.16930        7.22470
H          4.97970       16.16100        6.53970
H          4.86910       16.88300        4.02810
H          2.37580       17.51940        4.65190
H          2.34450       16.55620        3.15360
H          4.39020       14.82160        2.71650
