290

C          2.27940      -13.61490        5.50340
C          3.05850      -14.42790        6.24690
C          4.54870      -14.31060        6.34740
O          5.30330      -13.88850        5.50200
C          4.89640      -14.99050        7.60790
C          6.13220      -14.99490        8.24960
C          6.15500      -15.71880        9.41640
C          5.03070      -16.39610        9.91160
C          3.80820      -16.40750        9.28680
C          3.76280      -15.67600        8.09470
C          2.64120      -15.45020        7.19070
C          1.42810      -16.08260        7.22380
C          0.38920      -15.85120        6.29740
N         -0.48920      -15.70890        5.57200
C          1.07470      -17.08110        8.15520
N          0.72730      -17.90240        8.87820
C          5.77550      -16.91580       11.11560
C          6.22730      -18.39700       11.09680
C          6.38680      -18.77750        9.64560
C          7.44990      -18.13950        9.17450
C          8.02870      -17.31650       10.29890
C          7.70180      -18.22450       11.49510
C          7.02750      -16.16430       10.56300
C          2.74570      -12.44100        4.83200
S          1.99190      -12.02100        3.32440
C          2.95460      -10.57540        3.15920
C          3.80330      -10.43440        4.25840
C          4.72860       -9.32920        4.43420
O          5.03430       -8.55510        3.53190
C          5.29710       -9.21870        5.77310
C          6.08100       -8.17730        6.20080
C          6.50750       -6.96000        5.46270
C          7.75720       -7.23930        4.62290
S          6.60990       -8.44180        7.82860
C          5.76990       -9.94910        7.94100
C          5.81640      -10.73660        9.19970
C          4.58780      -10.45140       10.06840
C          5.09620      -10.22090        6.77420
C          4.28390      -11.41140        6.55090
O          4.09970      -12.24580        7.42970
C          3.66480      -11.47950        5.21890
C          2.69300       -9.73580        2.05070
C          1.57550       -9.86290        1.23280
C          1.50630       -8.86470        0.27430
S          0.29900       -8.37820       -0.89030
C          1.25220       -6.97620       -1.25620
C          1.08030       -5.74920       -1.94700
C          2.16590       -4.92230       -1.70640
C          3.23060       -5.67380       -0.93430
C          2.45640       -6.92260       -0.56840
C          2.60420       -7.98610        0.31330
S          3.70190       -8.37500        1.58180
C          4.35050       -6.16040       -1.84360
C          5.30360       -7.04350       -1.34740
C          6.32770       -7.49970       -2.15460
C          6.41690       -7.11060       -3.48490
C          7.57120       -7.54600       -4.34010
C          8.70860       -6.52670       -4.24420
C          5.43750       -6.26720       -3.98820
C          4.41470       -5.80070       -3.18260
C          3.67810       -4.95880        0.32410
C          5.00430       -4.81300        0.69820
C          5.33120       -4.22780        1.90780
C          4.34890       -3.77200        2.77300
C          4.70910       -3.11530        4.07490
C          4.80780       -1.59870        3.90220
C          3.02080       -3.89850        2.38500
C          2.68960       -4.48720        1.18190
C          1.95260       -3.59710       -2.15390
C          2.72370       -2.43080       -2.00190
C          4.06310       -2.38680       -1.42590
C          4.46010       -1.68480       -0.32620
C          5.85040       -1.74620       -0.10280
C          6.51660       -2.47040       -1.04080
C          7.97500       -2.76060       -1.13890
C          8.58010       -2.19480       -2.42350
S          5.42540       -3.10110       -2.22800
C          2.14470       -1.23490       -2.39780
S          2.95600        0.31060       -2.22250
C          1.54520        1.09430       -2.83160
C          1.14140        2.43910       -3.01680
C         -0.17230        2.45800       -3.46180
C         -0.71890        1.04060       -3.56540
C         -1.82420        0.93040       -2.52890
C         -2.98540        1.68110       -2.67910
C         -3.97510        1.66170       -1.71560
C         -3.83740        0.89700       -0.56410
C         -4.88050        0.93310        0.51470
C         -4.59990        2.08380        1.48410
C         -2.67710        0.15220       -0.41220
C         -1.68290        0.16920       -1.37600
C         -1.13520        0.75450       -4.99810
C         -0.15970        0.86000       -5.98510
C         -0.47060        0.65000       -7.31280
C         -1.76970        0.34350       -7.69890
C         -2.12020        0.18100       -9.15010
C         -2.39170        1.54410       -9.78940
C         -2.73720        0.23600       -6.71240
C         -2.42610        0.42410       -5.37700
C          0.51280        0.24450       -3.17470
C          0.84620       -1.11740       -2.97070
C          0.11660       -2.29260       -3.20600
C          0.67170       -3.48250       -2.76670
S         -0.20820       -4.99890       -2.81780
C         -1.16070       -2.35010       -3.91780
C         -2.43260       -2.30550       -3.44620
C         -3.40350       -2.56910       -4.44060
C         -2.87160       -2.83050       -5.66190
C         -3.54050       -3.18130       -6.94930
C         -5.05370       -3.00610       -6.90760
S         -1.13910       -2.74180       -5.61520
C         -0.63060        3.77000       -3.60140
C          0.34410        4.71890       -3.26300
S          1.84830        3.99980       -2.78640
C         -0.10970        6.04040       -3.27640
C         -1.43530        6.12390       -3.62120
S         -2.11370        4.55160       -4.01660
C         -2.28910        7.26000       -3.47240
C         -2.31790        8.10980       -2.37370
N         -1.55260        7.97730       -1.23030
C         -1.19590        6.71420       -0.73610
C         -2.07450        5.63570       -0.80950
C         -1.66740        4.37700       -0.41280
C         -0.38920        4.16150        0.08670
C          0.06290        2.79260        0.49150
C          0.46240        5.25320        0.21200
C          0.07250        6.51220       -0.19570
C         -1.19260        9.13510       -0.52070
C         -0.80840       10.28710       -1.20150
C         -0.49590       11.43480       -0.50130
C         -0.54490       11.46320        0.88650
C         -0.24710       12.72520        1.63570
C         -0.90450       10.30120        1.55810
C         -1.22800        9.14960        0.87030
C         -3.30590        9.11220       -2.53360
S         -3.86470       10.38560       -1.51160
C         -5.10250       10.80430       -2.70100
C         -5.10030        9.91350       -3.80600
N         -6.00020        9.91870       -4.83830
C         -5.57200        9.47700       -6.10550
C         -6.35300        8.60220       -6.85400
C         -5.91920        8.17920       -8.09430
C         -4.70540        8.61040       -8.61680
C         -4.22660        8.12400       -9.94960
C         -3.93560        9.48860       -7.86330
C         -4.35940        9.92300       -6.62380
C         -7.36230       10.22180       -4.65560
C         -8.06690       10.88460       -5.65730
C         -9.40190       11.18670       -5.47730
C        -10.06360       10.85070       -4.30220
C        -11.49830       11.23190       -4.10500
C         -9.35650       10.17010       -3.31760
C         -8.02560        9.84670       -3.48950
C         -4.04830        8.98750       -3.70050
S         -3.53510        7.62930       -4.65340
C         -5.92410       11.92680       -2.62610
C         -6.09800       12.84240       -1.61190
C         -5.49210       12.79160       -0.28070
O         -4.63760       12.02220        0.12720
C         -6.13270       13.86180        0.50600
C         -5.89030       14.18140        1.83940
C         -6.65000       15.22560        2.30990
C         -7.57980       15.90310        1.51160
C         -7.82220       15.60180        0.19160
C         -7.06230       14.53980       -0.30640
C         -7.02570       13.94710       -1.64450
C         -7.73880       14.39880       -2.73000
C         -8.70140       15.42560       -2.68230
N         -9.51580       16.23550       -2.71930
C         -7.59580       13.93780       -4.05220
N         -7.51800       13.65410       -5.16420
C         -7.98980       16.82660        2.63250
C         -9.32980       16.51230        3.33050
C         -9.23330       17.24800        4.64740
C         -8.35100       16.60750        5.40380
C         -7.83660       15.42810        4.61060
C         -9.09910       15.07470        3.81400
C         -6.95110       16.07170        3.52260
H          1.22050      -13.81770        5.40170
H          6.97220      -14.45750        7.83740
H          2.94990      -16.92680        9.68040
H          5.38530      -16.61300       12.08530
H          5.61860      -19.06210       11.70320
H          5.69780      -19.40600        9.11270
H          7.82670      -18.12820        8.16860
H          9.06120      -16.99850       10.17900
H          8.25560      -19.16180       11.47580
H          7.83680      -17.73710       12.45980
H          7.45800      -15.37230       11.17300
H          6.71400       -6.15840        6.17520
H          5.70250       -6.65010        4.79260
H          8.07460       -6.32920        4.12170
H          8.57020       -7.59730        5.25100
H          7.53130       -7.98840        3.86930
H          5.82500      -11.79960        8.94850
H          6.72400      -10.48640        9.75280
H          4.65690      -11.00710       10.99950
H          4.51770       -9.39000       10.29690
H          3.68760      -10.76280        9.54570
H          0.83600      -10.63150        1.37100
H          5.24790       -7.37690       -0.32190
H          7.06570       -8.17400       -1.74380
H          7.25160       -7.63180       -5.38040
H          7.93240       -8.52220       -4.01050
H          9.05270       -6.44060       -3.21580
H          9.54720       -6.83000       -4.86680
H          8.36620       -5.54800       -4.57300
H          5.47310       -5.96510       -5.02500
H          3.67230       -5.14170       -3.60630
H          5.79560       -5.14960        0.04770
H          6.37200       -4.13190        2.18260
H          5.66720       -3.50060        4.43010
H          3.94990       -3.34260        4.82650
H          5.57320       -1.35250        3.17020
H          3.86010       -1.19520        3.55300
H          5.06240       -1.12140        4.84590
H          2.23700       -3.54360        3.03970
H          1.64990       -4.59150        0.90310
H          3.77310       -1.16820        0.31980
H          6.33800       -1.26470        0.72610
H          8.47650       -2.32880       -0.27000
H          8.13200       -3.84330       -1.11950
H          8.44590       -1.11620       -2.46180
H          9.64350       -2.41630       -2.47150
H          8.09280       -2.63420       -3.29090
H         -3.11700        2.29720       -3.55480
H         -4.86550        2.25740       -1.85870
H         -4.87830       -0.01010        1.06480
H         -5.86900        1.06890        0.07120
H         -3.61710        1.96730        1.93590
H         -5.34590        2.10560        2.27510
H         -4.62260        3.03690        0.96020
H         -2.54070       -0.44860        0.47630
H         -0.79360       -0.42040       -1.21450
H          0.85490        1.10740       -5.70640
H          0.30500        0.72780       -8.06120
H         -3.01000       -0.44440       -9.25120
H         -1.29720       -0.30690       -9.67680
H         -2.64750        1.42840      -10.84020
H         -1.51250        2.17970       -9.71310
H         -3.21630        2.04060       -9.28260
H         -3.75460       -0.00370       -6.98640
H         -3.19970        0.29420       -4.63710
H         -2.67520       -2.09360       -2.42040
H         -4.45820       -2.56720       -4.23390
H         -3.30360       -4.22120       -7.19800
H         -3.11590       -2.55990       -7.74310
H         -5.49780       -3.67930       -6.17880
H         -5.31490       -1.98510       -6.64010
H         -5.48000       -3.22840       -7.88310
H          0.49560        6.89370       -3.03330
H         -3.07180        5.78470       -1.19730
H         -2.34990        3.54450       -0.50380
H          0.00080        2.67980        1.57450
H          1.09840        2.62820        0.19850
H         -0.56010        2.02910        0.03130
H          1.45700        5.10840        0.60860
H          0.75480        7.34610       -0.11860
H         -0.75890       10.27730       -2.28110
H         -0.20840       12.32460       -1.04280
H         -1.14790       13.33730        1.69230
H          0.52190       13.30610        1.13090
H          0.08030       12.50950        2.65010
H         -0.94690       10.30130        2.63780
H         -1.52130        8.25730        1.40350
H         -7.29490        8.25480       -6.45590
H         -6.53190        7.49620       -8.66430
H         -5.06360        7.85400      -10.58900
H         -3.60240        7.23950       -9.81810
H         -3.63030        8.88430      -10.44870
H         -2.99370        9.84330       -8.25580
H         -3.75970       10.61680       -6.05290
H         -7.56090       11.17360       -6.56490
H         -9.93310       11.71340       -6.25550
H        -11.57920       12.30840       -3.95250
H        -11.92120       10.72990       -3.23830
H        -12.08810       10.97700       -4.98340
H         -9.85570        9.88130       -2.40370
H         -7.49180        9.31140       -2.71780
H         -6.52860       12.08750       -3.50940
H         -5.16140       13.63380        2.41620
H         -8.53720       16.13770       -0.40990
H         -7.84430       17.88970        2.44990
H        -10.21300       16.70250        2.72680
H         -9.75700       18.16040        4.86490
H         -7.99050       16.87810        6.37900
H         -7.35960       14.63020        5.17370
H         -9.90510       14.72160        4.45540
H         -8.93120       14.35850        3.01180
H         -6.11280       16.63220        3.93240
