
  xtb     02122218043D
 energy: -297.527607281610 gnorm: 0.000913492458 xtb: 6.4.1 (unknown)
177200  0     0  0            999 V2000
    6.4411    8.5073   -7.1406 C   0  0  0  0  0  0  0  0  0  0  0  0
    5.5675    8.4083   -8.1688 C   0  0  0  0  0  0  0  0  0  0  0  0
    4.5271    7.3532   -8.3531 C   0  0  0  0  0  0  0  0  0  0  0  0
    4.3944    6.3281   -7.7235 O   0  0  0  0  0  0  0  0  0  0  0  0
    3.7434    7.7688   -9.5292 C   0  0  0  0  0  0  0  0  0  0  0  0
    2.5986    7.1488  -10.0264 C   0  0  0  0  0  0  0  0  0  0  0  0
    2.0577    7.7711  -11.1248 C   0  0  0  0  0  0  0  0  0  0  0  0
    2.6141    8.9283  -11.6897 C   0  0  0  0  0  0  0  0  0  0  0  0
    3.7458    9.5449  -11.2152 C   0  0  0  0  0  0  0  0  0  0  0  0
    4.3177    8.9235  -10.0991 C   0  0  0  0  0  0  0  0  0  0  0  0
    5.5057    9.2854   -9.3347 C   0  0  0  0  0  0  0  0  0  0  0  0
    6.4050   10.2573   -9.6801 C   0  0  0  0  0  0  0  0  0  0  0  0
    6.3099   11.0569  -10.8403 C   0  0  0  0  0  0  0  0  0  0  0  0
    6.3048   11.7393  -11.7632 N   0  0  0  0  0  0  0  0  0  0  0  0
    7.5816   10.5855   -8.9726 C   0  0  0  0  0  0  0  0  0  0  0  0
    8.5572   10.9182   -8.4657 N   0  0  0  0  0  0  0  0  0  0  0  0
    1.5547    9.0113  -12.7593 C   0  0  0  0  0  0  0  0  0  0  0  0
    1.9358    8.5506  -14.1879 C   0  0  0  0  0  0  0  0  0  0  0  0
    3.0452    7.5402  -14.0306 C   0  0  0  0  0  0  0  0  0  0  0  0
    2.5218    6.4442  -13.4977 C   0  0  0  0  0  0  0  0  0  0  0  0
    1.0488    6.6934  -13.2853 C   0  0  0  0  0  0  0  0  0  0  0  0
    0.7543    7.6124  -14.4816 C   0  0  0  0  0  0  0  0  0  0  0  0
    0.9371    7.7217  -12.1322 C   0  0  0  0  0  0  0  0  0  0  0  0
    6.4479    7.7486   -5.9102 C   0  0  0  0  0  0  0  0  0  0  0  0
    5.2668    7.3458   -5.2654 C   0  0  0  0  0  0  0  0  0  0  0  0
    5.3657    6.6513   -4.0850 C   0  0  0  0  0  0  0  0  0  0  0  0
    4.2780    6.1207   -3.2186 C   0  0  0  0  0  0  0  0  0  0  0  0
    3.0855    6.2299   -3.3714 O   0  0  0  0  0  0  0  0  0  0  0  0
    4.9958    5.4421   -2.1055 C   0  0  0  0  0  0  0  0  0  0  0  0
    6.3855    5.5913   -2.2820 C   0  0  0  0  0  0  0  0  0  0  0  0
    6.6153    6.3364   -3.5118 C   0  0  0  0  0  0  0  0  0  0  0  0
    7.7802    6.7543   -4.1289 C   0  0  0  0  0  0  0  0  0  0  0  0
    7.6826    7.4702   -5.3113 C   0  0  0  0  0  0  0  0  0  0  0  0
    7.2580    5.0522   -1.3543 C   0  0  0  0  0  0  0  0  0  0  0  0
    6.7398    4.3742   -0.2622 C   0  0  0  0  0  0  0  0  0  0  0  0
    5.3614    4.2267   -0.0778 C   0  0  0  0  0  0  0  0  0  0  0  0
    4.4795    4.7627   -1.0290 C   0  0  0  0  0  0  0  0  0  0  0  0
    4.8343    3.5043    1.0602 C   0  0  0  0  0  0  0  0  0  0  0  0
    5.3290    3.4083    2.3434 C   0  0  0  0  0  0  0  0  0  0  0  0
    6.4669    4.1606    2.8778 C   0  0  0  0  0  0  0  0  0  0  0  0
    7.4105    3.5238    3.6776 C   0  0  0  0  0  0  0  0  0  0  0  0
    8.4733    4.2421    4.1935 C   0  0  0  0  0  0  0  0  0  0  0  0
    8.5983    5.5930    3.9251 C   0  0  0  0  0  0  0  0  0  0  0  0
    7.6569    6.2480    3.1389 C   0  0  0  0  0  0  0  0  0  0  0  0
    7.7588    7.7267    2.8985 C   0  0  0  0  0  0  0  0  0  0  0  0
    7.1120    8.4977    4.0510 C   0  0  0  0  0  0  0  0  0  0  0  0
    6.5944    5.5233    2.6240 C   0  0  0  0  0  0  0  0  0  0  0  0
    4.5414    2.5420    3.1335 C   0  0  0  0  0  0  0  0  0  0  0  0
    4.6273    2.0703    4.8143 S   0  0  0  0  0  0  0  0  0  0  0  0
    3.1970    1.1203    4.5936 C   0  0  0  0  0  0  0  0  0  0  0  0
    2.3216    0.3244    5.3480 C   0  0  0  0  0  0  0  0  0  0  0  0
    2.2912    0.0626    6.7343 C   0  0  0  0  0  0  0  0  0  0  0  0
    1.1907   -0.6811    7.2713 C   0  0  0  0  0  0  0  0  0  0  0  0
    1.2573   -0.8075    8.5875 N   0  0  0  0  0  0  0  0  0  0  0  0
    2.5961   -0.0569    9.1052 S   0  0  0  0  0  0  0  0  0  0  0  0
    3.1400    0.4593    7.6695 N   0  0  0  0  0  0  0  0  0  0  0  0
    0.2341   -1.2158    6.3822 C   0  0  0  0  0  0  0  0  0  0  0  0
   -0.8474   -2.0754    6.6232 C   0  0  0  0  0  0  0  0  0  0  0  0
   -1.6415   -2.8427    7.9554 S   0  0  0  0  0  0  0  0  0  0  0  0
   -2.6984   -3.6539    6.8230 C   0  0  0  0  0  0  0  0  0  0  0  0
   -3.7267   -4.5988    6.9983 C   0  0  0  0  0  0  0  0  0  0  0  0
   -4.0876   -5.1226    8.3173 C   0  0  0  0  0  0  0  0  0  0  0  0
   -4.1747   -6.4937    8.5476 C   0  0  0  0  0  0  0  0  0  0  0  0
   -4.4675   -6.9596    9.8146 C   0  0  0  0  0  0  0  0  0  0  0  0
   -4.6657   -6.0716   10.8589 C   0  0  0  0  0  0  0  0  0  0  0  0
   -4.5721   -4.7021   10.6487 C   0  0  0  0  0  0  0  0  0  0  0  0
   -4.7180   -3.7288   11.7822 C   0  0  0  0  0  0  0  0  0  0  0  0
   -3.3398   -3.3324   12.3155 C   0  0  0  0  0  0  0  0  0  0  0  0
   -4.2811   -4.2399    9.3735 C   0  0  0  0  0  0  0  0  0  0  0  0
   -4.2582   -4.9911    5.7799 C   0  0  0  0  0  0  0  0  0  0  0  0
   -3.4686   -4.2081    4.4191 S   0  0  0  0  0  0  0  0  0  0  0  0
   -2.4329   -3.3331    5.4891 C   0  0  0  0  0  0  0  0  0  0  0  0
   -1.3810   -2.4147    5.3789 C   0  0  0  0  0  0  0  0  0  0  0  0
   -0.6860   -1.7814    4.3851 N   0  0  0  0  0  0  0  0  0  0  0  0
    0.3070   -1.0171    4.9719 C   0  0  0  0  0  0  0  0  0  0  0  0
    1.3116   -0.1475    4.4597 C   0  0  0  0  0  0  0  0  0  0  0  0
    1.5587    0.3966    3.2109 N   0  0  0  0  0  0  0  0  0  0  0  0
    2.6933    1.1558    3.2935 C   0  0  0  0  0  0  0  0  0  0  0  0
    3.4553    1.9858    2.4584 C   0  0  0  0  0  0  0  0  0  0  0  0
    3.3869    2.5404    0.8245 S   0  0  0  0  0  0  0  0  0  0  0  0
    0.7728    0.4457    2.0008 C   0  0  0  0  0  0  0  0  0  0  0  0
    1.3696   -0.4239    0.8939 C   0  0  0  0  0  0  0  0  0  0  0  0
   -0.9602   -2.1336    3.0121 C   0  0  0  0  0  0  0  0  0  0  0  0
   -2.2282   -1.4570    2.4904 C   0  0  0  0  0  0  0  0  0  0  0  0
   -5.3397   -5.8700    5.4997 C   0  0  0  0  0  0  0  0  0  0  0  0
   -6.3551   -6.2674    6.3515 C   0  0  0  0  0  0  0  0  0  0  0  0
   -7.2485   -7.1381    5.7415 C   0  0  0  0  0  0  0  0  0  0  0  0
   -8.6072   -7.8992    6.5557 S   0  0  0  0  0  0  0  0  0  0  0  0
   -9.4718   -6.4284    7.2150 C   0  0  0  0  0  0  0  0  0  0  0  0
  -10.0228   -5.5781    6.0881 C   0  0  0  0  0  0  0  0  0  0  0  0
   -6.9452   -7.4189    4.3994 C   0  0  0  0  0  0  0  0  0  0  0  0
   -5.4787   -6.6015    3.9287 S   0  0  0  0  0  0  0  0  0  0  0  0
   -7.8005   -8.1456    3.5674 C   0  0  0  0  0  0  0  0  0  0  0  0
   -7.6406   -8.5166    2.2580 C   0  0  0  0  0  0  0  0  0  0  0  0
   -6.3965   -8.4328    1.4879 C   0  0  0  0  0  0  0  0  0  0  0  0
   -5.3719   -7.8462    1.7929 O   0  0  0  0  0  0  0  0  0  0  0  0
   -6.6223   -9.2268    0.2655 C   0  0  0  0  0  0  0  0  0  0  0  0
   -5.6989   -9.5054   -0.7395 C   0  0  0  0  0  0  0  0  0  0  0  0
   -6.1954  -10.2901   -1.7529 C   0  0  0  0  0  0  0  0  0  0  0  0
   -7.5121  -10.7682   -1.7654 C   0  0  0  0  0  0  0  0  0  0  0  0
   -8.4346  -10.4995   -0.7817 C   0  0  0  0  0  0  0  0  0  0  0  0
   -7.9516   -9.6979    0.2560 C   0  0  0  0  0  0  0  0  0  0  0  0
   -8.6279   -9.1970    1.4509 C   0  0  0  0  0  0  0  0  0  0  0  0
   -9.9745   -9.2612    1.7055 C   0  0  0  0  0  0  0  0  0  0  0  0
  -10.6142   -8.6086    2.7802 C   0  0  0  0  0  0  0  0  0  0  0  0
  -11.2077   -8.0636    3.5995 N   0  0  0  0  0  0  0  0  0  0  0  0
  -10.9074   -9.9234    0.8829 C   0  0  0  0  0  0  0  0  0  0  0  0
  -11.7141  -10.4454    0.2537 N   0  0  0  0  0  0  0  0  0  0  0  0
   -7.3227  -11.4901   -3.0764 C   0  0  0  0  0  0  0  0  0  0  0  0
   -7.9228  -10.8148   -4.3277 C   0  0  0  0  0  0  0  0  0  0  0  0
   -7.1871  -11.4648   -5.4772 C   0  0  0  0  0  0  0  0  0  0  0  0
   -5.9405  -11.0104   -5.4669 C   0  0  0  0  0  0  0  0  0  0  0  0
   -5.8127  -10.0454   -4.3103 C   0  0  0  0  0  0  0  0  0  0  0  0
   -7.2258   -9.4482   -4.3074 C   0  0  0  0  0  0  0  0  0  0  0  0
   -5.8549  -10.9548   -3.0639 C   0  0  0  0  0  0  0  0  0  0  0  0
    7.2402    9.2344   -7.2185 H   0  0  0  0  0  0  0  0  0  0  0  0
    2.2004    6.2644   -9.5543 H   0  0  0  0  0  0  0  0  0  0  0  0
    4.1566   10.4364  -11.6585 H   0  0  0  0  0  0  0  0  0  0  0  0
    0.9513    9.9168  -12.7619 H   0  0  0  0  0  0  0  0  0  0  0  0
    2.1199    9.3603  -14.8888 H   0  0  0  0  0  0  0  0  0  0  0  0
    4.0746    7.7410  -14.2627 H   0  0  0  0  0  0  0  0  0  0  0  0
    3.0267    5.5456  -13.1951 H   0  0  0  0  0  0  0  0  0  0  0  0
    0.4249    5.8116  -13.1653 H   0  0  0  0  0  0  0  0  0  0  0  0
   -0.2157    8.1043  -14.4226 H   0  0  0  0  0  0  0  0  0  0  0  0
    0.8502    7.1015  -15.4384 H   0  0  0  0  0  0  0  0  0  0  0  0
   -0.0712    7.7831  -11.7274 H   0  0  0  0  0  0  0  0  0  0  0  0
    4.2974    7.5953   -5.6642 H   0  0  0  0  0  0  0  0  0  0  0  0
    8.7472    6.5374   -3.7011 H   0  0  0  0  0  0  0  0  0  0  0  0
    8.5842    7.8054   -5.8041 H   0  0  0  0  0  0  0  0  0  0  0  0
    8.3268    5.1447   -1.4745 H   0  0  0  0  0  0  0  0  0  0  0  0
    7.4132    3.9360    0.4584 H   0  0  0  0  0  0  0  0  0  0  0  0
    3.4109    4.6551   -0.9114 H   0  0  0  0  0  0  0  0  0  0  0  0
    7.3175    2.4676    3.8805 H   0  0  0  0  0  0  0  0  0  0  0  0
    9.2077    3.7436    4.8086 H   0  0  0  0  0  0  0  0  0  0  0  0
    9.4321    6.1481    4.3301 H   0  0  0  0  0  0  0  0  0  0  0  0
    7.2575    7.9855    1.9635 H   0  0  0  0  0  0  0  0  0  0  0  0
    8.8083    8.0169    2.8161 H   0  0  0  0  0  0  0  0  0  0  0  0
    7.6080    8.2618    4.9897 H   0  0  0  0  0  0  0  0  0  0  0  0
    6.0622    8.2282    4.1429 H   0  0  0  0  0  0  0  0  0  0  0  0
    7.1824    9.5693    3.8798 H   0  0  0  0  0  0  0  0  0  0  0  0
    5.8488    6.0220    2.0208 H   0  0  0  0  0  0  0  0  0  0  0  0
   -4.0026   -7.1853    7.7364 H   0  0  0  0  0  0  0  0  0  0  0  0
   -4.5360   -8.0229    9.9909 H   0  0  0  0  0  0  0  0  0  0  0  0
   -4.8908   -6.4460   11.8470 H   0  0  0  0  0  0  0  0  0  0  0  0
   -5.3037   -4.1776   12.5866 H   0  0  0  0  0  0  0  0  0  0  0  0
   -5.2395   -2.8337   11.4366 H   0  0  0  0  0  0  0  0  0  0  0  0
   -3.4383   -2.6201   13.1311 H   0  0  0  0  0  0  0  0  0  0  0  0
   -2.8105   -4.2092   12.6816 H   0  0  0  0  0  0  0  0  0  0  0  0
   -2.7439   -2.8795   11.5265 H   0  0  0  0  0  0  0  0  0  0  0  0
   -4.2145   -3.1764    9.1949 H   0  0  0  0  0  0  0  0  0  0  0  0
   -0.2532    0.1681    2.2239 H   0  0  0  0  0  0  0  0  0  0  0  0
    0.7674    1.4862    1.6568 H   0  0  0  0  0  0  0  0  0  0  0  0
    2.3271   -0.0201    0.5764 H   0  0  0  0  0  0  0  0  0  0  0  0
    0.7020   -0.4372    0.0370 H   0  0  0  0  0  0  0  0  0  0  0  0
    1.5334   -1.4457    1.2301 H   0  0  0  0  0  0  0  0  0  0  0  0
   -0.0955   -1.8994    2.3984 H   0  0  0  0  0  0  0  0  0  0  0  0
   -1.1087   -3.2186    2.9766 H   0  0  0  0  0  0  0  0  0  0  0  0
   -3.0997   -1.8453    3.0102 H   0  0  0  0  0  0  0  0  0  0  0  0
   -2.3433   -1.6603    1.4295 H   0  0  0  0  0  0  0  0  0  0  0  0
   -2.2000   -0.3800    2.6428 H   0  0  0  0  0  0  0  0  0  0  0  0
   -6.4401   -5.9338    7.3694 H   0  0  0  0  0  0  0  0  0  0  0  0
  -10.2720   -6.8421    7.8272 H   0  0  0  0  0  0  0  0  0  0  0  0
   -8.7792   -5.8771    7.8499 H   0  0  0  0  0  0  0  0  0  0  0  0
   -9.2129   -5.1587    5.4931 H   0  0  0  0  0  0  0  0  0  0  0  0
  -10.6131   -4.7602    6.4961 H   0  0  0  0  0  0  0  0  0  0  0  0
  -10.6554   -6.1780    5.4370 H   0  0  0  0  0  0  0  0  0  0  0  0
   -8.7133   -8.4557    4.0646 H   0  0  0  0  0  0  0  0  0  0  0  0
   -4.6915   -9.1228   -0.6885 H   0  0  0  0  0  0  0  0  0  0  0  0
   -9.4420  -10.8811   -0.7985 H   0  0  0  0  0  0  0  0  0  0  0  0
   -7.4851  -12.5661   -3.0540 H   0  0  0  0  0  0  0  0  0  0  0  0
   -9.0083  -10.8234   -4.3729 H   0  0  0  0  0  0  0  0  0  0  0  0
   -7.6191  -12.2060   -6.1236 H   0  0  0  0  0  0  0  0  0  0  0  0
   -5.1232  -11.2963   -6.1029 H   0  0  0  0  0  0  0  0  0  0  0  0
   -4.9757   -9.3528   -4.3411 H   0  0  0  0  0  0  0  0  0  0  0  0
   -7.4296   -8.8689   -5.2065 H   0  0  0  0  0  0  0  0  0  0  0  0
   -7.4522   -8.8477   -3.4283 H   0  0  0  0  0  0  0  0  0  0  0  0
   -5.0385  -11.6742   -3.0341 H   0  0  0  0  0  0  0  0  0  0  0  0
  1  2  2  0  0  0  0
  2  3  1  0  0  0  0
  3  4  2  0  0  0  0
  3  5  1  0  0  0  0
  5  6  2  0  0  0  0
  6  7  1  0  0  0  0
  7  8  2  0  0  0  0
  8  9  1  0  0  0  0
  9 10  2  0  0  0  0
 10 11  1  0  0  0  0
 11 12  2  0  0  0  0
 12 13  1  0  0  0  0
 13 14  3  0  0  0  0
 12 15  1  0  0  0  0
 15 16  3  0  0  0  0
  8 17  1  0  0  0  0
 17 18  1  0  0  0  0
 18 19  1  0  0  0  0
 19 20  2  0  0  0  0
 20 21  1  0  0  0  0
 21 22  1  0  0  0  0
 21 23  1  0  0  0  0
  1 24  1  0  0  0  0
 24 25  2  0  0  0  0
 25 26  1  0  0  0  0
 26 27  1  0  0  0  0
 27 28  2  0  0  0  0
 27 29  1  0  0  0  0
 29 30  2  0  0  0  0
 30 31  1  0  0  0  0
 31 32  1  0  0  0  0
 32 33  2  0  0  0  0
 30 34  1  0  0  0  0
 34 35  2  0  0  0  0
 35 36  1  0  0  0  0
 36 37  2  0  0  0  0
 36 38  1  0  0  0  0
 38 39  2  0  0  0  0
 39 40  1  0  0  0  0
 40 41  2  0  0  0  0
 41 42  1  0  0  0  0
 42 43  2  0  0  0  0
 43 44  1  0  0  0  0
 44 45  1  0  0  0  0
 45 46  1  0  0  0  0
 44 47  2  0  0  0  0
 39 48  1  0  0  0  0
 48 49  1  0  0  0  0
 49 50  1  0  0  0  0
 50 51  1  0  0  0  0
 51 52  1  0  0  0  0
 52 53  1  0  0  0  0
 53 54  2  0  0  0  0
 54 55  1  0  0  0  0
 55 56  1  0  0  0  0
 53 57  1  0  0  0  0
 57 58  1  0  0  0  0
 58 59  1  0  0  0  0
 59 60  1  0  0  0  0
 60 61  1  0  0  0  0
 61 62  1  0  0  0  0
 62 63  2  0  0  0  0
 63 64  1  0  0  0  0
 64 65  2  0  0  0  0
 65 66  1  0  0  0  0
 66 67  1  0  0  0  0
 67 68  1  0  0  0  0
 66 69  2  0  0  0  0
 61 70  2  0  0  0  0
 70 71  1  0  0  0  0
 71 72  1  0  0  0  0
 72 73  1  0  0  0  0
 73 74  1  0  0  0  0
 74 75  1  0  0  0  0
 75 76  1  0  0  0  0
 76 77  1  0  0  0  0
 77 78  1  0  0  0  0
 78 79  1  0  0  0  0
 79 80  1  0  0  0  0
 77 81  1  0  0  0  0
 81 82  1  0  0  0  0
 74 83  1  0  0  0  0
 83 84  1  0  0  0  0
 70 85  1  0  0  0  0
 85 86  2  0  0  0  0
 86 87  1  0  0  0  0
 87 88  1  0  0  0  0
 88 89  1  0  0  0  0
 89 90  1  0  0  0  0
 87 91  2  0  0  0  0
 91 92  1  0  0  0  0
 91 93  1  0  0  0  0
 93 94  2  0  0  0  0
 94 95  1  0  0  0  0
 95 96  2  0  0  0  0
 95 97  1  0  0  0  0
 97 98  2  0  0  0  0
 98 99  1  0  0  0  0
 99100  2  0  0  0  0
100101  1  0  0  0  0
101102  2  0  0  0  0
102103  1  0  0  0  0
103104  2  0  0  0  0
104105  1  0  0  0  0
105106  3  0  0  0  0
104107  1  0  0  0  0
107108  3  0  0  0  0
100109  1  0  0  0  0
109110  1  0  0  0  0
110111  1  0  0  0  0
111112  2  0  0  0  0
112113  1  0  0  0  0
113114  1  0  0  0  0
113115  1  0  0  0  0
 11  2  1  0  0  0  0
 23 17  1  0  0  0  0
 33 24  1  0  0  0  0
 80 38  1  0  0  0  0
 92 85  1  0  0  0  0
103 94  1  0  0  0  0
115109  1  0  0  0  0
 10  5  1  0  0  0  0
 22 18  1  0  0  0  0
 31 26  2  0  0  0  0
 47 40  1  0  0  0  0
 79 48  2  0  0  0  0
102 97  1  0  0  0  0
114110  1  0  0  0  0
 23  7  1  0  0  0  0
 37 29  1  0  0  0  0
 78 50  2  0  0  0  0
115 99  1  0  0  0  0
 76 51  2  0  0  0  0
 56 52  2  0  0  0  0
 75 57  2  0  0  0  0
 73 58  2  0  0  0  0
 72 60  2  0  0  0  0
 69 62  1  0  0  0  0
  1116  1  0  0  0  0
  6117  1  0  0  0  0
  9118  1  0  0  0  0
 17119  1  0  0  0  0
 18120  1  0  0  0  0
 19121  1  0  0  0  0
 20122  1  0  0  0  0
 21123  1  0  0  0  0
 22124  1  0  0  0  0
 22125  1  0  0  0  0
 23126  1  0  0  0  0
 25127  1  0  0  0  0
 32128  1  0  0  0  0
 33129  1  0  0  0  0
 34130  1  0  0  0  0
 35131  1  0  0  0  0
 37132  1  0  0  0  0
 41133  1  0  0  0  0
 42134  1  0  0  0  0
 43135  1  0  0  0  0
 45136  1  0  0  0  0
 45137  1  0  0  0  0
 46138  1  0  0  0  0
 46139  1  0  0  0  0
 46140  1  0  0  0  0
 47141  1  0  0  0  0
 63142  1  0  0  0  0
 64143  1  0  0  0  0
 65144  1  0  0  0  0
 67145  1  0  0  0  0
 67146  1  0  0  0  0
 68147  1  0  0  0  0
 68148  1  0  0  0  0
 68149  1  0  0  0  0
 69150  1  0  0  0  0
 81151  1  0  0  0  0
 81152  1  0  0  0  0
 82153  1  0  0  0  0
 82154  1  0  0  0  0
 82155  1  0  0  0  0
 83156  1  0  0  0  0
 83157  1  0  0  0  0
 84158  1  0  0  0  0
 84159  1  0  0  0  0
 84160  1  0  0  0  0
 86161  1  0  0  0  0
 89162  1  0  0  0  0
 89163  1  0  0  0  0
 90164  1  0  0  0  0
 90165  1  0  0  0  0
 90166  1  0  0  0  0
 93167  1  0  0  0  0
 98168  1  0  0  0  0
101169  1  0  0  0  0
109170  1  0  0  0  0
110171  1  0  0  0  0
111172  1  0  0  0  0
112173  1  0  0  0  0
113174  1  0  0  0  0
114175  1  0  0  0  0
114176  1  0  0  0  0
115177  1  0  0  0  0
M  END
