187

C          1.90840       11.04230       -3.46770
C          1.52540       11.96050       -2.51200
C          0.30100       11.88120       -1.73510
O         -0.62990       11.09560       -1.89740
C          0.38450       12.92340       -0.70090
C         -0.53010       13.18010        0.31750
C         -0.15390       14.19850        1.16090
C          1.03950       14.91240        0.99890
C          1.94550       14.67570       -0.00950
C          1.58640       13.64030       -0.87530
C          2.29560       13.08390       -2.03120
C          3.46720       13.57230       -2.55370
C          4.16700       14.68400       -2.04260
N          4.79090       15.57880       -1.68280
C          4.13530       13.05810       -3.68410
N          4.74040       12.70970       -4.59680
C          0.78760       15.76760        2.21610
C          1.57940       15.40100        3.48930
C          0.79860       16.05940        4.60380
C         -0.33310       15.38400        4.75720
C         -0.33610       14.25770        3.74880
C          1.16410       13.93980        3.70450
C         -0.54480       14.97180        2.39630
C          1.26870        9.87980       -3.89190
Se        -0.42210        9.16540       -3.38840
C         -0.02650        7.63820       -4.43280
C          1.20880        7.77510       -5.07380
C          1.95490        6.97080       -5.98240
C          3.12470        7.53780       -6.35650
C          4.14020        7.01450       -7.31070
C          4.17920        7.84930       -8.59200
S          3.38560        9.10570       -5.60840
C          1.87000        8.98820       -4.78740
C         -0.81300        6.46540       -4.37150
C         -2.11130        6.34610       -3.89130
C         -2.97780        7.48820       -3.59300
C         -3.58810        7.60020       -2.34820
C         -4.39980        8.68700       -2.07930
C         -4.61630        9.65310       -3.04410
C         -4.02980        9.54680       -4.30050
C         -4.31340       10.56440       -5.36700
C         -5.57580       10.18710       -6.14480
C         -3.21540        8.45780       -4.56580
C         -2.48500        5.00530       -3.72540
S         -3.92870        4.25270       -3.09080
C         -3.16510        2.70790       -3.25830
C         -3.41210        1.36370       -2.93060
C         -4.54570        0.69220       -2.42090
C         -4.46610       -0.72340       -2.17840
N         -5.61100       -1.22440       -1.74380
S         -6.69420       -0.02560       -1.64380
N         -5.74340        1.18430       -2.14880
C         -3.22050       -1.37680       -2.32230
C         -2.77510       -2.64010       -1.90390
S         -3.40290       -4.06170       -1.13960
C         -1.76860       -4.68100       -1.02780
C         -1.23980       -5.84390       -0.46430
C         -2.08630       -6.88100        0.13370
C         -2.97350       -6.55650        1.15300
C         -3.77480       -7.53920        1.70310
C         -3.70670       -8.83790        1.23480
C         -2.84030       -9.17460        0.20110
C         -2.80660      -10.57220       -0.34740
C         -3.82590      -10.72670       -1.47780
C         -2.03930       -8.18690       -0.34660
C          0.15260       -5.89050       -0.58150
S          0.77990       -4.51470       -1.48610
C         -0.80340       -3.83350       -1.58400
C         -1.38820       -2.66770       -2.09190
N         -0.96290       -1.49160       -2.65380
C         -2.07580       -0.68240       -2.80360
C         -2.22500        0.65200       -3.24820
N         -1.32140        1.51700       -3.84070
C         -1.88070        2.77090       -3.81290
C         -1.49390        4.08590       -4.08650
S         -0.08130        4.88580       -4.67490
C         -0.31670        1.15970       -4.81870
C         -0.71060        1.61490       -6.22310
C          0.43190       -1.11480       -2.54250
C          0.64300       -0.03730       -1.48310
C          0.99680       -6.79340        0.11120
S          0.32200       -7.67560        1.45340
C          1.85460       -8.41400        1.82320
C          2.84210       -7.98070        0.93420
C          4.25090       -8.40340        1.00780
O          4.74320       -8.95100        1.98130
C          5.01010       -8.09090       -0.19980
C          6.24400       -8.60880       -0.50070
C          7.08060       -9.54030        0.29660
C          7.93720       -8.76700        1.30400
S          6.80790       -8.00030       -2.02090
C          5.39080       -7.03130       -2.24630
C          5.26550       -6.15550       -3.43960
C          5.76250       -4.74140       -3.12460
C          4.51940       -7.19080       -1.19790
C          3.22200       -6.53060       -1.08230
O          2.88610       -5.61540       -1.82800
C          2.36680       -7.06610       -0.03190
C          2.06210       -9.38780        2.82020
C          1.22600       -9.80850        3.81330
C         -0.07360       -9.22320        4.18500
O         -0.74840       -8.44040        3.54170
C         -0.39290       -9.76120        5.51780
C         -1.47890       -9.41740        6.32100
C         -1.49850      -10.05610        7.53720
C         -0.50790      -10.96660        7.93100
C          0.56460      -11.32010        7.14710
C          0.60000      -10.68720        5.90080
C          1.56440      -10.80840        4.81150
C          2.54860      -11.75390        4.70570
C          3.36110      -11.95530        3.56710
N          4.02290      -12.22800        2.66960
C          2.82940      -12.71690        5.69750
N          3.10660      -13.52130        6.46840
C         -1.15250      -11.21010        9.27280
C         -1.93730      -12.52940        9.43190
C         -2.83110      -12.27660       10.62460
C         -3.77120      -11.41840       10.24970
C         -3.52840      -11.07640        8.79730
C         -2.96780      -12.41540        8.30110
C         -2.25900      -10.19880        8.83210
H          2.87740       11.19250       -3.93350
H         -1.43780       12.60380        0.40530
H          2.85930       15.23530       -0.11870
H          0.73470       16.84060        2.04200
H          2.64300       15.61810        3.44200
H          1.11410       16.95210        5.11120
H         -1.15200       15.59980        5.41830
H         -1.01770       13.43270        3.93870
H          1.52890       13.54350        4.65080
H          1.45250       13.27230        2.89480
H         -1.48680       15.51450        2.34190
H          1.62320        6.01610       -6.34880
H          3.89730        5.97690       -7.54950
H          5.12680        7.03730       -6.84070
H          4.43560        8.88080       -8.36170
H          4.92260        7.45130       -9.27770
H          3.20870        7.83500       -9.08320
H         -3.41240        6.84700       -1.59490
H         -4.86320        8.78060       -1.10840
H         -5.24610       10.50270       -2.82320
H         -4.45020       11.54640       -4.91060
H         -3.46790       10.62320       -6.05510
H         -5.45340        9.21460       -6.61660
H         -6.43180       10.13600       -5.47570
H         -5.78190       10.92450       -6.91710
H         -2.76240        8.34950       -5.54290
H         -3.01510       -5.54370        1.52400
H         -4.45420       -7.28920        2.50420
H         -4.33060       -9.60300        1.67450
H         -3.03700      -11.28580        0.44630
H         -1.80830      -10.79700       -0.72870
H         -4.82930      -10.51860       -1.11310
H         -3.60480      -10.03030       -2.28350
H         -3.80310      -11.73840       -1.87620
H         -1.35980       -8.42960       -1.15250
H         -0.23150        0.07470       -4.82870
H          0.64260        1.60760       -4.53760
H         -1.68860        1.21780       -6.48630
H         -0.74310        2.69810       -6.29150
H          0.01950        1.24740       -6.93910
H          0.97120       -2.02080       -2.25600
H          0.83520       -0.78600       -3.50100
H          0.25800       -0.37550       -0.52390
H          0.13370        0.88380       -1.75440
H          1.70450        0.16850       -1.37840
H          6.42730      -10.22100        0.84670
H          7.72590      -10.11640       -0.36940
H          7.29420       -8.24260        2.00560
H          8.56490       -9.45790        1.85940
H          8.57280       -8.04540        0.79460
H          4.21420       -6.09840       -3.72850
H          5.84590       -6.57470       -4.26380
H          5.69770       -4.12010       -4.01360
H          6.79660       -4.76530       -2.78770
H          5.14490       -4.30070       -2.34660
H          3.05880       -9.81430        2.80170
H         -2.21260       -8.70260        5.98240
H          1.32410      -12.01410        7.46650
H         -0.54290      -10.96960       10.14170
H         -1.32160      -13.42400        9.46160
H         -2.66040      -12.69100       11.60070
H         -4.54250      -10.97290       10.85010
H         -4.36340      -10.64810        8.24930
H         -2.53060      -12.37220        7.30520
H         -3.70960      -13.21140        8.33900
H         -2.38960       -9.28490        9.40880
