
  xtb     02182201453D
 energy: -302.523319459818 gnorm: 0.000225662265 xtb: 6.4.1 (unknown)
183205  0     0  0            999 V2000
  -10.0114    1.2744   -1.6276 C   0  0  0  0  0  0  0  0  0  0  0  0
  -10.6114    0.4488   -0.7358 C   0  0  0  0  0  0  0  0  0  0  0  0
  -10.0777   -0.8423   -0.2242 C   0  0  0  0  0  0  0  0  0  0  0  0
   -9.1915   -1.5281   -0.6838 O   0  0  0  0  0  0  0  0  0  0  0  0
  -10.8185   -1.1022    1.0263 C   0  0  0  0  0  0  0  0  0  0  0  0
  -10.5859   -2.1397    1.9265 C   0  0  0  0  0  0  0  0  0  0  0  0
  -11.4106   -2.1239    3.0249 C   0  0  0  0  0  0  0  0  0  0  0  0
  -12.3949   -1.1446    3.2195 C   0  0  0  0  0  0  0  0  0  0  0  0
  -12.6344   -0.1153    2.3416 C   0  0  0  0  0  0  0  0  0  0  0  0
  -11.8070   -0.1150    1.2136 C   0  0  0  0  0  0  0  0  0  0  0  0
  -11.7469    0.8191    0.0969 C   0  0  0  0  0  0  0  0  0  0  0  0
  -12.6304    1.8331   -0.1589 C   0  0  0  0  0  0  0  0  0  0  0  0
  -12.5748    2.6874   -1.2816 C   0  0  0  0  0  0  0  0  0  0  0  0
  -12.6126    3.4145   -2.1701 N   0  0  0  0  0  0  0  0  0  0  0  0
  -13.7426    2.1434    0.6514 C   0  0  0  0  0  0  0  0  0  0  0  0
  -14.6635    2.4470    1.2662 N   0  0  0  0  0  0  0  0  0  0  0  0
  -12.8402   -1.7401    4.5316 C   0  0  0  0  0  0  0  0  0  0  0  0
  -14.1500   -2.5662    4.5423 C   0  0  0  0  0  0  0  0  0  0  0  0
  -14.3199   -3.1183    3.1487 C   0  0  0  0  0  0  0  0  0  0  0  0
  -13.3898   -4.0455    2.9642 C   0  0  0  0  0  0  0  0  0  0  0  0
  -12.5735   -4.1369    4.2298 C   0  0  0  0  0  0  0  0  0  0  0  0
  -13.6570   -3.8248    5.2742 C   0  0  0  0  0  0  0  0  0  0  0  0
  -11.7449   -2.8313    4.3141 C   0  0  0  0  0  0  0  0  0  0  0  0
   -8.8829    1.0071   -2.4767 C   0  0  0  0  0  0  0  0  0  0  0  0
   -7.9990    2.0881   -2.7169 C   0  0  0  0  0  0  0  0  0  0  0  0
   -8.2924    3.2270   -2.0359 O   0  0  0  0  0  0  0  0  0  0  0  0
   -8.0850    4.5010   -2.6302 C   0  0  0  0  0  0  0  0  0  0  0  0
   -9.0207    4.7213   -3.8140 C   0  0  0  0  0  0  0  0  0  0  0  0
   -6.8542    1.8764   -3.4942 C   0  0  0  0  0  0  0  0  0  0  0  0
   -5.9232    2.8837   -3.6390 O   0  0  0  0  0  0  0  0  0  0  0  0
   -5.6409    3.3145   -4.9660 C   0  0  0  0  0  0  0  0  0  0  0  0
   -4.4096    4.2025   -4.9184 C   0  0  0  0  0  0  0  0  0  0  0  0
   -6.6163    0.6072   -4.0477 C   0  0  0  0  0  0  0  0  0  0  0  0
   -7.5567   -0.4124   -3.8907 C   0  0  0  0  0  0  0  0  0  0  0  0
   -8.6676   -0.2191   -3.1073 C   0  0  0  0  0  0  0  0  0  0  0  0
   -5.3241    0.3015   -4.6403 C   0  0  0  0  0  0  0  0  0  0  0  0
   -5.0154   -0.4327   -5.7656 C   0  0  0  0  0  0  0  0  0  0  0  0
   -5.9909   -0.8736   -6.7616 C   0  0  0  0  0  0  0  0  0  0  0  0
   -7.1017   -0.0923   -7.0751 C   0  0  0  0  0  0  0  0  0  0  0  0
   -8.0038   -0.5229   -8.0281 C   0  0  0  0  0  0  0  0  0  0  0  0
   -7.8103   -1.7279   -8.6812 C   0  0  0  0  0  0  0  0  0  0  0  0
   -6.7049   -2.5166   -8.3895 C   0  0  0  0  0  0  0  0  0  0  0  0
   -6.5038   -3.8434   -9.0631 C   0  0  0  0  0  0  0  0  0  0  0  0
   -7.1322   -4.9645   -8.2330 C   0  0  0  0  0  0  0  0  0  0  0  0
   -5.8060   -2.0812   -7.4282 C   0  0  0  0  0  0  0  0  0  0  0  0
   -3.6192   -0.6596   -5.8529 C   0  0  0  0  0  0  0  0  0  0  0  0
   -2.5970   -1.4852   -7.0099 S   0  0  0  0  0  0  0  0  0  0  0  0
   -1.2119   -1.1225   -6.0327 C   0  0  0  0  0  0  0  0  0  0  0  0
    0.1674   -1.4097   -5.9697 C   0  0  0  0  0  0  0  0  0  0  0  0
    1.0266   -2.2345   -6.7313 C   0  0  0  0  0  0  0  0  0  0  0  0
    2.3660   -2.4907   -6.2585 C   0  0  0  0  0  0  0  0  0  0  0  0
    3.0151   -3.3473   -7.0308 N   0  0  0  0  0  0  0  0  0  0  0  0
    2.0434   -3.7863   -8.2486 S   0  0  0  0  0  0  0  0  0  0  0  0
    0.7491   -2.9061   -7.8375 N   0  0  0  0  0  0  0  0  0  0  0  0
    2.8404   -1.8094   -5.1146 C   0  0  0  0  0  0  0  0  0  0  0  0
    4.0703   -1.7903   -4.4246 C   0  0  0  0  0  0  0  0  0  0  0  0
    5.5964   -2.6115   -4.4162 S   0  0  0  0  0  0  0  0  0  0  0  0
    6.0756   -1.6875   -3.0092 C   0  0  0  0  0  0  0  0  0  0  0  0
    7.2233   -1.6952   -2.1835 C   0  0  0  0  0  0  0  0  0  0  0  0
    8.4355   -2.4621   -2.4547 C   0  0  0  0  0  0  0  0  0  0  0  0
    8.3668   -3.7494   -2.9828 C   0  0  0  0  0  0  0  0  0  0  0  0
    9.5289   -4.4604   -3.2146 C   0  0  0  0  0  0  0  0  0  0  0  0
   10.7623   -3.9061   -2.9174 C   0  0  0  0  0  0  0  0  0  0  0  0
   10.8513   -2.6181   -2.4037 C   0  0  0  0  0  0  0  0  0  0  0  0
   12.1721   -2.0218   -2.0120 C   0  0  0  0  0  0  0  0  0  0  0  0
   12.3709   -2.1366   -0.4987 C   0  0  0  0  0  0  0  0  0  0  0  0
    9.6836   -1.9024   -2.1906 C   0  0  0  0  0  0  0  0  0  0  0  0
    7.0777   -0.8189   -1.1228 C   0  0  0  0  0  0  0  0  0  0  0  0
    5.5707    0.0876   -1.1929 S   0  0  0  0  0  0  0  0  0  0  0  0
    5.1003   -0.7740   -2.6092 C   0  0  0  0  0  0  0  0  0  0  0  0
    3.9605   -0.8289   -3.4167 C   0  0  0  0  0  0  0  0  0  0  0  0
    2.7187   -0.2434   -3.4463 N   0  0  0  0  0  0  0  0  0  0  0  0
    2.0085   -0.8722   -4.4523 C   0  0  0  0  0  0  0  0  0  0  0  0
    0.6418   -0.7920   -4.7856 C   0  0  0  0  0  0  0  0  0  0  0  0
   -0.4085   -0.1820   -4.1225 N   0  0  0  0  0  0  0  0  0  0  0  0
   -1.5288   -0.3873   -4.8890 C   0  0  0  0  0  0  0  0  0  0  0  0
   -2.8985   -0.1136   -4.7931 C   0  0  0  0  0  0  0  0  0  0  0  0
   -3.9180    0.7326   -3.6881 S   0  0  0  0  0  0  0  0  0  0  0  0
   -0.5498   -0.0380   -2.6867 C   0  0  0  0  0  0  0  0  0  0  0  0
   -1.2095   -1.2712   -2.0694 C   0  0  0  0  0  0  0  0  0  0  0  0
    2.5362    1.1252   -3.0040 C   0  0  0  0  0  0  0  0  0  0  0  0
    3.5426    2.0634   -3.6697 C   0  0  0  0  0  0  0  0  0  0  0  0
    7.8751   -0.6103    0.0482 C   0  0  0  0  0  0  0  0  0  0  0  0
    8.4968   -1.5259    0.8775 C   0  0  0  0  0  0  0  0  0  0  0  0
    8.5202   -3.0159    0.7351 C   0  0  0  0  0  0  0  0  0  0  0  0
    7.1159   -3.6156    0.8017 C   0  0  0  0  0  0  0  0  0  0  0  0
    9.0258   -0.8799    2.0073 C   0  0  0  0  0  0  0  0  0  0  0  0
    8.8036    0.5018    2.0681 C   0  0  0  0  0  0  0  0  0  0  0  0
    7.9486    1.0389    0.6668 S   0  0  0  0  0  0  0  0  0  0  0  0
    9.2462    1.1111    3.2347 C   0  0  0  0  0  0  0  0  0  0  0  0
    9.8178    0.1983    4.1051 C   0  0  0  0  0  0  0  0  0  0  0  0
    9.8408   -1.4334    3.4178 S   0  0  0  0  0  0  0  0  0  0  0  0
   10.3330    0.3204    5.4108 C   0  0  0  0  0  0  0  0  0  0  0  0
   10.2406    1.3381    6.3194 C   0  0  0  0  0  0  0  0  0  0  0  0
    9.4618    2.5947    6.2269 C   0  0  0  0  0  0  0  0  0  0  0  0
    8.9786    3.1230    5.2460 O   0  0  0  0  0  0  0  0  0  0  0  0
    9.3689    3.1092    7.6062 C   0  0  0  0  0  0  0  0  0  0  0  0
    8.6324    4.2128    8.0325 C   0  0  0  0  0  0  0  0  0  0  0  0
    8.6986    4.4390    9.3859 C   0  0  0  0  0  0  0  0  0  0  0  0
    9.4462    3.6303   10.2530 C   0  0  0  0  0  0  0  0  0  0  0  0
   10.1883    2.5483    9.8437 C   0  0  0  0  0  0  0  0  0  0  0  0
   10.1320    2.2988    8.4686 C   0  0  0  0  0  0  0  0  0  0  0  0
   10.7642    1.2504    7.6738 C   0  0  0  0  0  0  0  0  0  0  0  0
   11.7312    0.3891    8.1219 C   0  0  0  0  0  0  0  0  0  0  0  0
   12.4242   -0.5488    7.3266 C   0  0  0  0  0  0  0  0  0  0  0  0
   13.0513   -1.3191    6.7498 N   0  0  0  0  0  0  0  0  0  0  0  0
   12.2141    0.3561    9.4469 C   0  0  0  0  0  0  0  0  0  0  0  0
   12.6486    0.2688   10.5061 N   0  0  0  0  0  0  0  0  0  0  0  0
    9.0356    4.4196   11.4714 C   0  0  0  0  0  0  0  0  0  0  0  0
    7.9486    3.7870   12.3663 C   0  0  0  0  0  0  0  0  0  0  0  0
    7.4176    4.9523   13.1695 C   0  0  0  0  0  0  0  0  0  0  0  0
    6.7120    5.7199   12.3487 C   0  0  0  0  0  0  0  0  0  0  0  0
    6.7543    5.0861   10.9770 C   0  0  0  0  0  0  0  0  0  0  0  0
    6.7940    3.6044   11.3726 C   0  0  0  0  0  0  0  0  0  0  0  0
    8.2047    5.3226   10.5043 C   0  0  0  0  0  0  0  0  0  0  0  0
  -10.3516    2.3025   -1.6643 H   0  0  0  0  0  0  0  0  0  0  0  0
   -9.8124   -2.8687    1.7418 H   0  0  0  0  0  0  0  0  0  0  0  0
  -13.3858    0.6385    2.5093 H   0  0  0  0  0  0  0  0  0  0  0  0
  -12.7502   -1.0938    5.4026 H   0  0  0  0  0  0  0  0  0  0  0  0
  -15.0077   -2.0464    4.9606 H   0  0  0  0  0  0  0  0  0  0  0  0
  -15.0398   -2.7483    2.4423 H   0  0  0  0  0  0  0  0  0  0  0  0
  -13.1767   -4.6056    2.0726 H   0  0  0  0  0  0  0  0  0  0  0  0
  -11.9958   -5.0477    4.3643 H   0  0  0  0  0  0  0  0  0  0  0  0
  -14.4181   -4.6011    5.3365 H   0  0  0  0  0  0  0  0  0  0  0  0
  -13.2572   -3.6210    6.2667 H   0  0  0  0  0  0  0  0  0  0  0  0
  -10.9395   -2.8975    5.0433 H   0  0  0  0  0  0  0  0  0  0  0  0
   -8.3205    5.2038   -1.8266 H   0  0  0  0  0  0  0  0  0  0  0  0
   -7.0396    4.6325   -2.9187 H   0  0  0  0  0  0  0  0  0  0  0  0
   -8.8717    5.7171   -4.2222 H   0  0  0  0  0  0  0  0  0  0  0  0
   -8.8290    3.9866   -4.5947 H   0  0  0  0  0  0  0  0  0  0  0  0
  -10.0569    4.6203   -3.4980 H   0  0  0  0  0  0  0  0  0  0  0  0
   -5.4620    2.4556   -5.6243 H   0  0  0  0  0  0  0  0  0  0  0  0
   -6.5016    3.8742   -5.3603 H   0  0  0  0  0  0  0  0  0  0  0  0
   -4.1800    4.5653   -5.9162 H   0  0  0  0  0  0  0  0  0  0  0  0
   -4.5835    5.0500   -4.2608 H   0  0  0  0  0  0  0  0  0  0  0  0
   -3.5626    3.6381   -4.5376 H   0  0  0  0  0  0  0  0  0  0  0  0
   -7.3690   -1.3702   -4.3499 H   0  0  0  0  0  0  0  0  0  0  0  0
   -9.3783   -1.0164   -2.9743 H   0  0  0  0  0  0  0  0  0  0  0  0
   -7.2512    0.8565   -6.5814 H   0  0  0  0  0  0  0  0  0  0  0  0
   -8.8616    0.0883   -8.2675 H   0  0  0  0  0  0  0  0  0  0  0  0
   -8.5191   -2.0557   -9.4279 H   0  0  0  0  0  0  0  0  0  0  0  0
   -6.9616   -3.8286  -10.0540 H   0  0  0  0  0  0  0  0  0  0  0  0
   -5.4361   -4.0379   -9.1813 H   0  0  0  0  0  0  0  0  0  0  0  0
   -6.6784   -5.0040   -7.2453 H   0  0  0  0  0  0  0  0  0  0  0  0
   -6.9870   -5.9257   -8.7204 H   0  0  0  0  0  0  0  0  0  0  0  0
   -8.1998   -4.7937   -8.1121 H   0  0  0  0  0  0  0  0  0  0  0  0
   -4.9527   -2.6975   -7.1867 H   0  0  0  0  0  0  0  0  0  0  0  0
    7.4068   -4.1959   -3.1903 H   0  0  0  0  0  0  0  0  0  0  0  0
    9.4718   -5.4591   -3.6212 H   0  0  0  0  0  0  0  0  0  0  0  0
   11.6641   -4.4758   -3.0885 H   0  0  0  0  0  0  0  0  0  0  0  0
   12.2026   -0.9685   -2.2991 H   0  0  0  0  0  0  0  0  0  0  0  0
   12.9836   -2.5404   -2.5251 H   0  0  0  0  0  0  0  0  0  0  0  0
   13.3268   -1.7091   -0.2064 H   0  0  0  0  0  0  0  0  0  0  0  0
   12.3495   -3.1801   -0.1921 H   0  0  0  0  0  0  0  0  0  0  0  0
   11.5792   -1.6104    0.0305 H   0  0  0  0  0  0  0  0  0  0  0  0
    9.7418   -0.8922   -1.8119 H   0  0  0  0  0  0  0  0  0  0  0  0
   -1.1600    0.8489   -2.4906 H   0  0  0  0  0  0  0  0  0  0  0  0
    0.4301    0.0884   -2.2337 H   0  0  0  0  0  0  0  0  0  0  0  0
   -2.2148   -1.4119   -2.4563 H   0  0  0  0  0  0  0  0  0  0  0  0
   -1.2688   -1.1508   -0.9913 H   0  0  0  0  0  0  0  0  0  0  0  0
   -0.6223   -2.1599   -2.2915 H   0  0  0  0  0  0  0  0  0  0  0  0
    2.6571    1.1677   -1.9162 H   0  0  0  0  0  0  0  0  0  0  0  0
    1.5327    1.4503   -3.2767 H   0  0  0  0  0  0  0  0  0  0  0  0
    3.3355    3.0874   -3.3714 H   0  0  0  0  0  0  0  0  0  0  0  0
    3.4641    1.9911   -4.7525 H   0  0  0  0  0  0  0  0  0  0  0  0
    4.5594    1.8187   -3.3760 H   0  0  0  0  0  0  0  0  0  0  0  0
    9.1236   -3.4178    1.5522 H   0  0  0  0  0  0  0  0  0  0  0  0
    8.9912   -3.3024   -0.2056 H   0  0  0  0  0  0  0  0  0  0  0  0
    6.5061   -3.2623   -0.0256 H   0  0  0  0  0  0  0  0  0  0  0  0
    7.1746   -4.6994    0.7468 H   0  0  0  0  0  0  0  0  0  0  0  0
    6.6281   -3.3408    1.7344 H   0  0  0  0  0  0  0  0  0  0  0  0
    9.1453    2.1555    3.4622 H   0  0  0  0  0  0  0  0  0  0  0  0
   10.8189   -0.5849    5.7577 H   0  0  0  0  0  0  0  0  0  0  0  0
    8.0701    4.8078    7.3300 H   0  0  0  0  0  0  0  0  0  0  0  0
   10.7578    1.9358   10.5226 H   0  0  0  0  0  0  0  0  0  0  0  0
    9.8456    4.8713   12.0405 H   0  0  0  0  0  0  0  0  0  0  0  0
    8.2716    2.9134   12.9259 H   0  0  0  0  0  0  0  0  0  0  0  0
    7.6483    5.1221   14.2047 H   0  0  0  0  0  0  0  0  0  0  0  0
    6.2357    6.6591   12.5613 H   0  0  0  0  0  0  0  0  0  0  0  0
    5.9885    5.3961   10.2709 H   0  0  0  0  0  0  0  0  0  0  0  0
    5.8759    3.2847   11.8629 H   0  0  0  0  0  0  0  0  0  0  0  0
    7.0197    2.9305   10.5481 H   0  0  0  0  0  0  0  0  0  0  0  0
    8.4611    6.3775   10.4273 H   0  0  0  0  0  0  0  0  0  0  0  0
  1  2  2  0  0  0  0
  2  3  1  0  0  0  0
  3  4  2  0  0  0  0
  3  5  1  0  0  0  0
  5  6  2  0  0  0  0
  6  7  1  0  0  0  0
  7  8  2  0  0  0  0
  8  9  1  0  0  0  0
  9 10  2  0  0  0  0
 10 11  1  0  0  0  0
 11 12  2  0  0  0  0
 12 13  1  0  0  0  0
 13 14  3  0  0  0  0
 12 15  1  0  0  0  0
 15 16  3  0  0  0  0
  8 17  1  0  0  0  0
 17 18  1  0  0  0  0
 18 19  1  0  0  0  0
 19 20  2  0  0  0  0
 20 21  1  0  0  0  0
 21 22  1  0  0  0  0
 21 23  1  0  0  0  0
  1 24  1  0  0  0  0
 24 25  2  0  0  0  0
 25 26  1  0  0  0  0
 26 27  1  0  0  0  0
 27 28  1  0  0  0  0
 25 29  1  0  0  0  0
 29 30  1  0  0  0  0
 30 31  1  0  0  0  0
 31 32  1  0  0  0  0
 29 33  2  0  0  0  0
 33 34  1  0  0  0  0
 34 35  2  0  0  0  0
 33 36  1  0  0  0  0
 36 37  2  0  0  0  0
 37 38  1  0  0  0  0
 38 39  2  0  0  0  0
 39 40  1  0  0  0  0
 40 41  2  0  0  0  0
 41 42  1  0  0  0  0
 42 43  1  0  0  0  0
 43 44  1  0  0  0  0
 42 45  2  0  0  0  0
 37 46  1  0  0  0  0
 46 47  1  0  0  0  0
 47 48  1  0  0  0  0
 48 49  1  0  0  0  0
 49 50  1  0  0  0  0
 50 51  1  0  0  0  0
 51 52  2  0  0  0  0
 52 53  1  0  0  0  0
 53 54  1  0  0  0  0
 51 55  1  0  0  0  0
 55 56  1  0  0  0  0
 56 57  1  0  0  0  0
 57 58  1  0  0  0  0
 58 59  1  0  0  0  0
 59 60  1  0  0  0  0
 60 61  2  0  0  0  0
 61 62  1  0  0  0  0
 62 63  2  0  0  0  0
 63 64  1  0  0  0  0
 64 65  1  0  0  0  0
 65 66  1  0  0  0  0
 64 67  2  0  0  0  0
 59 68  2  0  0  0  0
 68 69  1  0  0  0  0
 69 70  1  0  0  0  0
 70 71  1  0  0  0  0
 71 72  1  0  0  0  0
 72 73  1  0  0  0  0
 73 74  1  0  0  0  0
 74 75  1  0  0  0  0
 75 76  1  0  0  0  0
 76 77  1  0  0  0  0
 77 78  1  0  0  0  0
 75 79  1  0  0  0  0
 79 80  1  0  0  0  0
 72 81  1  0  0  0  0
 81 82  1  0  0  0  0
 68 83  1  0  0  0  0
 83 84  2  0  0  0  0
 84 85  1  0  0  0  0
 85 86  1  0  0  0  0
 84 87  1  0  0  0  0
 87 88  2  0  0  0  0
 88 89  1  0  0  0  0
 88 90  1  0  0  0  0
 90 91  2  0  0  0  0
 91 92  1  0  0  0  0
 91 93  1  0  0  0  0
 93 94  2  0  0  0  0
 94 95  1  0  0  0  0
 95 96  2  0  0  0  0
 95 97  1  0  0  0  0
 97 98  2  0  0  0  0
 98 99  1  0  0  0  0
 99100  2  0  0  0  0
100101  1  0  0  0  0
101102  2  0  0  0  0
102103  1  0  0  0  0
103104  2  0  0  0  0
104105  1  0  0  0  0
105106  3  0  0  0  0
104107  1  0  0  0  0
107108  3  0  0  0  0
100109  1  0  0  0  0
109110  1  0  0  0  0
110111  1  0  0  0  0
111112  2  0  0  0  0
112113  1  0  0  0  0
113114  1  0  0  0  0
113115  1  0  0  0  0
 11  2  1  0  0  0  0
 23 17  1  0  0  0  0
 35 24  1  0  0  0  0
 78 36  1  0  0  0  0
 89 83  1  0  0  0  0
103 94  1  0  0  0  0
115109  1  0  0  0  0
 10  5  1  0  0  0  0
 22 18  1  0  0  0  0
 45 38  1  0  0  0  0
 77 46  2  0  0  0  0
 92 87  1  0  0  0  0
102 97  1  0  0  0  0
114110  1  0  0  0  0
 23  7  1  0  0  0  0
 76 48  2  0  0  0  0
115 99  1  0  0  0  0
 74 49  2  0  0  0  0
 54 50  2  0  0  0  0
 73 55  2  0  0  0  0
 71 56  2  0  0  0  0
 70 58  2  0  0  0  0
 67 60  1  0  0  0  0
  1116  1  0  0  0  0
  6117  1  0  0  0  0
  9118  1  0  0  0  0
 17119  1  0  0  0  0
 18120  1  0  0  0  0
 19121  1  0  0  0  0
 20122  1  0  0  0  0
 21123  1  0  0  0  0
 22124  1  0  0  0  0
 22125  1  0  0  0  0
 23126  1  0  0  0  0
 27127  1  0  0  0  0
 27128  1  0  0  0  0
 28129  1  0  0  0  0
 28130  1  0  0  0  0
 28131  1  0  0  0  0
 31132  1  0  0  0  0
 31133  1  0  0  0  0
 32134  1  0  0  0  0
 32135  1  0  0  0  0
 32136  1  0  0  0  0
 34137  1  0  0  0  0
 35138  1  0  0  0  0
 39139  1  0  0  0  0
 40140  1  0  0  0  0
 41141  1  0  0  0  0
 43142  1  0  0  0  0
 43143  1  0  0  0  0
 44144  1  0  0  0  0
 44145  1  0  0  0  0
 44146  1  0  0  0  0
 45147  1  0  0  0  0
 61148  1  0  0  0  0
 62149  1  0  0  0  0
 63150  1  0  0  0  0
 65151  1  0  0  0  0
 65152  1  0  0  0  0
 66153  1  0  0  0  0
 66154  1  0  0  0  0
 66155  1  0  0  0  0
 67156  1  0  0  0  0
 79157  1  0  0  0  0
 79158  1  0  0  0  0
 80159  1  0  0  0  0
 80160  1  0  0  0  0
 80161  1  0  0  0  0
 81162  1  0  0  0  0
 81163  1  0  0  0  0
 82164  1  0  0  0  0
 82165  1  0  0  0  0
 82166  1  0  0  0  0
 85167  1  0  0  0  0
 85168  1  0  0  0  0
 86169  1  0  0  0  0
 86170  1  0  0  0  0
 86171  1  0  0  0  0
 90172  1  0  0  0  0
 93173  1  0  0  0  0
 98174  1  0  0  0  0
101175  1  0  0  0  0
109176  1  0  0  0  0
110177  1  0  0  0  0
111178  1  0  0  0  0
112179  1  0  0  0  0
113180  1  0  0  0  0
114181  1  0  0  0  0
114182  1  0  0  0  0
115183  1  0  0  0  0
M  END
