174

C         -7.07610        2.63080        5.73360
C         -7.00380        2.19100        7.02420
C         -6.03030        1.23320        7.57500
O         -5.01180        0.82090        7.05060
C         -6.55600        0.83270        8.89020
C         -6.01620       -0.12210        9.75000
C         -6.74130       -0.30950       10.90170
C         -7.91940        0.39820       11.17890
C         -8.46160        1.34400       10.34130
C         -7.73670        1.55400        9.16440
C         -7.98760        2.46890        8.05450
C         -8.91050        3.48020        8.03460
C         -9.83580        3.72800        9.06990
N        -10.61540        3.97770        9.87490
C         -9.01360        4.46200        7.02390
N         -9.13000        5.33000        6.28150
C         -8.11990       -0.29710       12.50220
C         -7.74560        0.50620       13.76610
C         -7.58650       -0.55320       14.83270
C         -6.47280       -1.22530       14.57100
C         -5.86010       -0.63130       13.32310
C         -6.27110        0.83610       13.50010
C         -6.80740       -1.08640       12.19290
C         -6.14230        2.48790        4.68930
S         -4.51930        1.89590        4.89220
C         -4.07780        2.35730        3.27320
C         -5.18260        2.88030        2.58080
C         -5.16110        3.35870        1.20450
O         -4.23300        3.14140        0.43190
C         -6.33460        4.13890        0.81780
C         -6.45800        4.84730       -0.35170
C         -5.46110        5.04000       -1.43720
C         -4.47070        6.14980       -1.07200
S         -7.99140        5.64720       -0.42880
C         -8.49350        4.99750        1.09540
C         -9.84480        5.29430        1.63320
C        -10.84790        4.22430        1.19130
C         -7.50690        4.21240        1.63590
C         -7.62080        3.49530        2.90280
O         -8.67950        3.34130        3.49080
C         -6.33770        2.96290        3.38890
C         -2.73860        2.13720        2.86280
C         -1.65990        1.90400        3.72270
C         -1.67160        2.05140        5.18230
C         -1.26910        0.99090        5.98510
C         -1.30290        1.11890        7.36120
C         -1.74050        2.29450        7.94120
C         -2.12480        3.37300        7.15270
C         -2.67380        4.62230        7.77940
C         -4.19170        4.49760        7.93440
C         -2.06920        3.24700        5.77490
C         -0.51340        1.52600        3.02100
S          1.10980        1.12120        3.53850
C          1.53240        0.83350        1.88370
C          2.64110        0.41880        1.12510
C          4.00350        0.19710        1.43270
C          4.92730       -0.10050        0.36660
N          6.17400       -0.20670        0.79670
S          6.19070        0.03540        2.39770
N          4.60580        0.28790        2.60710
C          4.42730       -0.32370       -0.93730
C          5.01120       -0.80940       -2.12240
S          6.56980       -1.24690       -2.73590
C          5.82020       -1.74500       -4.23370
C          6.32900       -2.33760       -5.40590
C          7.73930       -2.66250       -5.61680
C          8.71920       -1.73880       -5.26800
C         10.04860       -2.01100       -5.53410
C         10.41020       -3.18940       -6.16120
C          9.44640       -4.13320       -6.49630
C          9.83370       -5.43140       -7.14480
C         10.11310       -6.50050       -6.08730
C          8.12020       -3.86960       -6.19550
C          5.31360       -2.59480       -6.31070
S          3.73040       -2.13680       -5.70640
C          4.43380       -1.57530       -4.23520
C          3.97240       -1.02640       -3.03410
N          2.76990       -0.66150       -2.48080
C          3.03950       -0.20580       -1.20290
C          2.18710        0.33510       -0.21740
N          0.87710        0.76280       -0.29150
C          0.47610        1.05250        0.98930
C         -0.69650        1.45760        1.63490
S         -2.28550        1.94190        1.17180
C          0.24110        1.38970       -1.43260
C          0.23540        2.91200       -1.29870
C          1.54620       -1.29730       -2.92640
C          1.60540       -2.81120       -2.72360
C          5.39750       -3.23390       -7.58390
S          4.19290       -4.40650       -8.02900
C          5.07270       -4.85920       -9.46310
C          6.25020       -4.13560       -9.57410
C          7.34820       -4.43890      -10.50500
O          7.29760       -5.33840      -11.32850
C          8.53710       -3.60690      -10.30690
C          9.71910       -3.77450      -10.98610
C         10.10890       -4.84330      -11.94200
C         10.59910       -6.08440      -11.19010
S         10.86810       -2.56190      -10.53540
C          9.75410       -1.80090       -9.45180
C         10.13440       -0.55620       -8.73820
C          9.68540        0.67410       -9.53260
C          8.56130       -2.47530       -9.42830
C          7.44220       -2.13740       -8.55250
O          7.36030       -1.09830       -7.92040
C          6.39830       -3.17080       -8.53430
C          4.48960       -5.85900      -10.30230
C          4.60870       -6.05960      -11.65920
C          3.82960       -7.11800      -12.13090
C          3.10160       -7.73430      -11.13870
C          2.23250       -8.81720      -11.27490
N          1.51710       -9.70760      -11.39300
S          3.37740       -6.99760       -9.59370
H         -7.97440        3.16190        5.43950
H         -5.11030       -0.64840        9.49280
H         -9.37460        1.87170       10.56180
H         -9.04950       -0.85230       12.61090
H         -8.41190        1.33390       13.99270
H         -8.30550       -0.73480       15.60970
H         -6.07570       -2.08050       15.08550
H         -4.80820       -0.84030       13.14750
H         -5.79110        1.29690       14.36180
H         -6.10640        1.45290       12.61850
H         -6.86200       -2.16880       12.09250
H         -5.97730        5.30050       -2.36310
H         -4.91090        4.10850       -1.58000
H         -3.91580        5.87370       -0.17910
H         -3.76580        6.29930       -1.88520
H         -4.99480        7.08500       -0.88640
H        -10.17360        6.27380        1.28030
H         -9.79850        5.29940        2.72410
H        -10.89010        4.16230        0.10560
H        -10.55390        3.25800        1.59190
H        -11.83680        4.46940        1.56800
H         -0.95350        0.06480        5.52940
H         -0.99650        0.29110        7.98310
H         -1.78560        2.38130        9.01750
H         -2.44520        5.48830        7.15540
H         -2.22300        4.77790        8.76150
H         -4.66340        4.37680        6.96120
H         -4.60410        5.38370        8.41200
H         -4.43740        3.62740        8.54050
H         -2.35870        4.07890        5.14690
H          8.43450       -0.79950       -4.82060
H         10.80640       -1.29010       -5.26410
H         11.44780       -3.38220       -6.39350
H          9.02800       -5.77170       -7.79990
H         10.72760       -5.28470       -7.75490
H         10.39140       -7.43980       -6.55930
H          9.22930       -6.66660       -5.47560
H         10.92430       -6.18350       -5.43590
H          7.37020       -4.61510       -6.42020
H         -0.78830        1.02520       -1.50940
H          0.79580        1.12660       -2.33230
H         -0.17140        3.35170       -2.20500
H         -0.37850        3.22680       -0.46030
H          1.24870        3.28080       -1.15410
H          0.70620       -0.90690       -2.35650
H          1.40640       -1.06880       -3.98760
H          0.66530       -3.25690       -3.03610
H          2.40730       -3.25260       -3.30860
H          1.77100       -3.04190       -1.67330
H          9.23910       -5.11600      -12.54170
H         10.90060       -4.47620      -12.59780
H         10.90440       -6.84960      -11.89830
H          9.79950       -6.48380      -10.57190
H         11.44720       -5.83680      -10.55490
H          9.63930       -0.54520       -7.76570
H         11.21640       -0.52950       -8.59570
H          9.99540        1.57920       -9.01790
H         10.12220        0.66980      -10.52930
H          8.60220        0.67810       -9.61930
H          5.23920       -5.46050      -12.28740
H          3.79000       -7.42820      -13.15990
