170

C        -12.12240       -0.88400       -4.17600
C        -12.83590       -0.94490       -3.02880
C        -12.25000       -1.19130       -1.67770
O        -11.15150       -1.61930       -1.40380
C        -13.26520       -0.71470       -0.72130
C        -13.12690       -0.64230        0.66420
C        -14.22100       -0.12000        1.30920
C        -15.37340        0.30060        0.62890
C        -15.52750        0.22750       -0.73440
C        -14.42210       -0.30000       -1.41230
C        -14.21190       -0.50370       -2.83950
C        -15.15000       -0.36650       -3.82490
C        -16.48420        0.03810       -3.60660
N        -17.57830        0.36730       -3.49660
C        -14.91870       -0.64040       -5.19080
N        -14.80710       -0.85450       -6.31300
C        -16.05810        0.74120        1.89860
C        -16.08060        2.25960        2.17620
C        -16.36190        2.35260        3.65870
C        -15.27240        1.95280        4.30210
C        -14.23650        1.58270        3.26530
C        -14.58450        2.59980        2.17070
C        -14.77540        0.27030        2.65620
C        -10.73830       -1.29030       -4.30340
C        -10.27830       -2.51190       -3.78750
C         -8.93210       -2.77910       -3.84170
C         -8.18660       -3.97000       -3.34950
O         -8.63870       -5.00960       -2.93490
C         -6.75480       -3.58500       -3.48590
C         -6.66930       -2.32520       -4.11220
C         -8.01740       -1.83980       -4.36110
C         -8.47720       -0.67150       -4.94050
C         -9.84020       -0.42080       -4.92870
C         -5.43250       -1.74270       -4.31280
C         -4.31120       -2.38240       -3.81130
C         -4.39020       -3.60270       -3.13010
C         -5.63960       -4.24080       -3.02470
C         -3.20830       -4.14990       -2.50670
C         -3.09980       -5.03550       -1.45340
C         -4.20430       -5.59640       -0.66530
C         -4.28560       -6.96780       -0.45180
C         -5.32200       -7.48190        0.30520
C         -6.27070       -6.63850        0.85600
C         -6.18790       -5.26320        0.67520
C         -7.22460       -4.33830        1.24530
C         -8.14930       -3.82060        0.14230
C         -5.14470       -4.75340       -0.08230
C         -1.75230       -5.26130       -1.10070
S         -1.01430       -6.16880        0.19890
C          0.52100       -5.49490       -0.23870
C          1.82580       -5.40450        0.27560
C          2.37560       -5.89300        1.48080
C          3.64790       -5.38900        1.91410
N          4.00130       -5.85940        3.10010
S          2.83870       -6.85880        3.62170
N          1.83530       -6.72340        2.35860
C          4.36020       -4.51630        1.06440
C          5.59690       -3.86880        1.22090
S          6.78600       -3.62330        2.45110
C          7.64720       -2.55600        1.37050
C          8.78190       -1.73260        1.54360
C          9.59190       -1.66010        2.75950
C          8.99390       -1.68730        4.01650
C          9.77290       -1.56610        5.15150
C         11.14350       -1.40470        5.04720
C         11.75900       -1.39080        3.80190
C         13.23560       -1.15530        3.66410
C         13.49960        0.28630        3.22310
C         10.97580       -1.53620        2.66820
C          9.04770       -1.00360        0.40280
S          7.94380       -1.37640       -0.90720
C          7.05450       -2.45450        0.10980
C          5.86530       -3.19360        0.02870
N          4.83710       -3.39170       -0.86100
C          3.87640       -4.16410       -0.22460
C          2.54470       -4.51400       -0.57030
N          1.69440       -4.08840       -1.57980
C          0.46770       -4.65530       -1.35210
C         -0.83550       -4.52560       -1.84990
S         -1.63330       -3.58870       -3.05940
C          1.75010       -2.89030       -2.38660
C          1.54460       -1.64380       -1.52820
C          5.06360       -3.23950       -2.28280
C          5.01480       -1.78440       -2.74610
C          9.95430        0.11160        0.22990
C         10.12590        1.02830        1.28170
C         10.89730        2.14190        1.06380
C         11.15370        3.28370        1.97710
O         10.80740        3.41630        3.12660
C         11.92840        4.24470        1.14660
C         12.17620        3.68030       -0.12190
C         11.52290        2.38100       -0.17870
C         11.36890        1.47230       -1.20830
C         10.57750        0.35220       -0.99620
C         12.90070        4.39270       -1.06060
C         13.31790        5.67640       -0.74660
C         12.98700        6.27730        0.47180
C         12.31250        5.52570        1.44890
C         13.33230        7.65580        0.72030
C         12.60520        8.55820        1.41740
C         13.23340        9.82270        1.89580
O         14.28930       10.28820        1.54190
C         12.30850       10.34060        2.92870
C         12.47700       11.42210        3.76960
C         11.46210       11.68660        4.67940
Br        11.63440       13.16540        5.85790
C         10.32260       10.89420        4.75300
C         10.15700        9.81500        3.89980
C         11.15310        9.53760        2.97410
C         11.24470        8.51730        1.93430
C         10.18240        7.84880        1.39280
C          8.86320        7.94320        1.88690
N          7.77640        7.98410        2.25210
C         10.24040        7.07010        0.21650
N         10.19300        6.48520       -0.76960
H        -12.56600       -0.42230       -5.05030
H        -12.22210       -0.97670        1.14710
H        -16.41700        0.55680       -1.24510
H        -17.00500        0.25370        2.12150
H        -16.72790        2.83290        1.51830
H        -17.31110        2.63800        4.07220
H        -15.12970        1.83730        5.36040
H        -13.20330        1.53930        3.59920
H        -14.39480        3.62430        2.48630
H        -14.08960        2.41520        1.21880
H        -14.86520       -0.53230        3.38550
H        -10.96410       -3.23070       -3.36870
H         -7.79510        0.04110       -5.37890
H        -10.21640        0.49770       -5.35670
H         -5.33590       -0.79150       -4.81410
H         -3.34520       -1.90980       -3.92020
H         -5.73350       -5.21350       -2.57080
H         -3.54890       -7.62390       -0.89120
H         -5.39160       -8.54790        0.46310
H         -7.08220       -7.05110        1.43760
H         -7.81530       -4.86620        1.99610
H         -6.73430       -3.49090        1.73140
H         -8.60970       -4.65000       -0.38900
H         -7.59020       -3.22850       -0.57970
H         -8.93610       -3.19600        0.55770
H         -5.05880       -3.68530       -0.22670
H          7.92220       -1.78000        4.10170
H          9.30510       -1.58370        6.12460
H         11.74140       -1.29040        5.93970
H         13.65400       -1.84000        2.92270
H         13.73250       -1.33940        4.61810
H         13.06200        0.98550        3.93240
H         13.05590        0.47360        2.24710
H         14.56880        0.47650        3.16060
H         11.44680       -1.55140        1.69530
H          2.68570       -2.83140       -2.93380
H          0.94190       -2.96760       -3.11870
H          2.31960       -1.56980       -0.76800
H          1.56920       -0.75300       -2.15010
H          0.57950       -1.68990       -1.02880
H          6.05930       -3.64100       -2.50730
H          4.33930       -3.86030       -2.81300
H          5.05410       -1.74630       -3.83160
H          4.11310       -1.28480       -2.40630
H          5.86740       -1.23690       -2.35590
H          9.63050        0.88450        2.22880
H         11.83320        1.63390       -2.16920
H         10.42770       -0.35350       -1.80120
H         13.12550        3.97050       -2.02780
H         13.85960        6.25560       -1.47980
H         12.10930        5.94050        2.42550
H         14.29110        8.00370        0.34980
H         13.36500       12.03220        3.71400
H          9.56020       11.12420        5.48140
H          9.27120        9.20550        3.97540
