172

C          1.84700      -11.23200        2.92210
C          1.75230      -11.47700        1.56820
C          1.48220      -10.46560        0.56150
O          1.26440       -9.27080        0.75100
C          1.52050      -11.13910       -0.74390
C          1.34240      -10.56220       -1.99840
C          1.45130      -11.45060       -3.04160
C          1.71880      -12.81160       -2.84990
C          1.89730      -13.39280       -1.61540
C          1.78900      -12.50860       -0.54020
C          1.92540      -12.74700        0.89960
C          2.17290      -13.96580        1.47980
C          2.31020      -14.20610        2.86270
N          2.43310      -14.49400        3.96850
C          2.32370      -15.17370        0.76840
N          2.45670      -16.19660        0.26300
C          1.68970      -13.10750       -4.32870
C          0.42520      -13.79100       -4.90470
C         -0.71750      -13.41520       -3.99450
C         -0.97220      -12.12620       -4.17530
C         -0.00600      -11.60690       -5.21120
C          0.14360      -12.85710       -6.09270
C          1.39060      -11.59010       -4.54210
C          1.72880      -10.03270        3.62220
Se         1.34980       -8.28420        2.98700
C          1.49370       -7.66490        4.76310
C          1.82020       -8.69860        5.64160
C          2.12370       -8.78200        7.03170
C          2.38620      -10.04210        7.44300
C          2.71370      -10.54230        8.80780
C          2.59950       -9.46930        9.88400
S          2.30710      -11.21240        6.13040
C          1.91580       -9.95810        5.00780
C          1.27900       -6.28980        5.02500
C          0.86080       -5.61250        6.16120
C          0.37930       -6.22180        7.40030
C         -0.50240       -7.30050        7.36330
C         -0.98120       -7.83670        8.54220
C         -0.59430       -7.30460        9.76110
C          0.27560       -6.22310        9.81610
C          0.65670       -5.59740       11.12610
C         -0.22090       -4.37450       11.40090
C          0.75310       -5.68790        8.62870
C          0.80700       -4.22320        5.93460
S          0.36140       -2.87970        6.96210
C          0.58260       -1.81080        5.61950
C          0.50720       -0.44210        5.32490
C          0.27170        0.66380        6.16940
C          0.33670        1.98260        5.61350
N          0.13900        2.92620        6.52070
S         -0.10930        2.21290        7.95370
N          0.02540        0.67300        7.47010
C          0.53200        2.12420        4.22290
C          0.47460        3.26700        3.41240
S          0.22760        4.97320        3.56360
C          0.21420        5.10270        1.81900
C          0.03150        6.19410        0.94640
C         -0.07800        7.57420        1.41960
C          0.66620        8.59250        0.82620
C          0.59440        9.87740        1.32680
C         -0.20570       10.15870        2.42200
C         -0.94910        9.15520        3.02920
C         -1.76820        9.42830        4.25710
C         -0.97750        9.04560        5.51000
C         -0.87760        7.86730        2.51880
C          0.04970        5.78230       -0.37750
S          0.36130        4.05970       -0.54010
C          0.41520        3.87850        1.17630
C          0.57660        2.83050        2.09040
N          0.72310        1.47170        2.05690
C          0.71320        1.00350        3.35880
C          0.80300       -0.29440        3.93720
N          1.10790       -1.54700        3.43370
C          0.96770       -2.45830        4.44390
C          1.11710       -3.83810        4.62770
S          1.55150       -5.20570        3.66480
C          1.67960       -1.97750        2.17900
C          0.66330       -2.71630        1.30710
C          0.70390        0.80510        0.77660
C          2.04950        0.91420        0.05920
C         -0.26600        6.50560       -1.56100
C         -1.00510        7.66790       -1.66390
C         -1.25010        8.16060       -2.95200
C         -2.17290        9.32090       -3.12990
C         -3.37900        9.00130       -4.01210
C         -0.67310        7.40300       -3.97350
Se         0.19810        5.86910       -3.25830
C         -0.68500        7.46380       -5.38080
C         -0.80830        8.51750       -6.24990
C         -0.57300        9.94130       -5.95610
O         -0.21760       10.43410       -4.90100
C         -0.73440       10.65510       -7.23720
C         -0.64540       12.02880       -7.44560
C         -0.84590       12.41110       -8.75030
C         -1.09710       11.49170       -9.77690
C         -1.17640       10.13290       -9.58670
C         -0.99100        9.72430       -8.26280
C         -1.03660        8.38710       -7.67610
C         -1.32720        7.23200       -8.35800
C         -1.54250        7.15750       -9.74970
N         -1.72240        7.01280      -10.87480
C         -1.47680        5.95060       -7.78750
N         -1.64390        4.87650       -7.41390
C         -1.21130       12.57050      -10.82460
C         -2.63240       12.95870      -11.30220
C         -3.56950       12.63570      -10.16500
C         -3.33840       13.50550       -9.19080
C         -2.24110       14.43260       -9.65190
C         -2.54750       14.48650      -11.15710
C         -0.93760       13.59570       -9.67940
H          2.06100      -12.08070        3.56370
H          1.14180       -9.50720       -2.10030
H          2.10650      -14.44170       -1.48830
H          2.60780      -13.51050       -4.75180
H          0.54170      -14.85050       -5.11660
H         -1.17040      -14.09050       -3.29250
H         -1.68050      -11.50900       -3.65420
H         -0.28250      -10.67780       -5.70280
H          0.96980      -12.79310       -6.79960
H         -0.77370      -13.11230       -6.62120
H          2.11340      -11.00290       -5.10570
H          2.15320       -7.92880        7.68060
H          3.72870      -10.95300        8.80110
H          2.03940      -11.37130        9.04310
H          2.80590       -9.90300       10.85920
H          3.31300       -8.66830        9.70750
H          1.59840       -9.04440        9.89650
H         -0.81660       -7.70330        6.41210
H         -1.66440       -8.67260        8.51180
H         -0.97550       -7.72950       10.67880
H          0.53560       -6.32130       11.93430
H          1.70360       -5.28810       11.09760
H          0.05950       -3.90960       12.34300
H         -0.11060       -3.64240       10.60410
H         -1.26760       -4.66560       11.45470
H          1.43950       -4.85400        8.65870
H          1.30430        8.36950       -0.01570
H          1.17180       10.66410        0.86460
H         -0.25050       11.16590        2.81050
H         -2.69120        8.84570        4.22400
H         -2.03180       10.48660        4.30250
H         -0.71370        7.99070        5.48360
H         -0.05930        9.62590        5.56830
H         -1.56620        9.23560        6.40410
H         -1.46230        7.08230        2.97570
H          2.49840       -2.66690        2.41370
H          2.10800       -1.12130        1.66530
H          1.08950       -2.90550        0.32590
H         -0.25570       -2.14570        1.19000
H          0.40630       -3.67140        1.75650
H         -0.05660        1.30100        0.16310
H          0.39840       -0.22800        0.90760
H          2.02680        0.33020       -0.85640
H          2.25200        1.95010       -0.19940
H          2.86610        0.55920        0.68470
H         -1.40880        8.15050       -0.78950
H         -2.52370        9.63400       -2.14450
H         -1.61200       10.15350       -3.56370
H         -3.92560        8.14950       -3.61190
H         -4.04840        9.85740       -4.04500
H         -3.07600        8.76600       -5.02870
H         -0.54250        6.49190       -5.84610
H         -0.44370       12.70170       -6.62670
H         -1.36600        9.43980      -10.38900
H         -0.49720       12.51890      -11.64400
H         -2.90550       12.56180      -12.27630
H         -4.24230       11.79800      -10.16310
H         -3.77960       13.53970       -8.21180
H         -2.15890       15.37900       -9.12360
H         -3.49110       14.98360      -11.37740
H         -1.74900       14.93450      -11.74690
H         -0.04750       14.21770       -9.75300
