175

C         -0.91780       11.75020       -3.36430
C          0.23490       11.70660       -4.12010
C          0.97910       10.49770       -4.42470
O          0.72810        9.35670       -4.04230
C          2.10100       10.89240       -5.28880
C          3.07430       10.06490       -5.84370
C          3.99240       10.72810       -6.62280
C          3.94280       12.11070       -6.83790
C          2.98630       12.93850       -6.29620
C          2.04600       12.28650       -5.49520
C          0.89700       12.82110       -4.75890
C          0.54650       14.14640       -4.69160
C         -0.54530       14.67250       -3.97040
N         -1.40600       15.18970       -3.41150
C          1.24350       15.19080       -5.33270
N          1.75940       16.09270       -5.82250
C          5.16960       12.09960       -7.71600
C          6.48240       12.59500       -7.07330
C          7.55990       12.02870       -7.96960
C          7.60830       10.71870       -7.76450
C          6.56380       10.37740       -6.72610
C          6.61550       11.65050       -5.87170
C          5.22610       10.55690       -7.47460
C         -1.61350       10.72050       -2.73460
Se        -1.24380        8.85760       -2.67290
C         -2.81030        8.63770       -1.64770
C         -3.43620        9.85870       -1.39640
C         -4.56050       10.27470       -0.62670
C         -4.77780       11.60740       -0.68340
C         -5.84490       12.39270       -0.00600
C         -5.26830       13.27950        1.09910
S         -3.59100       12.44650       -1.67170
C         -2.78360       10.95570       -2.00180
C         -3.21560        7.33920       -1.25070
C         -4.47840        6.80660       -1.03700
C         -5.73930        7.50140       -1.29510
C         -5.91540        8.23670       -2.46470
C         -7.10920        8.89310       -2.69130
C         -8.13050        8.82570       -1.75970
C         -7.97900        8.08110       -0.59640
C         -9.06750        8.04660        0.43730
C         -8.93150        9.23710        1.38920
C         -6.78170        7.41720       -0.37740
C         -4.40230        5.45720       -0.64400
S         -5.62710        4.26810       -0.26260
C         -4.37770        3.09260       -0.02860
C         -4.23870        1.73060        0.27270
C         -5.22150        0.73630        0.46490
C         -4.80290       -0.62110        0.64550
N         -5.82360       -1.45450        0.77220
S         -7.19570       -0.60000        0.67550
N         -6.53910        0.86600        0.46710
C         -3.42160       -0.90400        0.70820
C         -2.75680       -2.11170        0.96180
S         -3.12230       -3.78160        1.24380
C         -1.41450       -4.08690        1.46530
C         -0.68990       -5.25020        1.74610
C         -1.28030       -6.58650        1.89990
C         -2.01830       -6.90810        3.03270
C         -2.54670       -8.17960        3.16350
C         -2.34560       -9.12530        2.17460
C         -1.62730       -8.81290        1.02780
C         -1.35560       -9.84650       -0.02550
C          0.04710      -10.42260        0.17280
C         -1.10100       -7.53590        0.89820
C          0.67240       -5.00000        1.85000
S          1.05020       -3.30040        1.56550
C         -0.62110       -2.94160        1.32390
C         -1.39300       -1.81500        1.02370
N         -1.19380       -0.47980        0.80700
C         -2.42540        0.11140        0.58460
C         -2.84120        1.43910        0.28110
N         -2.16800        2.60310       -0.04770
C         -3.09080        3.59580       -0.22530
C         -3.10180        4.94790       -0.58750
S         -1.93860        6.15370       -1.01220
C         -0.78290        2.89620       -0.33000
C         -0.11260        3.63130        0.83130
C          0.13860        0.05130        0.97090
C          1.00830       -0.20520       -0.26060
C          1.69840       -5.90490        2.19920
Se         1.42120       -7.72480        2.64490
C          3.28660       -7.87360        2.97790
C          3.90910       -6.63050        2.73430
C          5.25620       -6.19820        2.82770
C          5.41970       -4.88980        2.50740
C          6.68410       -4.10680        2.47130
C          7.06530       -3.73500        1.03690
S          3.91620       -4.11120        2.06460
C          3.04610       -5.59480        2.32310
C          4.02410       -8.97980        3.38260
C          3.62290      -10.27070        3.66620
C          2.25550      -10.74800        3.60350
O          1.25810      -10.09730        3.29700
C          2.28320      -12.17130        3.97660
C          1.20660      -13.05010        4.05360
C          1.55240      -14.32680        4.43010
C          2.87290      -14.70160        4.70410
C          3.94590      -13.84330        4.62910
C          3.61630      -12.54010        4.25410
C          4.47180      -11.36390        4.07250
C          5.83250      -11.33470        4.26270
C          6.65890      -10.20640        4.09110
N          7.40310       -9.33740        3.97380
C          6.60860      -12.44020        4.66470
N          7.30790      -13.29170        4.98960
C          2.48800      -16.12360        5.02690
C          2.42850      -16.53440        6.51880
C          2.13760      -15.27650        7.29880
C          0.88600      -14.92090        7.04150
C          0.30790      -15.93230        6.08280
C          1.04290      -17.19890        6.55000
C          1.01460      -15.70560        4.72330
H         -1.38260       12.72170       -3.23050
H          3.07080        9.00240       -5.65750
H          2.96060       13.99970       -6.47810
H          5.02970       12.46320       -8.73220
H          6.51870       13.66320       -6.87810
H          8.11890       12.61170       -8.67780
H          8.21560        9.98890       -8.26720
H          6.67570        9.42520       -6.21430
H          7.57070       11.76550       -5.36180
H          5.80510       11.73380       -5.15000
H          5.12440        9.89220       -8.33060
H         -5.17180        9.60590       -0.05060
H         -6.57490       11.69760        0.41430
H         -6.35320       13.02270       -0.74050
H         -4.76590       12.67180        1.84840
H         -4.54910       13.98090        0.68250
H         -6.06260       13.84220        1.58250
H         -5.12090        8.28050       -3.19490
H         -7.24430        9.46150       -3.59960
H         -9.05870        9.34850       -1.94010
H        -10.04300        8.08680       -0.05080
H         -9.00740        7.11830        1.00790
H         -8.99920       10.17260        0.83750
H         -9.72020        9.21870        2.13750
H         -7.97050        9.20730        1.89900
H         -6.64620        6.84240        0.52770
H         -2.16870       -6.16640        3.80330
H         -3.11470       -8.43410        4.04610
H         -2.75240      -10.11910        2.29220
H         -2.09180      -10.64960        0.04080
H         -1.42730       -9.39670       -1.01840
H          0.25190      -11.20090       -0.55900
H          0.14190      -10.83900        1.17240
H          0.79530       -9.63790        0.07100
H         -0.54910       -7.26730        0.00690
H         -0.76330        3.54900       -1.20950
H         -0.25860        1.98170       -0.58970
H         -0.55520        4.61630        0.95240
H          0.94750        3.75440        0.62820
H         -0.23400        3.09220        1.76890
H          0.08470        1.10720        1.21810
H          0.58960       -0.46530        1.82530
H          1.19860       -1.26980       -0.36630
H          0.52320        0.14020       -1.17140
H          1.96180        0.30400       -0.15200
H          6.07460       -6.82990        3.12530
H          6.56300       -3.19180        3.05720
H          7.47880       -4.70310        2.92330
H          7.20110       -4.63250        0.43790
H          6.28330       -3.13000        0.58300
H          7.99270       -3.16860        1.03000
H          5.08240       -8.77760        3.48600
H          0.20350      -12.72040        3.83160
H          4.95620      -14.15040        4.84200
H          2.93840      -16.89300        4.40270
H          3.27540      -17.12460        6.85850
H          2.86720      -14.75850        7.89320
H          0.36110      -14.04600        7.37780
H         -0.77680      -15.97530        6.02660
H          0.74820      -17.51230        7.55050
H          0.94750      -18.03570        5.85930
H          0.50310      -16.20390        3.90190
