178

C        -11.14990       -2.07100        4.55470
C        -10.50560       -0.96490        4.99690
C         -9.17500       -0.51120        4.48990
O         -8.42850       -1.08480        3.72810
C         -8.98830        0.84610        5.02720
C         -7.90130        1.68460        4.78420
C         -7.98300        2.90140        5.41450
C         -9.07060        3.26390        6.22270
C        -10.15340        2.45190        6.46070
C        -10.08900        1.20210        5.83230
C        -11.03400        0.09100        5.85080
C        -12.18140        0.02490        6.59340
C        -13.05080       -1.08650        6.63630
N        -13.79910       -1.95210        6.73000
C        -12.64810        1.05470        7.43820
N        -13.08520        1.85160        8.13930
C         -8.48500        4.61860        6.53720
C         -7.83300        4.78320        7.92680
C         -6.95010        6.00040        7.76950
C         -5.92270        5.65780        7.00290
C         -6.09410        4.20340        6.62850
C         -6.76690        3.68010        7.90400
C         -7.27520        4.21420        5.63480
C        -10.50270       -3.10160        3.76970
C         -9.23190       -3.57310        4.13680
C         -8.57810       -4.42740        3.28710
C         -7.19440       -4.95700        3.39450
O         -6.44280       -4.89730        4.33730
C         -6.94130       -5.55920        2.05960
C         -8.12020       -5.52170        1.28810
C         -9.14440       -4.82630        2.05730
C        -10.43800       -4.44800        1.74670
C        -11.11180       -3.60100        2.61640
C         -8.08990       -5.98160       -0.01640
C         -6.87830       -6.37550       -0.56690
C         -5.68990       -6.33770        0.17030
C         -5.74780       -5.97160        1.52660
C         -4.38870       -6.46410       -0.44980
C         -3.98500       -7.02070       -1.64940
C         -4.77650       -7.95220       -2.45420
C         -4.77690       -7.86300       -3.84320
C         -5.51390       -8.76210       -4.59110
C         -6.24720       -9.75530       -3.96700
C         -6.25280       -9.86440       -2.58090
C         -7.00620      -10.97250       -1.90290
C         -6.12590      -12.21760       -1.77920
C         -5.51120       -8.96160       -1.83630
C         -2.66860       -6.62100       -1.98400
S         -1.63110       -6.88110       -3.37350
C         -0.44140       -5.82510       -2.67730
C          0.79330       -5.22050       -2.99300
C          1.69780       -5.35820       -4.07050
C          2.90220       -4.56640       -4.08650
N          3.66600       -4.83610       -5.13260
S          2.94150       -5.97760       -6.02250
N          1.61910       -6.17350       -5.10970
C          3.09100       -3.57130       -3.09900
C          3.98970       -2.49480       -2.99180
S          5.36280       -1.83450       -3.81620
C          5.31150       -0.44390       -2.75550
C          6.08710        0.72580       -2.66720
C          7.28950        0.98230       -3.45430
C          8.43070        1.51370       -2.85580
C          9.53790        1.80760       -3.62780
C          9.52090        1.57380       -4.99310
C          8.40260        1.01630       -5.59910
C          8.35590        0.80030       -7.08410
C          7.83710        2.06020       -7.78070
C          7.29430        0.71970       -4.81970
C          5.60690        1.56720       -1.67140
S          4.26720        0.86970       -0.78280
C          4.28680       -0.51850       -1.80530
C          3.54600       -1.69730       -1.92990
N          2.44150       -2.25980       -1.34810
C          2.15120       -3.41520       -2.04450
C          1.09120       -4.34120       -1.91800
N          0.11920       -4.46530       -0.94170
C         -0.81760       -5.34100       -1.42320
C         -2.07850       -5.79480       -1.02980
S         -3.12250       -5.50290        0.30360
C          0.29290       -4.30710        0.48690
C          0.50450       -5.65580        1.17430
C          1.59950       -1.48150       -0.46630
C          2.19630       -1.33790        0.93350
C          6.05100        2.86430       -1.27980
C          5.94510        3.27920        0.07400
C          6.50360        4.50130        0.54920
N          6.24330        4.57410        1.85930
N          5.57920        3.48280        2.11880
C          5.13450        3.16650        3.44520
C          6.07380        2.15060        4.08760
N          5.37390        2.67220        1.11950
C          7.24770        5.37230       -0.28690
C          7.24020        5.00350       -1.62440
C          7.76110        5.74230       -2.80110
O          8.39670        6.77440       -2.84670
N          7.38490        5.01600       -3.90370
C          7.66140        5.41240       -5.26680
C          6.46550        6.11330       -5.90030
C          6.63890        3.88600       -3.57930
O          6.08620        3.19120       -4.39590
C          6.61810        3.82910       -2.10840
C          7.88230        6.52570        0.28720
C          9.07650        7.06120       -0.04440
C          9.42780        8.44840        0.37180
O          8.90040        9.09850        1.24030
C         10.50810        8.85020       -0.55410
C         11.10890       10.08880       -0.73260
Cl        10.67190       11.43150        0.23520
C         12.07980       10.23020       -1.72040
C         12.42110        9.13970       -2.50440
Br        13.72840        9.36960       -3.85360
C         11.84280        7.88610       -2.34010
C         10.88360        7.75180       -1.35380
C         10.11470        6.58230       -0.93750
C         10.45230        5.27800       -1.16310
C         11.50180        4.86930       -2.01240
N         12.32390        4.47730       -2.71030
C          9.81660        4.17920       -0.54810
N          9.38450        3.24080       -0.04690
H        -12.20960       -2.19140        4.74180
H         -7.08860        1.36390        4.15150
H        -10.98790        2.75160        7.07220
H         -9.08920        5.47570        6.24670
H         -8.53120        4.78910        8.75900
H         -7.18450        6.96770        8.17330
H         -5.12770        6.28160        6.63820
H         -5.20860        3.68030        6.27740
H         -6.10570        3.72960        8.76750
H         -7.17040        2.67340        7.81220
H         -7.07340        4.80010        4.74000
H         -8.77300       -3.26650        5.06360
H        -10.90970       -4.77210        0.83140
H        -12.10590       -3.26110        2.36290
H         -8.98040       -5.98420       -0.62680
H         -6.84190       -6.66190       -1.60670
H         -4.85460       -5.96030        2.13450
H         -4.21550       -7.08170       -4.33230
H         -5.51620       -8.68610       -5.66840
H         -6.82150      -10.45380       -4.55840
H         -7.89930      -11.21950       -2.48040
H         -7.31980      -10.65170       -0.90730
H         -5.23550      -11.99430       -1.19570
H         -5.81240      -12.55880       -2.76330
H         -6.67020      -13.02150       -1.28940
H         -5.49780       -9.04080       -0.75820
H          8.45570        1.68610       -1.78930
H         10.42120        2.22130       -3.16270
H         10.38800        1.82000       -5.58910
H          9.35280        0.56140       -7.45970
H          7.69240       -0.03580       -7.31180
H          6.87390        2.34670       -7.36440
H          8.53360        2.88450       -7.63970
H          7.72130        1.88660       -8.84800
H          6.40790        0.31580       -5.28470
H          1.16920       -3.69220        0.66400
H         -0.59440       -3.81650        0.90040
H         -0.37110       -6.29010        1.07140
H          0.69120       -5.49740        2.23300
H          1.36010       -6.16900        0.74010
H          1.49870       -0.48060       -0.90140
H          0.60770       -1.93240       -0.43630
H          2.45450       -2.30250        1.36440
H          3.09930       -0.73520        0.89610
H          1.47970       -0.84560        1.58470
H          4.12500        2.75540        3.37210
H          5.12300        4.09920        4.01110
H          5.72530        1.90660        5.08690
H          7.07950        2.55740        4.15590
H          6.10210        1.24220        3.49130
H          8.52750        6.07780       -5.23600
H          7.90740        4.50530       -5.82450
H          6.70430        6.39470       -6.92200
H          5.60750        5.44580       -5.91110
H          6.21150        7.01000       -5.33920
H          7.32510        7.02580        1.07240
H         12.55590       11.18560       -1.87460
H         12.12800        7.06460       -2.97690
