164

C          3.76620        9.87900       -7.12310
C          4.93190        9.70160       -6.45720
C          5.27220        8.50070       -5.63680
O          4.55990        7.56280       -5.35580
C          6.70370        8.63130       -5.31770
C          7.46870        7.73360       -4.57400
C          8.78330        8.10350       -4.43200
C          9.30520        9.27660       -4.99680
C          8.56300       10.17020       -5.73030
C          7.21650        9.81690       -5.88190
C          6.13720       10.51280       -6.57230
C          6.22620       11.74420       -7.16290
C          7.40740       12.51320       -7.23820
N          8.32880       13.19030       -7.33990
C          5.15380       12.43390       -7.76950
N          4.33380       13.06750       -8.26390
C         10.69140        9.01000       -4.46480
C         11.72640        8.46520       -5.47200
C         12.80000        7.86180       -4.59510
C         12.30570        6.75530       -4.05500
C         10.88950        6.59170       -4.55800
C         11.03890        7.18520       -5.96470
C         10.10810        7.70650       -3.83070
C          2.56610        9.09910       -6.91740
C          2.15410        8.72950       -5.62650
C          1.04670        7.93010       -5.49450
C          0.45000        7.36340       -4.25630
O          0.76240        7.58120       -3.11080
C         -0.62590        6.46420       -4.75260
C         -0.71200        6.55870       -6.15580
C          0.32420        7.47310       -6.61690
C          0.68730        7.89200       -7.88400
C          1.79560        8.71480       -8.01920
C         -1.63680        5.78720       -6.83580
C         -2.43290        4.90430       -6.12160
C         -2.33300        4.78500       -4.73150
C         -1.41840        5.59850       -4.04210
C         -3.06010        3.77100       -4.00040
C         -4.23370        3.10750       -4.29580
C         -5.18560        3.47090       -5.34760
C         -5.54300        4.80210       -5.55330
C         -6.48020        5.12100       -6.51600
C         -7.07150        4.12460       -7.27490
C         -6.72940        2.79290       -7.08090
C         -7.40170        1.69680       -7.85550
C         -8.54210        1.09250       -7.03380
C         -5.78660        2.47840       -6.11300
C         -4.47030        2.05240       -3.38480
S         -5.74580        0.86360       -3.24280
C         -4.94680        0.19830       -1.85700
C         -5.12550       -0.81960       -0.90460
C         -6.19430       -1.71320       -0.67530
C         -6.15050       -2.56920        0.47710
N         -7.24110       -3.30970        0.59810
S         -8.23520       -2.96490       -0.63210
N         -7.31340       -1.85640       -1.36820
C         -4.98830       -2.57950        1.27940
C         -4.61250       -3.39540        2.36010
S         -5.26290       -4.66960        3.33570
C         -3.73040       -4.77860        4.16990
C         -3.27860       -5.59940        5.21650
C         -4.13500       -6.60220        5.85740
C         -4.40000       -6.55210        7.22220
C         -5.23580       -7.49270        7.79130
C         -5.81380       -8.47700        7.00930
C         -5.57240       -8.52970        5.64310
C         -6.25010       -9.55040        4.77560
C         -7.55160       -8.97960        4.20800
C         -4.73490       -7.58120        5.07590
C         -1.95990       -5.32510        5.54500
S         -1.29470       -4.01280        4.56630
C         -2.78210       -3.86210        3.70510
C         -3.29010       -3.06860        2.67290
N         -2.84060       -2.06180        1.85640
C         -3.87710       -1.73920        0.99180
C         -4.00150       -0.76680       -0.03280
N         -3.19660        0.28930       -0.41930
C         -3.76460        0.86230       -1.52500
C         -3.49690        1.92770       -2.39430
S         -2.26990        3.12530       -2.57060
C         -2.19550        1.01370        0.33100
C         -0.80280        0.89290       -0.28580
C         -1.41310       -1.94480        1.64510
C         -0.97070       -2.77020        0.43860
C         -1.09480       -5.98740        6.44850
C          0.21110       -5.59760        6.72160
C          0.85740       -6.45570        7.60040
O          2.11470       -6.39550        8.05670
C          2.92000       -5.27470        7.72940
C          2.55210       -4.04090        8.54510
C          0.04120       -7.53790        8.02140
S         -1.54050       -7.44010        7.28070
C          0.50910       -8.49270        8.91650
C         -0.11800       -9.60750        9.43330
C         -1.47010      -10.04780        9.10190
O         -2.27940       -9.51200        8.36390
C         -1.68130      -11.30710        9.85050
C         -2.79540      -12.11950        9.86450
C         -2.76140      -13.26790       10.64680
Cl        -4.11650      -14.32710       10.70980
C         -1.61380      -13.55910       11.38500
F         -1.58660      -14.66890       12.13510
C         -0.49130      -12.74430       11.37590
C         -0.52700      -11.59990       10.59610
C          0.46220      -10.54490       10.36580
C          1.69830      -10.48450       10.96060
C          2.18630      -11.45190       11.86280
N          2.64690      -12.20110       12.60130
C          2.65610       -9.46490       10.78270
N          3.49550       -8.68330       10.71210
H          3.71220       10.62950       -7.90230
H          7.02410        6.84360       -4.15700
H          8.97860       11.06840       -6.15530
H         11.10050        9.77330       -3.80600
H         12.05180        9.18070       -6.22210
H         13.75730        8.31650       -4.42020
H         12.76720        6.10110       -3.33880
H         10.45210        5.60040       -4.47550
H         11.69150        6.58530       -6.59690
H         10.09380        7.35700       -6.47680
H         10.12480        7.60160       -2.74760
H          2.68170        9.07600       -4.75260
H          0.13240        7.57920       -8.75560
H          2.10380        9.03220       -9.00530
H         -1.72470        5.84040       -7.91040
H         -3.12360        4.26830       -6.65360
H         -1.32320        5.53440       -2.96780
H         -5.09110        5.57670       -4.95140
H         -6.75740        6.15320       -6.67220
H         -7.80700        4.38360       -8.02290
H         -6.67770        0.91440       -8.09330
H         -7.79890        2.09210       -8.79230
H         -9.28160        1.85430       -6.79730
H         -9.02990        0.29540       -7.58980
H         -8.16170        0.68450       -6.10020
H         -5.50580        1.44630       -5.96100
H         -3.95840       -5.77350        7.82650
H         -5.43830       -7.45730        8.85110
H         -6.46270       -9.21180        7.46350
H         -6.47110      -10.44620        5.35870
H         -5.59140       -9.83210        3.95170
H         -8.04330       -9.71200        3.57200
H         -7.34900       -8.08720        3.62000
H         -8.22910       -8.70930        5.01490
H         -4.53180       -7.61140        4.01470
H         -2.48320        2.07150        0.32970
H         -2.22050        0.67250        1.36670
H         -0.51550       -0.14470       -0.42820
H         -0.07380        1.37890        0.35680
H         -0.78190        1.38380       -1.25460
H         -1.11400       -0.90770        1.52640
H         -0.93220       -2.32710        2.54900
H          0.10450       -2.68730        0.30450
H         -1.46900       -2.42470       -0.46500
H         -1.22180       -3.81790        0.58770
H          0.64810       -4.71980        6.27870
H          2.86330       -5.06720        6.65430
H          3.93500       -5.59680        7.97410
H          2.63030       -4.26610        9.60550
H          3.23310       -3.22940        8.30530
H          1.53430       -3.72220        8.33270
H          1.52840       -8.30570        9.23220
H         -3.66650      -11.86690        9.28150
H          0.36200      -13.02900       11.96940
