
  xtb     02262204233D
 energy: -345.356314668592 gnorm: 0.000993347689 xtb: 6.4.1 (unknown)
199221  0     0  0            999 V2000
    1.4700    2.1385  -11.7527 C   0  0  0  0  0  0  0  0  0  0  0  0
    1.4199    3.4498  -12.1098 C   0  0  0  0  0  0  0  0  0  0  0  0
    0.8400    4.5869  -11.3495 C   0  0  0  0  0  0  0  0  0  0  0  0
    0.0264    4.5694  -10.4493 O   0  0  0  0  0  0  0  0  0  0  0  0
    1.4970    5.7944  -11.8875 C   0  0  0  0  0  0  0  0  0  0  0  0
    1.3723    7.0939  -11.3989 C   0  0  0  0  0  0  0  0  0  0  0  0
    2.1261    8.0210  -12.0765 C   0  0  0  0  0  0  0  0  0  0  0  0
    2.9484    7.6837  -13.1608 C   0  0  0  0  0  0  0  0  0  0  0  0
    3.0782    6.4083  -13.6556 C   0  0  0  0  0  0  0  0  0  0  0  0
    2.3159    5.4490  -12.9806 C   0  0  0  0  0  0  0  0  0  0  0  0
    2.2081    4.0124  -13.1977 C   0  0  0  0  0  0  0  0  0  0  0  0
    2.6893    3.3207  -14.2765 C   0  0  0  0  0  0  0  0  0  0  0  0
    2.4689    1.9463  -14.5141 C   0  0  0  0  0  0  0  0  0  0  0  0
    2.3051    0.8460  -14.7994 N   0  0  0  0  0  0  0  0  0  0  0  0
    3.4254    3.9036  -15.3289 C   0  0  0  0  0  0  0  0  0  0  0  0
    4.0305    4.3175  -16.2127 N   0  0  0  0  0  0  0  0  0  0  0  0
    3.4212    9.1042  -13.3465 C   0  0  0  0  0  0  0  0  0  0  0  0
    2.7941    9.8948  -14.5141 C   0  0  0  0  0  0  0  0  0  0  0  0
    3.0672   11.3390  -14.1604 C   0  0  0  0  0  0  0  0  0  0  0  0
    2.2863   11.6583  -13.1362 C   0  0  0  0  0  0  0  0  0  0  0  0
    1.4722   10.4352  -12.7803 C   0  0  0  0  0  0  0  0  0  0  0  0
    1.3001    9.8177  -14.1741 C   0  0  0  0  0  0  0  0  0  0  0  0
    2.5022    9.4803  -12.1402 C   0  0  0  0  0  0  0  0  0  0  0  0
    0.7749    1.4388  -10.7141 C   0  0  0  0  0  0  0  0  0  0  0  0
   -0.5043    1.7962  -10.2785 C   0  0  0  0  0  0  0  0  0  0  0  0
   -1.1547    1.0998   -9.2781 C   0  0  0  0  0  0  0  0  0  0  0  0
   -2.3576    1.4309   -8.7509 O   0  0  0  0  0  0  0  0  0  0  0  0
   -3.0138    2.6109   -9.1801 C   0  0  0  0  0  0  0  0  0  0  0  0
   -3.7959    2.4135  -10.4740 C   0  0  0  0  0  0  0  0  0  0  0  0
   -0.5084   -0.0171   -8.7022 C   0  0  0  0  0  0  0  0  0  0  0  0
    0.7605   -0.3861   -9.1371 C   0  0  0  0  0  0  0  0  0  0  0  0
    1.4108    0.3076  -10.1447 C   0  0  0  0  0  0  0  0  0  0  0  0
    2.6580    0.0327  -10.6014 O   0  0  0  0  0  0  0  0  0  0  0  0
    3.2763   -1.1998  -10.2814 C   0  0  0  0  0  0  0  0  0  0  0  0
    2.6372   -2.3764  -11.0109 C   0  0  0  0  0  0  0  0  0  0  0  0
   -1.1388   -0.7388   -7.6132 C   0  0  0  0  0  0  0  0  0  0  0  0
   -2.4367   -1.1825   -7.5068 C   0  0  0  0  0  0  0  0  0  0  0  0
   -3.3888   -1.1675   -8.6154 C   0  0  0  0  0  0  0  0  0  0  0  0
   -4.7337   -0.8821   -8.3995 C   0  0  0  0  0  0  0  0  0  0  0  0
   -5.6129   -0.8665   -9.4656 C   0  0  0  0  0  0  0  0  0  0  0  0
   -5.1662   -1.1346  -10.7490 C   0  0  0  0  0  0  0  0  0  0  0  0
   -3.8303   -1.4373  -10.9801 C   0  0  0  0  0  0  0  0  0  0  0  0
   -3.3143   -1.7008  -12.3661 C   0  0  0  0  0  0  0  0  0  0  0  0
   -2.6361   -0.4528  -12.9348 C   0  0  0  0  0  0  0  0  0  0  0  0
   -2.9554   -1.4559   -9.9055 C   0  0  0  0  0  0  0  0  0  0  0  0
   -2.6929   -1.7124   -6.2207 C   0  0  0  0  0  0  0  0  0  0  0  0
   -4.1188   -2.3925   -5.4734 S   0  0  0  0  0  0  0  0  0  0  0  0
   -3.2256   -2.5994   -4.0041 C   0  0  0  0  0  0  0  0  0  0  0  0
   -3.4402   -2.9866   -2.6715 C   0  0  0  0  0  0  0  0  0  0  0  0
   -4.6240   -3.3583   -1.9987 C   0  0  0  0  0  0  0  0  0  0  0  0
   -4.5899   -3.5154   -0.5736 C   0  0  0  0  0  0  0  0  0  0  0  0
   -5.7794   -3.7985   -0.0661 N   0  0  0  0  0  0  0  0  0  0  0  0
   -6.8494   -3.8695   -1.2797 S   0  0  0  0  0  0  0  0  0  0  0  0
   -5.8372   -3.5359   -2.4981 N   0  0  0  0  0  0  0  0  0  0  0  0
   -3.3543   -3.3897    0.0970 C   0  0  0  0  0  0  0  0  0  0  0  0
   -3.0271   -3.5189    1.4558 C   0  0  0  0  0  0  0  0  0  0  0  0
   -3.8157   -3.7547    2.9792 S   0  0  0  0  0  0  0  0  0  0  0  0
   -2.2616   -3.6376    3.7679 C   0  0  0  0  0  0  0  0  0  0  0  0
   -1.8806   -3.6526    5.1176 C   0  0  0  0  0  0  0  0  0  0  0  0
   -2.7990   -3.8454    6.2507 C   0  0  0  0  0  0  0  0  0  0  0  0
   -2.8008   -5.0510    6.9452 C   0  0  0  0  0  0  0  0  0  0  0  0
   -3.6260   -5.2072    8.0428 C   0  0  0  0  0  0  0  0  0  0  0  0
   -4.4413   -4.1682    8.4552 C   0  0  0  0  0  0  0  0  0  0  0  0
   -4.4616   -2.9653    7.7611 C   0  0  0  0  0  0  0  0  0  0  0  0
   -5.3821   -1.8557    8.1787 C   0  0  0  0  0  0  0  0  0  0  0  0
   -6.7116   -1.9581    7.4287 C   0  0  0  0  0  0  0  0  0  0  0  0
   -3.6440   -2.8183    6.6498 C   0  0  0  0  0  0  0  0  0  0  0  0
   -0.5187   -3.4609    5.2642 C   0  0  0  0  0  0  0  0  0  0  0  0
    0.3069   -3.3055    3.7177 S   0  0  0  0  0  0  0  0  0  0  0  0
   -1.1976   -3.4500    2.8787 C   0  0  0  0  0  0  0  0  0  0  0  0
   -1.6404   -3.3789    1.5541 C   0  0  0  0  0  0  0  0  0  0  0  0
   -1.0989   -3.1535    0.3159 N   0  0  0  0  0  0  0  0  0  0  0  0
   -2.1402   -3.1295   -0.6005 C   0  0  0  0  0  0  0  0  0  0  0  0
   -2.2021   -2.8262   -1.9866 C   0  0  0  0  0  0  0  0  0  0  0  0
   -1.2688   -2.3428   -2.8910 N   0  0  0  0  0  0  0  0  0  0  0  0
   -1.8953   -2.1894   -4.0972 C   0  0  0  0  0  0  0  0  0  0  0  0
   -1.5899   -1.6836   -5.3691 C   0  0  0  0  0  0  0  0  0  0  0  0
   -0.2055   -1.0107   -6.1558 S   0  0  0  0  0  0  0  0  0  0  0  0
    0.0036   -1.6967   -2.6662 C   0  0  0  0  0  0  0  0  0  0  0  0
   -0.1455   -0.4508   -1.7961 C   0  0  0  0  0  0  0  0  0  0  0  0
    0.3145   -3.3861    0.1125 C   0  0  0  0  0  0  0  0  0  0  0  0
    0.5610   -4.6396   -0.7230 C   0  0  0  0  0  0  0  0  0  0  0  0
    0.2113   -3.2645    6.4658 C   0  0  0  0  0  0  0  0  0  0  0  0
    1.5643   -3.1007    6.6073 C   0  0  0  0  0  0  0  0  0  0  0  0
    1.9693   -2.8117    7.9292 C   0  0  0  0  0  0  0  0  0  0  0  0
    3.2670   -2.5268    8.4075 C   0  0  0  0  0  0  0  0  0  0  0  0
    4.4236   -2.6764    7.5493 C   0  0  0  0  0  0  0  0  0  0  0  0
    4.6577   -3.6638    6.6327 C   0  0  0  0  0  0  0  0  0  0  0  0
    5.8909   -3.4927    5.9766 C   0  0  0  0  0  0  0  0  0  0  0  0
    6.3256   -4.3550    5.0380 F   0  0  0  0  0  0  0  0  0  0  0  0
    6.6120   -2.4016    6.3620 C   0  0  0  0  0  0  0  0  0  0  0  0
    7.9277   -1.9313    5.8466 C   0  0  0  0  0  0  0  0  0  0  0  0
    7.7818   -0.6498    5.0242 C   0  0  0  0  0  0  0  0  0  0  0  0
    5.7442   -1.5405    7.5856 S   0  0  0  0  0  0  0  0  0  0  0  0
    3.3633   -2.1077    9.7300 C   0  0  0  0  0  0  0  0  0  0  0  0
    2.2429   -2.0017   10.6025 C   0  0  0  0  0  0  0  0  0  0  0  0
    0.9492   -2.3335   10.1346 C   0  0  0  0  0  0  0  0  0  0  0  0
   -0.2452   -2.2144   10.9417 C   0  0  0  0  0  0  0  0  0  0  0  0
   -0.4953   -0.8626   12.0120 S   0  0  0  0  0  0  0  0  0  0  0  0
   -2.0889   -1.3868   12.4176 C   0  0  0  0  0  0  0  0  0  0  0  0
   -2.9699   -0.6019   13.3239 C   0  0  0  0  0  0  0  0  0  0  0  0
   -3.4695    0.6840   12.6498 C   0  0  0  0  0  0  0  0  0  0  0  0
   -4.3257    0.3881   11.4252 C   0  0  0  0  0  0  0  0  0  0  0  0
   -2.3738   -2.5425   11.7487 C   0  0  0  0  0  0  0  0  0  0  0  0
   -1.3523   -3.0206   10.9111 C   0  0  0  0  0  0  0  0  0  0  0  0
   -3.5509   -3.1820   11.8780 F   0  0  0  0  0  0  0  0  0  0  0  0
    0.8600   -2.7342    8.8099 C   0  0  0  0  0  0  0  0  0  0  0  0
   -0.6331   -3.0915    7.9878 S   0  0  0  0  0  0  0  0  0  0  0  0
    2.6060   -1.5900   11.8944 C   0  0  0  0  0  0  0  0  0  0  0  0
    3.9536   -1.3521   12.0456 C   0  0  0  0  0  0  0  0  0  0  0  0
    4.8311   -1.6765   10.5486 S   0  0  0  0  0  0  0  0  0  0  0  0
    4.7272   -0.9061   13.1345 C   0  0  0  0  0  0  0  0  0  0  0  0
    4.3798   -0.4797   14.3906 C   0  0  0  0  0  0  0  0  0  0  0  0
    3.0313   -0.3142   14.9743 C   0  0  0  0  0  0  0  0  0  0  0  0
    1.9510   -0.6438   14.5312 O   0  0  0  0  0  0  0  0  0  0  0  0
    3.2418    0.3600   16.2745 C   0  0  0  0  0  0  0  0  0  0  0  0
    2.2876    0.7807   17.1773 C   0  0  0  0  0  0  0  0  0  0  0  0
    2.7111    1.4101   18.3418 C   0  0  0  0  0  0  0  0  0  0  0  0
    1.5536    1.9521   19.4901 Cl  0  0  0  0  0  0  0  0  0  0  0  0
    4.0767    1.5995   18.5694 C   0  0  0  0  0  0  0  0  0  0  0  0
    4.6538    2.4644   20.1492 Br  0  0  0  0  0  0  0  0  0  0  0  0
    5.0366    1.1697   17.6613 C   0  0  0  0  0  0  0  0  0  0  0  0
    4.6151    0.5413   16.5004 C   0  0  0  0  0  0  0  0  0  0  0  0
    5.3531   -0.0158   15.3687 C   0  0  0  0  0  0  0  0  0  0  0  0
    6.7187   -0.1049   15.2998 C   0  0  0  0  0  0  0  0  0  0  0  0
    7.4755   -0.6913   14.2619 C   0  0  0  0  0  0  0  0  0  0  0  0
    8.1826   -1.1548   13.4842 N   0  0  0  0  0  0  0  0  0  0  0  0
    7.5894    0.3699   16.3051 C   0  0  0  0  0  0  0  0  0  0  0  0
    8.3510    0.7324   17.0836 N   0  0  0  0  0  0  0  0  0  0  0  0
    2.1959    1.5206  -12.2692 H   0  0  0  0  0  0  0  0  0  0  0  0
    0.7353    7.3096  -10.5553 H   0  0  0  0  0  0  0  0  0  0  0  0
    3.7235    6.1588  -14.4815 H   0  0  0  0  0  0  0  0  0  0  0  0
    4.4940    9.2620  -13.2530 H   0  0  0  0  0  0  0  0  0  0  0  0
    3.1012    9.5660  -15.5030 H   0  0  0  0  0  0  0  0  0  0  0  0
    3.8155   11.9428  -14.6391 H   0  0  0  0  0  0  0  0  0  0  0  0
    2.2520   12.5819  -12.5886 H   0  0  0  0  0  0  0  0  0  0  0  0
    0.5747   10.5994  -12.1900 H   0  0  0  0  0  0  0  0  0  0  0  0
    0.6961   10.4432  -14.8293 H   0  0  0  0  0  0  0  0  0  0  0  0
    0.8989    8.8059  -14.1650 H   0  0  0  0  0  0  0  0  0  0  0  0
    2.9621    9.8906  -11.2430 H   0  0  0  0  0  0  0  0  0  0  0  0
   -0.9731    2.6417  -10.7468 H   0  0  0  0  0  0  0  0  0  0  0  0
   -2.2977    3.4354   -9.2730 H   0  0  0  0  0  0  0  0  0  0  0  0
   -3.7072    2.8384   -8.3652 H   0  0  0  0  0  0  0  0  0  0  0  0
   -4.3618    3.3143  -10.6954 H   0  0  0  0  0  0  0  0  0  0  0  0
   -4.4824    1.5774  -10.3643 H   0  0  0  0  0  0  0  0  0  0  0  0
   -3.1300    2.2036  -11.3066 H   0  0  0  0  0  0  0  0  0  0  0  0
    1.2225   -1.2369   -8.6599 H   0  0  0  0  0  0  0  0  0  0  0  0
    3.2830   -1.3619   -9.1968 H   0  0  0  0  0  0  0  0  0  0  0  0
    4.3092   -1.0704  -10.6155 H   0  0  0  0  0  0  0  0  0  0  0  0
    3.1959   -3.2842  -10.8014 H   0  0  0  0  0  0  0  0  0  0  0  0
    2.6481   -2.1928  -12.0824 H   0  0  0  0  0  0  0  0  0  0  0  0
    1.6059   -2.5160  -10.6956 H   0  0  0  0  0  0  0  0  0  0  0  0
   -5.0827   -0.6555   -7.4039 H   0  0  0  0  0  0  0  0  0  0  0  0
   -6.6554   -0.6391   -9.2962 H   0  0  0  0  0  0  0  0  0  0  0  0
   -5.8609   -1.1144  -11.5767 H   0  0  0  0  0  0  0  0  0  0  0  0
   -2.5902   -2.5180  -12.3375 H   0  0  0  0  0  0  0  0  0  0  0  0
   -4.1362   -1.9961  -13.0208 H   0  0  0  0  0  0  0  0  0  0  0  0
   -1.8280   -0.1279  -12.2817 H   0  0  0  0  0  0  0  0  0  0  0  0
   -2.2229   -0.6586  -13.9194 H   0  0  0  0  0  0  0  0  0  0  0  0
   -3.3557    0.3583  -13.0242 H   0  0  0  0  0  0  0  0  0  0  0  0
   -1.9184   -1.7100  -10.0735 H   0  0  0  0  0  0  0  0  0  0  0  0
   -2.1496   -5.8521    6.6270 H   0  0  0  0  0  0  0  0  0  0  0  0
   -3.6257   -6.1409    8.5858 H   0  0  0  0  0  0  0  0  0  0  0  0
   -5.0637   -4.2884    9.3297 H   0  0  0  0  0  0  0  0  0  0  0  0
   -4.9205   -0.8895    7.9637 H   0  0  0  0  0  0  0  0  0  0  0  0
   -5.5666   -1.9158    9.2527 H   0  0  0  0  0  0  0  0  0  0  0  0
   -7.1955   -2.9076    7.6460 H   0  0  0  0  0  0  0  0  0  0  0  0
   -6.5467   -1.8971    6.3553 H   0  0  0  0  0  0  0  0  0  0  0  0
   -7.3785   -1.1518    7.7253 H   0  0  0  0  0  0  0  0  0  0  0  0
   -3.6415   -1.8869    6.1014 H   0  0  0  0  0  0  0  0  0  0  0  0
    0.7219   -2.4002   -2.2450 H   0  0  0  0  0  0  0  0  0  0  0  0
    0.3806   -1.4040   -3.6492 H   0  0  0  0  0  0  0  0  0  0  0  0
   -0.5922   -0.6926   -0.8346 H   0  0  0  0  0  0  0  0  0  0  0  0
   -0.7860    0.2728   -2.2949 H   0  0  0  0  0  0  0  0  0  0  0  0
    0.8269    0.0051   -1.6297 H   0  0  0  0  0  0  0  0  0  0  0  0
    0.7505   -3.5240    1.1052 H   0  0  0  0  0  0  0  0  0  0  0  0
    0.7939   -2.5102   -0.3257 H   0  0  0  0  0  0  0  0  0  0  0  0
    1.6284   -4.7876   -0.8634 H   0  0  0  0  0  0  0  0  0  0  0  0
    0.1543   -5.5107   -0.2142 H   0  0  0  0  0  0  0  0  0  0  0  0
    0.0837   -4.5641   -1.6972 H   0  0  0  0  0  0  0  0  0  0  0  0
    2.2375   -3.1427    5.7703 H   0  0  0  0  0  0  0  0  0  0  0  0
    4.0101   -4.5029    6.4592 H   0  0  0  0  0  0  0  0  0  0  0  0
    8.3569   -2.7222    5.2276 H   0  0  0  0  0  0  0  0  0  0  0  0
    8.6016   -1.7449    6.6863 H   0  0  0  0  0  0  0  0  0  0  0  0
    7.3555    0.1429    5.6349 H   0  0  0  0  0  0  0  0  0  0  0  0
    7.1301   -0.8189    4.1699 H   0  0  0  0  0  0  0  0  0  0  0  0
    8.7536   -0.3264    4.6610 H   0  0  0  0  0  0  0  0  0  0  0  0
   -2.4183   -0.3398   14.2297 H   0  0  0  0  0  0  0  0  0  0  0  0
   -3.8234   -1.2238   13.6028 H   0  0  0  0  0  0  0  0  0  0  0  0
   -2.6081    1.2899   12.3599 H   0  0  0  0  0  0  0  0  0  0  0  0
   -4.0535    1.2526   13.3757 H   0  0  0  0  0  0  0  0  0  0  0  0
   -3.7489   -0.1420   10.6702 H   0  0  0  0  0  0  0  0  0  0  0  0
   -5.1794   -0.2283   11.6986 H   0  0  0  0  0  0  0  0  0  0  0  0
   -4.6951    1.3124   10.9877 H   0  0  0  0  0  0  0  0  0  0  0  0
   -1.4372   -3.9321   10.3498 H   0  0  0  0  0  0  0  0  0  0  0  0
    1.9133   -1.4729   12.7059 H   0  0  0  0  0  0  0  0  0  0  0  0
    5.7855   -0.8712   12.9037 H   0  0  0  0  0  0  0  0  0  0  0  0
    1.2388    0.6252   16.9799 H   0  0  0  0  0  0  0  0  0  0  0  0
    6.0784    1.3395   17.8787 H   0  0  0  0  0  0  0  0  0  0  0  0
  1  2  2  0  0  0  0
  2  3  1  0  0  0  0
  3  4  2  0  0  0  0
  3  5  1  0  0  0  0
  5  6  2  0  0  0  0
  6  7  1  0  0  0  0
  7  8  2  0  0  0  0
  8  9  1  0  0  0  0
  9 10  2  0  0  0  0
 10 11  1  0  0  0  0
 11 12  2  0  0  0  0
 12 13  1  0  0  0  0
 13 14  3  0  0  0  0
 12 15  1  0  0  0  0
 15 16  3  0  0  0  0
  8 17  1  0  0  0  0
 17 18  1  0  0  0  0
 18 19  1  0  0  0  0
 19 20  2  0  0  0  0
 20 21  1  0  0  0  0
 21 22  1  0  0  0  0
 21 23  1  0  0  0  0
  1 24  1  0  0  0  0
 24 25  2  0  0  0  0
 25 26  1  0  0  0  0
 26 27  1  0  0  0  0
 27 28  1  0  0  0  0
 28 29  1  0  0  0  0
 26 30  2  0  0  0  0
 30 31  1  0  0  0  0
 31 32  2  0  0  0  0
 32 33  1  0  0  0  0
 33 34  1  0  0  0  0
 34 35  1  0  0  0  0
 30 36  1  0  0  0  0
 36 37  2  0  0  0  0
 37 38  1  0  0  0  0
 38 39  2  0  0  0  0
 39 40  1  0  0  0  0
 40 41  2  0  0  0  0
 41 42  1  0  0  0  0
 42 43  1  0  0  0  0
 43 44  1  0  0  0  0
 42 45  2  0  0  0  0
 37 46  1  0  0  0  0
 46 47  1  0  0  0  0
 47 48  1  0  0  0  0
 48 49  1  0  0  0  0
 49 50  1  0  0  0  0
 50 51  1  0  0  0  0
 51 52  2  0  0  0  0
 52 53  1  0  0  0  0
 53 54  1  0  0  0  0
 51 55  1  0  0  0  0
 55 56  1  0  0  0  0
 56 57  1  0  0  0  0
 57 58  1  0  0  0  0
 58 59  1  0  0  0  0
 59 60  1  0  0  0  0
 60 61  2  0  0  0  0
 61 62  1  0  0  0  0
 62 63  2  0  0  0  0
 63 64  1  0  0  0  0
 64 65  1  0  0  0  0
 65 66  1  0  0  0  0
 64 67  2  0  0  0  0
 59 68  2  0  0  0  0
 68 69  1  0  0  0  0
 69 70  1  0  0  0  0
 70 71  1  0  0  0  0
 71 72  1  0  0  0  0
 72 73  1  0  0  0  0
 73 74  1  0  0  0  0
 74 75  1  0  0  0  0
 75 76  1  0  0  0  0
 76 77  1  0  0  0  0
 77 78  1  0  0  0  0
 75 79  1  0  0  0  0
 79 80  1  0  0  0  0
 72 81  1  0  0  0  0
 81 82  1  0  0  0  0
 68 83  1  0  0  0  0
 83 84  2  0  0  0  0
 84 85  1  0  0  0  0
 85 86  2  0  0  0  0
 86 87  1  0  0  0  0
 87 88  2  0  0  0  0
 88 89  1  0  0  0  0
 89 90  1  0  0  0  0
 89 91  2  0  0  0  0
 91 92  1  0  0  0  0
 92 93  1  0  0  0  0
 91 94  1  0  0  0  0
 86 95  1  0  0  0  0
 95 96  2  0  0  0  0
 96 97  1  0  0  0  0
 97 98  1  0  0  0  0
 98 99  1  0  0  0  0
 99100  1  0  0  0  0
100101  1  0  0  0  0
101102  1  0  0  0  0
102103  1  0  0  0  0
100104  2  0  0  0  0
104105  1  0  0  0  0
104106  1  0  0  0  0
 97107  2  0  0  0  0
107108  1  0  0  0  0
 96109  1  0  0  0  0
109110  2  0  0  0  0
110111  1  0  0  0  0
110112  1  0  0  0  0
112113  2  0  0  0  0
113114  1  0  0  0  0
114115  2  0  0  0  0
114116  1  0  0  0  0
116117  2  0  0  0  0
117118  1  0  0  0  0
118119  1  0  0  0  0
118120  2  0  0  0  0
120121  1  0  0  0  0
120122  1  0  0  0  0
122123  2  0  0  0  0
123124  1  0  0  0  0
124125  2  0  0  0  0
125126  1  0  0  0  0
126127  3  0  0  0  0
125128  1  0  0  0  0
128129  3  0  0  0  0
 11  2  1  0  0  0  0
 23 17  1  0  0  0  0
 32 24  1  0  0  0  0
 78 36  1  0  0  0  0
108 83  1  0  0  0  0
124113  1  0  0  0  0
 10  5  1  0  0  0  0
 22 18  1  0  0  0  0
 45 38  1  0  0  0  0
 77 46  2  0  0  0  0
107 85  1  0  0  0  0
123116  1  0  0  0  0
 23  7  1  0  0  0  0
 76 48  2  0  0  0  0
 94 87  1  0  0  0  0
111 95  1  0  0  0  0
 74 49  2  0  0  0  0
105 98  2  0  0  0  0
 54 50  2  0  0  0  0
 73 55  2  0  0  0  0
 71 56  2  0  0  0  0
 70 58  2  0  0  0  0
 67 60  1  0  0  0  0
  1130  1  0  0  0  0
  6131  1  0  0  0  0
  9132  1  0  0  0  0
 17133  1  0  0  0  0
 18134  1  0  0  0  0
 19135  1  0  0  0  0
 20136  1  0  0  0  0
 21137  1  0  0  0  0
 22138  1  0  0  0  0
 22139  1  0  0  0  0
 23140  1  0  0  0  0
 25141  1  0  0  0  0
 28142  1  0  0  0  0
 28143  1  0  0  0  0
 29144  1  0  0  0  0
 29145  1  0  0  0  0
 29146  1  0  0  0  0
 31147  1  0  0  0  0
 34148  1  0  0  0  0
 34149  1  0  0  0  0
 35150  1  0  0  0  0
 35151  1  0  0  0  0
 35152  1  0  0  0  0
 39153  1  0  0  0  0
 40154  1  0  0  0  0
 41155  1  0  0  0  0
 43156  1  0  0  0  0
 43157  1  0  0  0  0
 44158  1  0  0  0  0
 44159  1  0  0  0  0
 44160  1  0  0  0  0
 45161  1  0  0  0  0
 61162  1  0  0  0  0
 62163  1  0  0  0  0
 63164  1  0  0  0  0
 65165  1  0  0  0  0
 65166  1  0  0  0  0
 66167  1  0  0  0  0
 66168  1  0  0  0  0
 66169  1  0  0  0  0
 67170  1  0  0  0  0
 79171  1  0  0  0  0
 79172  1  0  0  0  0
 80173  1  0  0  0  0
 80174  1  0  0  0  0
 80175  1  0  0  0  0
 81176  1  0  0  0  0
 81177  1  0  0  0  0
 82178  1  0  0  0  0
 82179  1  0  0  0  0
 82180  1  0  0  0  0
 84181  1  0  0  0  0
 88182  1  0  0  0  0
 92183  1  0  0  0  0
 92184  1  0  0  0  0
 93185  1  0  0  0  0
 93186  1  0  0  0  0
 93187  1  0  0  0  0
101188  1  0  0  0  0
101189  1  0  0  0  0
102190  1  0  0  0  0
102191  1  0  0  0  0
103192  1  0  0  0  0
103193  1  0  0  0  0
103194  1  0  0  0  0
105195  1  0  0  0  0
109196  1  0  0  0  0
112197  1  0  0  0  0
117198  1  0  0  0  0
122199  1  0  0  0  0
M  END
