192

C          5.34420       -7.51880       -3.83520
C          6.17120       -6.98370       -4.77450
C          6.50480       -5.54260       -4.91150
O          6.29850       -4.63710       -4.12720
C          7.09250       -5.39860       -6.25260
C          7.48990       -4.20860       -6.85950
C          8.00450       -4.36980       -8.12250
C          8.11810       -5.62390       -8.73910
C          7.73550       -6.80550       -8.14980
C          7.20490       -6.66380       -6.86420
C          6.68630       -7.67090       -5.94440
C          6.74320       -9.02750       -6.11960
C          6.29290       -9.98230       -5.18220
N          5.95330      -10.82140       -4.47600
C          7.28810       -9.66150       -7.25590
N          7.70660      -10.23790       -8.15610
C          8.69420       -5.03780      -10.00350
C          7.75470       -4.90470      -11.22770
C          6.35320       -4.78740      -10.68180
C          6.24430       -3.60190      -10.09720
C          7.57030       -2.89560      -10.23780
C          8.02260       -3.43830      -11.60280
C          8.56780       -3.64150       -9.31660
C          4.87020       -6.84530       -2.68020
S          3.24060       -7.14720       -2.13490
C          3.34820       -5.90520       -0.91530
C          4.62510       -5.32900       -0.91710
C          5.05640       -4.22960       -0.06100
O          4.33520       -3.72260        0.79300
C          6.40090       -3.73330       -0.33780
C          6.95140       -2.61600        0.24290
C          6.35260       -1.68240        1.23330
C          5.38270       -0.70900        0.55710
S          8.53970       -2.32140       -0.37510
C          8.49020       -3.72630       -1.38720
C          9.66000       -4.10120       -2.22090
C         10.59450       -5.03610       -1.44760
C          7.29200       -4.37480       -1.25600
C          6.93520       -5.61340       -1.94400
O          7.74540       -6.38130       -2.42700
C          5.48470       -5.89620       -1.88910
C          2.17290       -5.55320       -0.20150
C          0.99740       -6.30640       -0.12660
C          0.88390       -7.72910       -0.45030
C         -0.16940       -8.18960       -1.23370
C         -0.27900       -9.53920       -1.51240
C          0.64940      -10.43370       -1.01150
C          1.70030       -9.99330       -0.21430
C          2.67780      -10.96990        0.37220
C          2.16410      -11.50130        1.71170
C          1.80250       -8.64080        0.06620
C         -0.07010       -5.54410        0.36030
S         -1.75820       -5.90740        0.65890
C         -1.99710       -4.26280        1.14790
C         -3.04680       -3.39510        1.48720
C         -4.44840       -3.57630        1.49970
C         -5.29990       -2.42710        1.64030
N         -6.58360       -2.73550        1.54780
S         -6.71320       -4.33250        1.31450
N         -5.13520       -4.69230        1.31520
C         -4.71440       -1.16490        1.88460
C         -5.26930        0.11060        2.08490
S         -6.81410        0.89550        2.05980
C         -6.02130        2.41200        2.42120
C         -6.49590        3.71960        2.59540
C         -7.91910        4.07640        2.53780
C         -8.63970        3.89060        1.36440
C         -9.97750        4.23830        1.31960
C        -10.60080        4.76050        2.43840
C         -9.89970        4.93090        3.62670
C        -10.59150        5.44040        4.85810
C        -11.23530        4.28250        5.62330
C         -8.55960        4.57930        3.66620
C         -5.45930        4.61020        2.84460
S         -3.88990        3.81000        2.90030
C         -4.63520        2.29140        2.56410
C         -4.20890        0.97530        2.37400
N         -3.02020        0.29180        2.36050
C         -3.30560       -1.02000        2.02130
C         -2.46550       -2.11100        1.69150
N         -1.10870       -2.19650        1.44910
C         -0.82760       -3.49470        1.11700
C          0.27600       -4.22160        0.66030
S          1.95950       -3.93060        0.43300
C         -0.14820       -1.15460        1.15730
C          0.97750       -1.09190        2.19030
C         -1.90400        0.79520        3.13260
C         -2.27850        0.98230        4.60280
C         -5.52420        6.02230        2.95090
C         -4.48050        6.90260        3.23860
C         -3.10850        6.45740        3.55110
C         -2.13530        6.45630        2.54930
C         -0.86080        6.00180        2.85180
C         -0.53280        5.55260        4.12130
C          0.86150        5.09010        4.43280
C          1.73070        6.27170        4.86740
C         -1.50780        5.58010        5.10740
C         -2.79340        6.02270        4.84210
C         -3.81220        6.06200        5.94660
C         -3.83800        7.44100        6.60830
C         -2.43410        6.94320        1.15880
C         -1.97250        8.39010        0.97530
C         -4.86960        8.23730        3.19550
C         -6.20490        8.43100        2.87390
S         -6.99320        6.88670        2.62780
C         -6.89850        9.64870        2.75460
C         -6.38470       10.92720        2.83280
C         -5.04600       11.29500        3.01430
N         -3.93530       11.54890        3.15580
C         -7.47620       11.85330        2.66880
C         -7.43800       13.22260        2.66810
C         -6.25310       13.96010        2.83820
N         -5.31980       14.61420        2.97100
C         -8.61680       13.97330        2.48870
N         -9.57410       14.58850        2.34450
O         -8.62720       11.18680        2.50260
C         -8.38940        9.77210        2.51740
C         -9.21860        9.16760        3.65340
C         -8.82450        9.21830        1.15750
H          4.92890       -8.50540       -4.00130
H          7.38520       -3.26460       -6.34750
H          7.82540       -7.76140       -8.63830
H          9.68850       -5.38290      -10.27900
H          7.90850       -5.65530      -11.99800
H          5.62550       -5.57650      -10.72560
H          5.40740       -3.20280       -9.55450
H          7.55550       -1.81660      -10.10780
H          9.06790       -3.23140      -11.82750
H          7.39450       -3.09210      -12.42220
H          9.47940       -3.07250       -9.14520
H          7.14800       -1.12350        1.72980
H          5.80180       -2.26200        1.97660
H          4.99520       -0.00730        1.29080
H          4.54920       -1.25730        0.12670
H          5.88610       -0.15200       -0.22990
H          9.30090       -4.62020       -3.11180
H         10.20250       -3.20210       -2.52090
H         11.46330       -5.27620       -2.05410
H         10.07220       -5.95840       -1.20830
H         10.92930       -4.56580       -0.52520
H         -0.88590       -7.48860       -1.63420
H         -1.09350       -9.89410       -2.12610
H          0.56060      -11.48600       -1.23890
H          3.64310      -10.48280        0.52320
H          2.82150      -11.80480       -0.31610
H          1.20640      -11.99970        1.57940
H          2.02890      -10.68400        2.41680
H          2.87040      -12.21190        2.13430
H          2.60440       -8.28310        0.69770
H         -8.14690        3.48830        0.49220
H        -10.53590        4.10180        0.40560
H        -11.64430        5.03630        2.39370
H        -11.36360        6.15980        4.57790
H         -9.87260        5.94490        5.50710
H        -11.73590        4.64910        6.51620
H        -11.96630        3.77560        4.99770
H        -10.47960        3.55870        5.91980
H         -7.99970        4.69810        4.58390
H          0.29560       -1.38000        0.18100
H         -0.67390       -0.20330        1.06990
H          1.61720       -1.96550        2.10280
H          1.58290       -0.20690        2.01600
H          0.59150       -1.05960        3.20690
H         -1.58970        1.75530        2.70920
H         -1.08640        0.08580        3.07810
H         -3.05130        1.73630        4.71900
H         -2.63700        0.04470        5.02240
H         -1.40180        1.30330        5.15870
H         -0.11090        5.98950        2.07320
H          0.83610        4.34810        5.23360
H          1.30340        4.62500        3.54890
H          1.77460        7.01870        4.07830
H          2.74220        5.93980        5.08940
H          1.31480        6.73960        5.75650
H         -1.26460        5.24020        6.10450
H         -3.56110        5.30940        6.69680
H         -4.80580        5.83040        5.55680
H         -4.54540        7.45280        7.43440
H         -2.85200        7.69290        6.99140
H         -4.13010        8.20420        5.89070
H         -3.50410        6.87470        0.95320
H         -1.91170        6.30960        0.43810
H         -2.49980        9.05470        1.65480
H         -2.16150        8.72030       -0.04350
H         -0.90720        8.47510        1.17530
H         -4.19540        9.04760        3.40300
H         -9.15160        8.08380        3.63710
H         -8.86660        9.53700        4.61460
H        -10.25600        9.46460        3.52520
H         -8.19900        9.62850        0.36710
H         -8.75560        8.13490        1.14450
H         -9.85430        9.51370        0.97480
