
  xtb     02142215163D
 energy: -328.847000021859 gnorm: 0.000581906006 xtb: 6.4.1 (unknown)
190212  0     0  0            999 V2000
    2.1117   -6.6904    7.4199 C   0  0  0  0  0  0  0  0  0  0  0  0
    0.9924   -7.4024    7.0987 C   0  0  0  0  0  0  0  0  0  0  0  0
   -0.0979   -6.9675    6.2128 C   0  0  0  0  0  0  0  0  0  0  0  0
   -0.0952   -6.0201    5.4470 O   0  0  0  0  0  0  0  0  0  0  0  0
   -1.2115   -7.9009    6.4550 C   0  0  0  0  0  0  0  0  0  0  0  0
   -2.4875   -7.8494    5.8963 C   0  0  0  0  0  0  0  0  0  0  0  0
   -3.3243   -8.8538    6.3196 C   0  0  0  0  0  0  0  0  0  0  0  0
   -2.9238   -9.8408    7.2308 C   0  0  0  0  0  0  0  0  0  0  0  0
   -1.6672   -9.9091    7.7839 C   0  0  0  0  0  0  0  0  0  0  0  0
   -0.7995   -8.8951    7.3679 C   0  0  0  0  0  0  0  0  0  0  0  0
    0.5975   -8.6546    7.7160 C   0  0  0  0  0  0  0  0  0  0  0  0
    1.4230   -9.5058    8.4009 C   0  0  0  0  0  0  0  0  0  0  0  0
    2.8188   -9.3329    8.5387 C   0  0  0  0  0  0  0  0  0  0  0  0
    3.9624   -9.3030    8.6363 N   0  0  0  0  0  0  0  0  0  0  0  0
    1.0030  -10.7188    8.9847 C   0  0  0  0  0  0  0  0  0  0  0  0
    0.7166  -11.7090    9.4904 N   0  0  0  0  0  0  0  0  0  0  0  0
   -4.2714  -10.5177    7.2131 C   0  0  0  0  0  0  0  0  0  0  0  0
   -5.1905  -10.2565    8.4252 C   0  0  0  0  0  0  0  0  0  0  0  0
   -6.5664  -10.6291    7.9219 C   0  0  0  0  0  0  0  0  0  0  0  0
   -6.9463   -9.6962    7.0582 C   0  0  0  0  0  0  0  0  0  0  0  0
   -5.8337   -8.6771    6.9633 C   0  0  0  0  0  0  0  0  0  0  0  0
   -5.3071   -8.7269    8.4034 C   0  0  0  0  0  0  0  0  0  0  0  0
   -4.7179   -9.4184    6.1964 C   0  0  0  0  0  0  0  0  0  0  0  0
    2.6169   -5.5063    6.8537 C   0  0  0  0  0  0  0  0  0  0  0  0
    2.0731   -4.7966    5.3551 S   0  0  0  0  0  0  0  0  0  0  0  0
    3.3758   -3.6534    5.3722 C   0  0  0  0  0  0  0  0  0  0  0  0
    4.1391   -3.7495    6.5342 C   0  0  0  0  0  0  0  0  0  0  0  0
    5.1945   -2.8020    6.9327 C   0  0  0  0  0  0  0  0  0  0  0  0
    5.2959   -1.6816    6.4665 O   0  0  0  0  0  0  0  0  0  0  0  0
    6.0856   -3.3549    7.9541 C   0  0  0  0  0  0  0  0  0  0  0  0
    7.3152   -2.8471    8.2809 C   0  0  0  0  0  0  0  0  0  0  0  0
    7.9731   -1.6035    7.8081 C   0  0  0  0  0  0  0  0  0  0  0  0
    7.8054   -0.4843    8.8401 C   0  0  0  0  0  0  0  0  0  0  0  0
    8.0997   -3.8478    9.4597 S   0  0  0  0  0  0  0  0  0  0  0  0
    6.7450   -4.9179    9.5659 C   0  0  0  0  0  0  0  0  0  0  0  0
    6.7896   -6.1029   10.4613 C   0  0  0  0  0  0  0  0  0  0  0  0
    7.0651   -7.3838    9.6670 C   0  0  0  0  0  0  0  0  0  0  0  0
    5.7557   -4.5371    8.6945 C   0  0  0  0  0  0  0  0  0  0  0  0
    4.4536   -5.1927    8.5809 C   0  0  0  0  0  0  0  0  0  0  0  0
    4.0172   -5.9726    9.4112 O   0  0  0  0  0  0  0  0  0  0  0  0
    3.7297   -4.8178    7.3533 C   0  0  0  0  0  0  0  0  0  0  0  0
    3.6000   -2.8235    4.2362 C   0  0  0  0  0  0  0  0  0  0  0  0
    4.8025   -2.4686    3.6438 C   0  0  0  0  0  0  0  0  0  0  0  0
    6.1149   -2.9377    4.0842 C   0  0  0  0  0  0  0  0  0  0  0  0
    7.2065   -2.0746    4.0717 C   0  0  0  0  0  0  0  0  0  0  0  0
    8.4329   -2.5065    4.5412 C   0  0  0  0  0  0  0  0  0  0  0  0
    8.5792   -3.7850    5.0489 C   0  0  0  0  0  0  0  0  0  0  0  0
    7.5043   -4.6655    5.0574 C   0  0  0  0  0  0  0  0  0  0  0  0
    7.6528   -6.0638    5.5860 C   0  0  0  0  0  0  0  0  0  0  0  0
    7.9514   -7.0457    4.4521 C   0  0  0  0  0  0  0  0  0  0  0  0
    6.2894   -4.2405    4.5444 C   0  0  0  0  0  0  0  0  0  0  0  0
    4.5871   -1.6371    2.5278 C   0  0  0  0  0  0  0  0  0  0  0  0
    5.6754   -0.8608    1.4011 S   0  0  0  0  0  0  0  0  0  0  0  0
    4.3091   -0.1950    0.5747 C   0  0  0  0  0  0  0  0  0  0  0  0
    4.0289    0.6800   -0.4843 C   0  0  0  0  0  0  0  0  0  0  0  0
    4.9039    1.4308   -1.2979 C   0  0  0  0  0  0  0  0  0  0  0  0
    4.3466    2.3641   -2.2300 C   0  0  0  0  0  0  0  0  0  0  0  0
    5.2753    3.0348   -2.8937 N   0  0  0  0  0  0  0  0  0  0  0  0
    6.7288    2.5295   -2.3882 S   0  0  0  0  0  0  0  0  0  0  0  0
    6.2277    1.4372   -1.3023 N   0  0  0  0  0  0  0  0  0  0  0  0
    2.9437    2.4339   -2.3642 C   0  0  0  0  0  0  0  0  0  0  0  0
    2.1568    3.1842   -3.2494 C   0  0  0  0  0  0  0  0  0  0  0  0
    2.3434    4.3748   -4.4904 S   0  0  0  0  0  0  0  0  0  0  0  0
    0.6142    4.3421   -4.7564 C   0  0  0  0  0  0  0  0  0  0  0  0
   -0.2345    5.0730   -5.6145 C   0  0  0  0  0  0  0  0  0  0  0  0
    0.2457    6.1598   -6.4634 C   0  0  0  0  0  0  0  0  0  0  0  0
   -0.4821    7.3393   -6.6110 C   0  0  0  0  0  0  0  0  0  0  0  0
    0.0090    8.3591   -7.4017 C   0  0  0  0  0  0  0  0  0  0  0  0
    1.2456    8.2383   -8.0145 C   0  0  0  0  0  0  0  0  0  0  0  0
    2.0070    7.0890   -7.8413 C   0  0  0  0  0  0  0  0  0  0  0  0
    3.3687    6.9628   -8.4644 C   0  0  0  0  0  0  0  0  0  0  0  0
    3.2805    6.4824   -9.9131 C   0  0  0  0  0  0  0  0  0  0  0  0
    1.4863    6.0509   -7.0846 C   0  0  0  0  0  0  0  0  0  0  0  0
   -1.5565    4.6897   -5.4463 C   0  0  0  0  0  0  0  0  0  0  0  0
   -1.7502    3.4704   -4.1928 S   0  0  0  0  0  0  0  0  0  0  0  0
   -0.0492    3.4469   -3.9132 C   0  0  0  0  0  0  0  0  0  0  0  0
    0.8333    2.7926   -3.0447 C   0  0  0  0  0  0  0  0  0  0  0  0
    0.7726    1.8466   -2.0589 N   0  0  0  0  0  0  0  0  0  0  0  0
    2.0578    1.6184   -1.5980 C   0  0  0  0  0  0  0  0  0  0  0  0
    2.6092    0.7899   -0.5783 C   0  0  0  0  0  0  0  0  0  0  0  0
    2.0612    0.0227    0.4352 N   0  0  0  0  0  0  0  0  0  0  0  0
    3.0825   -0.5705    1.1244 C   0  0  0  0  0  0  0  0  0  0  0  0
    3.2394   -1.3927    2.2476 C   0  0  0  0  0  0  0  0  0  0  0  0
    2.2079   -2.1910    3.3783 S   0  0  0  0  0  0  0  0  0  0  0  0
    0.7128   -0.1400    0.9239 C   0  0  0  0  0  0  0  0  0  0  0  0
    0.1175   -1.4860    0.5091 C   0  0  0  0  0  0  0  0  0  0  0  0
   -0.4938    1.2054   -1.7945 C   0  0  0  0  0  0  0  0  0  0  0  0
   -1.4018    2.0731   -0.9216 C   0  0  0  0  0  0  0  0  0  0  0  0
   -2.7630    5.1485   -6.0462 C   0  0  0  0  0  0  0  0  0  0  0  0
   -4.1810    5.1787   -5.0462 S   0  0  0  0  0  0  0  0  0  0  0  0
   -5.1353    5.8730   -6.3271 C   0  0  0  0  0  0  0  0  0  0  0  0
   -4.3677    6.0173   -7.4901 C   0  0  0  0  0  0  0  0  0  0  0  0
   -4.8992    6.5428   -8.7607 C   0  0  0  0  0  0  0  0  0  0  0  0
   -6.0882    6.7117   -8.9786 O   0  0  0  0  0  0  0  0  0  0  0  0
   -3.8597    6.8232   -9.7461 C   0  0  0  0  0  0  0  0  0  0  0  0
   -4.0509    7.5468  -10.8962 C   0  0  0  0  0  0  0  0  0  0  0  0
   -5.2877    8.2058  -11.3868 C   0  0  0  0  0  0  0  0  0  0  0  0
   -6.1232    7.2297  -12.2206 C   0  0  0  0  0  0  0  0  0  0  0  0
   -2.5976    7.6019  -11.8350 S   0  0  0  0  0  0  0  0  0  0  0  0
   -1.7343    6.6252  -10.6954 C   0  0  0  0  0  0  0  0  0  0  0  0
   -0.3204    6.2324  -10.9165 C   0  0  0  0  0  0  0  0  0  0  0  0
    0.2577    6.7781  -12.2140 C   0  0  0  0  0  0  0  0  0  0  0  0
   -2.5300    6.3100   -9.6227 C   0  0  0  0  0  0  0  0  0  0  0  0
   -2.0848    5.5356   -8.4675 C   0  0  0  0  0  0  0  0  0  0  0  0
   -1.0398    4.9068   -8.4404 O   0  0  0  0  0  0  0  0  0  0  0  0
   -3.0319    5.5902   -7.3419 C   0  0  0  0  0  0  0  0  0  0  0  0
   -6.4614    6.3255   -6.1962 C   0  0  0  0  0  0  0  0  0  0  0  0
   -7.3572    6.1230   -5.1850 C   0  0  0  0  0  0  0  0  0  0  0  0
   -7.1948    5.2111   -4.0430 C   0  0  0  0  0  0  0  0  0  0  0  0
   -6.1762    4.6579   -3.6721 O   0  0  0  0  0  0  0  0  0  0  0  0
   -8.5350    5.0879   -3.4366 C   0  0  0  0  0  0  0  0  0  0  0  0
   -8.9307    4.2962   -2.3860 C   0  0  0  0  0  0  0  0  0  0  0  0
  -10.2740    4.3349   -1.9854 C   0  0  0  0  0  0  0  0  0  0  0  0
  -10.5986    3.5298   -0.9511 O   0  0  0  0  0  0  0  0  0  0  0  0
  -11.9289    3.5088   -0.4853 C   0  0  0  0  0  0  0  0  0  0  0  0
  -11.1685    5.1721   -2.6558 C   0  0  0  0  0  0  0  0  0  0  0  0
  -10.7579    5.9729   -3.7109 C   0  0  0  0  0  0  0  0  0  0  0  0
   -9.4327    5.9380   -4.1136 C   0  0  0  0  0  0  0  0  0  0  0  0
   -8.7117    6.6511   -5.1576 C   0  0  0  0  0  0  0  0  0  0  0  0
   -9.1963    7.6859   -5.9126 C   0  0  0  0  0  0  0  0  0  0  0  0
   -8.4331    8.4760   -6.8004 C   0  0  0  0  0  0  0  0  0  0  0  0
   -7.8809    9.2036   -7.4962 N   0  0  0  0  0  0  0  0  0  0  0  0
  -10.5260    8.1494   -5.8380 C   0  0  0  0  0  0  0  0  0  0  0  0
  -11.5981    8.5602   -5.8228 N   0  0  0  0  0  0  0  0  0  0  0  0
    2.7116   -7.0557    8.2465 H   0  0  0  0  0  0  0  0  0  0  0  0
   -2.7543   -7.0747    5.1946 H   0  0  0  0  0  0  0  0  0  0  0  0
   -1.3714  -10.6742    8.4823 H   0  0  0  0  0  0  0  0  0  0  0  0
   -4.2753  -11.5576    6.8925 H   0  0  0  0  0  0  0  0  0  0  0  0
   -4.8652  -10.7219    9.3515 H   0  0  0  0  0  0  0  0  0  0  0  0
   -7.0808  -11.5317    8.1947 H   0  0  0  0  0  0  0  0  0  0  0  0
   -7.8416   -9.6641    6.4653 H   0  0  0  0  0  0  0  0  0  0  0  0
   -6.0956   -7.7032    6.5585 H   0  0  0  0  0  0  0  0  0  0  0  0
   -6.0383   -8.3600    9.1216 H   0  0  0  0  0  0  0  0  0  0  0  0
   -4.3618   -8.2074    8.5488 H   0  0  0  0  0  0  0  0  0  0  0  0
   -5.0197   -9.7255    5.1968 H   0  0  0  0  0  0  0  0  0  0  0  0
    9.0367   -1.7893    7.6438 H   0  0  0  0  0  0  0  0  0  0  0  0
    7.5107   -1.2992    6.8687 H   0  0  0  0  0  0  0  0  0  0  0  0
    8.3013    0.4175    8.4920 H   0  0  0  0  0  0  0  0  0  0  0  0
    6.7502   -0.2669    8.9835 H   0  0  0  0  0  0  0  0  0  0  0  0
    8.2379   -0.7760    9.7952 H   0  0  0  0  0  0  0  0  0  0  0  0
    7.5695   -5.9598   11.2116 H   0  0  0  0  0  0  0  0  0  0  0  0
    5.8246   -6.2033   10.9615 H   0  0  0  0  0  0  0  0  0  0  0  0
    6.2421   -7.5928    8.9895 H   0  0  0  0  0  0  0  0  0  0  0  0
    7.9847   -7.2897    9.0930 H   0  0  0  0  0  0  0  0  0  0  0  0
    7.1629   -8.2233   10.3491 H   0  0  0  0  0  0  0  0  0  0  0  0
    7.0851   -1.0609    3.7241 H   0  0  0  0  0  0  0  0  0  0  0  0
    9.2768   -1.8326    4.5272 H   0  0  0  0  0  0  0  0  0  0  0  0
    9.5337   -4.1054    5.4415 H   0  0  0  0  0  0  0  0  0  0  0  0
    6.7324   -6.3665    6.0916 H   0  0  0  0  0  0  0  0  0  0  0  0
    8.4656   -6.0957    6.3144 H   0  0  0  0  0  0  0  0  0  0  0  0
    8.0484   -8.0563    4.8413 H   0  0  0  0  0  0  0  0  0  0  0  0
    7.1490   -7.0314    3.7181 H   0  0  0  0  0  0  0  0  0  0  0  0
    8.8777   -6.7737    3.9510 H   0  0  0  0  0  0  0  0  0  0  0  0
    5.4638   -4.9368    4.5048 H   0  0  0  0  0  0  0  0  0  0  0  0
   -1.4234    7.4615   -6.0958 H   0  0  0  0  0  0  0  0  0  0  0  0
   -0.5674    9.2645   -7.5260 H   0  0  0  0  0  0  0  0  0  0  0  0
    1.6300    9.0507   -8.6149 H   0  0  0  0  0  0  0  0  0  0  0  0
    3.8719    7.9320   -8.4387 H   0  0  0  0  0  0  0  0  0  0  0  0
    3.9643    6.2543   -7.8863 H   0  0  0  0  0  0  0  0  0  0  0  0
    2.7498    7.2111  -10.5211 H   0  0  0  0  0  0  0  0  0  0  0  0
    2.7512    5.5338   -9.9637 H   0  0  0  0  0  0  0  0  0  0  0  0
    4.2770    6.3477  -10.3276 H   0  0  0  0  0  0  0  0  0  0  0  0
    2.0509    5.1367   -6.9856 H   0  0  0  0  0  0  0  0  0  0  0  0
    0.7583   -0.1038    2.0178 H   0  0  0  0  0  0  0  0  0  0  0  0
    0.1007    0.6932    0.5931 H   0  0  0  0  0  0  0  0  0  0  0  0
   -0.9269   -1.5343    0.8041 H   0  0  0  0  0  0  0  0  0  0  0  0
    0.1893   -1.6396   -0.5659 H   0  0  0  0  0  0  0  0  0  0  0  0
    0.6500   -2.2965    0.9993 H   0  0  0  0  0  0  0  0  0  0  0  0
   -0.3229    0.2265   -1.3561 H   0  0  0  0  0  0  0  0  0  0  0  0
   -0.9869    1.0534   -2.7608 H   0  0  0  0  0  0  0  0  0  0  0  0
   -1.7130    2.9581   -1.4699 H   0  0  0  0  0  0  0  0  0  0  0  0
   -0.8926    2.4019   -0.0178 H   0  0  0  0  0  0  0  0  0  0  0  0
   -2.2906    1.5137   -0.6439 H   0  0  0  0  0  0  0  0  0  0  0  0
   -5.8826    8.5291  -10.5303 H   0  0  0  0  0  0  0  0  0  0  0  0
   -5.0247    9.0747  -11.9935 H   0  0  0  0  0  0  0  0  0  0  0  0
   -7.0109    7.7316  -12.5948 H   0  0  0  0  0  0  0  0  0  0  0  0
   -6.4334    6.3919  -11.6021 H   0  0  0  0  0  0  0  0  0  0  0  0
   -5.5475    6.8556  -13.0650 H   0  0  0  0  0  0  0  0  0  0  0  0
   -0.2652    5.1395  -10.9057 H   0  0  0  0  0  0  0  0  0  0  0  0
    0.2669    6.5709  -10.0562 H   0  0  0  0  0  0  0  0  0  0  0  0
    1.2799    6.4339  -12.3455 H   0  0  0  0  0  0  0  0  0  0  0  0
   -0.3296    6.4401  -13.0655 H   0  0  0  0  0  0  0  0  0  0  0  0
    0.2546    7.8663  -12.2073 H   0  0  0  0  0  0  0  0  0  0  0  0
   -6.8083    6.8844   -7.0584 H   0  0  0  0  0  0  0  0  0  0  0  0
   -8.2343    3.6530   -1.8726 H   0  0  0  0  0  0  0  0  0  0  0  0
  -12.6198    3.1673   -1.2620 H   0  0  0  0  0  0  0  0  0  0  0  0
  -11.9379    2.8003    0.3412 H   0  0  0  0  0  0  0  0  0  0  0  0
  -12.2423    4.4922   -0.1224 H   0  0  0  0  0  0  0  0  0  0  0  0
  -12.2049    5.2090   -2.3605 H   0  0  0  0  0  0  0  0  0  0  0  0
  -11.4790    6.6037   -4.2047 H   0  0  0  0  0  0  0  0  0  0  0  0
  1  2  2  0  0  0  0
  2  3  1  0  0  0  0
  3  4  2  0  0  0  0
  3  5  1  0  0  0  0
  5  6  2  0  0  0  0
  6  7  1  0  0  0  0
  7  8  2  0  0  0  0
  8  9  1  0  0  0  0
  9 10  2  0  0  0  0
 10 11  1  0  0  0  0
 11 12  2  0  0  0  0
 12 13  1  0  0  0  0
 13 14  3  0  0  0  0
 12 15  1  0  0  0  0
 15 16  3  0  0  0  0
  8 17  1  0  0  0  0
 17 18  1  0  0  0  0
 18 19  1  0  0  0  0
 19 20  2  0  0  0  0
 20 21  1  0  0  0  0
 21 22  1  0  0  0  0
 21 23  1  0  0  0  0
  1 24  1  0  0  0  0
 24 25  1  0  0  0  0
 25 26  1  0  0  0  0
 26 27  2  0  0  0  0
 27 28  1  0  0  0  0
 28 29  2  0  0  0  0
 28 30  1  0  0  0  0
 30 31  2  0  0  0  0
 31 32  1  0  0  0  0
 32 33  1  0  0  0  0
 31 34  1  0  0  0  0
 34 35  1  0  0  0  0
 35 36  1  0  0  0  0
 36 37  1  0  0  0  0
 35 38  2  0  0  0  0
 38 39  1  0  0  0  0
 39 40  2  0  0  0  0
 39 41  1  0  0  0  0
 26 42  1  0  0  0  0
 42 43  2  0  0  0  0
 43 44  1  0  0  0  0
 44 45  2  0  0  0  0
 45 46  1  0  0  0  0
 46 47  2  0  0  0  0
 47 48  1  0  0  0  0
 48 49  1  0  0  0  0
 49 50  1  0  0  0  0
 48 51  2  0  0  0  0
 43 52  1  0  0  0  0
 52 53  1  0  0  0  0
 53 54  1  0  0  0  0
 54 55  1  0  0  0  0
 55 56  1  0  0  0  0
 56 57  1  0  0  0  0
 57 58  2  0  0  0  0
 58 59  1  0  0  0  0
 59 60  1  0  0  0  0
 57 61  1  0  0  0  0
 61 62  1  0  0  0  0
 62 63  1  0  0  0  0
 63 64  1  0  0  0  0
 64 65  1  0  0  0  0
 65 66  1  0  0  0  0
 66 67  2  0  0  0  0
 67 68  1  0  0  0  0
 68 69  2  0  0  0  0
 69 70  1  0  0  0  0
 70 71  1  0  0  0  0
 71 72  1  0  0  0  0
 70 73  2  0  0  0  0
 65 74  2  0  0  0  0
 74 75  1  0  0  0  0
 75 76  1  0  0  0  0
 76 77  1  0  0  0  0
 77 78  1  0  0  0  0
 78 79  1  0  0  0  0
 79 80  1  0  0  0  0
 80 81  1  0  0  0  0
 81 82  1  0  0  0  0
 82 83  1  0  0  0  0
 83 84  1  0  0  0  0
 81 85  1  0  0  0  0
 85 86  1  0  0  0  0
 78 87  1  0  0  0  0
 87 88  1  0  0  0  0
 74 89  1  0  0  0  0
 89 90  1  0  0  0  0
 90 91  1  0  0  0  0
 91 92  2  0  0  0  0
 92 93  1  0  0  0  0
 93 94  2  0  0  0  0
 93 95  1  0  0  0  0
 95 96  2  0  0  0  0
 96 97  1  0  0  0  0
 97 98  1  0  0  0  0
 96 99  1  0  0  0  0
 99100  1  0  0  0  0
100101  1  0  0  0  0
101102  1  0  0  0  0
100103  2  0  0  0  0
103104  1  0  0  0  0
104105  2  0  0  0  0
104106  1  0  0  0  0
 91107  1  0  0  0  0
107108  2  0  0  0  0
108109  1  0  0  0  0
109110  2  0  0  0  0
109111  1  0  0  0  0
111112  2  0  0  0  0
112113  1  0  0  0  0
113114  1  0  0  0  0
114115  1  0  0  0  0
113116  2  0  0  0  0
116117  1  0  0  0  0
117118  2  0  0  0  0
118119  1  0  0  0  0
119120  2  0  0  0  0
120121  1  0  0  0  0
121122  3  0  0  0  0
120123  1  0  0  0  0
123124  3  0  0  0  0
 11  2  1  0  0  0  0
 23 17  1  0  0  0  0
 41 24  2  0  0  0  0
 84 42  1  0  0  0  0
106 89  2  0  0  0  0
119108  1  0  0  0  0
 10  5  1  0  0  0  0
 22 18  1  0  0  0  0
 41 27  1  0  0  0  0
 51 44  1  0  0  0  0
 83 52  2  0  0  0  0
106 92  1  0  0  0  0
118111  1  0  0  0  0
 23  7  1  0  0  0  0
 38 30  1  0  0  0  0
 82 54  2  0  0  0  0
103 95  1  0  0  0  0
 80 55  2  0  0  0  0
 60 56  2  0  0  0  0
 79 61  2  0  0  0  0
 77 62  2  0  0  0  0
 76 64  2  0  0  0  0
 73 66  1  0  0  0  0
  1125  1  0  0  0  0
  6126  1  0  0  0  0
  9127  1  0  0  0  0
 17128  1  0  0  0  0
 18129  1  0  0  0  0
 19130  1  0  0  0  0
 20131  1  0  0  0  0
 21132  1  0  0  0  0
 22133  1  0  0  0  0
 22134  1  0  0  0  0
 23135  1  0  0  0  0
 32136  1  0  0  0  0
 32137  1  0  0  0  0
 33138  1  0  0  0  0
 33139  1  0  0  0  0
 33140  1  0  0  0  0
 36141  1  0  0  0  0
 36142  1  0  0  0  0
 37143  1  0  0  0  0
 37144  1  0  0  0  0
 37145  1  0  0  0  0
 45146  1  0  0  0  0
 46147  1  0  0  0  0
 47148  1  0  0  0  0
 49149  1  0  0  0  0
 49150  1  0  0  0  0
 50151  1  0  0  0  0
 50152  1  0  0  0  0
 50153  1  0  0  0  0
 51154  1  0  0  0  0
 67155  1  0  0  0  0
 68156  1  0  0  0  0
 69157  1  0  0  0  0
 71158  1  0  0  0  0
 71159  1  0  0  0  0
 72160  1  0  0  0  0
 72161  1  0  0  0  0
 72162  1  0  0  0  0
 73163  1  0  0  0  0
 85164  1  0  0  0  0
 85165  1  0  0  0  0
 86166  1  0  0  0  0
 86167  1  0  0  0  0
 86168  1  0  0  0  0
 87169  1  0  0  0  0
 87170  1  0  0  0  0
 88171  1  0  0  0  0
 88172  1  0  0  0  0
 88173  1  0  0  0  0
 97174  1  0  0  0  0
 97175  1  0  0  0  0
 98176  1  0  0  0  0
 98177  1  0  0  0  0
 98178  1  0  0  0  0
101179  1  0  0  0  0
101180  1  0  0  0  0
102181  1  0  0  0  0
102182  1  0  0  0  0
102183  1  0  0  0  0
107184  1  0  0  0  0
112185  1  0  0  0  0
115186  1  0  0  0  0
115187  1  0  0  0  0
115188  1  0  0  0  0
116189  1  0  0  0  0
117190  1  0  0  0  0
M  END
