
  xtb     02242223493D
 energy: -354.984204379762 gnorm: 0.000250710678 xtb: 6.4.1 (unknown)
214241  0     0  0            999 V2000
    7.1343    0.5248   10.2011 C   0  0  0  0  0  0  0  0  0  0  0  0
    8.1363   -0.3059   10.6170 C   0  0  0  0  0  0  0  0  0  0  0  0
    8.0602   -1.7727   10.7377 C   0  0  0  0  0  0  0  0  0  0  0  0
    7.0798   -2.4810   10.6077 O   0  0  0  0  0  0  0  0  0  0  0  0
    9.4258   -2.2300   11.0454 C   0  0  0  0  0  0  0  0  0  0  0  0
    9.8514   -3.5479   11.1936 C   0  0  0  0  0  0  0  0  0  0  0  0
   11.1950   -3.6760   11.4503 C   0  0  0  0  0  0  0  0  0  0  0  0
   12.0516   -2.5722   11.5600 C   0  0  0  0  0  0  0  0  0  0  0  0
   11.6426   -1.2670   11.4252 C   0  0  0  0  0  0  0  0  0  0  0  0
   10.2792   -1.1137   11.1557 C   0  0  0  0  0  0  0  0  0  0  0  0
    9.4954    0.0988   10.9300 C   0  0  0  0  0  0  0  0  0  0  0  0
    9.9778    1.3798   11.0145 C   0  0  0  0  0  0  0  0  0  0  0  0
   11.3132    1.7129   11.3243 C   0  0  0  0  0  0  0  0  0  0  0  0
   12.3791    2.0654   11.5661 N   0  0  0  0  0  0  0  0  0  0  0  0
    9.2314    2.5611   10.8201 C   0  0  0  0  0  0  0  0  0  0  0  0
    8.7075    3.5744   10.6817 N   0  0  0  0  0  0  0  0  0  0  0  0
   13.2632   -3.4361   11.8051 C   0  0  0  0  0  0  0  0  0  0  0  0
   14.2477   -3.6456   10.6279 C   0  0  0  0  0  0  0  0  0  0  0  0
   13.4447   -3.4789    9.3617 C   0  0  0  0  0  0  0  0  0  0  0  0
   12.6337   -4.5231    9.2562 C   0  0  0  0  0  0  0  0  0  0  0  0
   12.8739   -5.4150   10.4491 C   0  0  0  0  0  0  0  0  0  0  0  0
   14.3767   -5.1768   10.6666 C   0  0  0  0  0  0  0  0  0  0  0  0
   12.3090   -4.6657   11.6817 C   0  0  0  0  0  0  0  0  0  0  0  0
    5.8157    0.2376    9.7934 C   0  0  0  0  0  0  0  0  0  0  0  0
    5.0024    1.2100    9.2389 C   0  0  0  0  0  0  0  0  0  0  0  0
    3.7548    0.7414    8.8053 C   0  0  0  0  0  0  0  0  0  0  0  0
    2.7161    1.4728    8.1706 C   0  0  0  0  0  0  0  0  0  0  0  0
    2.8704    2.8590    7.8038 C   0  0  0  0  0  0  0  0  0  0  0  0
    3.9925    3.4874    7.3303 C   0  0  0  0  0  0  0  0  0  0  0  0
    3.8716    4.8624    7.0673 C   0  0  0  0  0  0  0  0  0  0  0  0
    2.6382    5.3935    7.3298 C   0  0  0  0  0  0  0  0  0  0  0  0
    2.2285    7.0725    7.0940 S   0  0  0  0  0  0  0  0  0  0  0  0
    0.4832    7.0621    7.6470 C   0  0  0  0  0  0  0  0  0  0  0  0
   -0.1169    8.4467    7.5198 C   0  0  0  0  0  0  0  0  0  0  0  0
    1.4390    4.0796    7.9481 Se  0  0  0  0  0  2  0  0  0  0  0  0
    1.5592    0.7593    7.8924 C   0  0  0  0  0  0  0  0  0  0  0  0
    1.3841   -0.6105    8.2062 C   0  0  0  0  0  0  0  0  0  0  0  0
    2.3979   -1.3245    8.8802 C   0  0  0  0  0  0  0  0  0  0  0  0
    2.1811   -2.6753    9.3499 C   0  0  0  0  0  0  0  0  0  0  0  0
    3.0842   -3.6975    9.4587 C   0  0  0  0  0  0  0  0  0  0  0  0
    2.6069   -4.8790   10.0591 C   0  0  0  0  0  0  0  0  0  0  0  0
    1.3056   -4.8324   10.4657 C   0  0  0  0  0  0  0  0  0  0  0  0
    0.3609   -6.0927   11.2357 S   0  0  0  0  0  0  0  0  0  0  0  0
    0.8410   -7.5547   10.2431 C   0  0  0  0  0  0  0  0  0  0  0  0
    0.4187   -7.4158    8.7949 C   0  0  0  0  0  0  0  0  0  0  0  0
    0.5154   -3.1827   10.0813 Se  0  0  0  0  0  2  0  0  0  0  0  0
    3.5847   -0.6346    9.1200 C   0  0  0  0  0  0  0  0  0  0  0  0
    5.0100   -1.3147    9.8500 S   0  0  0  0  0  0  0  0  0  0  0  0
    0.1747   -1.1233    7.6819 C   0  0  0  0  0  0  0  0  0  0  0  0
   -0.5770   -0.1991    7.0132 C   0  0  0  0  0  0  0  0  0  0  0  0
    0.1812    1.3835    7.0235 S   0  0  0  0  0  0  0  0  0  0  0  0
   -1.7513   -0.4139    6.2370 C   0  0  0  0  0  0  0  0  0  0  0  0
   -2.5754   -1.5254    6.1795 C   0  0  0  0  0  0  0  0  0  0  0  0
   -2.5711   -2.6541    7.1152 C   0  0  0  0  0  0  0  0  0  0  0  0
   -2.5505   -3.9575    6.6294 C   0  0  0  0  0  0  0  0  0  0  0  0
   -2.5687   -5.0226    7.5114 C   0  0  0  0  0  0  0  0  0  0  0  0
   -2.6203   -4.7993    8.8749 C   0  0  0  0  0  0  0  0  0  0  0  0
   -2.6530   -3.5027    9.3784 C   0  0  0  0  0  0  0  0  0  0  0  0
   -2.7546   -3.2683   10.8579 C   0  0  0  0  0  0  0  0  0  0  0  0
   -4.2068   -3.3706   11.3240 C   0  0  0  0  0  0  0  0  0  0  0  0
   -2.6290   -2.4383    8.4895 C   0  0  0  0  0  0  0  0  0  0  0  0
   -3.4609   -1.4431    5.0857 C   0  0  0  0  0  0  0  0  0  0  0  0
   -4.6394   -2.5589    4.4324 S   0  0  0  0  0  0  0  0  0  0  0  0
   -4.9085   -1.4668    3.1145 C   0  0  0  0  0  0  0  0  0  0  0  0
   -5.5575   -1.4430    1.8693 C   0  0  0  0  0  0  0  0  0  0  0  0
   -6.2745   -2.4483    1.1842 C   0  0  0  0  0  0  0  0  0  0  0  0
   -6.5664   -2.2614   -0.2087 C   0  0  0  0  0  0  0  0  0  0  0  0
   -7.1600   -3.3151   -0.7468 N   0  0  0  0  0  0  0  0  0  0  0  0
   -7.3458   -4.4414    0.4020 S   0  0  0  0  0  0  0  0  0  0  0  0
   -6.6671   -3.6313    1.6293 N   0  0  0  0  0  0  0  0  0  0  0  0
   -6.2313   -1.0333   -0.8187 C   0  0  0  0  0  0  0  0  0  0  0  0
   -6.3671   -0.5866   -2.1441 C   0  0  0  0  0  0  0  0  0  0  0  0
   -6.7752   -1.2111   -3.7072 S   0  0  0  0  0  0  0  0  0  0  0  0
   -6.3316    0.3249   -4.4139 C   0  0  0  0  0  0  0  0  0  0  0  0
   -6.2348    0.7787   -5.7475 C   0  0  0  0  0  0  0  0  0  0  0  0
   -6.5762   -0.0094   -6.9312 C   0  0  0  0  0  0  0  0  0  0  0  0
   -6.2176   -1.3512   -7.0143 C   0  0  0  0  0  0  0  0  0  0  0  0
   -6.5266   -2.0766   -8.1494 C   0  0  0  0  0  0  0  0  0  0  0  0
   -7.1928   -1.4773   -9.2031 C   0  0  0  0  0  0  0  0  0  0  0  0
   -7.5695   -0.1412   -9.1326 C   0  0  0  0  0  0  0  0  0  0  0  0
   -8.3362    0.4994  -10.2539 C   0  0  0  0  0  0  0  0  0  0  0  0
   -9.8368    0.2553  -10.0840 C   0  0  0  0  0  0  0  0  0  0  0  0
   -7.2627    0.5792   -7.9903 C   0  0  0  0  0  0  0  0  0  0  0  0
   -5.7843    2.0821   -5.8002 C   0  0  0  0  0  0  0  0  0  0  0  0
   -5.5171    2.7744   -4.2057 S   0  0  0  0  0  0  0  0  0  0  0  0
   -5.9510    1.2739   -3.4649 C   0  0  0  0  0  0  0  0  0  0  0  0
   -5.9497    0.7444   -2.1681 C   0  0  0  0  0  0  0  0  0  0  0  0
   -5.5422    1.1366   -0.9209 N   0  0  0  0  0  0  0  0  0  0  0  0
   -5.6646    0.0411   -0.0775 C   0  0  0  0  0  0  0  0  0  0  0  0
   -5.2163   -0.2091    1.2466 C   0  0  0  0  0  0  0  0  0  0  0  0
   -4.3824    0.4912    2.1021 N   0  0  0  0  0  0  0  0  0  0  0  0
   -4.1704   -0.2853    3.2084 C   0  0  0  0  0  0  0  0  0  0  0  0
   -3.3380   -0.2728    4.3345 C   0  0  0  0  0  0  0  0  0  0  0  0
   -2.1206    0.7638    4.9854 S   0  0  0  0  0  0  0  0  0  0  0  0
   -3.5230    1.6244    1.8521 C   0  0  0  0  0  0  0  0  0  0  0  0
   -2.4758    1.3127    0.7857 C   0  0  0  0  0  0  0  0  0  0  0  0
   -5.4732    2.5473   -0.6065 C   0  0  0  0  0  0  0  0  0  0  0  0
   -6.5324    2.9473    0.4168 C   0  0  0  0  0  0  0  0  0  0  0  0
   -5.3440    2.8324   -6.9354 C   0  0  0  0  0  0  0  0  0  0  0  0
   -4.4179    2.0451   -8.1886 S   0  0  0  0  0  0  0  0  0  0  0  0
   -4.1419    3.5680   -8.9512 C   0  0  0  0  0  0  0  0  0  0  0  0
   -3.3260    3.8610  -10.0678 C   0  0  0  0  0  0  0  0  0  0  0  0
   -3.2466    5.2039  -10.4631 C   0  0  0  0  0  0  0  0  0  0  0  0
   -4.3921    6.2880   -9.2801 Ge  0  0  0  0  0  4  0  0  0  0  0  0
   -6.0276    6.9871  -10.2114 C   0  0  0  0  0  0  0  0  0  0  0  0
   -5.7184    8.1121  -11.1868 C   0  0  0  0  0  0  0  0  0  0  0  0
   -3.3545    7.6541   -8.2325 C   0  0  0  0  0  0  0  0  0  0  0  0
   -2.3337    8.3927   -9.0855 C   0  0  0  0  0  0  0  0  0  0  0  0
   -4.7624    4.6200   -8.2892 C   0  0  0  0  0  0  0  0  0  0  0  0
   -5.4243    4.1931   -7.1377 C   0  0  0  0  0  0  0  0  0  0  0  0
   -2.3510    5.3664  -11.4968 C   0  0  0  0  0  0  0  0  0  0  0  0
   -1.7066    4.1833  -11.8860 C   0  0  0  0  0  0  0  0  0  0  0  0
   -2.2883    2.8212  -10.9487 S   0  0  0  0  0  0  0  0  0  0  0  0
   -0.6975    4.1659  -12.8565 C   0  0  0  0  0  0  0  0  0  0  0  0
    0.1477    3.1538  -13.2404 C   0  0  0  0  0  0  0  0  0  0  0  0
    0.1875    1.8049  -12.6666 C   0  0  0  0  0  0  0  0  0  0  0  0
   -0.6058    1.3004  -11.8904 O   0  0  0  0  0  0  0  0  0  0  0  0
    1.3967    1.1607  -13.2088 C   0  0  0  0  0  0  0  0  0  0  0  0
    1.8958   -0.0963  -12.8764 C   0  0  0  0  0  0  0  0  0  0  0  0
    3.0702   -0.4163  -13.5143 C   0  0  0  0  0  0  0  0  0  0  0  0
    3.6998    0.4492  -14.4179 C   0  0  0  0  0  0  0  0  0  0  0  0
    3.2153    1.6909  -14.7562 C   0  0  0  0  0  0  0  0  0  0  0  0
    2.0211    2.0379  -14.1172 C   0  0  0  0  0  0  0  0  0  0  0  0
    1.2309    3.2672  -14.1945 C   0  0  0  0  0  0  0  0  0  0  0  0
    1.4779    4.3141  -15.0470 C   0  0  0  0  0  0  0  0  0  0  0  0
    0.7069    5.4901  -15.1474 C   0  0  0  0  0  0  0  0  0  0  0  0
    0.1350    6.4758  -15.2972 N   0  0  0  0  0  0  0  0  0  0  0  0
    2.5378    4.3541  -15.9758 C   0  0  0  0  0  0  0  0  0  0  0  0
    3.3739    4.4583  -16.7564 N   0  0  0  0  0  0  0  0  0  0  0  0
    4.8376   -0.5100  -14.6673 C   0  0  0  0  0  0  0  0  0  0  0  0
    4.7957   -1.3073  -15.9878 C   0  0  0  0  0  0  0  0  0  0  0  0
    5.7303   -2.4689  -15.7376 C   0  0  0  0  0  0  0  0  0  0  0  0
    5.1350   -3.2886  -14.8806 C   0  0  0  0  0  0  0  0  0  0  0  0
    3.7879   -2.6948  -14.5371 C   0  0  0  0  0  0  0  0  0  0  0  0
    3.4450   -2.0260  -15.8744 C   0  0  0  0  0  0  0  0  0  0  0  0
    4.1356   -1.4747  -13.6585 C   0  0  0  0  0  0  0  0  0  0  0  0
    7.3761    1.5776   10.1155 H   0  0  0  0  0  0  0  0  0  0  0  0
    9.1559   -4.3675   11.1020 H   0  0  0  0  0  0  0  0  0  0  0  0
   12.3164   -0.4314   11.5122 H   0  0  0  0  0  0  0  0  0  0  0  0
   13.7760   -3.2811   12.7522 H   0  0  0  0  0  0  0  0  0  0  0  0
   15.1626   -3.0634   10.6959 H   0  0  0  0  0  0  0  0  0  0  0  0
   13.5062   -2.6174    8.7228 H   0  0  0  0  0  0  0  0  0  0  0  0
   11.8819   -4.7081    8.5114 H   0  0  0  0  0  0  0  0  0  0  0  0
   12.5389   -6.4446   10.3539 H   0  0  0  0  0  0  0  0  0  0  0  0
   14.7433   -5.5575   11.6189 H   0  0  0  0  0  0  0  0  0  0  0  0
   14.9870   -5.5686    9.8542 H   0  0  0  0  0  0  0  0  0  0  0  0
   12.1998   -5.3155   12.5479 H   0  0  0  0  0  0  0  0  0  0  0  0
    5.3165    2.2359    9.1700 H   0  0  0  0  0  0  0  0  0  0  0  0
    4.9010    2.9504    7.1157 H   0  0  0  0  0  0  0  0  0  0  0  0
    4.6831    5.4581    6.6868 H   0  0  0  0  0  0  0  0  0  0  0  0
   -0.0471    6.3373    7.0218 H   0  0  0  0  0  0  0  0  0  0  0  0
    0.4769    6.7180    8.6852 H   0  0  0  0  0  0  0  0  0  0  0  0
   -1.1528    8.4312    7.8509 H   0  0  0  0  0  0  0  0  0  0  0  0
    0.4349    9.1576    8.1301 H   0  0  0  0  0  0  0  0  0  0  0  0
   -0.0846    8.7816    6.4857 H   0  0  0  0  0  0  0  0  0  0  0  0
    4.0923   -3.6249    9.0883 H   0  0  0  0  0  0  0  0  0  0  0  0
    3.2323   -5.7458   10.1901 H   0  0  0  0  0  0  0  0  0  0  0  0
    0.3303   -8.3851   10.7294 H   0  0  0  0  0  0  0  0  0  0  0  0
    1.9168   -7.6910   10.3431 H   0  0  0  0  0  0  0  0  0  0  0  0
    0.9008   -6.5542    8.3358 H   0  0  0  0  0  0  0  0  0  0  0  0
   -0.6582   -7.2832    8.7248 H   0  0  0  0  0  0  0  0  0  0  0  0
    0.7002   -8.3086    8.2400 H   0  0  0  0  0  0  0  0  0  0  0  0
   -0.0980   -2.1635    7.7136 H   0  0  0  0  0  0  0  0  0  0  0  0
   -2.5021   -4.1332    5.5654 H   0  0  0  0  0  0  0  0  0  0  0  0
   -2.5439   -6.0319    7.1268 H   0  0  0  0  0  0  0  0  0  0  0  0
   -2.6340   -5.6317    9.5636 H   0  0  0  0  0  0  0  0  0  0  0  0
   -2.1507   -4.0127   11.3861 H   0  0  0  0  0  0  0  0  0  0  0  0
   -2.3626   -2.2773   11.1012 H   0  0  0  0  0  0  0  0  0  0  0  0
   -4.8197   -2.6295   10.8151 H   0  0  0  0  0  0  0  0  0  0  0  0
   -4.6080   -4.3567   11.1016 H   0  0  0  0  0  0  0  0  0  0  0  0
   -4.2745   -3.2018   12.3959 H   0  0  0  0  0  0  0  0  0  0  0  0
   -2.6589   -1.4250    8.8650 H   0  0  0  0  0  0  0  0  0  0  0  0
   -5.6814   -1.8158   -6.2011 H   0  0  0  0  0  0  0  0  0  0  0  0
   -6.2397   -3.1157   -8.2142 H   0  0  0  0  0  0  0  0  0  0  0  0
   -7.4228   -2.0489  -10.0908 H   0  0  0  0  0  0  0  0  0  0  0  0
   -8.1438    1.5743  -10.2663 H   0  0  0  0  0  0  0  0  0  0  0  0
   -8.0091    0.0831  -11.2088 H   0  0  0  0  0  0  0  0  0  0  0  0
  -10.0490   -0.8115  -10.0850 H   0  0  0  0  0  0  0  0  0  0  0  0
  -10.3930    0.7211  -10.8942 H   0  0  0  0  0  0  0  0  0  0  0  0
  -10.1829    0.6709   -9.1402 H   0  0  0  0  0  0  0  0  0  0  0  0
   -7.5638    1.6153   -7.9158 H   0  0  0  0  0  0  0  0  0  0  0  0
   -4.1159    2.5009    1.5915 H   0  0  0  0  0  0  0  0  0  0  0  0
   -3.0183    1.8464    2.7958 H   0  0  0  0  0  0  0  0  0  0  0  0
   -1.8396    0.4971    1.1213 H   0  0  0  0  0  0  0  0  0  0  0  0
   -1.8535    2.1859    0.6095 H   0  0  0  0  0  0  0  0  0  0  0  0
   -2.9428    1.0162   -0.1504 H   0  0  0  0  0  0  0  0  0  0  0  0
   -4.4713    2.8257   -0.2755 H   0  0  0  0  0  0  0  0  0  0  0  0
   -5.6574    3.0803   -1.5428 H   0  0  0  0  0  0  0  0  0  0  0  0
   -6.4171    2.3892    1.3430 H   0  0  0  0  0  0  0  0  0  0  0  0
   -6.4548    4.0094    0.6339 H   0  0  0  0  0  0  0  0  0  0  0  0
   -7.5256    2.7452    0.0223 H   0  0  0  0  0  0  0  0  0  0  0  0
   -6.4885    6.1510  -10.7375 H   0  0  0  0  0  0  0  0  0  0  0  0
   -6.7354    7.3280   -9.4557 H   0  0  0  0  0  0  0  0  0  0  0  0
   -6.6240    8.4323  -11.6992 H   0  0  0  0  0  0  0  0  0  0  0  0
   -5.0001    7.7834  -11.9348 H   0  0  0  0  0  0  0  0  0  0  0  0
   -5.3023    8.9713  -10.6649 H   0  0  0  0  0  0  0  0  0  0  0  0
   -2.8517    7.1395   -7.4140 H   0  0  0  0  0  0  0  0  0  0  0  0
   -4.0593    8.3587   -7.7917 H   0  0  0  0  0  0  0  0  0  0  0  0
   -1.6133    7.6943   -9.5056 H   0  0  0  0  0  0  0  0  0  0  0  0
   -1.7938    9.1230   -8.4853 H   0  0  0  0  0  0  0  0  0  0  0  0
   -2.8177    8.9166   -9.9065 H   0  0  0  0  0  0  0  0  0  0  0  0
   -5.9521    4.8464   -6.4639 H   0  0  0  0  0  0  0  0  0  0  0  0
   -2.1266    6.3097  -11.9660 H   0  0  0  0  0  0  0  0  0  0  0  0
   -0.5430    5.1318  -13.3229 H   0  0  0  0  0  0  0  0  0  0  0  0
    1.3813   -0.7270  -12.1683 H   0  0  0  0  0  0  0  0  0  0  0  0
    3.7194    2.3485  -15.4444 H   0  0  0  0  0  0  0  0  0  0  0  0
    5.8318   -0.1381  -14.4264 H   0  0  0  0  0  0  0  0  0  0  0  0
    4.9763   -0.7170  -16.8819 H   0  0  0  0  0  0  0  0  0  0  0  0
    6.7186   -2.5439  -16.1519 H   0  0  0  0  0  0  0  0  0  0  0  0
    5.5267   -4.1847  -14.4359 H   0  0  0  0  0  0  0  0  0  0  0  0
    3.0505   -3.3690  -14.1097 H   0  0  0  0  0  0  0  0  0  0  0  0
    3.2969   -2.7523  -16.6719 H   0  0  0  0  0  0  0  0  0  0  0  0
    2.5887   -1.3558  -15.8282 H   0  0  0  0  0  0  0  0  0  0  0  0
    4.6619   -1.7444  -12.7445 H   0  0  0  0  0  0  0  0  0  0  0  0
  1  2  2  0  0  0  0
  2  3  1  0  0  0  0
  3  4  2  0  0  0  0
  3  5  1  0  0  0  0
  5  6  2  0  0  0  0
  6  7  1  0  0  0  0
  7  8  2  0  0  0  0
  8  9  1  0  0  0  0
  9 10  2  0  0  0  0
 10 11  1  0  0  0  0
 11 12  2  0  0  0  0
 12 13  1  0  0  0  0
 13 14  3  0  0  0  0
 12 15  1  0  0  0  0
 15 16  3  0  0  0  0
  8 17  1  0  0  0  0
 17 18  1  0  0  0  0
 18 19  1  0  0  0  0
 19 20  2  0  0  0  0
 20 21  1  0  0  0  0
 21 22  1  0  0  0  0
 21 23  1  0  0  0  0
  1 24  1  0  0  0  0
 24 25  2  0  0  0  0
 25 26  1  0  0  0  0
 26 27  2  0  0  0  0
 27 28  1  0  0  0  0
 28 29  2  0  0  0  0
 29 30  1  0  0  0  0
 30 31  2  0  0  0  0
 31 32  1  0  0  0  0
 32 33  1  0  0  0  0
 33 34  1  0  0  0  0
 31 35  1  0  0  0  0
 27 36  1  0  0  0  0
 36 37  2  0  0  0  0
 37 38  1  0  0  0  0
 38 39  1  0  0  0  0
 39 40  2  0  0  0  0
 40 41  1  0  0  0  0
 41 42  2  0  0  0  0
 42 43  1  0  0  0  0
 43 44  1  0  0  0  0
 44 45  1  0  0  0  0
 42 46  1  0  0  0  0
 38 47  2  0  0  0  0
 47 48  1  0  0  0  0
 37 49  1  0  0  0  0
 49 50  2  0  0  0  0
 50 51  1  0  0  0  0
 50 52  1  0  0  0  0
 52 53  2  0  0  0  0
 53 54  1  0  0  0  0
 54 55  2  0  0  0  0
 55 56  1  0  0  0  0
 56 57  2  0  0  0  0
 57 58  1  0  0  0  0
 58 59  1  0  0  0  0
 59 60  1  0  0  0  0
 58 61  2  0  0  0  0
 53 62  1  0  0  0  0
 62 63  1  0  0  0  0
 63 64  1  0  0  0  0
 64 65  1  0  0  0  0
 65 66  1  0  0  0  0
 66 67  1  0  0  0  0
 67 68  2  0  0  0  0
 68 69  1  0  0  0  0
 69 70  1  0  0  0  0
 67 71  1  0  0  0  0
 71 72  1  0  0  0  0
 72 73  1  0  0  0  0
 73 74  1  0  0  0  0
 74 75  1  0  0  0  0
 75 76  1  0  0  0  0
 76 77  2  0  0  0  0
 77 78  1  0  0  0  0
 78 79  2  0  0  0  0
 79 80  1  0  0  0  0
 80 81  1  0  0  0  0
 81 82  1  0  0  0  0
 80 83  2  0  0  0  0
 75 84  2  0  0  0  0
 84 85  1  0  0  0  0
 85 86  1  0  0  0  0
 86 87  1  0  0  0  0
 87 88  1  0  0  0  0
 88 89  1  0  0  0  0
 89 90  1  0  0  0  0
 90 91  1  0  0  0  0
 91 92  1  0  0  0  0
 92 93  1  0  0  0  0
 93 94  1  0  0  0  0
 91 95  1  0  0  0  0
 95 96  1  0  0  0  0
 88 97  1  0  0  0  0
 97 98  1  0  0  0  0
 84 99  1  0  0  0  0
 99100  1  0  0  0  0
100101  1  0  0  0  0
101102  1  0  0  0  0
102103  2  0  0  0  0
103104  1  0  0  0  0
104105  1  0  0  0  0
105106  1  0  0  0  0
104107  1  0  0  0  0
107108  1  0  0  0  0
104109  1  0  0  0  0
109110  1  0  0  0  0
103111  1  0  0  0  0
111112  2  0  0  0  0
112113  1  0  0  0  0
112114  1  0  0  0  0
114115  2  0  0  0  0
115116  1  0  0  0  0
116117  2  0  0  0  0
116118  1  0  0  0  0
118119  2  0  0  0  0
119120  1  0  0  0  0
120121  2  0  0  0  0
121122  1  0  0  0  0
122123  2  0  0  0  0
123124  1  0  0  0  0
124125  2  0  0  0  0
125126  1  0  0  0  0
126127  3  0  0  0  0
125128  1  0  0  0  0
128129  3  0  0  0  0
121130  1  0  0  0  0
130131  1  0  0  0  0
131132  1  0  0  0  0
132133  2  0  0  0  0
133134  1  0  0  0  0
134135  1  0  0  0  0
134136  1  0  0  0  0
 11  2  1  0  0  0  0
 23 17  1  0  0  0  0
 48 24  1  0  0  0  0
 94 52  1  0  0  0  0
110 99  2  0  0  0  0
124115  1  0  0  0  0
136130  1  0  0  0  0
 10  5  1  0  0  0  0
 22 18  1  0  0  0  0
 47 26  1  0  0  0  0
 61 54  1  0  0  0  0
 93 62  2  0  0  0  0
109101  2  0  0  0  0
123118  1  0  0  0  0
135131  1  0  0  0  0
 23  7  1  0  0  0  0
 35 28  1  0  0  0  0
 51 36  1  0  0  0  0
 92 64  2  0  0  0  0
113102  1  0  0  0  0
136120  1  0  0  0  0
 46 39  1  0  0  0  0
 90 65  2  0  0  0  0
 70 66  2  0  0  0  0
 89 71  2  0  0  0  0
 87 72  2  0  0  0  0
 86 74  2  0  0  0  0
 83 76  1  0  0  0  0
  1137  1  0  0  0  0
  6138  1  0  0  0  0
  9139  1  0  0  0  0
 17140  1  0  0  0  0
 18141  1  0  0  0  0
 19142  1  0  0  0  0
 20143  1  0  0  0  0
 21144  1  0  0  0  0
 22145  1  0  0  0  0
 22146  1  0  0  0  0
 23147  1  0  0  0  0
 25148  1  0  0  0  0
 29149  1  0  0  0  0
 30150  1  0  0  0  0
 33151  1  0  0  0  0
 33152  1  0  0  0  0
 34153  1  0  0  0  0
 34154  1  0  0  0  0
 34155  1  0  0  0  0
 40156  1  0  0  0  0
 41157  1  0  0  0  0
 44158  1  0  0  0  0
 44159  1  0  0  0  0
 45160  1  0  0  0  0
 45161  1  0  0  0  0
 45162  1  0  0  0  0
 49163  1  0  0  0  0
 55164  1  0  0  0  0
 56165  1  0  0  0  0
 57166  1  0  0  0  0
 59167  1  0  0  0  0
 59168  1  0  0  0  0
 60169  1  0  0  0  0
 60170  1  0  0  0  0
 60171  1  0  0  0  0
 61172  1  0  0  0  0
 77173  1  0  0  0  0
 78174  1  0  0  0  0
 79175  1  0  0  0  0
 81176  1  0  0  0  0
 81177  1  0  0  0  0
 82178  1  0  0  0  0
 82179  1  0  0  0  0
 82180  1  0  0  0  0
 83181  1  0  0  0  0
 95182  1  0  0  0  0
 95183  1  0  0  0  0
 96184  1  0  0  0  0
 96185  1  0  0  0  0
 96186  1  0  0  0  0
 97187  1  0  0  0  0
 97188  1  0  0  0  0
 98189  1  0  0  0  0
 98190  1  0  0  0  0
 98191  1  0  0  0  0
105192  1  0  0  0  0
105193  1  0  0  0  0
106194  1  0  0  0  0
106195  1  0  0  0  0
106196  1  0  0  0  0
107197  1  0  0  0  0
107198  1  0  0  0  0
108199  1  0  0  0  0
108200  1  0  0  0  0
108201  1  0  0  0  0
110202  1  0  0  0  0
111203  1  0  0  0  0
114204  1  0  0  0  0
119205  1  0  0  0  0
122206  1  0  0  0  0
130207  1  0  0  0  0
131208  1  0  0  0  0
132209  1  0  0  0  0
133210  1  0  0  0  0
134211  1  0  0  0  0
135212  1  0  0  0  0
135213  1  0  0  0  0
136214  1  0  0  0  0
M  END
