
  xtb     02142201023D
 energy: -274.025091947699 gnorm: 0.000459505701 xtb: 6.4.1 (unknown)
157176  0     0  0            999 V2000
   -6.0077   -0.5081    2.8383 C   0  0  0  0  0  0  0  0  0  0  0  0
   -7.2128   -1.0879    3.0431 C   0  0  0  0  0  0  0  0  0  0  0  0
   -7.9026   -0.8997    4.3525 C   0  0  0  0  0  0  0  0  0  0  0  0
   -7.3911   -0.5847    5.4013 O   0  0  0  0  0  0  0  0  0  0  0  0
   -9.3317   -1.1109    4.0589 C   0  0  0  0  0  0  0  0  0  0  0  0
  -10.4093   -0.8701    4.9091 C   0  0  0  0  0  0  0  0  0  0  0  0
  -11.6368   -1.1010    4.3368 C   0  0  0  0  0  0  0  0  0  0  0  0
  -11.7887   -1.5436    3.0147 C   0  0  0  0  0  0  0  0  0  0  0  0
  -10.7370   -1.7974    2.1679 C   0  0  0  0  0  0  0  0  0  0  0  0
   -9.4791   -1.5644    2.7294 C   0  0  0  0  0  0  0  0  0  0  0  0
   -8.1558   -1.7230    2.1414 C   0  0  0  0  0  0  0  0  0  0  0  0
   -7.8396   -2.4986    1.0595 C   0  0  0  0  0  0  0  0  0  0  0  0
   -6.5138   -2.7931    0.6825 C   0  0  0  0  0  0  0  0  0  0  0  0
   -5.4526   -3.0942    0.3643 N   0  0  0  0  0  0  0  0  0  0  0  0
   -8.7897   -3.0890    0.2038 C   0  0  0  0  0  0  0  0  0  0  0  0
   -9.5218   -3.5522   -0.5498 N   0  0  0  0  0  0  0  0  0  0  0  0
  -13.2941   -1.5229    3.0967 C   0  0  0  0  0  0  0  0  0  0  0  0
  -14.0293   -0.3393    2.4200 C   0  0  0  0  0  0  0  0  0  0  0  0
  -13.0592    0.8161    2.4092 C   0  0  0  0  0  0  0  0  0  0  0  0
  -12.9159    1.2361    3.6590 C   0  0  0  0  0  0  0  0  0  0  0  0
  -13.7857    0.3715    4.5379 C   0  0  0  0  0  0  0  0  0  0  0  0
  -14.9493    0.0896    3.5741 C   0  0  0  0  0  0  0  0  0  0  0  0
  -13.1253   -1.0300    4.5685 C   0  0  0  0  0  0  0  0  0  0  0  0
   -5.3311   -0.2357    1.6160 C   0  0  0  0  0  0  0  0  0  0  0  0
   -3.5968   -0.1042    1.6742 S   0  0  0  0  0  0  0  0  0  0  0  0
   -3.4918    0.1752   -0.0360 C   0  0  0  0  0  0  0  0  0  0  0  0
   -4.7478    0.1239   -0.6249 C   0  0  0  0  0  0  0  0  0  0  0  0
   -4.9803    0.0235   -2.0718 C   0  0  0  0  0  0  0  0  0  0  0  0
   -4.0884   -0.2020   -2.8713 O   0  0  0  0  0  0  0  0  0  0  0  0
   -6.3895    0.1429   -2.4447 C   0  0  0  0  0  0  0  0  0  0  0  0
   -6.8504    0.1789   -3.7347 C   0  0  0  0  0  0  0  0  0  0  0  0
   -6.0897    0.0361   -5.0012 C   0  0  0  0  0  0  0  0  0  0  0  0
   -5.8837   -1.4436   -5.3395 C   0  0  0  0  0  0  0  0  0  0  0  0
   -8.5723    0.3669   -3.7688 S   0  0  0  0  0  0  0  0  0  0  0  0
   -8.6806    0.4019   -2.0455 C   0  0  0  0  0  0  0  0  0  0  0  0
   -9.9971    0.5856   -1.3821 C   0  0  0  0  0  0  0  0  0  0  0  0
  -10.2400    2.0655   -1.0705 C   0  0  0  0  0  0  0  0  0  0  0  0
   -7.4350    0.2821   -1.4760 C   0  0  0  0  0  0  0  0  0  0  0  0
   -7.1950    0.2410   -0.0401 C   0  0  0  0  0  0  0  0  0  0  0  0
   -8.0666    0.4618    0.7902 O   0  0  0  0  0  0  0  0  0  0  0  0
   -5.7955   -0.0313    0.3233 C   0  0  0  0  0  0  0  0  0  0  0  0
   -2.2326    0.5151   -0.6088 C   0  0  0  0  0  0  0  0  0  0  0  0
   -1.9515    1.4100   -1.6300 C   0  0  0  0  0  0  0  0  0  0  0  0
   -2.9548    2.1863   -2.3564 C   0  0  0  0  0  0  0  0  0  0  0  0
   -2.8817    2.2816   -3.7422 C   0  0  0  0  0  0  0  0  0  0  0  0
   -3.8864    2.9251   -4.4418 C   0  0  0  0  0  0  0  0  0  0  0  0
   -4.9731    3.4582   -3.7736 C   0  0  0  0  0  0  0  0  0  0  0  0
   -5.0486    3.3954   -2.3863 C   0  0  0  0  0  0  0  0  0  0  0  0
   -6.2120    4.0009   -1.6541 C   0  0  0  0  0  0  0  0  0  0  0  0
   -5.9443    5.4730   -1.3370 C   0  0  0  0  0  0  0  0  0  0  0  0
   -4.0200    2.7843   -1.6887 C   0  0  0  0  0  0  0  0  0  0  0  0
   -0.5659    1.4897   -1.8631 C   0  0  0  0  0  0  0  0  0  0  0  0
    0.3971    2.4361   -2.9725 S   0  0  0  0  0  0  0  0  0  0  0  0
    1.8305    1.7532   -2.2826 C   0  0  0  0  0  0  0  0  0  0  0  0
    3.2276    1.8132   -2.4430 C   0  0  0  0  0  0  0  0  0  0  0  0
    4.0709    2.4272   -3.3976 C   0  0  0  0  0  0  0  0  0  0  0  0
    5.4876    2.1646   -3.3589 C   0  0  0  0  0  0  0  0  0  0  0  0
    6.1332    2.7439   -4.3582 N   0  0  0  0  0  0  0  0  0  0  0  0
    5.0645    3.5551   -5.2635 S   0  0  0  0  0  0  0  0  0  0  0  0
    3.7315    3.1977   -4.4185 N   0  0  0  0  0  0  0  0  0  0  0  0
    6.0234    1.4224   -2.2813 C   0  0  0  0  0  0  0  0  0  0  0  0
    7.3357    1.1243   -1.8715 C   0  0  0  0  0  0  0  0  0  0  0  0
    8.9607    1.3093   -2.4342 S   0  0  0  0  0  0  0  0  0  0  0  0
    9.5406    0.5431   -0.9699 C   0  0  0  0  0  0  0  0  0  0  0  0
   10.8266    0.2612   -0.4786 C   0  0  0  0  0  0  0  0  0  0  0  0
   12.0747    0.5686   -1.1662 C   0  0  0  0  0  0  0  0  0  0  0  0
   13.2195    0.9286   -0.4551 C   0  0  0  0  0  0  0  0  0  0  0  0
   14.3847    1.2311   -1.1318 C   0  0  0  0  0  0  0  0  0  0  0  0
   14.4251    1.1841   -2.5151 C   0  0  0  0  0  0  0  0  0  0  0  0
   13.2958    0.8273   -3.2411 C   0  0  0  0  0  0  0  0  0  0  0  0
   13.3076    0.8197   -4.7423 C   0  0  0  0  0  0  0  0  0  0  0  0
   12.7234    2.1264   -5.2829 C   0  0  0  0  0  0  0  0  0  0  0  0
   12.1293    0.5228   -2.5573 C   0  0  0  0  0  0  0  0  0  0  0  0
   10.7495   -0.3479    0.7740 C   0  0  0  0  0  0  0  0  0  0  0  0
    9.0948   -0.5572    1.3448 S   0  0  0  0  0  0  0  0  0  0  0  0
    8.5042    0.1760   -0.1005 C   0  0  0  0  0  0  0  0  0  0  0  0
    7.2481    0.5033   -0.6203 C   0  0  0  0  0  0  0  0  0  0  0  0
    5.9326    0.3820   -0.2430 N   0  0  0  0  0  0  0  0  0  0  0  0
    5.1716    0.9129   -1.2675 C   0  0  0  0  0  0  0  0  0  0  0  0
    3.7734    0.9670   -1.4438 C   0  0  0  0  0  0  0  0  0  0  0  0
    2.7511    0.3541   -0.7432 N   0  0  0  0  0  0  0  0  0  0  0  0
    1.5729    0.8442   -1.2498 C   0  0  0  0  0  0  0  0  0  0  0  0
    0.2032    0.6930   -1.0105 C   0  0  0  0  0  0  0  0  0  0  0  0
   -0.7854   -0.1887    0.0935 S   0  0  0  0  0  0  0  0  0  0  0  0
    2.7962   -0.9639   -0.1403 C   0  0  0  0  0  0  0  0  0  0  0  0
    2.2650   -2.0288   -1.0994 C   0  0  0  0  0  0  0  0  0  0  0  0
    5.5751    0.3531    1.1617 C   0  0  0  0  0  0  0  0  0  0  0  0
    6.0959    1.5920    1.8897 C   0  0  0  0  0  0  0  0  0  0  0  0
   11.7686   -0.8243    1.5607 C   0  0  0  0  0  0  0  0  0  0  0  0
   12.5661   -1.2947    2.3561 C   0  0  0  0  0  0  0  0  0  0  0  0
   13.5395   -1.7881    3.1928 C   0  0  0  0  0  0  0  0  0  0  0  0
   13.2509   -2.3508    4.4030 C   0  0  0  0  0  0  0  0  0  0  0  0
   11.8622   -2.4918    4.9241 C   0  0  0  0  0  0  0  0  0  0  0  0
   10.8393   -2.1349    4.3817 O   0  0  0  0  0  0  0  0  0  0  0  0
   12.0189   -3.1530    6.2307 C   0  0  0  0  0  0  0  0  0  0  0  0
   11.2030   -3.6066    7.2802 C   0  0  0  0  0  0  0  0  0  0  0  0
   11.9511   -4.1601    8.2774 C   0  0  0  0  0  0  0  0  0  0  0  0
   13.6501   -4.1436    7.9685 S   0  0  0  0  0  0  0  0  0  0  0  0
   13.3689   -3.3761    6.4619 C   0  0  0  0  0  0  0  0  0  0  0  0
   14.1793   -2.9003    5.3724 C   0  0  0  0  0  0  0  0  0  0  0  0
   15.5492   -2.9715    5.3161 C   0  0  0  0  0  0  0  0  0  0  0  0
   16.3393   -2.4964    4.2539 C   0  0  0  0  0  0  0  0  0  0  0  0
   17.0250   -2.1207    3.4125 N   0  0  0  0  0  0  0  0  0  0  0  0
   16.2872   -3.5476    6.3698 C   0  0  0  0  0  0  0  0  0  0  0  0
   16.8917   -4.0153    7.2260 N   0  0  0  0  0  0  0  0  0  0  0  0
   -5.4981   -0.1741    3.7374 H   0  0  0  0  0  0  0  0  0  0  0  0
  -10.2527   -0.5266    5.9197 H   0  0  0  0  0  0  0  0  0  0  0  0
  -10.8628   -2.1287    1.1499 H   0  0  0  0  0  0  0  0  0  0  0  0
  -13.7955   -2.4742    2.9309 H   0  0  0  0  0  0  0  0  0  0  0  0
  -14.4979   -0.5831    1.4701 H   0  0  0  0  0  0  0  0  0  0  0  0
  -12.5432    1.1584    1.5315 H   0  0  0  0  0  0  0  0  0  0  0  0
  -12.2601    2.0013    4.0309 H   0  0  0  0  0  0  0  0  0  0  0  0
  -14.0325    0.7755    5.5162 H   0  0  0  0  0  0  0  0  0  0  0  0
  -15.6143   -0.7021    3.9163 H   0  0  0  0  0  0  0  0  0  0  0  0
  -15.5286    0.9819    3.3416 H   0  0  0  0  0  0  0  0  0  0  0  0
  -13.5187   -1.6576    5.3655 H   0  0  0  0  0  0  0  0  0  0  0  0
   -6.6308    0.5288   -5.8116 H   0  0  0  0  0  0  0  0  0  0  0  0
   -5.1129    0.5072   -4.8764 H   0  0  0  0  0  0  0  0  0  0  0  0
   -5.3568   -1.5359   -6.2851 H   0  0  0  0  0  0  0  0  0  0  0  0
   -5.2897   -1.9174   -4.5628 H   0  0  0  0  0  0  0  0  0  0  0  0
   -6.8397   -1.9572   -5.4182 H   0  0  0  0  0  0  0  0  0  0  0  0
  -10.7891    0.2092   -2.0321 H   0  0  0  0  0  0  0  0  0  0  0  0
  -10.0034    0.0258   -0.4443 H   0  0  0  0  0  0  0  0  0  0  0  0
  -10.1915    2.6606   -1.9800 H   0  0  0  0  0  0  0  0  0  0  0  0
   -9.4887    2.4227   -0.3712 H   0  0  0  0  0  0  0  0  0  0  0  0
  -11.2210    2.1954   -0.6216 H   0  0  0  0  0  0  0  0  0  0  0  0
   -2.0619    1.8190   -4.2685 H   0  0  0  0  0  0  0  0  0  0  0  0
   -3.8296    2.9926   -5.5184 H   0  0  0  0  0  0  0  0  0  0  0  0
   -5.7727    3.9274   -4.3290 H   0  0  0  0  0  0  0  0  0  0  0  0
   -7.1122    3.9213   -2.2679 H   0  0  0  0  0  0  0  0  0  0  0  0
   -6.3880    3.4557   -0.7235 H   0  0  0  0  0  0  0  0  0  0  0  0
   -5.0549    5.5701   -0.7186 H   0  0  0  0  0  0  0  0  0  0  0  0
   -6.7874    5.9072   -0.8048 H   0  0  0  0  0  0  0  0  0  0  0  0
   -5.7850    6.0340   -2.2551 H   0  0  0  0  0  0  0  0  0  0  0  0
   -4.0545    2.7602   -0.6083 H   0  0  0  0  0  0  0  0  0  0  0  0
   13.1862    0.9893    0.6217 H   0  0  0  0  0  0  0  0  0  0  0  0
   15.2676    1.5113   -0.5766 H   0  0  0  0  0  0  0  0  0  0  0  0
   15.3406    1.4261   -3.0353 H   0  0  0  0  0  0  0  0  0  0  0  0
   14.3300    0.7013   -5.1056 H   0  0  0  0  0  0  0  0  0  0  0  0
   12.7133   -0.0184   -5.1121 H   0  0  0  0  0  0  0  0  0  0  0  0
   12.7277    2.1233   -6.3702 H   0  0  0  0  0  0  0  0  0  0  0  0
   11.6995    2.2543   -4.9390 H   0  0  0  0  0  0  0  0  0  0  0  0
   13.3096    2.9743   -4.9356 H   0  0  0  0  0  0  0  0  0  0  0  0
   11.2546    0.2249   -3.1162 H   0  0  0  0  0  0  0  0  0  0  0  0
    2.1925   -0.9515    0.7727 H   0  0  0  0  0  0  0  0  0  0  0  0
    3.8280   -1.2084    0.1056 H   0  0  0  0  0  0  0  0  0  0  0  0
    1.2181   -1.8588   -1.3334 H   0  0  0  0  0  0  0  0  0  0  0  0
    2.3603   -3.0091   -0.6411 H   0  0  0  0  0  0  0  0  0  0  0  0
    2.8364   -2.0180   -2.0252 H   0  0  0  0  0  0  0  0  0  0  0  0
    4.4911    0.3319    1.2547 H   0  0  0  0  0  0  0  0  0  0  0  0
    6.0007   -0.5493    1.6116 H   0  0  0  0  0  0  0  0  0  0  0  0
    5.7023    2.4935    1.4246 H   0  0  0  0  0  0  0  0  0  0  0  0
    7.1811    1.6324    1.8671 H   0  0  0  0  0  0  0  0  0  0  0  0
    5.7746    1.5646    2.9270 H   0  0  0  0  0  0  0  0  0  0  0  0
   14.5632   -1.7122    2.8478 H   0  0  0  0  0  0  0  0  0  0  0  0
   10.1317   -3.5292    7.2971 H   0  0  0  0  0  0  0  0  0  0  0  0
   11.6023   -4.5872    9.1974 H   0  0  0  0  0  0  0  0  0  0  0  0
  1  2  2  0  0  0  0
  2  3  1  0  0  0  0
  3  4  2  0  0  0  0
  3  5  1  0  0  0  0
  5  6  2  0  0  0  0
  6  7  1  0  0  0  0
  7  8  2  0  0  0  0
  8  9  1  0  0  0  0
  9 10  2  0  0  0  0
 10 11  1  0  0  0  0
 11 12  2  0  0  0  0
 12 13  1  0  0  0  0
 13 14  3  0  0  0  0
 12 15  1  0  0  0  0
 15 16  3  0  0  0  0
  8 17  1  0  0  0  0
 17 18  1  0  0  0  0
 18 19  1  0  0  0  0
 19 20  2  0  0  0  0
 20 21  1  0  0  0  0
 21 22  1  0  0  0  0
 21 23  1  0  0  0  0
  1 24  1  0  0  0  0
 24 25  1  0  0  0  0
 25 26  1  0  0  0  0
 26 27  2  0  0  0  0
 27 28  1  0  0  0  0
 28 29  2  0  0  0  0
 28 30  1  0  0  0  0
 30 31  2  0  0  0  0
 31 32  1  0  0  0  0
 32 33  1  0  0  0  0
 31 34  1  0  0  0  0
 34 35  1  0  0  0  0
 35 36  1  0  0  0  0
 36 37  1  0  0  0  0
 35 38  2  0  0  0  0
 38 39  1  0  0  0  0
 39 40  2  0  0  0  0
 39 41  1  0  0  0  0
 26 42  1  0  0  0  0
 42 43  2  0  0  0  0
 43 44  1  0  0  0  0
 44 45  2  0  0  0  0
 45 46  1  0  0  0  0
 46 47  2  0  0  0  0
 47 48  1  0  0  0  0
 48 49  1  0  0  0  0
 49 50  1  0  0  0  0
 48 51  2  0  0  0  0
 43 52  1  0  0  0  0
 52 53  1  0  0  0  0
 53 54  1  0  0  0  0
 54 55  1  0  0  0  0
 55 56  1  0  0  0  0
 56 57  1  0  0  0  0
 57 58  2  0  0  0  0
 58 59  1  0  0  0  0
 59 60  1  0  0  0  0
 57 61  1  0  0  0  0
 61 62  1  0  0  0  0
 62 63  1  0  0  0  0
 63 64  1  0  0  0  0
 64 65  1  0  0  0  0
 65 66  1  0  0  0  0
 66 67  2  0  0  0  0
 67 68  1  0  0  0  0
 68 69  2  0  0  0  0
 69 70  1  0  0  0  0
 70 71  1  0  0  0  0
 71 72  1  0  0  0  0
 70 73  2  0  0  0  0
 65 74  2  0  0  0  0
 74 75  1  0  0  0  0
 75 76  1  0  0  0  0
 76 77  1  0  0  0  0
 77 78  1  0  0  0  0
 78 79  1  0  0  0  0
 79 80  1  0  0  0  0
 80 81  1  0  0  0  0
 81 82  1  0  0  0  0
 82 83  1  0  0  0  0
 83 84  1  0  0  0  0
 81 85  1  0  0  0  0
 85 86  1  0  0  0  0
 78 87  1  0  0  0  0
 87 88  1  0  0  0  0
 74 89  1  0  0  0  0
 89 90  3  0  0  0  0
 90 91  1  0  0  0  0
 91 92  2  0  0  0  0
 92 93  1  0  0  0  0
 93 94  2  0  0  0  0
 93 95  1  0  0  0  0
 95 96  1  0  0  0  0
 96 97  2  0  0  0  0
 97 98  1  0  0  0  0
 98 99  1  0  0  0  0
 99100  1  0  0  0  0
100101  2  0  0  0  0
101102  1  0  0  0  0
102103  3  0  0  0  0
101104  1  0  0  0  0
104105  3  0  0  0  0
 11  2  1  0  0  0  0
 23 17  1  0  0  0  0
 41 24  2  0  0  0  0
 84 42  1  0  0  0  0
100 92  1  0  0  0  0
 10  5  1  0  0  0  0
 22 18  1  0  0  0  0
 41 27  1  0  0  0  0
 51 44  1  0  0  0  0
 83 52  2  0  0  0  0
 99 95  2  0  0  0  0
 23  7  1  0  0  0  0
 38 30  1  0  0  0  0
 82 54  2  0  0  0  0
 80 55  2  0  0  0  0
 60 56  2  0  0  0  0
 79 61  2  0  0  0  0
 77 62  2  0  0  0  0
 76 64  2  0  0  0  0
 73 66  1  0  0  0  0
  1106  1  0  0  0  0
  6107  1  0  0  0  0
  9108  1  0  0  0  0
 17109  1  0  0  0  0
 18110  1  0  0  0  0
 19111  1  0  0  0  0
 20112  1  0  0  0  0
 21113  1  0  0  0  0
 22114  1  0  0  0  0
 22115  1  0  0  0  0
 23116  1  0  0  0  0
 32117  1  0  0  0  0
 32118  1  0  0  0  0
 33119  1  0  0  0  0
 33120  1  0  0  0  0
 33121  1  0  0  0  0
 36122  1  0  0  0  0
 36123  1  0  0  0  0
 37124  1  0  0  0  0
 37125  1  0  0  0  0
 37126  1  0  0  0  0
 45127  1  0  0  0  0
 46128  1  0  0  0  0
 47129  1  0  0  0  0
 49130  1  0  0  0  0
 49131  1  0  0  0  0
 50132  1  0  0  0  0
 50133  1  0  0  0  0
 50134  1  0  0  0  0
 51135  1  0  0  0  0
 67136  1  0  0  0  0
 68137  1  0  0  0  0
 69138  1  0  0  0  0
 71139  1  0  0  0  0
 71140  1  0  0  0  0
 72141  1  0  0  0  0
 72142  1  0  0  0  0
 72143  1  0  0  0  0
 73144  1  0  0  0  0
 85145  1  0  0  0  0
 85146  1  0  0  0  0
 86147  1  0  0  0  0
 86148  1  0  0  0  0
 86149  1  0  0  0  0
 87150  1  0  0  0  0
 87151  1  0  0  0  0
 88152  1  0  0  0  0
 88153  1  0  0  0  0
 88154  1  0  0  0  0
 91155  1  0  0  0  0
 96156  1  0  0  0  0
 97157  1  0  0  0  0
M  END
