242

C          5.36560       -6.02050      -10.63910
C          6.34890       -6.58230       -9.87570
C          6.59270       -6.35880       -8.44240
O          6.12930       -5.48040       -7.73620
C          7.51150       -7.42480       -8.01310
C          7.96430       -7.66920       -6.71750
C          8.80630       -8.74980       -6.61530
C          9.16780       -9.53560       -7.71840
C          8.73150       -9.30450       -9.00140
C          7.87920       -8.20360       -9.13020
C          7.23690       -7.64430      -10.31660
C          7.49750       -7.99440      -11.61400
C          6.99020       -7.33310      -12.75530
N          6.67540       -6.82570      -13.73590
C          8.38050       -9.02730      -11.99300
N          9.08320       -9.85510      -12.36600
C         10.03230      -10.44900       -6.88580
C         11.55710      -10.22990       -6.98150
C         12.09760      -10.90300       -5.74050
C         11.75810      -10.15740       -4.69670
C         10.98240       -8.96770       -5.21460
C         11.68650       -8.75990       -6.56160
C          9.63210       -9.57120       -5.65660
C          4.44750       -5.00300      -10.31550
S          4.50440       -4.02180       -8.88060
C          3.15720       -3.06400       -9.40930
C          2.68080       -3.48020      -10.65700
C          1.64560       -2.79740      -11.44610
O          0.99770       -1.84310      -11.04210
C          1.48930       -3.32740      -12.79840
C          0.68260       -2.75970      -13.75500
C         -0.17360       -1.55410      -13.61810
C         -0.83730       -1.13100      -14.92010
S          0.76880       -3.64860      -15.23780
C          1.87310       -4.80240      -14.57030
C          2.35440       -5.94360      -15.38890
C          1.46690       -7.17340      -15.17390
C          2.16190       -4.50020      -13.26320
C          3.05700       -5.27410      -12.41120
O          3.45840       -6.38970      -12.70300
C          3.40340       -4.58930      -11.15240
C          2.70920       -2.08020       -8.48750
C          1.45950       -1.53940       -8.26520
C          1.42290       -0.78710       -7.09240
S          0.14430        0.00140       -6.20840
C          1.26220        0.35200       -4.93060
C          1.16470        0.85700       -3.59410
C          0.07610        1.35050       -2.88110
C          0.28620        1.68100       -1.56280
C         -0.72740        2.19400       -0.55200
C         -1.91620        1.25640       -0.50650
C         -1.92000        0.15370        0.33700
C         -2.98440       -0.72730        0.33670
C         -4.07220       -0.53590       -0.50570
C         -5.22920       -1.49320       -0.48540
C         -6.10850       -1.26920        0.74520
C         -4.06360        0.56720       -1.34800
C         -2.99790        1.44830       -1.35650
C         -1.13920        3.63530       -0.80510
C         -2.23620        4.16310       -0.13450
C         -2.59530        5.48590       -0.30240
C         -1.86830        6.32040       -1.14210
C         -2.29340        7.74350       -1.36220
C         -3.32670        7.82360       -2.48790
C         -0.77070        5.79100       -1.80550
C         -0.40320        4.46800       -1.63560
C          0.10670        2.19340        0.70310
C          1.40890        1.86100        0.41940
C          1.55760        1.52080       -0.96590
C          2.65250        1.05480       -1.68490
C          2.44240        0.71580       -3.00210
C          3.44730        0.17120       -4.00320
C          4.04920       -1.18110       -3.67420
C          3.43470       -2.06430       -2.79980
C          3.92680       -3.34930       -2.64770
C          5.02920       -3.78420       -3.37020
C          5.51300       -5.20260       -3.28030
C          4.97980       -6.01850       -4.46060
C          5.64740       -2.89020       -4.23550
C          5.16510       -1.60600       -4.38700
C          4.50800        1.23160       -4.22730
C          4.40210        2.15140       -5.26050
C          5.36580        3.12850       -5.42990
C          6.45250        3.21660       -4.57070
C          7.47450        4.30430       -4.73630
C          7.03070        5.57190       -4.00350
C          6.54640        2.30160       -3.53000
C          5.58850        1.32080       -3.35880
C          2.55520       -0.06150       -5.19200
C          2.65010       -0.72680       -6.41120
S          3.86960       -1.60150       -7.24600
S          2.45640        1.86820        1.81010
C          1.09590        2.30460        2.78470
S          0.90440        2.53240        4.48010
C         -0.81460        2.81260        4.24560
C         -1.18110        2.73950        2.92740
C         -0.10080        2.45100        2.07350
C         -1.71020        3.02080        5.33760
C         -3.01820        3.39500        5.21850
C         -3.72800        3.38890        6.44000
C         -5.08860        3.67960        6.63740
C         -5.95720        3.97700        5.49000
C         -6.78840        5.09470        5.47590
C         -7.55810        5.36490        4.36000
C         -7.50930        4.54840        3.24260
C         -6.68580        3.43130        3.25090
S         -6.51780        2.28480        1.91190
C         -7.16970        3.16160        0.44850
C         -6.26390        4.29600        0.01040
C         -5.92980        3.14220        4.38000
C         -5.54840        3.63060        7.94280
C         -4.71330        3.28510        9.04170
C         -3.34800        2.99310        8.83850
C         -2.47780        2.64370        9.96790
C         -1.68860        1.49670        9.93180
C         -0.89330        1.16970       11.01450
C         -0.87370        1.96890       12.14310
C         -1.66500        3.10890       12.18790
S         -1.69920        4.19080       13.59120
C         -1.70800        3.01230       14.99030
C         -2.86990        2.04280       14.90910
C         -2.45340        3.45030       11.09990
C         -2.89380        3.03830        7.53350
S         -1.26380        2.69970        6.99830
C         -5.42950        3.20850       10.25260
C         -6.76660        3.49290       10.12570
S         -7.18730        3.89100        8.45650
C         -7.82670        3.52500       11.06020
C         -7.88660        3.15640       12.37360
C         -6.85330        2.50330       13.21260
O         -5.66780        2.35710       12.99170
C         -7.55280        2.03870       14.42410
C         -7.00430        1.28590       15.46060
C         -7.89880        0.96580       16.45250
C         -9.24180        1.36620       16.41780
C         -9.79210        2.11780       15.40750
C         -8.89740        2.45500       14.38720
C         -9.10700        3.22790       13.16710
C        -10.23520        3.94710       12.87410
C        -11.38380        3.99420       13.69300
N        -12.35380        4.07720       14.30170
C        -10.41800        4.78860       11.75480
N        -10.65370        5.51240       10.89460
C         -9.56540        0.67110       17.71610
C        -10.32120       -0.67880       17.64070
C         -9.98340       -1.28660       16.30200
C         -8.71240       -1.66360       16.33740
C         -8.16750       -1.31720       17.70110
C         -9.42640       -1.52860       18.55710
C         -8.06900        0.22760       17.75670
H          5.21880       -6.43090      -11.63170
H          7.65430       -7.04410       -5.89490
H          9.01130       -9.92250       -9.83810
H          9.75210      -11.50050       -6.88890
H         11.99970      -10.52170       -7.92970
H         12.60620      -11.84910       -5.74450
H         11.92650      -10.35640       -3.65450
H         10.90310       -8.10960       -4.55250
H         11.17910       -8.06240       -7.22540
H         12.72510       -8.45690       -6.44040
H          9.08640      -10.03770       -4.83840
H         -0.93190       -1.75700      -12.85470
H          0.44040       -0.74160      -13.21690
H         -1.44260       -0.24260      -14.76010
H         -0.08840       -0.90720      -15.67690
H         -1.48050       -1.92340      -15.29780
H          2.34900       -5.66620      -16.44480
H          3.37330       -6.19280      -15.08490
H          1.51750       -7.48510      -14.13420
H          1.81470       -7.99170      -15.79800
H          0.43270       -6.95070      -15.42940
H          0.61920       -1.70930       -8.91020
H         -0.89250        1.44910       -3.34650
H         -1.08220       -0.02080        0.99660
H         -2.96660       -1.58260        0.99690
H         -4.85230       -2.51890       -0.47340
H         -5.82980       -1.36400       -1.38800
H         -5.53630       -1.42360        1.65660
H         -6.94930       -1.95900        0.74200
H         -6.49170       -0.25200        0.75980
H         -4.89710        0.73610       -2.01550
H         -3.01050        2.29700       -2.02590
H         -2.81960        3.52670        0.51450
H         -3.44990        5.87980        0.22930
H         -2.72900        8.14570       -0.44520
H         -1.42670        8.35290       -1.62510
H         -3.63570        8.85380       -2.64890
H         -2.90680        7.43790       -3.41420
H         -4.20480        7.23200       -2.23800
H         -0.18870        6.42230       -2.46190
H          0.46160        4.08460       -2.15670
H          3.61630        0.94210       -1.21320
H          2.56200       -1.75270       -2.24370
H          3.43360       -4.02770       -1.96560
H          5.17610       -5.65350       -2.34430
H          6.60540       -5.22040       -3.29390
H          3.89180       -6.01060       -4.46060
H          5.32170       -5.59820       -5.40380
H          5.31570       -7.05180       -4.39250
H          6.50370       -3.20850       -4.81150
H          5.65370       -0.92650       -5.07020
H          3.56610        2.10260       -5.94310
H          5.27340        3.83050       -6.24650
H          8.43510        3.97440       -4.33570
H          7.60580        4.52970       -5.79670
H          6.90750        5.37130       -2.94150
H          6.07930        5.92280       -4.39700
H          7.76950        6.36070       -4.12510
H          7.38360        2.35350       -2.84830
H          5.68900        0.60610       -2.55490
H         -2.19350        2.84760        2.58950
H         -3.46130        3.68190        4.28390
H         -6.81540        5.75760        6.32680
H         -8.20380        6.23040        4.35230
H         -8.11930        4.78810        2.38610
H         -8.18260        3.49720        0.66820
H         -7.21840        2.38670       -0.31660
H         -6.68150        4.78630       -0.86720
H         -6.15810        5.03420        0.80340
H         -5.27800        3.91210       -0.24200
H         -5.32690        2.24630        4.38760
H         -1.71690        0.85140        9.06710
H         -0.28130        0.28050       10.98110
H         -0.24120        1.70610       12.97710
H         -0.74710        2.49900       15.02550
H         -1.79210        3.65640       15.86550
H         -2.91670        1.44650       15.81910
H         -3.80620        2.58250       14.78770
H         -2.75760        1.37360       14.05830
H         -3.03850        4.35630       11.13780
H         -4.98500        2.93030       11.18980
H         -8.75600        3.87220       10.62250
H         -5.96540        0.99470       15.44380
H        -10.82740        2.41400       15.39520
H         -9.93180        1.30690       18.51950
H        -11.37770       -0.61850       17.88740
H        -10.66590       -1.32700       15.47320
H         -8.12060       -2.08130       15.54390
H         -7.26310       -1.83890       18.00340
H         -9.73660       -2.57160       18.59900
H         -9.33680       -1.13040       19.56680
H         -7.45700        0.57530       18.58670
