
  xtb     02122211123D
 energy: -368.940491621545 gnorm: 0.000609926621 xtb: 6.4.1 (unknown)
225250  0     0  0            999 V2000
   -7.3337    3.9064    3.1819 C   0  0  0  0  0  0  0  0  0  0  0  0
   -6.1395    4.2956    3.7435 C   0  0  0  0  0  0  0  0  0  0  0  0
   -4.8494    4.3423    3.0536 C   0  0  0  0  0  0  0  0  0  0  0  0
   -4.6391    4.2615    1.8541 O   0  0  0  0  0  0  0  0  0  0  0  0
   -3.8246    4.5048    4.0985 C   0  0  0  0  0  0  0  0  0  0  0  0
   -2.4431    4.4755    3.9259 C   0  0  0  0  0  0  0  0  0  0  0  0
   -1.7331    4.5937    5.0963 C   0  0  0  0  0  0  0  0  0  0  0  0
   -2.3520    4.7424    6.3437 C   0  0  0  0  0  0  0  0  0  0  0  0
   -3.7154    4.7786    6.5254 C   0  0  0  0  0  0  0  0  0  0  0  0
   -4.4582    4.6499    5.3480 C   0  0  0  0  0  0  0  0  0  0  0  0
   -5.9072    4.5907    5.1413 C   0  0  0  0  0  0  0  0  0  0  0  0
   -6.8548    4.8093    6.1099 C   0  0  0  0  0  0  0  0  0  0  0  0
   -8.2494    4.7815    5.9066 C   0  0  0  0  0  0  0  0  0  0  0  0
   -9.3955    4.7819    5.8219 N   0  0  0  0  0  0  0  0  0  0  0  0
   -6.5618    5.1290    7.4511 C   0  0  0  0  0  0  0  0  0  0  0  0
   -6.3968    5.3952    8.5561 N   0  0  0  0  0  0  0  0  0  0  0  0
   -1.0347    4.7908    7.0793 C   0  0  0  0  0  0  0  0  0  0  0  0
   -0.5427    6.1816    7.5323 C   0  0  0  0  0  0  0  0  0  0  0  0
    0.9355    5.9799    7.7768 C   0  0  0  0  0  0  0  0  0  0  0  0
    1.5236    5.8323    6.5966 C   0  0  0  0  0  0  0  0  0  0  0  0
    0.4525    5.9304    5.5343 C   0  0  0  0  0  0  0  0  0  0  0  0
   -0.4883    6.9423    6.2009 C   0  0  0  0  0  0  0  0  0  0  0  0
   -0.3452    4.6189    5.6877 C   0  0  0  0  0  0  0  0  0  0  0  0
   -7.6089    3.4721    1.8811 C   0  0  0  0  0  0  0  0  0  0  0  0
   -6.4952    3.4694    0.5249 S   0  0  0  0  0  0  0  0  0  0  0  0
   -7.6635    2.6637   -0.4459 C   0  0  0  0  0  0  0  0  0  0  0  0
   -7.4602    2.0476   -1.6902 C   0  0  0  0  0  0  0  0  0  0  0  0
   -8.2994    0.9969   -2.0626 C   0  0  0  0  0  0  0  0  0  0  0  0
   -9.4082    0.6766   -1.3791 O   0  0  0  0  0  0  0  0  0  0  0  0
   -9.9657    1.7009   -0.5168 C   0  0  0  0  0  0  0  0  0  0  0  0
  -10.8854    1.0097    0.4710 C   0  0  0  0  0  0  0  0  0  0  0  0
  -10.6428   -0.2979    0.8648 C   0  0  0  0  0  0  0  0  0  0  0  0
  -11.4548   -0.9042    1.8053 C   0  0  0  0  0  0  0  0  0  0  0  0
  -12.5167   -0.2189    2.3800 C   0  0  0  0  0  0  0  0  0  0  0  0
  -13.3612   -0.8607    3.4426 C   0  0  0  0  0  0  0  0  0  0  0  0
  -12.7643   -0.5992    4.8271 C   0  0  0  0  0  0  0  0  0  0  0  0
  -12.7479    1.0930    1.9859 C   0  0  0  0  0  0  0  0  0  0  0  0
  -11.9454    1.7030    1.0406 C   0  0  0  0  0  0  0  0  0  0  0  0
  -10.7497    2.6593   -1.4058 C   0  0  0  0  0  0  0  0  0  0  0  0
  -11.5959    2.1144   -2.3636 C   0  0  0  0  0  0  0  0  0  0  0  0
  -12.3216    2.9359   -3.2032 C   0  0  0  0  0  0  0  0  0  0  0  0
  -12.2251    4.3185   -3.1038 C   0  0  0  0  0  0  0  0  0  0  0  0
  -13.0528    5.2107   -3.9831 C   0  0  0  0  0  0  0  0  0  0  0  0
  -14.3987    5.5111   -3.3202 C   0  0  0  0  0  0  0  0  0  0  0  0
  -11.3843    4.8553   -2.1385 C   0  0  0  0  0  0  0  0  0  0  0  0
  -10.6493    4.0381   -1.2983 C   0  0  0  0  0  0  0  0  0  0  0  0
   -8.8629    2.4121    0.2292 C   0  0  0  0  0  0  0  0  0  0  0  0
   -8.8304    2.8818    1.5251 C   0  0  0  0  0  0  0  0  0  0  0  0
   -7.7926    0.2413   -3.1276 C   0  0  0  0  0  0  0  0  0  0  0  0
   -6.5792    0.7153   -3.5898 C   0  0  0  0  0  0  0  0  0  0  0  0
   -6.0787    2.1458   -2.7177 S   0  0  0  0  0  0  0  0  0  0  0  0
   -5.6404    0.1401   -4.4911 C   0  0  0  0  0  0  0  0  0  0  0  0
   -5.6773   -1.0573   -5.1977 C   0  0  0  0  0  0  0  0  0  0  0  0
   -6.8907   -1.8227   -5.4780 C   0  0  0  0  0  0  0  0  0  0  0  0
   -6.9092   -3.2091   -5.3542 C   0  0  0  0  0  0  0  0  0  0  0  0
   -8.0693   -3.9079   -5.6307 C   0  0  0  0  0  0  0  0  0  0  0  0
   -9.2133   -3.2386   -6.0302 C   0  0  0  0  0  0  0  0  0  0  0  0
   -9.2080   -1.8566   -6.1772 C   0  0  0  0  0  0  0  0  0  0  0  0
  -10.4514   -1.1091   -6.5661 C   0  0  0  0  0  0  0  0  0  0  0  0
  -11.1143   -0.4938   -5.3314 C   0  0  0  0  0  0  0  0  0  0  0  0
   -8.0395   -1.1621   -5.9061 C   0  0  0  0  0  0  0  0  0  0  0  0
   -4.3865   -1.4312   -5.6288 C   0  0  0  0  0  0  0  0  0  0  0  0
   -3.7228   -2.8885   -6.3441 S   0  0  0  0  0  0  0  0  0  0  0  0
   -2.1193   -2.2564   -6.1321 C   0  0  0  0  0  0  0  0  0  0  0  0
   -0.7744   -2.6790   -6.1878 C   0  0  0  0  0  0  0  0  0  0  0  0
   -0.1350   -3.8633   -6.6194 C   0  0  0  0  0  0  0  0  0  0  0  0
    1.2872   -4.0076   -6.4278 C   0  0  0  0  0  0  0  0  0  0  0  0
    1.7426   -5.1559   -6.9016 N   0  0  0  0  0  0  0  0  0  0  0  0
    0.5039   -5.9857   -7.5305 S   0  0  0  0  0  0  0  0  0  0  0  0
   -0.6695   -4.9147   -7.2191 N   0  0  0  0  0  0  0  0  0  0  0  0
    1.9944   -3.0195   -5.7033 C   0  0  0  0  0  0  0  0  0  0  0  0
    3.2653   -3.0093   -5.0975 C   0  0  0  0  0  0  0  0  0  0  0  0
    4.6569   -4.0298   -4.9216 S   0  0  0  0  0  0  0  0  0  0  0  0
    5.3056   -2.9190   -3.7349 C   0  0  0  0  0  0  0  0  0  0  0  0
    6.4605   -2.9377   -2.9244 C   0  0  0  0  0  0  0  0  0  0  0  0
    7.4812   -3.9839   -2.9844 C   0  0  0  0  0  0  0  0  0  0  0  0
    8.8331   -3.6537   -3.0471 C   0  0  0  0  0  0  0  0  0  0  0  0
    9.7811   -4.6549   -3.1276 C   0  0  0  0  0  0  0  0  0  0  0  0
    9.3939   -5.9838   -3.1512 C   0  0  0  0  0  0  0  0  0  0  0  0
    8.0498   -6.3299   -3.0993 C   0  0  0  0  0  0  0  0  0  0  0  0
    7.6153   -7.7638   -3.1855 C   0  0  0  0  0  0  0  0  0  0  0  0
    7.2648   -8.1235   -4.6309 C   0  0  0  0  0  0  0  0  0  0  0  0
    7.1020   -5.3207   -3.0196 C   0  0  0  0  0  0  0  0  0  0  0  0
    6.5077   -1.8329   -2.0932 C   0  0  0  0  0  0  0  0  0  0  0  0
    5.1496   -0.7399   -2.3474 S   0  0  0  0  0  0  0  0  0  0  0  0
    4.4895   -1.8058   -3.5336 C   0  0  0  0  0  0  0  0  0  0  0  0
    3.3263   -1.8575   -4.3074 C   0  0  0  0  0  0  0  0  0  0  0  0
    2.1731   -1.1284   -4.4279 N   0  0  0  0  0  0  0  0  0  0  0  0
    1.3387   -1.8339   -5.2782 C   0  0  0  0  0  0  0  0  0  0  0  0
   -0.0048   -1.6132   -5.6506 C   0  0  0  0  0  0  0  0  0  0  0  0
   -0.8313   -0.5403   -5.3750 N   0  0  0  0  0  0  0  0  0  0  0  0
   -2.1151   -0.9571   -5.6161 C   0  0  0  0  0  0  0  0  0  0  0  0
   -3.3978   -0.4951   -5.3210 C   0  0  0  0  0  0  0  0  0  0  0  0
   -4.0380    0.8678   -4.4871 S   0  0  0  0  0  0  0  0  0  0  0  0
   -0.4705    0.8602   -5.4429 C   0  0  0  0  0  0  0  0  0  0  0  0
   -1.0983    1.5442   -6.6562 C   0  0  0  0  0  0  0  0  0  0  0  0
    1.8192   -0.1882   -3.3837 C   0  0  0  0  0  0  0  0  0  0  0  0
    0.8078   -0.7817   -2.4071 C   0  0  0  0  0  0  0  0  0  0  0  0
    7.3560   -1.5320   -0.9924 C   0  0  0  0  0  0  0  0  0  0  0  0
    8.2595   -2.7546   -0.1357 S   0  0  0  0  0  0  0  0  0  0  0  0
    8.7107   -1.5947    1.0721 C   0  0  0  0  0  0  0  0  0  0  0  0
    9.4746   -1.8009    2.2371 C   0  0  0  0  0  0  0  0  0  0  0  0
    9.7563   -0.7047    3.0569 C   0  0  0  0  0  0  0  0  0  0  0  0
    9.3905    0.5565    2.7847 O   0  0  0  0  0  0  0  0  0  0  0  0
    8.4728    0.8469    1.7013 C   0  0  0  0  0  0  0  0  0  0  0  0
    9.1235    1.9109    0.8237 C   0  0  0  0  0  0  0  0  0  0  0  0
    8.3573    2.8672    0.1709 C   0  0  0  0  0  0  0  0  0  0  0  0
    8.9591    3.7922   -0.6612 C   0  0  0  0  0  0  0  0  0  0  0  0
   10.3336    3.7870   -0.8615 C   0  0  0  0  0  0  0  0  0  0  0  0
   10.9769    4.7689   -1.7976 C   0  0  0  0  0  0  0  0  0  0  0  0
   11.0152    4.2046   -3.2193 C   0  0  0  0  0  0  0  0  0  0  0  0
   11.0915    2.8213   -0.2129 C   0  0  0  0  0  0  0  0  0  0  0  0
   10.4951    1.8898    0.6160 C   0  0  0  0  0  0  0  0  0  0  0  0
    7.2077    1.3813    2.3620 C   0  0  0  0  0  0  0  0  0  0  0  0
    5.9748    0.7558    2.2619 C   0  0  0  0  0  0  0  0  0  0  0  0
    4.8639    1.3007    2.8831 C   0  0  0  0  0  0  0  0  0  0  0  0
    4.9584    2.4697    3.6242 C   0  0  0  0  0  0  0  0  0  0  0  0
    3.7556    3.0475    4.3145 C   0  0  0  0  0  0  0  0  0  0  0  0
    3.6763    2.5548    5.7607 C   0  0  0  0  0  0  0  0  0  0  0  0
    6.2048    3.0730    3.7488 C   0  0  0  0  0  0  0  0  0  0  0  0
    7.3151    2.5379    3.1271 C   0  0  0  0  0  0  0  0  0  0  0  0
    8.2061   -0.3343    0.8051 C   0  0  0  0  0  0  0  0  0  0  0  0
    7.4435   -0.3061   -0.3632 C   0  0  0  0  0  0  0  0  0  0  0  0
   10.4970   -1.0559    4.1829 C   0  0  0  0  0  0  0  0  0  0  0  0
   10.7804   -2.4146    4.2485 C   0  0  0  0  0  0  0  0  0  0  0  0
   10.1174   -3.2663    2.8710 S   0  0  0  0  0  0  0  0  0  0  0  0
   11.4805   -3.0633    5.2782 C   0  0  0  0  0  0  0  0  0  0  0  0
   11.7396   -4.3934    5.4037 C   0  0  0  0  0  0  0  0  0  0  0  0
   11.2760   -5.6612    4.2942 S   0  0  0  0  0  0  0  0  0  0  0  0
   11.9985   -6.8785    5.3318 C   0  0  0  0  0  0  0  0  0  0  0  0
   11.9369   -8.2020    4.9719 C   0  0  0  0  0  0  0  0  0  0  0  0
   11.2945   -8.5617    3.7689 C   0  0  0  0  0  0  0  0  0  0  0  0
   10.7773   -8.8692    2.7922 N   0  0  0  0  0  0  0  0  0  0  0  0
   12.4586   -9.2922    5.6875 C   0  0  0  0  0  0  0  0  0  0  0  0
   12.8634  -10.2281    6.2170 N   0  0  0  0  0  0  0  0  0  0  0  0
   12.5524   -6.3271    6.4402 N   0  0  0  0  0  0  0  0  0  0  0  0
   13.2650   -7.0583    7.4712 C   0  0  0  0  0  0  0  0  0  0  0  0
   14.7078   -7.3361    7.0667 C   0  0  0  0  0  0  0  0  0  0  0  0
   12.4543   -4.9422    6.5464 C   0  0  0  0  0  0  0  0  0  0  0  0
   12.9023   -4.3170    7.4823 O   0  0  0  0  0  0  0  0  0  0  0  0
   -8.1889    3.8408    3.8440 H   0  0  0  0  0  0  0  0  0  0  0  0
   -2.0101    4.3544    2.9452 H   0  0  0  0  0  0  0  0  0  0  0  0
   -4.1746    4.8790    7.4946 H   0  0  0  0  0  0  0  0  0  0  0  0
   -0.8850    4.0208    7.8342 H   0  0  0  0  0  0  0  0  0  0  0  0
   -1.1163    6.6262    8.3406 H   0  0  0  0  0  0  0  0  0  0  0  0
    1.3785    5.9124    8.7531 H   0  0  0  0  0  0  0  0  0  0  0  0
    2.5565    5.6202    6.3912 H   0  0  0  0  0  0  0  0  0  0  0  0
    0.7855    6.1454    4.5222 H   0  0  0  0  0  0  0  0  0  0  0  0
   -1.4534    7.0419    5.7077 H   0  0  0  0  0  0  0  0  0  0  0  0
   -0.0300    7.9242    6.3064 H   0  0  0  0  0  0  0  0  0  0  0  0
    0.2579    3.7293    5.5128 H   0  0  0  0  0  0  0  0  0  0  0  0
   -9.8199   -0.8414    0.4265 H   0  0  0  0  0  0  0  0  0  0  0  0
  -11.2577   -1.9254    2.0994 H   0  0  0  0  0  0  0  0  0  0  0  0
  -14.3742   -0.4554    3.4055 H   0  0  0  0  0  0  0  0  0  0  0  0
  -13.4166   -1.9377    3.2720 H   0  0  0  0  0  0  0  0  0  0  0  0
  -13.3748   -1.0630    5.5983 H   0  0  0  0  0  0  0  0  0  0  0  0
  -12.7118    0.4696    5.0214 H   0  0  0  0  0  0  0  0  0  0  0  0
  -11.7578   -1.0070    4.8885 H   0  0  0  0  0  0  0  0  0  0  0  0
  -13.5679    1.6443    2.4231 H   0  0  0  0  0  0  0  0  0  0  0  0
  -12.1422    2.7228    0.7435 H   0  0  0  0  0  0  0  0  0  0  0  0
  -11.6756    1.0405   -2.4456 H   0  0  0  0  0  0  0  0  0  0  0  0
  -12.9734    2.4980   -3.9457 H   0  0  0  0  0  0  0  0  0  0  0  0
  -13.2263    4.7247   -4.9453 H   0  0  0  0  0  0  0  0  0  0  0  0
  -12.5235    6.1484   -4.1634 H   0  0  0  0  0  0  0  0  0  0  0  0
  -15.0023    6.1525   -3.9580 H   0  0  0  0  0  0  0  0  0  0  0  0
  -14.9448    4.5882   -3.1378 H   0  0  0  0  0  0  0  0  0  0  0  0
  -14.2471    6.0123   -2.3669 H   0  0  0  0  0  0  0  0  0  0  0  0
  -11.2976    5.9283   -2.0436 H   0  0  0  0  0  0  0  0  0  0  0  0
  -10.0016    4.4803   -0.5556 H   0  0  0  0  0  0  0  0  0  0  0  0
   -9.6440    2.7912    2.2234 H   0  0  0  0  0  0  0  0  0  0  0  0
   -8.2737   -0.6426   -3.5000 H   0  0  0  0  0  0  0  0  0  0  0  0
   -6.0240   -3.7318   -5.0264 H   0  0  0  0  0  0  0  0  0  0  0  0
   -8.0827   -4.9829   -5.5290 H   0  0  0  0  0  0  0  0  0  0  0  0
  -10.1172   -3.7935   -6.2356 H   0  0  0  0  0  0  0  0  0  0  0  0
  -11.1540   -1.7870   -7.0541 H   0  0  0  0  0  0  0  0  0  0  0  0
  -10.1983   -0.3135   -7.2702 H   0  0  0  0  0  0  0  0  0  0  0  0
  -11.3665   -1.2697   -4.6113 H   0  0  0  0  0  0  0  0  0  0  0  0
  -10.4447    0.2162   -4.8506 H   0  0  0  0  0  0  0  0  0  0  0  0
  -12.0263    0.0279   -5.6118 H   0  0  0  0  0  0  0  0  0  0  0  0
   -8.0139   -0.0889   -6.0327 H   0  0  0  0  0  0  0  0  0  0  0  0
    9.1319   -2.6154   -3.0499 H   0  0  0  0  0  0  0  0  0  0  0  0
   10.8289   -4.3978   -3.1768 H   0  0  0  0  0  0  0  0  0  0  0  0
   10.1423   -6.7603   -3.2121 H   0  0  0  0  0  0  0  0  0  0  0  0
    6.7394   -7.9230   -2.5535 H   0  0  0  0  0  0  0  0  0  0  0  0
    8.4153   -8.4164   -2.8320 H   0  0  0  0  0  0  0  0  0  0  0  0
    6.4602   -7.4885   -4.9952 H   0  0  0  0  0  0  0  0  0  0  0  0
    6.9471   -9.1613   -4.6975 H   0  0  0  0  0  0  0  0  0  0  0  0
    8.1295   -7.9829   -5.2756 H   0  0  0  0  0  0  0  0  0  0  0  0
    6.0537   -5.5769   -2.9685 H   0  0  0  0  0  0  0  0  0  0  0  0
   -0.7942    1.3665   -4.5270 H   0  0  0  0  0  0  0  0  0  0  0  0
    0.6127    0.9211   -5.5441 H   0  0  0  0  0  0  0  0  0  0  0  0
   -2.1803    1.5786   -6.5711 H   0  0  0  0  0  0  0  0  0  0  0  0
   -0.8342    1.0121   -7.5677 H   0  0  0  0  0  0  0  0  0  0  0  0
   -0.7275    2.5632   -6.7268 H   0  0  0  0  0  0  0  0  0  0  0  0
    2.7453    0.0441   -2.8526 H   0  0  0  0  0  0  0  0  0  0  0  0
    1.4397    0.7442   -3.7991 H   0  0  0  0  0  0  0  0  0  0  0  0
   -0.1302   -1.0075   -2.9073 H   0  0  0  0  0  0  0  0  0  0  0  0
    1.1989   -1.6995   -1.9739 H   0  0  0  0  0  0  0  0  0  0  0  0
    0.6141   -0.0734   -1.6066 H   0  0  0  0  0  0  0  0  0  0  0  0
    7.2879    2.8961    0.3210 H   0  0  0  0  0  0  0  0  0  0  0  0
    8.3510    4.5344   -1.1586 H   0  0  0  0  0  0  0  0  0  0  0  0
   10.4139    5.7043   -1.7970 H   0  0  0  0  0  0  0  0  0  0  0  0
   11.9954    4.9823   -1.4679 H   0  0  0  0  0  0  0  0  0  0  0  0
   11.5816    3.2763   -3.2427 H   0  0  0  0  0  0  0  0  0  0  0  0
   10.0071    3.9984   -3.5719 H   0  0  0  0  0  0  0  0  0  0  0  0
   11.4827    4.9142   -3.8978 H   0  0  0  0  0  0  0  0  0  0  0  0
   12.1621    2.7971   -0.3574 H   0  0  0  0  0  0  0  0  0  0  0  0
   11.1009    1.1475    1.1143 H   0  0  0  0  0  0  0  0  0  0  0  0
    5.8683   -0.1555    1.6924 H   0  0  0  0  0  0  0  0  0  0  0  0
    3.9075    0.8071    2.7843 H   0  0  0  0  0  0  0  0  0  0  0  0
    2.8479    2.7543    3.7829 H   0  0  0  0  0  0  0  0  0  0  0  0
    3.8170    4.1379    4.3080 H   0  0  0  0  0  0  0  0  0  0  0  0
    3.6053    1.4697    5.7864 H   0  0  0  0  0  0  0  0  0  0  0  0
    4.5666    2.8507    6.3108 H   0  0  0  0  0  0  0  0  0  0  0  0
    2.8051    2.9726    6.2611 H   0  0  0  0  0  0  0  0  0  0  0  0
    6.3037    3.9777    4.3314 H   0  0  0  0  0  0  0  0  0  0  0  0
    8.2785    3.0155    3.2234 H   0  0  0  0  0  0  0  0  0  0  0  0
    6.9600    0.5760   -0.7434 H   0  0  0  0  0  0  0  0  0  0  0  0
   10.8135   -0.3520    4.9296 H   0  0  0  0  0  0  0  0  0  0  0  0
   11.8524   -2.4397    6.0825 H   0  0  0  0  0  0  0  0  0  0  0  0
   13.2471   -6.4144    8.3551 H   0  0  0  0  0  0  0  0  0  0  0  0
   12.7344   -7.9870    7.6878 H   0  0  0  0  0  0  0  0  0  0  0  0
   14.7522   -7.9624    6.1789 H   0  0  0  0  0  0  0  0  0  0  0  0
   15.2280   -6.4013    6.8705 H   0  0  0  0  0  0  0  0  0  0  0  0
   15.2131   -7.8550    7.8756 H   0  0  0  0  0  0  0  0  0  0  0  0
  1  2  2  0  0  0  0
  2  3  1  0  0  0  0
  3  4  2  0  0  0  0
  3  5  1  0  0  0  0
  5  6  2  0  0  0  0
  6  7  1  0  0  0  0
  7  8  2  0  0  0  0
  8  9  1  0  0  0  0
  9 10  2  0  0  0  0
 10 11  1  0  0  0  0
 11 12  2  0  0  0  0
 12 13  1  0  0  0  0
 13 14  3  0  0  0  0
 12 15  1  0  0  0  0
 15 16  3  0  0  0  0
  8 17  1  0  0  0  0
 17 18  1  0  0  0  0
 18 19  1  0  0  0  0
 19 20  2  0  0  0  0
 20 21  1  0  0  0  0
 21 22  1  0  0  0  0
 21 23  1  0  0  0  0
  1 24  1  0  0  0  0
 24 25  1  0  0  0  0
 25 26  1  0  0  0  0
 26 27  1  0  0  0  0
 27 28  2  0  0  0  0
 28 29  1  0  0  0  0
 29 30  1  0  0  0  0
 30 31  1  0  0  0  0
 31 32  2  0  0  0  0
 32 33  1  0  0  0  0
 33 34  2  0  0  0  0
 34 35  1  0  0  0  0
 35 36  1  0  0  0  0
 34 37  1  0  0  0  0
 37 38  2  0  0  0  0
 30 39  1  0  0  0  0
 39 40  2  0  0  0  0
 40 41  1  0  0  0  0
 41 42  2  0  0  0  0
 42 43  1  0  0  0  0
 43 44  1  0  0  0  0
 42 45  1  0  0  0  0
 45 46  2  0  0  0  0
 30 47  1  0  0  0  0
 47 48  1  0  0  0  0
 28 49  1  0  0  0  0
 49 50  2  0  0  0  0
 50 51  1  0  0  0  0
 50 52  1  0  0  0  0
 52 53  2  0  0  0  0
 53 54  1  0  0  0  0
 54 55  2  0  0  0  0
 55 56  1  0  0  0  0
 56 57  2  0  0  0  0
 57 58  1  0  0  0  0
 58 59  1  0  0  0  0
 59 60  1  0  0  0  0
 58 61  2  0  0  0  0
 53 62  1  0  0  0  0
 62 63  1  0  0  0  0
 63 64  1  0  0  0  0
 64 65  1  0  0  0  0
 65 66  1  0  0  0  0
 66 67  1  0  0  0  0
 67 68  2  0  0  0  0
 68 69  1  0  0  0  0
 69 70  1  0  0  0  0
 67 71  1  0  0  0  0
 71 72  1  0  0  0  0
 72 73  1  0  0  0  0
 73 74  1  0  0  0  0
 74 75  1  0  0  0  0
 75 76  1  0  0  0  0
 76 77  2  0  0  0  0
 77 78  1  0  0  0  0
 78 79  2  0  0  0  0
 79 80  1  0  0  0  0
 80 81  1  0  0  0  0
 81 82  1  0  0  0  0
 80 83  2  0  0  0  0
 75 84  2  0  0  0  0
 84 85  1  0  0  0  0
 85 86  1  0  0  0  0
 86 87  1  0  0  0  0
 87 88  1  0  0  0  0
 88 89  1  0  0  0  0
 89 90  1  0  0  0  0
 90 91  1  0  0  0  0
 91 92  1  0  0  0  0
 92 93  1  0  0  0  0
 93 94  1  0  0  0  0
 91 95  1  0  0  0  0
 95 96  1  0  0  0  0
 88 97  1  0  0  0  0
 97 98  1  0  0  0  0
 84 99  1  0  0  0  0
 99100  1  0  0  0  0
100101  1  0  0  0  0
101102  1  0  0  0  0
102103  2  0  0  0  0
103104  1  0  0  0  0
104105  1  0  0  0  0
105106  1  0  0  0  0
106107  2  0  0  0  0
107108  1  0  0  0  0
108109  2  0  0  0  0
109110  1  0  0  0  0
110111  1  0  0  0  0
109112  1  0  0  0  0
112113  2  0  0  0  0
105114  1  0  0  0  0
114115  2  0  0  0  0
115116  1  0  0  0  0
116117  2  0  0  0  0
117118  1  0  0  0  0
118119  1  0  0  0  0
117120  1  0  0  0  0
120121  2  0  0  0  0
105122  1  0  0  0  0
122123  1  0  0  0  0
103124  1  0  0  0  0
124125  2  0  0  0  0
125126  1  0  0  0  0
125127  1  0  0  0  0
127128  2  0  0  0  0
128129  1  0  0  0  0
129130  1  0  0  0  0
130131  2  0  0  0  0
131132  1  0  0  0  0
132133  3  0  0  0  0
131134  1  0  0  0  0
134135  3  0  0  0  0
130136  1  0  0  0  0
136137  1  0  0  0  0
137138  1  0  0  0  0
136139  1  0  0  0  0
139140  2  0  0  0  0
 11  2  1  0  0  0  0
 23 17  1  0  0  0  0
 48 24  2  0  0  0  0
 94 52  1  0  0  0  0
123 99  2  0  0  0  0
139128  1  0  0  0  0
 10  5  1  0  0  0  0
 22 18  1  0  0  0  0
 47 26  2  0  0  0  0
 61 54  1  0  0  0  0
 93 62  2  0  0  0  0
122101  2  0  0  0  0
 23  7  1  0  0  0  0
 51 27  1  0  0  0  0
 92 64  2  0  0  0  0
126102  1  0  0  0  0
 38 31  1  0  0  0  0
 46 39  1  0  0  0  0
 90 65  2  0  0  0  0
113106  1  0  0  0  0
121114  1  0  0  0  0
 70 66  2  0  0  0  0
 89 71  2  0  0  0  0
 87 72  2  0  0  0  0
 86 74  2  0  0  0  0
 83 76  1  0  0  0  0
  1141  1  0  0  0  0
  6142  1  0  0  0  0
  9143  1  0  0  0  0
 17144  1  0  0  0  0
 18145  1  0  0  0  0
 19146  1  0  0  0  0
 20147  1  0  0  0  0
 21148  1  0  0  0  0
 22149  1  0  0  0  0
 22150  1  0  0  0  0
 23151  1  0  0  0  0
 32152  1  0  0  0  0
 33153  1  0  0  0  0
 35154  1  0  0  0  0
 35155  1  0  0  0  0
 36156  1  0  0  0  0
 36157  1  0  0  0  0
 36158  1  0  0  0  0
 37159  1  0  0  0  0
 38160  1  0  0  0  0
 40161  1  0  0  0  0
 41162  1  0  0  0  0
 43163  1  0  0  0  0
 43164  1  0  0  0  0
 44165  1  0  0  0  0
 44166  1  0  0  0  0
 44167  1  0  0  0  0
 45168  1  0  0  0  0
 46169  1  0  0  0  0
 48170  1  0  0  0  0
 49171  1  0  0  0  0
 55172  1  0  0  0  0
 56173  1  0  0  0  0
 57174  1  0  0  0  0
 59175  1  0  0  0  0
 59176  1  0  0  0  0
 60177  1  0  0  0  0
 60178  1  0  0  0  0
 60179  1  0  0  0  0
 61180  1  0  0  0  0
 77181  1  0  0  0  0
 78182  1  0  0  0  0
 79183  1  0  0  0  0
 81184  1  0  0  0  0
 81185  1  0  0  0  0
 82186  1  0  0  0  0
 82187  1  0  0  0  0
 82188  1  0  0  0  0
 83189  1  0  0  0  0
 95190  1  0  0  0  0
 95191  1  0  0  0  0
 96192  1  0  0  0  0
 96193  1  0  0  0  0
 96194  1  0  0  0  0
 97195  1  0  0  0  0
 97196  1  0  0  0  0
 98197  1  0  0  0  0
 98198  1  0  0  0  0
 98199  1  0  0  0  0
107200  1  0  0  0  0
108201  1  0  0  0  0
110202  1  0  0  0  0
110203  1  0  0  0  0
111204  1  0  0  0  0
111205  1  0  0  0  0
111206  1  0  0  0  0
112207  1  0  0  0  0
113208  1  0  0  0  0
115209  1  0  0  0  0
116210  1  0  0  0  0
118211  1  0  0  0  0
118212  1  0  0  0  0
119213  1  0  0  0  0
119214  1  0  0  0  0
119215  1  0  0  0  0
120216  1  0  0  0  0
121217  1  0  0  0  0
123218  1  0  0  0  0
124219  1  0  0  0  0
127220  1  0  0  0  0
137221  1  0  0  0  0
137222  1  0  0  0  0
138223  1  0  0  0  0
138224  1  0  0  0  0
138225  1  0  0  0  0
M  END
