177

C         -3.73610       -9.40180       -4.77550
C         -2.44080       -9.01580       -4.73270
C         -1.83320       -8.08510       -3.73450
O         -2.39210       -7.31470       -2.98590
C         -0.38300       -8.33140       -3.80200
C          0.59280       -7.74570       -2.99560
C          1.87260       -8.15340       -3.28070
C          2.16570       -9.08200       -4.29090
C          1.21590       -9.66430       -5.09500
C         -0.09630       -9.25790       -4.82550
C         -1.34510       -9.63770       -5.47110
C         -1.47220      -10.36720       -6.62000
C         -2.69650      -10.61100       -7.28150
N         -3.64860      -10.82520       -7.88540
C         -0.39020      -10.93170       -7.32970
N          0.44560      -11.41800       -7.94740
C          3.64780       -9.03250       -4.01560
C          4.24520      -10.21630       -3.22550
C          5.55630       -9.67570       -2.70130
C          5.27810       -8.79680       -1.74700
C          3.77410       -8.72780       -1.61030
C          3.41270      -10.18250       -1.93730
C          3.32100       -7.99660       -2.89230
C         -4.83270       -8.81180       -4.03610
C         -5.81860       -9.66960       -3.50400
C         -6.84220       -9.17370       -2.73030
C         -7.83830      -10.09030       -2.14670
O         -7.85340      -11.28780       -2.32220
N         -8.79030       -9.48470       -1.34940
C         -8.92700       -8.14970       -1.01760
O         -9.81850       -7.78680       -0.28390
C         -7.92990       -7.25320       -1.62900
C         -7.96810       -5.90600       -1.35430
C         -7.04000       -5.01820       -1.93960
C         -6.07460       -5.53440       -2.78710
C         -5.98310       -6.91100       -3.05380
C         -4.95070       -7.44750       -3.84500
C         -6.93200       -7.78910       -2.47090
C         -7.03570       -3.61340       -1.59590
C         -8.02580       -2.83100       -1.03570
C         -9.43690       -3.19370       -0.88310
C        -10.13620       -3.77930       -1.93690
C        -11.47710       -4.07410       -1.79100
C        -12.13170       -3.78410       -0.60580
C        -11.45180       -3.19360        0.45100
C        -12.16220       -2.82060        1.71930
C        -12.58570       -1.35090        1.67370
C        -10.10480       -2.89910        0.29930
C         -7.53470       -1.55190       -0.68940
S         -8.26390       -0.16280        0.08390
C         -6.75170        0.67390       -0.03390
C         -6.17980        1.91270        0.31320
C         -6.72390        3.07920        0.89350
C         -5.87460        4.22200        1.09180
N         -6.52780        5.25290        1.60440
S         -8.07360        4.82510        1.82350
N         -7.97150        3.30610        1.27370
C         -4.49480        4.10850        0.81150
C         -3.41160        4.95910        1.08900
S         -3.11580        6.51750        1.78240
C         -1.39900        6.22060        1.65610
C         -0.27470        6.99720        1.99770
C         -0.37820        8.35090        2.54750
C          0.30310        9.41200        1.95790
C          0.15880       10.68790        2.46730
C         -0.66210       10.91500        3.55820
C         -1.36020        9.86950        4.14880
C         -2.22600       10.10390        5.35250
C         -1.41480        9.91450        6.63590
C         -1.21150        8.59070        3.63350
C          0.90180        6.33480        1.70140
S          0.61560        4.75670        0.97430
C         -1.09270        4.98140        1.08860
C         -2.24640        4.25920        0.76080
N         -2.56730        3.02090        0.26910
C         -3.94540        2.91090        0.27760
C         -4.81830        1.85750       -0.09010
N         -4.58280        0.64170       -0.71310
C         -5.75150       -0.07520       -0.65430
C         -6.19660       -1.34970       -1.02300
S         -5.51010       -2.75140       -1.75350
C         -3.64950        0.35540       -1.78160
C         -4.30440        0.53400       -3.15190
C         -1.55960        1.98680        0.18910
C         -0.65250        2.15630       -1.03020
C          2.25250        6.69100        1.96960
C          3.36050        6.08440        1.42140
C          4.57460        6.55380        1.93420
S          6.14470        6.05750        1.34010
C          5.79290        5.63070       -0.40480
C          5.29280        6.81820       -1.20230
C          4.40780        7.53030        2.91660
S          2.70950        7.88940        3.13620
C          5.35020        8.27980        3.64530
C          6.64430        7.97740        3.95470
C          7.58430        9.07170        4.32180
O          7.29390       10.21890        4.57930
C          8.93070        8.47130        4.24990
C         10.15590        9.12050        4.38430
C         11.24620        8.29860        4.22630
C         11.13090        6.93190        3.93990
C          9.92940        6.27560        3.81440
C          8.80980        7.09080        3.98850
C          7.39010        6.74510        3.95450
C          6.87860        5.48220        4.13060
C          7.66070        4.31430        4.21460
N          8.23850        3.32380        4.27710
C          5.51230        5.21400        4.33920
N          4.41310        4.94530        4.53600
C         12.62530        6.73330        3.89440
C         13.29890        6.05510        5.11230
C         12.41380        6.33750        6.30090
C         12.51980        7.62850        6.58590
C         13.47850        8.24200        5.59560
C         14.43360        7.05810        5.37430
C         12.75410        8.25340        4.22630
H         -3.99570      -10.28020       -5.35470
H          0.32320       -7.03450       -2.23070
H          1.45480      -10.37690       -5.86670
H          4.27270       -8.71870       -4.84930
H          4.28630      -11.15400       -3.77260
H          6.51700       -9.93940       -3.10260
H          5.95960       -8.17950       -1.19180
H          3.38510       -8.30980       -0.68590
H          3.78720      -10.87720       -1.18760
H          2.34850      -10.35230       -2.09090
H          3.72910       -6.99110       -2.97520
H         -5.76480      -10.73510       -3.67270
H         -9.47830      -10.10980       -0.93890
H         -8.71470       -5.54670       -0.66410
H         -5.34440       -4.87600       -3.23590
H         -4.25470       -6.76990       -4.31200
H         -9.62530       -3.99380       -2.86440
H        -12.01710       -4.53030       -2.60730
H        -13.18060       -4.01960       -0.50040
H        -13.04460       -3.44950        1.85000
H        -11.50030       -2.97730        2.57340
H        -11.71570       -0.70940        1.55150
H        -13.09670       -1.07370        2.59270
H        -13.25810       -1.17740        0.83630
H         -9.56220       -2.45110        1.11920
H          0.92570        9.23580        1.09290
H          0.68470       11.51130        2.00730
H         -0.76980       11.91600        3.95030
H         -2.62920       11.11800        5.32690
H         -3.06250        9.40240        5.34720
H         -2.04140       10.07930        7.50930
H         -0.58440       10.61630        6.66600
H         -1.01050        8.90600        6.68280
H         -1.74360        7.76660        4.08630
H         -3.30260       -0.67670       -1.66780
H         -2.80560        1.03120       -1.71520
H         -5.12810       -0.16160       -3.28520
H         -4.68530        1.54790       -3.25680
H         -3.57060        0.35280       -3.93270
H         -0.94070        2.05360        1.09130
H         -2.05040        1.01320        0.19860
H         -1.22600        2.27640       -1.94680
H         -0.00670        1.28840       -1.13010
H         -0.02860        3.03770       -0.91130
H          3.27590        5.30630        0.68410
H          6.75890        5.28810       -0.77570
H          5.09540        4.79470       -0.42360
H          4.33830        7.17160       -0.81710
H          6.00910        7.63530       -1.15320
H          5.16090        6.53200       -2.24380
H          5.02400        9.26790        3.95610
H         10.20380       10.17790        4.59280
H          9.84910        5.22540        3.58670
H         13.03070        6.38380        2.94670
H         13.57450        5.01570        4.95530
H         11.77670        5.60450        6.75990
H         11.98870        8.19010        7.33190
H         13.91910        9.19380        5.88060
H         15.10020        7.19150        4.52320
H         15.01500        6.81410        6.26220
H         13.25210        8.89410        3.50060
