
  xtb     02142215263D
 energy: -323.586473829175 gnorm: 0.000292239296 xtb: 6.4.1 (unknown)
183205  0     0  0            999 V2000
   -7.1083   -0.4748   -5.6742 C   0  0  0  0  0  0  0  0  0  0  0  0
   -7.7446   -0.3781   -4.4702 C   0  0  0  0  0  0  0  0  0  0  0  0
   -7.2779    0.3697   -3.2920 C   0  0  0  0  0  0  0  0  0  0  0  0
   -6.1591    0.8032   -3.0818 O   0  0  0  0  0  0  0  0  0  0  0  0
   -8.4480    0.5093   -2.4104 C   0  0  0  0  0  0  0  0  0  0  0  0
   -8.5177    1.2300   -1.2194 C   0  0  0  0  0  0  0  0  0  0  0  0
   -9.7522    1.1956   -0.6179 C   0  0  0  0  0  0  0  0  0  0  0  0
  -10.8407    0.4979   -1.1600 C   0  0  0  0  0  0  0  0  0  0  0  0
  -10.7856   -0.2182   -2.3324 C   0  0  0  0  0  0  0  0  0  0  0  0
   -9.5366   -0.1996   -2.9603 C   0  0  0  0  0  0  0  0  0  0  0  0
   -9.0949   -0.8379   -4.1972 C   0  0  0  0  0  0  0  0  0  0  0  0
   -9.7822   -1.7810   -4.9121 C   0  0  0  0  0  0  0  0  0  0  0  0
   -9.2534   -2.5060   -6.0038 C   0  0  0  0  0  0  0  0  0  0  0  0
   -8.8814   -3.1790   -6.8560 N   0  0  0  0  0  0  0  0  0  0  0  0
  -11.0850   -2.2193   -4.5957 C   0  0  0  0  0  0  0  0  0  0  0  0
  -12.1441   -2.6111   -4.3893 N   0  0  0  0  0  0  0  0  0  0  0  0
  -11.7604    0.8994   -0.0338 C   0  0  0  0  0  0  0  0  0  0  0  0
  -12.0473   -0.1730    1.0387 C   0  0  0  0  0  0  0  0  0  0  0  0
  -12.5538    0.6238    2.2194 C   0  0  0  0  0  0  0  0  0  0  0  0
  -11.5236    1.2841    2.7327 C   0  0  0  0  0  0  0  0  0  0  0  0
  -10.3033    0.9448    1.9074 C   0  0  0  0  0  0  0  0  0  0  0  0
  -10.6333   -0.5057    1.5324 C   0  0  0  0  0  0  0  0  0  0  0  0
  -10.5469    1.6765    0.5703 C   0  0  0  0  0  0  0  0  0  0  0  0
   -5.8072   -0.0685   -6.0284 C   0  0  0  0  0  0  0  0  0  0  0  0
   -4.5506    0.3354   -4.8921 S   0  0  0  0  0  0  0  0  0  0  0  0
   -3.3762    0.4766   -6.1599 C   0  0  0  0  0  0  0  0  0  0  0  0
   -3.9516    0.3160   -7.4194 C   0  0  0  0  0  0  0  0  0  0  0  0
   -3.2772    0.5938   -8.6981 C   0  0  0  0  0  0  0  0  0  0  0  0
   -2.2483    1.2423   -8.7858 O   0  0  0  0  0  0  0  0  0  0  0  0
   -3.9799    0.0184   -9.8420 C   0  0  0  0  0  0  0  0  0  0  0  0
   -3.4378   -0.1312  -11.0930 C   0  0  0  0  0  0  0  0  0  0  0  0
   -2.1191    0.3466  -11.5775 C   0  0  0  0  0  0  0  0  0  0  0  0
   -1.6095   -0.4220  -12.7888 C   0  0  0  0  0  0  0  0  0  0  0  0
   -4.5313   -0.9785  -12.1371 S   0  0  0  0  0  0  0  0  0  0  0  0
   -5.7479   -1.0764  -10.9094 C   0  0  0  0  0  0  0  0  0  0  0  0
   -7.0643   -1.6970  -11.2046 C   0  0  0  0  0  0  0  0  0  0  0  0
   -8.0560   -0.6430  -11.7062 C   0  0  0  0  0  0  0  0  0  0  0  0
   -5.3098   -0.5027   -9.7430 C   0  0  0  0  0  0  0  0  0  0  0  0
   -6.1153   -0.3679   -8.5310 C   0  0  0  0  0  0  0  0  0  0  0  0
   -7.3266   -0.5170   -8.5149 O   0  0  0  0  0  0  0  0  0  0  0  0
   -5.3145   -0.0373   -7.3395 C   0  0  0  0  0  0  0  0  0  0  0  0
   -2.0198    0.6666   -5.7755 C   0  0  0  0  0  0  0  0  0  0  0  0
   -0.8433    0.1899   -6.3344 C   0  0  0  0  0  0  0  0  0  0  0  0
   -0.7406   -0.6582   -7.5197 C   0  0  0  0  0  0  0  0  0  0  0  0
    0.2928   -0.4577   -8.4298 C   0  0  0  0  0  0  0  0  0  0  0  0
    0.3941   -1.2659   -9.5469 C   0  0  0  0  0  0  0  0  0  0  0  0
   -0.5355   -2.2650   -9.7741 C   0  0  0  0  0  0  0  0  0  0  0  0
   -1.5749   -2.4789   -8.8762 C   0  0  0  0  0  0  0  0  0  0  0  0
   -2.5770   -3.5739   -9.1057 C   0  0  0  0  0  0  0  0  0  0  0  0
   -2.1167   -4.8734   -8.4430 C   0  0  0  0  0  0  0  0  0  0  0  0
   -1.6508   -1.6879   -7.7416 C   0  0  0  0  0  0  0  0  0  0  0  0
    0.2674    0.5285   -5.5361 C   0  0  0  0  0  0  0  0  0  0  0  0
    1.9699    0.1456   -5.6512 S   0  0  0  0  0  0  0  0  0  0  0  0
    2.2211    0.8679   -4.0970 C   0  0  0  0  0  0  0  0  0  0  0  0
    3.2480    1.0350   -3.1492 C   0  0  0  0  0  0  0  0  0  0  0  0
    4.6383    0.7826   -3.1691 C   0  0  0  0  0  0  0  0  0  0  0  0
    5.4187    1.0666   -1.9926 C   0  0  0  0  0  0  0  0  0  0  0  0
    6.7072    0.8270   -2.1739 N   0  0  0  0  0  0  0  0  0  0  0  0
    6.9249    0.2889   -3.6850 S   0  0  0  0  0  0  0  0  0  0  0  0
    5.3810    0.3367   -4.1692 N   0  0  0  0  0  0  0  0  0  0  0  0
    4.7562    1.4444   -0.8014 C   0  0  0  0  0  0  0  0  0  0  0  0
    5.1793    1.4899    0.5382 C   0  0  0  0  0  0  0  0  0  0  0  0
    6.6236    1.2663    1.4650 S   0  0  0  0  0  0  0  0  0  0  0  0
    5.6747    1.3587    2.9301 C   0  0  0  0  0  0  0  0  0  0  0  0
    6.0020    1.2240    4.2914 C   0  0  0  0  0  0  0  0  0  0  0  0
    7.3488    1.0160    4.8149 C   0  0  0  0  0  0  0  0  0  0  0  0
    8.2105    0.1189    4.1898 C   0  0  0  0  0  0  0  0  0  0  0  0
    9.4415   -0.1582    4.7544 C   0  0  0  0  0  0  0  0  0  0  0  0
    9.8207    0.4453    5.9400 C   0  0  0  0  0  0  0  0  0  0  0  0
    8.9850    1.3663    6.5617 C   0  0  0  0  0  0  0  0  0  0  0  0
    9.4058    2.0619    7.8246 C   0  0  0  0  0  0  0  0  0  0  0  0
   10.0650    3.4048    7.5050 C   0  0  0  0  0  0  0  0  0  0  0  0
    7.7626    1.6577    5.9789 C   0  0  0  0  0  0  0  0  0  0  0  0
    4.8692    1.3187    5.0872 C   0  0  0  0  0  0  0  0  0  0  0  0
    3.4170    1.6568    4.1598 S   0  0  0  0  0  0  0  0  0  0  0  0
    4.3164    1.5901    2.6898 C   0  0  0  0  0  0  0  0  0  0  0  0
    4.0339    1.6688    1.3220 C   0  0  0  0  0  0  0  0  0  0  0  0
    2.9260    1.7966    0.5243 N   0  0  0  0  0  0  0  0  0  0  0  0
    3.3523    1.6573   -0.7858 C   0  0  0  0  0  0  0  0  0  0  0  0
    2.6367    1.6098   -2.0035 C   0  0  0  0  0  0  0  0  0  0  0  0
    1.3101    1.8832   -2.2794 N   0  0  0  0  0  0  0  0  0  0  0  0
    1.0542    1.4015   -3.5384 C   0  0  0  0  0  0  0  0  0  0  0  0
   -0.0589    1.2147   -4.3636 C   0  0  0  0  0  0  0  0  0  0  0  0
   -1.7547    1.5000   -4.2498 S   0  0  0  0  0  0  0  0  0  0  0  0
    0.5250    2.9589   -1.7120 C   0  0  0  0  0  0  0  0  0  0  0  0
    0.3506    4.1086   -2.7035 C   0  0  0  0  0  0  0  0  0  0  0  0
    1.6146    1.5133    1.0728 C   0  0  0  0  0  0  0  0  0  0  0  0
    1.1742    0.0861    0.7600 C   0  0  0  0  0  0  0  0  0  0  0  0
    4.7421    1.1625    6.4949 C   0  0  0  0  0  0  0  0  0  0  0  0
    3.5872    2.1245    7.3637 S   0  0  0  0  0  0  0  0  0  0  0  0
    4.0534    1.4262    8.8888 C   0  0  0  0  0  0  0  0  0  0  0  0
    5.0964    0.5268    8.7174 C   0  0  0  0  0  0  0  0  0  0  0  0
    5.9061   -0.0407    9.8108 C   0  0  0  0  0  0  0  0  0  0  0  0
    5.9079    0.4265   10.9412 O   0  0  0  0  0  0  0  0  0  0  0  0
    6.7309   -1.1674    9.4013 C   0  0  0  0  0  0  0  0  0  0  0  0
    7.4115   -1.9915   10.2671 C   0  0  0  0  0  0  0  0  0  0  0  0
    7.4637   -1.9446   11.7512 C   0  0  0  0  0  0  0  0  0  0  0  0
    7.3043   -3.3259   12.3819 C   0  0  0  0  0  0  0  0  0  0  0  0
    8.2685   -3.2160    9.3969 S   0  0  0  0  0  0  0  0  0  0  0  0
    7.7174   -2.6229    7.8657 C   0  0  0  0  0  0  0  0  0  0  0  0
    8.1202   -3.3112    6.6135 C   0  0  0  0  0  0  0  0  0  0  0  0
    7.0607   -4.3360    6.1972 C   0  0  0  0  0  0  0  0  0  0  0  0
    6.8917   -1.5414    8.0273 C   0  0  0  0  0  0  0  0  0  0  0  0
    6.2473   -0.8260    6.9261 C   0  0  0  0  0  0  0  0  0  0  0  0
    6.2975   -1.2024    5.7674 O   0  0  0  0  0  0  0  0  0  0  0  0
    5.4439    0.3250    7.3570 C   0  0  0  0  0  0  0  0  0  0  0  0
    3.3457    1.8106   10.0608 C   0  0  0  0  0  0  0  0  0  0  0  0
    3.1333    1.0808   11.1842 C   0  0  0  0  0  0  0  0  0  0  0  0
    2.7624    1.7813   12.4528 C   0  0  0  0  0  0  0  0  0  0  0  0
    2.3026    2.8913   12.5594 O   0  0  0  0  0  0  0  0  0  0  0  0
    3.1471    0.8304   13.5060 C   0  0  0  0  0  0  0  0  0  0  0  0
    3.5695   -0.4062   12.9135 C   0  0  0  0  0  0  0  0  0  0  0  0
    3.9717   -1.3314   13.8242 C   0  0  0  0  0  0  0  0  0  0  0  0
    3.8507   -0.7139   15.4312 S   0  0  0  0  0  0  0  0  0  0  0  0
    3.2349    0.8225   14.8649 C   0  0  0  0  0  0  0  0  0  0  0  0
    2.8340    2.0612   15.9484 Cl  0  0  0  0  0  0  0  0  0  0  0  0
    3.4174   -0.3139   11.4774 C   0  0  0  0  0  0  0  0  0  0  0  0
    3.3737   -1.3811   10.6211 C   0  0  0  0  0  0  0  0  0  0  0  0
    3.7121   -2.6793   11.0461 C   0  0  0  0  0  0  0  0  0  0  0  0
    4.0334   -3.7330   11.3697 N   0  0  0  0  0  0  0  0  0  0  0  0
    2.9842   -1.2966    9.2709 C   0  0  0  0  0  0  0  0  0  0  0  0
    2.6241   -1.2810    8.1810 N   0  0  0  0  0  0  0  0  0  0  0  0
   -7.6730   -0.8794   -6.5074 H   0  0  0  0  0  0  0  0  0  0  0  0
   -7.6571    1.7585   -0.8402 H   0  0  0  0  0  0  0  0  0  0  0  0
  -11.6330   -0.7410   -2.7438 H   0  0  0  0  0  0  0  0  0  0  0  0
  -12.6471    1.4601   -0.3228 H   0  0  0  0  0  0  0  0  0  0  0  0
  -12.6683   -0.9984    0.7019 H   0  0  0  0  0  0  0  0  0  0  0  0
  -13.5853    0.6671    2.5158 H   0  0  0  0  0  0  0  0  0  0  0  0
  -11.5225    1.9890    3.5432 H   0  0  0  0  0  0  0  0  0  0  0  0
   -9.3356    1.1375    2.3627 H   0  0  0  0  0  0  0  0  0  0  0  0
  -10.6448   -1.1625    2.4005 H   0  0  0  0  0  0  0  0  0  0  0  0
   -9.9832   -0.9256    0.7670 H   0  0  0  0  0  0  0  0  0  0  0  0
  -10.6240    2.7563    0.6839 H   0  0  0  0  0  0  0  0  0  0  0  0
   -1.4092    0.2857  -10.7483 H   0  0  0  0  0  0  0  0  0  0  0  0
   -2.2108    1.4092  -11.8279 H   0  0  0  0  0  0  0  0  0  0  0  0
   -2.2905   -0.3098  -13.6304 H   0  0  0  0  0  0  0  0  0  0  0  0
   -1.5208   -1.4805  -12.5570 H   0  0  0  0  0  0  0  0  0  0  0  0
   -0.6323   -0.0493  -13.0835 H   0  0  0  0  0  0  0  0  0  0  0  0
   -7.4622   -2.1410  -10.2899 H   0  0  0  0  0  0  0  0  0  0  0  0
   -6.9417   -2.4750  -11.9608 H   0  0  0  0  0  0  0  0  0  0  0  0
   -9.0067   -1.1137  -11.9396 H   0  0  0  0  0  0  0  0  0  0  0  0
   -7.6761   -0.1532  -12.6005 H   0  0  0  0  0  0  0  0  0  0  0  0
   -8.2192    0.1032  -10.9334 H   0  0  0  0  0  0  0  0  0  0  0  0
    0.9957    0.3455   -8.2744 H   0  0  0  0  0  0  0  0  0  0  0  0
    1.1977   -1.1076  -10.2509 H   0  0  0  0  0  0  0  0  0  0  0  0
   -0.4566   -2.8866  -10.6545 H   0  0  0  0  0  0  0  0  0  0  0  0
   -2.7016   -3.7402  -10.1780 H   0  0  0  0  0  0  0  0  0  0  0  0
   -3.5453   -3.2809   -8.6929 H   0  0  0  0  0  0  0  0  0  0  0  0
   -1.9988   -4.7295   -7.3714 H   0  0  0  0  0  0  0  0  0  0  0  0
   -2.8445   -5.6638   -8.6096 H   0  0  0  0  0  0  0  0  0  0  0  0
   -1.1595   -5.1882   -8.8527 H   0  0  0  0  0  0  0  0  0  0  0  0
   -2.4303   -1.8775   -7.0173 H   0  0  0  0  0  0  0  0  0  0  0  0
    7.8962   -0.3887    3.2920 H   0  0  0  0  0  0  0  0  0  0  0  0
   10.1038   -0.8632    4.2735 H   0  0  0  0  0  0  0  0  0  0  0  0
   10.7734    0.2032    6.3889 H   0  0  0  0  0  0  0  0  0  0  0  0
   10.1113    1.4345    8.3732 H   0  0  0  0  0  0  0  0  0  0  0  0
    8.5345    2.2296    8.4624 H   0  0  0  0  0  0  0  0  0  0  0  0
    9.3730    4.0470    6.9650 H   0  0  0  0  0  0  0  0  0  0  0  0
   10.3649    3.9087    8.4207 H   0  0  0  0  0  0  0  0  0  0  0  0
   10.9460    3.2545    6.8851 H   0  0  0  0  0  0  0  0  0  0  0  0
    7.1169    2.3907    6.4426 H   0  0  0  0  0  0  0  0  0  0  0  0
    1.0572    3.3424   -0.8424 H   0  0  0  0  0  0  0  0  0  0  0  0
   -0.4561    2.5741   -1.4142 H   0  0  0  0  0  0  0  0  0  0  0  0
    1.3215    4.4598   -3.0466 H   0  0  0  0  0  0  0  0  0  0  0  0
   -0.1654    4.9307   -2.2151 H   0  0  0  0  0  0  0  0  0  0  0  0
   -0.2344    3.8003   -3.5647 H   0  0  0  0  0  0  0  0  0  0  0  0
    1.6958    1.6454    2.1543 H   0  0  0  0  0  0  0  0  0  0  0  0
    0.8706    2.2205    0.7085 H   0  0  0  0  0  0  0  0  0  0  0  0
    1.0761   -0.0609   -0.3128 H   0  0  0  0  0  0  0  0  0  0  0  0
    0.2145   -0.1118    1.2287 H   0  0  0  0  0  0  0  0  0  0  0  0
    1.9020   -0.6252    1.1432 H   0  0  0  0  0  0  0  0  0  0  0  0
    8.4247   -1.5160   12.0545 H   0  0  0  0  0  0  0  0  0  0  0  0
    6.6828   -1.2672   12.1026 H   0  0  0  0  0  0  0  0  0  0  0  0
    8.1094   -3.9859   12.0661 H   0  0  0  0  0  0  0  0  0  0  0  0
    6.3561   -3.7705   12.0868 H   0  0  0  0  0  0  0  0  0  0  0  0
    7.3299   -3.2439   13.4655 H   0  0  0  0  0  0  0  0  0  0  0  0
    8.2187   -2.5660    5.8216 H   0  0  0  0  0  0  0  0  0  0  0  0
    9.0789   -3.8119    6.7636 H   0  0  0  0  0  0  0  0  0  0  0  0
    7.3825   -4.8548    5.2985 H   0  0  0  0  0  0  0  0  0  0  0  0
    6.1227   -3.8289    5.9886 H   0  0  0  0  0  0  0  0  0  0  0  0
    6.9016   -5.0667    6.9874 H   0  0  0  0  0  0  0  0  0  0  0  0
    2.9545    2.8229   10.0761 H   0  0  0  0  0  0  0  0  0  0  0  0
    4.3421   -2.3249   13.6663 H   0  0  0  0  0  0  0  0  0  0  0  0
  1  2  2  0  0  0  0
  2  3  1  0  0  0  0
  3  4  2  0  0  0  0
  3  5  1  0  0  0  0
  5  6  2  0  0  0  0
  6  7  1  0  0  0  0
  7  8  2  0  0  0  0
  8  9  1  0  0  0  0
  9 10  2  0  0  0  0
 10 11  1  0  0  0  0
 11 12  2  0  0  0  0
 12 13  1  0  0  0  0
 13 14  3  0  0  0  0
 12 15  1  0  0  0  0
 15 16  3  0  0  0  0
  8 17  1  0  0  0  0
 17 18  1  0  0  0  0
 18 19  1  0  0  0  0
 19 20  2  0  0  0  0
 20 21  1  0  0  0  0
 21 22  1  0  0  0  0
 21 23  1  0  0  0  0
  1 24  1  0  0  0  0
 24 25  1  0  0  0  0
 25 26  1  0  0  0  0
 26 27  2  0  0  0  0
 27 28  1  0  0  0  0
 28 29  2  0  0  0  0
 28 30  1  0  0  0  0
 30 31  2  0  0  0  0
 31 32  1  0  0  0  0
 32 33  1  0  0  0  0
 31 34  1  0  0  0  0
 34 35  1  0  0  0  0
 35 36  1  0  0  0  0
 36 37  1  0  0  0  0
 35 38  2  0  0  0  0
 38 39  1  0  0  0  0
 39 40  2  0  0  0  0
 39 41  1  0  0  0  0
 26 42  1  0  0  0  0
 42 43  2  0  0  0  0
 43 44  1  0  0  0  0
 44 45  2  0  0  0  0
 45 46  1  0  0  0  0
 46 47  2  0  0  0  0
 47 48  1  0  0  0  0
 48 49  1  0  0  0  0
 49 50  1  0  0  0  0
 48 51  2  0  0  0  0
 43 52  1  0  0  0  0
 52 53  1  0  0  0  0
 53 54  1  0  0  0  0
 54 55  1  0  0  0  0
 55 56  1  0  0  0  0
 56 57  1  0  0  0  0
 57 58  2  0  0  0  0
 58 59  1  0  0  0  0
 59 60  1  0  0  0  0
 57 61  1  0  0  0  0
 61 62  1  0  0  0  0
 62 63  1  0  0  0  0
 63 64  1  0  0  0  0
 64 65  1  0  0  0  0
 65 66  1  0  0  0  0
 66 67  2  0  0  0  0
 67 68  1  0  0  0  0
 68 69  2  0  0  0  0
 69 70  1  0  0  0  0
 70 71  1  0  0  0  0
 71 72  1  0  0  0  0
 70 73  2  0  0  0  0
 65 74  2  0  0  0  0
 74 75  1  0  0  0  0
 75 76  1  0  0  0  0
 76 77  1  0  0  0  0
 77 78  1  0  0  0  0
 78 79  1  0  0  0  0
 79 80  1  0  0  0  0
 80 81  1  0  0  0  0
 81 82  1  0  0  0  0
 82 83  1  0  0  0  0
 83 84  1  0  0  0  0
 81 85  1  0  0  0  0
 85 86  1  0  0  0  0
 78 87  1  0  0  0  0
 87 88  1  0  0  0  0
 74 89  1  0  0  0  0
 89 90  1  0  0  0  0
 90 91  1  0  0  0  0
 91 92  2  0  0  0  0
 92 93  1  0  0  0  0
 93 94  2  0  0  0  0
 93 95  1  0  0  0  0
 95 96  2  0  0  0  0
 96 97  1  0  0  0  0
 97 98  1  0  0  0  0
 96 99  1  0  0  0  0
 99100  1  0  0  0  0
100101  1  0  0  0  0
101102  1  0  0  0  0
100103  2  0  0  0  0
103104  1  0  0  0  0
104105  2  0  0  0  0
104106  1  0  0  0  0
 91107  1  0  0  0  0
107108  2  0  0  0  0
108109  1  0  0  0  0
109110  2  0  0  0  0
109111  1  0  0  0  0
111112  1  0  0  0  0
112113  2  0  0  0  0
113114  1  0  0  0  0
114115  1  0  0  0  0
115116  1  0  0  0  0
112117  1  0  0  0  0
117118  2  0  0  0  0
118119  1  0  0  0  0
119120  3  0  0  0  0
118121  1  0  0  0  0
121122  3  0  0  0  0
 11  2  1  0  0  0  0
 23 17  1  0  0  0  0
 41 24  2  0  0  0  0
 84 42  1  0  0  0  0
106 89  2  0  0  0  0
117108  1  0  0  0  0
 10  5  1  0  0  0  0
 22 18  1  0  0  0  0
 41 27  1  0  0  0  0
 51 44  1  0  0  0  0
 83 52  2  0  0  0  0
106 92  1  0  0  0  0
115111  2  0  0  0  0
 23  7  1  0  0  0  0
 38 30  1  0  0  0  0
 82 54  2  0  0  0  0
103 95  1  0  0  0  0
 80 55  2  0  0  0  0
 60 56  2  0  0  0  0
 79 61  2  0  0  0  0
 77 62  2  0  0  0  0
 76 64  2  0  0  0  0
 73 66  1  0  0  0  0
  1123  1  0  0  0  0
  6124  1  0  0  0  0
  9125  1  0  0  0  0
 17126  1  0  0  0  0
 18127  1  0  0  0  0
 19128  1  0  0  0  0
 20129  1  0  0  0  0
 21130  1  0  0  0  0
 22131  1  0  0  0  0
 22132  1  0  0  0  0
 23133  1  0  0  0  0
 32134  1  0  0  0  0
 32135  1  0  0  0  0
 33136  1  0  0  0  0
 33137  1  0  0  0  0
 33138  1  0  0  0  0
 36139  1  0  0  0  0
 36140  1  0  0  0  0
 37141  1  0  0  0  0
 37142  1  0  0  0  0
 37143  1  0  0  0  0
 45144  1  0  0  0  0
 46145  1  0  0  0  0
 47146  1  0  0  0  0
 49147  1  0  0  0  0
 49148  1  0  0  0  0
 50149  1  0  0  0  0
 50150  1  0  0  0  0
 50151  1  0  0  0  0
 51152  1  0  0  0  0
 67153  1  0  0  0  0
 68154  1  0  0  0  0
 69155  1  0  0  0  0
 71156  1  0  0  0  0
 71157  1  0  0  0  0
 72158  1  0  0  0  0
 72159  1  0  0  0  0
 72160  1  0  0  0  0
 73161  1  0  0  0  0
 85162  1  0  0  0  0
 85163  1  0  0  0  0
 86164  1  0  0  0  0
 86165  1  0  0  0  0
 86166  1  0  0  0  0
 87167  1  0  0  0  0
 87168  1  0  0  0  0
 88169  1  0  0  0  0
 88170  1  0  0  0  0
 88171  1  0  0  0  0
 97172  1  0  0  0  0
 97173  1  0  0  0  0
 98174  1  0  0  0  0
 98175  1  0  0  0  0
 98176  1  0  0  0  0
101177  1  0  0  0  0
101178  1  0  0  0  0
102179  1  0  0  0  0
102180  1  0  0  0  0
102181  1  0  0  0  0
107182  1  0  0  0  0
113183  1  0  0  0  0
M  END
