
  xtb     02162203473D
 energy: -292.051107887662 gnorm: 0.000379017679 xtb: 6.4.1 (unknown)
170192  0     0  0            999 V2000
   -3.7966  -11.8513    3.3137 C   0  0  0  0  0  0  0  0  0  0  0  0
   -3.7383  -13.0100    2.6139 C   0  0  0  0  0  0  0  0  0  0  0  0
   -2.5485  -13.5723    1.9118 C   0  0  0  0  0  0  0  0  0  0  0  0
   -1.4159  -13.1447    1.9144 O   0  0  0  0  0  0  0  0  0  0  0  0
   -3.0093  -14.8224    1.2827 C   0  0  0  0  0  0  0  0  0  0  0  0
   -2.2592  -15.6641    0.4636 C   0  0  0  0  0  0  0  0  0  0  0  0
   -2.9529  -16.7528   -0.0050 C   0  0  0  0  0  0  0  0  0  0  0  0
   -4.2973  -16.9889    0.3176 C   0  0  0  0  0  0  0  0  0  0  0  0
   -5.0458  -16.1723    1.1293 C   0  0  0  0  0  0  0  0  0  0  0  0
   -4.3568  -15.0584    1.6226 C   0  0  0  0  0  0  0  0  0  0  0  0
   -4.8177  -13.9856    2.4963 C   0  0  0  0  0  0  0  0  0  0  0  0
   -6.0535  -13.9191    3.0820 C   0  0  0  0  0  0  0  0  0  0  0  0
   -6.5233  -12.8914    3.9283 C   0  0  0  0  0  0  0  0  0  0  0  0
   -6.9978  -12.1112    4.6254 N   0  0  0  0  0  0  0  0  0  0  0  0
   -7.0598  -14.9002    2.9429 C   0  0  0  0  0  0  0  0  0  0  0  0
   -7.9251  -15.6526    2.8881 N   0  0  0  0  0  0  0  0  0  0  0  0
   -4.3536  -18.2555   -0.4982 C   0  0  0  0  0  0  0  0  0  0  0  0
   -4.2961  -19.6039    0.2611 C   0  0  0  0  0  0  0  0  0  0  0  0
   -3.5559  -19.3393    1.5488 C   0  0  0  0  0  0  0  0  0  0  0  0
   -2.2838  -19.1174    1.2463 C   0  0  0  0  0  0  0  0  0  0  0  0
   -2.1405  -19.2281   -0.2517 C   0  0  0  0  0  0  0  0  0  0  0  0
   -3.1936  -20.3086   -0.5454 C   0  0  0  0  0  0  0  0  0  0  0  0
   -2.8563  -17.9942   -0.8555 C   0  0  0  0  0  0  0  0  0  0  0  0
   -2.8504  -10.7631    3.3547 C   0  0  0  0  0  0  0  0  0  0  0  0
   -2.0436  -10.4088    2.2596 C   0  0  0  0  0  0  0  0  0  0  0  0
   -1.2456   -9.2954    2.3619 C   0  0  0  0  0  0  0  0  0  0  0  0
   -0.3514   -8.6875    1.3379 C   0  0  0  0  0  0  0  0  0  0  0  0
   -0.1371   -9.0742    0.2150 O   0  0  0  0  0  0  0  0  0  0  0  0
    0.1960   -7.4733    2.0031 C   0  0  0  0  0  0  0  0  0  0  0  0
   -0.3281   -7.3783    3.3088 C   0  0  0  0  0  0  0  0  0  0  0  0
   -1.2137   -8.5106    3.5332 C   0  0  0  0  0  0  0  0  0  0  0  0
   -2.0012   -8.8569    4.6168 C   0  0  0  0  0  0  0  0  0  0  0  0
   -2.8221   -9.9662    4.5083 C   0  0  0  0  0  0  0  0  0  0  0  0
   -0.0080   -6.2932    4.1024 C   0  0  0  0  0  0  0  0  0  0  0  0
    0.8171   -5.3094    3.5794 C   0  0  0  0  0  0  0  0  0  0  0  0
    1.3449   -5.3989    2.2892 C   0  0  0  0  0  0  0  0  0  0  0  0
    1.0292   -6.5103    1.4896 C   0  0  0  0  0  0  0  0  0  0  0  0
    2.1318   -4.3128    1.7450 C   0  0  0  0  0  0  0  0  0  0  0  0
    3.1677   -4.3522    0.8364 C   0  0  0  0  0  0  0  0  0  0  0  0
    3.8428   -5.5722    0.3916 C   0  0  0  0  0  0  0  0  0  0  0  0
    4.1349   -6.5912    1.2964 C   0  0  0  0  0  0  0  0  0  0  0  0
    4.7833   -7.7309    0.8637 C   0  0  0  0  0  0  0  0  0  0  0  0
    5.1486   -7.8657   -0.4650 C   0  0  0  0  0  0  0  0  0  0  0  0
    4.8782   -6.8544   -1.3775 C   0  0  0  0  0  0  0  0  0  0  0  0
    5.2337   -7.0068   -2.8280 C   0  0  0  0  0  0  0  0  0  0  0  0
    4.0380   -7.5490   -3.6137 C   0  0  0  0  0  0  0  0  0  0  0  0
    4.2256   -5.7123   -0.9378 C   0  0  0  0  0  0  0  0  0  0  0  0
    3.5453   -3.0504    0.4330 C   0  0  0  0  0  0  0  0  0  0  0  0
    4.7483   -2.4493   -0.6847 S   0  0  0  0  0  0  0  0  0  0  0  0
    4.2202   -0.8335   -0.3539 C   0  0  0  0  0  0  0  0  0  0  0  0
    4.4954    0.4854   -0.7539 C   0  0  0  0  0  0  0  0  0  0  0  0
    5.4995    1.0133   -1.5939 C   0  0  0  0  0  0  0  0  0  0  0  0
    5.5839    2.4356   -1.7667 C   0  0  0  0  0  0  0  0  0  0  0  0
    6.5981    2.7923   -2.5390 N   0  0  0  0  0  0  0  0  0  0  0  0
    7.3774    1.4539   -3.0123 S   0  0  0  0  0  0  0  0  0  0  0  0
    6.4506    0.3668   -2.2497 N   0  0  0  0  0  0  0  0  0  0  0  0
    4.5919    3.2536   -1.1836 C   0  0  0  0  0  0  0  0  0  0  0  0
    4.3261    4.6256   -1.3268 C   0  0  0  0  0  0  0  0  0  0  0  0
    4.9885    6.0192   -2.1138 S   0  0  0  0  0  0  0  0  0  0  0  0
    3.6238    6.9568   -1.5511 C   0  0  0  0  0  0  0  0  0  0  0  0
    3.2320    8.2978   -1.7607 C   0  0  0  0  0  0  0  0  0  0  0  0
    3.9886    9.2132   -2.6188 C   0  0  0  0  0  0  0  0  0  0  0  0
    5.3718    9.3005   -2.4966 C   0  0  0  0  0  0  0  0  0  0  0  0
    6.0850   10.1432   -3.3289 C   0  0  0  0  0  0  0  0  0  0  0  0
    5.4305   10.8962   -4.2870 C   0  0  0  0  0  0  0  0  0  0  0  0
    4.0499   10.8142   -4.4289 C   0  0  0  0  0  0  0  0  0  0  0  0
    3.3417   11.5895   -5.5025 C   0  0  0  0  0  0  0  0  0  0  0  0
    3.2816   10.7754   -6.7964 C   0  0  0  0  0  0  0  0  0  0  0  0
    3.3405    9.9657   -3.5943 C   0  0  0  0  0  0  0  0  0  0  0  0
    2.0292    8.5726   -1.1427 C   0  0  0  0  0  0  0  0  0  0  0  0
    1.3683    7.1709   -0.3144 S   0  0  0  0  0  0  0  0  0  0  0  0
    2.7209    6.2123   -0.7932 C   0  0  0  0  0  0  0  0  0  0  0  0
    3.1273    4.8777   -0.6587 C   0  0  0  0  0  0  0  0  0  0  0  0
    2.6608    3.7304   -0.0766 N   0  0  0  0  0  0  0  0  0  0  0  0
    3.5467    2.7107   -0.3851 C   0  0  0  0  0  0  0  0  0  0  0  0
    3.5690    1.3249   -0.0748 C   0  0  0  0  0  0  0  0  0  0  0  0
    2.7906    0.5330    0.7562 N   0  0  0  0  0  0  0  0  0  0  0  0
    3.1854   -0.7658    0.5789 C   0  0  0  0  0  0  0  0  0  0  0  0
    2.8071   -2.0344    1.0382 C   0  0  0  0  0  0  0  0  0  0  0  0
    1.6425   -2.6737    2.1412 S   0  0  0  0  0  0  0  0  0  0  0  0
    2.0328    0.8906    1.9349 C   0  0  0  0  0  0  0  0  0  0  0  0
    2.8681    1.7160    2.9100 C   0  0  0  0  0  0  0  0  0  0  0  0
    1.2896    3.6673    0.3758 C   0  0  0  0  0  0  0  0  0  0  0  0
    0.4269    2.8233   -0.5590 C   0  0  0  0  0  0  0  0  0  0  0  0
    1.2903    9.8121   -1.0544 C   0  0  0  0  0  0  0  0  0  0  0  0
   -0.1084    9.7736   -0.9307 C   0  0  0  0  0  0  0  0  0  0  0  0
   -0.8035   10.9545   -0.8450 C   0  0  0  0  0  0  0  0  0  0  0  0
   -2.2706   11.1718   -0.7233 C   0  0  0  0  0  0  0  0  0  0  0  0
   -3.1430   10.3378   -0.7100 O   0  0  0  0  0  0  0  0  0  0  0  0
   -2.4150   12.6511   -0.6440 C   0  0  0  0  0  0  0  0  0  0  0  0
   -1.1425   13.2509   -0.7511 C   0  0  0  0  0  0  0  0  0  0  0  0
   -0.1434   12.1992   -0.8686 C   0  0  0  0  0  0  0  0  0  0  0  0
    1.2354   12.2420   -0.9722 C   0  0  0  0  0  0  0  0  0  0  0  0
    1.9397   11.0515   -1.0581 C   0  0  0  0  0  0  0  0  0  0  0  0
   -1.0290   14.6300   -0.7503 C   0  0  0  0  0  0  0  0  0  0  0  0
   -2.1808   15.3888   -0.6244 C   0  0  0  0  0  0  0  0  0  0  0  0
   -3.4411   14.8005   -0.4587 C   0  0  0  0  0  0  0  0  0  0  0  0
   -3.5556   13.4001   -0.4935 C   0  0  0  0  0  0  0  0  0  0  0  0
   -4.5943   15.6559   -0.3184 C   0  0  0  0  0  0  0  0  0  0  0  0
   -5.6884   15.4252    0.4486 C   0  0  0  0  0  0  0  0  0  0  0  0
   -5.7777   14.4145    1.5443 C   0  0  0  0  0  0  0  0  0  0  0  0
   -4.9576   13.5838    1.8614 O   0  0  0  0  0  0  0  0  0  0  0  0
   -7.0447   14.7070    2.2420 C   0  0  0  0  0  0  0  0  0  0  0  0
   -7.5822   14.0664    3.3420 C   0  0  0  0  0  0  0  0  0  0  0  0
   -8.7984   14.5174    3.8337 C   0  0  0  0  0  0  0  0  0  0  0  0
   -9.4447   15.5906    3.2353 C   0  0  0  0  0  0  0  0  0  0  0  0
   -8.9061   16.2398    2.1330 C   0  0  0  0  0  0  0  0  0  0  0  0
   -7.6940   15.7920    1.6275 C   0  0  0  0  0  0  0  0  0  0  0  0
   -6.8905   16.2469    0.4976 C   0  0  0  0  0  0  0  0  0  0  0  0
   -7.2455   17.2226   -0.3932 C   0  0  0  0  0  0  0  0  0  0  0  0
   -8.4371   17.9757   -0.3132 C   0  0  0  0  0  0  0  0  0  0  0  0
   -9.3815   18.6278   -0.3024 N   0  0  0  0  0  0  0  0  0  0  0  0
   -6.4937   17.6081   -1.5245 C   0  0  0  0  0  0  0  0  0  0  0  0
   -5.9514   17.9716   -2.4691 N   0  0  0  0  0  0  0  0  0  0  0  0
   -4.6729  -11.6852    3.9287 H   0  0  0  0  0  0  0  0  0  0  0  0
   -1.2291  -15.4382    0.2359 H   0  0  0  0  0  0  0  0  0  0  0  0
   -6.0782  -16.3690    1.3642 H   0  0  0  0  0  0  0  0  0  0  0  0
   -5.0777  -18.2667   -1.3104 H   0  0  0  0  0  0  0  0  0  0  0  0
   -5.2527  -20.1110    0.3528 H   0  0  0  0  0  0  0  0  0  0  0  0
   -4.0300  -19.2857    2.5113 H   0  0  0  0  0  0  0  0  0  0  0  0
   -1.4819  -18.8410    1.9057 H   0  0  0  0  0  0  0  0  0  0  0  0
   -1.1342  -19.3943   -0.6269 H   0  0  0  0  0  0  0  0  0  0  0  0
   -3.4279  -20.4100   -1.6042 H   0  0  0  0  0  0  0  0  0  0  0  0
   -2.9260  -21.2801   -0.1329 H   0  0  0  0  0  0  0  0  0  0  0  0
   -2.6011  -17.8370   -1.9016 H   0  0  0  0  0  0  0  0  0  0  0  0
   -2.0697  -10.9674    1.3391 H   0  0  0  0  0  0  0  0  0  0  0  0
   -1.9962   -8.2679    5.5214 H   0  0  0  0  0  0  0  0  0  0  0  0
   -3.4575  -10.2371    5.3396 H   0  0  0  0  0  0  0  0  0  0  0  0
   -0.3990   -6.1983    5.1040 H   0  0  0  0  0  0  0  0  0  0  0  0
    1.0610   -4.4448    4.1807 H   0  0  0  0  0  0  0  0  0  0  0  0
    1.4026   -6.5896    0.4806 H   0  0  0  0  0  0  0  0  0  0  0  0
    3.8635   -6.4797    2.3359 H   0  0  0  0  0  0  0  0  0  0  0  0
    5.0078   -8.5190    1.5672 H   0  0  0  0  0  0  0  0  0  0  0  0
    5.6534   -8.7619   -0.7954 H   0  0  0  0  0  0  0  0  0  0  0  0
    6.0760   -7.6933   -2.9327 H   0  0  0  0  0  0  0  0  0  0  0  0
    5.5272   -6.0387   -3.2392 H   0  0  0  0  0  0  0  0  0  0  0  0
    3.7296   -8.5132   -3.2160 H   0  0  0  0  0  0  0  0  0  0  0  0
    3.1951   -6.8655   -3.5405 H   0  0  0  0  0  0  0  0  0  0  0  0
    4.2958   -7.6711   -4.6631 H   0  0  0  0  0  0  0  0  0  0  0  0
    3.9993   -4.9257   -1.6429 H   0  0  0  0  0  0  0  0  0  0  0  0
    5.8819    8.7201   -1.7427 H   0  0  0  0  0  0  0  0  0  0  0  0
    7.1580   10.2118   -3.2286 H   0  0  0  0  0  0  0  0  0  0  0  0
    5.9940   11.5534   -4.9335 H   0  0  0  0  0  0  0  0  0  0  0  0
    2.3264   11.8274   -5.1781 H   0  0  0  0  0  0  0  0  0  0  0  0
    3.8696   12.5265   -5.6912 H   0  0  0  0  0  0  0  0  0  0  0  0
    4.2854   10.5364   -7.1400 H   0  0  0  0  0  0  0  0  0  0  0  0
    2.7712   11.3364   -7.5757 H   0  0  0  0  0  0  0  0  0  0  0  0
    2.7462    9.8431   -6.6315 H   0  0  0  0  0  0  0  0  0  0  0  0
    2.2683    9.8819   -3.7030 H   0  0  0  0  0  0  0  0  0  0  0  0
    1.1095    1.4038    1.6629 H   0  0  0  0  0  0  0  0  0  0  0  0
    1.7452   -0.0489    2.4137 H   0  0  0  0  0  0  0  0  0  0  0  0
    3.2214    2.6345    2.4477 H   0  0  0  0  0  0  0  0  0  0  0  0
    3.7356    1.1440    3.2315 H   0  0  0  0  0  0  0  0  0  0  0  0
    2.2750    1.9677    3.7852 H   0  0  0  0  0  0  0  0  0  0  0  0
    0.9161    4.6942    0.3792 H   0  0  0  0  0  0  0  0  0  0  0  0
    1.2405    3.3070    1.4039 H   0  0  0  0  0  0  0  0  0  0  0  0
    0.4192    3.2636   -1.5534 H   0  0  0  0  0  0  0  0  0  0  0  0
    0.8096    1.8089   -0.6408 H   0  0  0  0  0  0  0  0  0  0  0  0
   -0.5942    2.7866   -0.1891 H   0  0  0  0  0  0  0  0  0  0  0  0
   -0.6339    8.8297   -0.9141 H   0  0  0  0  0  0  0  0  0  0  0  0
    1.7651   13.1826   -0.9754 H   0  0  0  0  0  0  0  0  0  0  0  0
    3.0168   11.0775   -1.1169 H   0  0  0  0  0  0  0  0  0  0  0  0
   -0.0675   15.1103   -0.8514 H   0  0  0  0  0  0  0  0  0  0  0  0
   -2.1079   16.4672   -0.6226 H   0  0  0  0  0  0  0  0  0  0  0  0
   -4.5173   12.9170   -0.4379 H   0  0  0  0  0  0  0  0  0  0  0  0
   -4.5423   16.5859   -0.8725 H   0  0  0  0  0  0  0  0  0  0  0  0
   -7.0595   13.2360    3.7911 H   0  0  0  0  0  0  0  0  0  0  0  0
   -9.2467   14.0325    4.6876 H   0  0  0  0  0  0  0  0  0  0  0  0
  -10.3883   15.9315    3.6341 H   0  0  0  0  0  0  0  0  0  0  0  0
   -9.4276   17.0738    1.6930 H   0  0  0  0  0  0  0  0  0  0  0  0
  1  2  2  0  0  0  0
  2  3  1  0  0  0  0
  3  4  2  0  0  0  0
  3  5  1  0  0  0  0
  5  6  2  0  0  0  0
  6  7  1  0  0  0  0
  7  8  2  0  0  0  0
  8  9  1  0  0  0  0
  9 10  2  0  0  0  0
 10 11  1  0  0  0  0
 11 12  2  0  0  0  0
 12 13  1  0  0  0  0
 13 14  3  0  0  0  0
 12 15  1  0  0  0  0
 15 16  3  0  0  0  0
  8 17  1  0  0  0  0
 17 18  1  0  0  0  0
 18 19  1  0  0  0  0
 19 20  2  0  0  0  0
 20 21  1  0  0  0  0
 21 22  1  0  0  0  0
 21 23  1  0  0  0  0
  1 24  1  0  0  0  0
 24 25  2  0  0  0  0
 25 26  1  0  0  0  0
 26 27  1  0  0  0  0
 27 28  2  0  0  0  0
 27 29  1  0  0  0  0
 29 30  2  0  0  0  0
 30 31  1  0  0  0  0
 31 32  1  0  0  0  0
 32 33  2  0  0  0  0
 30 34  1  0  0  0  0
 34 35  2  0  0  0  0
 35 36  1  0  0  0  0
 36 37  2  0  0  0  0
 36 38  1  0  0  0  0
 38 39  2  0  0  0  0
 39 40  1  0  0  0  0
 40 41  2  0  0  0  0
 41 42  1  0  0  0  0
 42 43  2  0  0  0  0
 43 44  1  0  0  0  0
 44 45  1  0  0  0  0
 45 46  1  0  0  0  0
 44 47  2  0  0  0  0
 39 48  1  0  0  0  0
 48 49  1  0  0  0  0
 49 50  1  0  0  0  0
 50 51  1  0  0  0  0
 51 52  1  0  0  0  0
 52 53  1  0  0  0  0
 53 54  2  0  0  0  0
 54 55  1  0  0  0  0
 55 56  1  0  0  0  0
 53 57  1  0  0  0  0
 57 58  1  0  0  0  0
 58 59  1  0  0  0  0
 59 60  1  0  0  0  0
 60 61  1  0  0  0  0
 61 62  1  0  0  0  0
 62 63  2  0  0  0  0
 63 64  1  0  0  0  0
 64 65  2  0  0  0  0
 65 66  1  0  0  0  0
 66 67  1  0  0  0  0
 67 68  1  0  0  0  0
 66 69  2  0  0  0  0
 61 70  2  0  0  0  0
 70 71  1  0  0  0  0
 71 72  1  0  0  0  0
 72 73  1  0  0  0  0
 73 74  1  0  0  0  0
 74 75  1  0  0  0  0
 75 76  1  0  0  0  0
 76 77  1  0  0  0  0
 77 78  1  0  0  0  0
 78 79  1  0  0  0  0
 79 80  1  0  0  0  0
 77 81  1  0  0  0  0
 81 82  1  0  0  0  0
 74 83  1  0  0  0  0
 83 84  1  0  0  0  0
 70 85  1  0  0  0  0
 85 86  2  0  0  0  0
 86 87  1  0  0  0  0
 87 88  1  0  0  0  0
 88 89  2  0  0  0  0
 88 90  1  0  0  0  0
 90 91  2  0  0  0  0
 91 92  1  0  0  0  0
 92 93  1  0  0  0  0
 93 94  2  0  0  0  0
 91 95  1  0  0  0  0
 95 96  2  0  0  0  0
 96 97  1  0  0  0  0
 97 98  2  0  0  0  0
 97 99  1  0  0  0  0
 99100  2  0  0  0  0
100101  1  0  0  0  0
101102  2  0  0  0  0
101103  1  0  0  0  0
103104  2  0  0  0  0
104105  1  0  0  0  0
105106  2  0  0  0  0
106107  1  0  0  0  0
107108  2  0  0  0  0
108109  1  0  0  0  0
109110  2  0  0  0  0
110111  1  0  0  0  0
111112  3  0  0  0  0
110113  1  0  0  0  0
113114  3  0  0  0  0
 11  2  1  0  0  0  0
 23 17  1  0  0  0  0
 33 24  1  0  0  0  0
 80 38  1  0  0  0  0
 94 85  1  0  0  0  0
109100  1  0  0  0  0
 10  5  1  0  0  0  0
 22 18  1  0  0  0  0
 31 26  2  0  0  0  0
 47 40  1  0  0  0  0
 79 48  2  0  0  0  0
 92 87  2  0  0  0  0
108103  1  0  0  0  0
 23  7  1  0  0  0  0
 37 29  1  0  0  0  0
 78 50  2  0  0  0  0
 98 90  1  0  0  0  0
 76 51  2  0  0  0  0
 56 52  2  0  0  0  0
 75 57  2  0  0  0  0
 73 58  2  0  0  0  0
 72 60  2  0  0  0  0
 69 62  1  0  0  0  0
  1115  1  0  0  0  0
  6116  1  0  0  0  0
  9117  1  0  0  0  0
 17118  1  0  0  0  0
 18119  1  0  0  0  0
 19120  1  0  0  0  0
 20121  1  0  0  0  0
 21122  1  0  0  0  0
 22123  1  0  0  0  0
 22124  1  0  0  0  0
 23125  1  0  0  0  0
 25126  1  0  0  0  0
 32127  1  0  0  0  0
 33128  1  0  0  0  0
 34129  1  0  0  0  0
 35130  1  0  0  0  0
 37131  1  0  0  0  0
 41132  1  0  0  0  0
 42133  1  0  0  0  0
 43134  1  0  0  0  0
 45135  1  0  0  0  0
 45136  1  0  0  0  0
 46137  1  0  0  0  0
 46138  1  0  0  0  0
 46139  1  0  0  0  0
 47140  1  0  0  0  0
 63141  1  0  0  0  0
 64142  1  0  0  0  0
 65143  1  0  0  0  0
 67144  1  0  0  0  0
 67145  1  0  0  0  0
 68146  1  0  0  0  0
 68147  1  0  0  0  0
 68148  1  0  0  0  0
 69149  1  0  0  0  0
 81150  1  0  0  0  0
 81151  1  0  0  0  0
 82152  1  0  0  0  0
 82153  1  0  0  0  0
 82154  1  0  0  0  0
 83155  1  0  0  0  0
 83156  1  0  0  0  0
 84157  1  0  0  0  0
 84158  1  0  0  0  0
 84159  1  0  0  0  0
 86160  1  0  0  0  0
 93161  1  0  0  0  0
 94162  1  0  0  0  0
 95163  1  0  0  0  0
 96164  1  0  0  0  0
 98165  1  0  0  0  0
 99166  1  0  0  0  0
104167  1  0  0  0  0
105168  1  0  0  0  0
106169  1  0  0  0  0
107170  1  0  0  0  0
M  END
