217

C         -1.60750        1.55600      -10.03870
C         -2.53060        1.90730       -9.08840
C         -2.56250        1.42710       -7.70050
O         -1.97150        0.46890       -7.23170
C         -3.44910        2.34330       -6.96670
C         -3.70160        2.34720       -5.59660
C         -4.54120        3.35420       -5.18580
C         -5.09350        4.28700       -6.07420
C         -4.86410        4.28490       -7.43030
C         -4.00910        3.27030       -7.86910
C         -3.52700        2.95580       -9.21350
C         -3.99560        3.49860      -10.37970
C         -3.61670        3.07560      -11.67260
N         -3.38810        2.75770      -12.75160
C         -4.97890        4.50770      -10.44600
N         -5.77000        5.33110      -10.56490
C         -5.80850        5.02970       -4.97300
C         -5.18990        6.36440       -4.48790
C         -3.70880        6.27700       -4.76150
C         -3.19260        5.39260       -3.91850
C         -4.31620        4.86510       -3.06070
C         -5.19920        6.11980       -2.97040
C         -5.19780        3.98770       -3.98400
C         -0.54960        0.63610       -9.94300
C          0.48290        0.54400      -10.89600
C          0.53600        1.35120      -12.04650
N          0.60580        2.01080      -12.98200
C          1.48220       -0.37560      -10.57500
C          1.22740       -1.03710       -9.38620
S         -0.25530       -0.48780       -8.65210
C          2.02860       -1.93190       -8.62550
C          3.39470       -2.19050       -8.66310
C          4.30150       -1.89210       -9.77190
C          3.99710       -2.32100      -11.06220
C          4.88940       -2.09050      -12.09190
C          6.08750       -1.44190      -11.84510
C          6.41100       -1.01750      -10.56260
C          7.73670       -0.37760      -10.27040
C          8.72920       -1.43120       -9.77380
C          5.51110       -1.25020       -9.53320
C          3.82610       -2.80820       -7.47230
S          5.40740       -3.16640       -6.80210
C          4.66110       -3.62120       -5.30150
C          5.00470       -3.91260       -3.96420
C          6.22690       -4.09210       -3.27630
C          6.21240       -4.29400       -1.84710
N          7.42850       -4.46350       -1.35360
S          8.49800       -4.37910       -2.56570
N          7.45280       -4.11510       -3.77350
C          4.99150       -4.19270       -1.13960
C          4.68080       -4.06580        0.22920
S          5.46060       -4.03010        1.77970
C          3.95690       -3.53150        2.52880
C          3.60130       -3.11140        3.83880
C          4.52410       -3.08000        4.97040
C          4.08100       -3.34860        6.26320
C          4.96820       -3.30870        7.32150
C          6.30210       -3.00850        7.10630
C          6.76560       -2.75200        5.82220
C          8.21950       -2.48140        5.56100
C          8.93180       -3.76870        5.14230
C          5.87090       -2.79570        4.76490
C          2.29310       -2.68200        3.87790
S          1.46280       -2.90050        2.33640
C          2.91750       -3.45220        1.60880
C          3.32260       -3.75180        0.30440
N          2.76190       -3.71530       -0.94280
C          3.77480       -3.99160       -1.84400
C          3.77800       -3.99830       -3.25440
N          2.72270       -3.86580       -4.13450
C          3.26370       -3.57900       -5.36060
C          2.79130       -3.09690       -6.58010
S          1.26120       -2.58790       -7.18190
C          1.41760       -4.48040       -4.01080
C          1.23500       -5.61590       -5.01610
C          1.53070       -2.97850       -1.15320
C          1.76090       -1.66710       -1.89810
C          1.51380       -1.87220        4.78380
C          0.99890       -0.65500        4.36390
N          1.39440        0.02150        3.22240
C          0.41500        0.66170        2.44520
C          0.67660        1.89380        1.85440
C         -0.30440        2.53160        1.11970
C         -1.56280        1.96640        0.95730
C         -2.64060        2.66910        0.18690
C         -1.80720        0.72540        1.53380
C         -0.83610        0.07560        2.26590
C          2.73150       -0.01200        2.80370
C          3.76890        0.03620        3.72930
C          5.08110       -0.05350        3.30820
C          5.39640       -0.20960        1.96490
C          6.81370       -0.37710        1.51010
C          4.35480       -0.22920        1.04350
C          3.04090       -0.12310        1.44960
C         -0.00930       -0.19370        5.23730
S         -1.07170        1.15040        5.19110
C         -1.92180        0.55330        6.61350
C         -1.30250       -0.58610        7.15960
N         -1.71830       -1.24920        8.27970
C         -1.61900       -2.65090        8.34240
C         -1.20400       -3.27300        9.51460
C         -1.10560       -4.65000        9.56760
C         -1.41140       -5.43430        8.46280
C         -1.28860       -6.92610        8.50830
C         -1.83610       -4.80190        7.29880
C         -1.94610       -3.42840        7.23370
C         -2.25890       -0.54400        9.36880
C         -3.36310       -1.04170       10.05220
C         -3.89500       -0.33210       11.11220
C         -3.34540        0.87840       11.51450
C         -3.94150        1.67660       12.62850
C         -2.22970        1.35810       10.83490
C         -1.68820        0.66070        9.77600
C         -0.25240       -1.02730        6.31880
S          0.81700       -2.39590        6.30600
C         -3.11310        1.21280        6.97100
C         -3.96030        1.71260        6.00560
C         -4.05550        1.13750        4.64640
O         -3.49610        0.14690        4.21610
C         -5.09890        1.91350        3.95320
C         -5.50970        1.75960        2.63220
C         -6.46670        2.66200        2.23700
C         -6.97930        3.64420        3.09310
C         -6.60990        3.77960        4.41180
C         -5.63890        2.86720        4.83620
C         -4.99620        2.70230        6.14330
C         -5.30680        3.40830        7.28070
C         -4.66420        3.25700        8.52400
N         -4.19270        3.20620        9.57120
C         -6.32630        4.37640        7.36330
N         -7.14580        5.16980        7.50210
C         -7.87300        4.22180        2.02100
C         -7.39060        5.52110        1.33920
C         -8.19220        5.57200        0.05880
C         -7.72450        4.62790       -0.74840
C         -6.59840        3.92440       -0.02680
C         -6.02620        5.09670        0.78010
C         -7.31360        3.11310        1.07300
H         -1.62570        2.09930      -10.97790
H         -3.25130        1.61140       -4.94850
H         -5.29460        5.01090       -8.09970
H         -6.89200        5.08210       -5.05660
H         -5.69370        7.25410       -4.85520
H         -3.21360        6.80900       -5.55250
H         -2.18000        5.03740       -3.86540
H         -4.02480        4.39130       -2.12710
H         -6.19110        5.92660       -2.56390
H         -4.72500        6.92720       -2.41400
H         -5.88420        3.35460       -3.42500
H          2.35220       -0.53420      -11.18580
H          3.07480       -2.85360      -11.24450
H          4.65220       -2.42400      -13.09140
H          6.78030       -1.26830      -12.65550
H          7.61630        0.39150       -9.50480
H          8.12960        0.09480      -11.17250
H          8.35650       -1.90560       -8.86870
H          8.87200       -2.20090      -10.52900
H          9.69170       -0.97420       -9.55700
H          5.74730       -0.91790       -8.53290
H          3.04860       -3.61220        6.43420
H          4.61650       -3.51820        8.32100
H          6.98960       -2.97830        7.93950
H          8.69140       -2.08100        6.46040
H          8.32050       -1.74300        4.76260
H          8.48740       -4.16690        4.23310
H          9.98690       -3.57810        4.96040
H          8.84410       -4.51990        5.92420
H          6.22530       -2.58860        3.76730
H          1.34170       -4.89890       -3.00820
H          0.63940       -3.72470       -4.16310
H          1.22740       -5.24100       -6.03530
H          0.28800       -6.11440       -4.82770
H          2.03840       -6.34250       -4.91520
H          0.78590       -3.58470       -1.67060
H          1.13360       -2.75990       -0.15920
H          2.52920       -1.08360       -1.39710
H          2.07610       -1.83940       -2.92290
H          0.83890       -1.09190       -1.90990
H          1.64710        2.35030        1.98300
H         -0.08910        3.49360        0.67640
H         -3.00270        2.03880       -0.62530
H         -3.48470        2.89090        0.84000
H         -2.27240        3.60290       -0.23200
H         -2.77200        0.25710        1.41450
H         -1.04770       -0.88720        2.70560
H          3.54420        0.13550        4.78110
H          5.87060       -0.00750        4.04390
H          7.50940       -0.14400        2.31230
H          6.98610       -1.40630        1.19190
H          7.02650        0.27110        0.66180
H          4.58270       -0.34220       -0.00760
H          2.23650       -0.14200        0.72900
H         -0.95680       -2.67230       10.37750
H         -0.77780       -5.12100       10.48290
H         -0.50130       -7.25860        7.83220
H         -1.04880       -7.26800        9.51160
H         -2.21830       -7.39600        8.19080
H         -2.09100       -5.39650        6.43370
H         -2.29540       -2.94980        6.33030
H         -3.80560       -1.97650        9.74040
H         -4.76130       -0.72280       11.62610
H         -3.17790        1.96070       13.35040
H         -4.72250        1.11940       13.13930
H         -4.37170        2.59030       12.22050
H         -1.78850        2.29520       11.13710
H         -0.82280        1.04230        9.25360
H         -3.36440        1.31390        8.01900
H         -5.08670        0.99000        2.00610
H         -7.03190        4.52460        5.06550
H         -8.93850        4.23040        2.24270
H         -7.42040        6.40480        1.97030
H         -9.02810        6.22770       -0.10040
H         -8.10160        4.33130       -1.71040
H         -5.90660        3.35070       -0.63820
H         -5.30930        4.80230        1.54430
H         -5.58510        5.86130        0.14270
H         -8.00670        2.37310        0.67640
