
  xtb     02152206553D
 energy: -267.463860432630 gnorm: 0.000416459656 xtb: 6.4.1 (unknown)
157178  0     0  0            999 V2000
    8.8559    0.6296    0.6378 C   0  0  0  0  0  0  0  0  0  0  0  0
    8.1221    1.7454    0.3406 C   0  0  0  0  0  0  0  0  0  0  0  0
    6.6542    1.9308    0.4724 C   0  0  0  0  0  0  0  0  0  0  0  0
    5.7928    1.1005    0.6663 O   0  0  0  0  0  0  0  0  0  0  0  0
    6.4204    3.3782    0.2815 C   0  0  0  0  0  0  0  0  0  0  0  0
    5.2044    4.0452    0.4076 C   0  0  0  0  0  0  0  0  0  0  0  0
    5.2829    5.3994    0.1904 C   0  0  0  0  0  0  0  0  0  0  0  0
    6.4858    6.0444   -0.1272 C   0  0  0  0  0  0  0  0  0  0  0  0
    7.6913    5.3979   -0.2570 C   0  0  0  0  0  0  0  0  0  0  0  0
    7.6312    4.0167   -0.0457 C   0  0  0  0  0  0  0  0  0  0  0  0
    8.6892    3.0103   -0.0914 C   0  0  0  0  0  0  0  0  0  0  0  0
    9.9737    3.2382   -0.5161 C   0  0  0  0  0  0  0  0  0  0  0  0
   10.9952    2.2715   -0.6220 C   0  0  0  0  0  0  0  0  0  0  0  0
   11.8841    1.5544   -0.7489 N   0  0  0  0  0  0  0  0  0  0  0  0
   10.4579    4.4875   -0.9569 C   0  0  0  0  0  0  0  0  0  0  0  0
   10.9261    5.4671   -1.3312 N   0  0  0  0  0  0  0  0  0  0  0  0
    5.8300    7.4001   -0.2081 C   0  0  0  0  0  0  0  0  0  0  0  0
    5.5460    7.9807   -1.6154 C   0  0  0  0  0  0  0  0  0  0  0  0
    5.3935    6.8015   -2.5436 C   0  0  0  0  0  0  0  0  0  0  0  0
    4.2537    6.1938   -2.2426 C   0  0  0  0  0  0  0  0  0  0  0  0
    3.6158    6.9503   -1.1037 C   0  0  0  0  0  0  0  0  0  0  0  0
    4.0720    8.3792   -1.4387 C   0  0  0  0  0  0  0  0  0  0  0  0
    4.4898    6.6821    0.1465 C   0  0  0  0  0  0  0  0  0  0  0  0
    8.4317   -0.6129    1.1438 C   0  0  0  0  0  0  0  0  0  0  0  0
    9.2241   -1.7091    1.4928 C   0  0  0  0  0  0  0  0  0  0  0  0
    8.3694   -2.6885    1.9841 C   0  0  0  0  0  0  0  0  0  0  0  0
    7.0866   -2.1500    1.9144 C   0  0  0  0  0  0  0  0  0  0  0  0
    7.1418   -0.9125    1.4040 O   0  0  0  0  0  0  0  0  0  0  0  0
    5.7911   -2.6493    2.2163 C   0  0  0  0  0  0  0  0  0  0  0  0
    5.3858   -3.7661    2.9315 C   0  0  0  0  0  0  0  0  0  0  0  0
    6.2554   -4.6807    3.6718 C   0  0  0  0  0  0  0  0  0  0  0  0
    7.2468   -4.1976    4.5222 C   0  0  0  0  0  0  0  0  0  0  0  0
    8.0309   -5.0823    5.2374 C   0  0  0  0  0  0  0  0  0  0  0  0
    7.8353   -6.4475    5.1147 C   0  0  0  0  0  0  0  0  0  0  0  0
    6.8404   -6.9463    4.2836 C   0  0  0  0  0  0  0  0  0  0  0  0
    6.6392   -8.4250    4.1195 C   0  0  0  0  0  0  0  0  0  0  0  0
    7.4254   -8.9409    2.9124 C   0  0  0  0  0  0  0  0  0  0  0  0
    6.0559   -6.0533    3.5690 C   0  0  0  0  0  0  0  0  0  0  0  0
    3.9845   -3.8897    2.9020 C   0  0  0  0  0  0  0  0  0  0  0  0
    2.8795   -5.0307    3.6371 S   0  0  0  0  0  0  0  0  0  0  0  0
    1.5530   -4.1401    2.9695 C   0  0  0  0  0  0  0  0  0  0  0  0
    0.1508   -4.1976    2.9069 C   0  0  0  0  0  0  0  0  0  0  0  0
   -0.7631   -5.1557    3.3968 C   0  0  0  0  0  0  0  0  0  0  0  0
   -2.1567   -5.0100    3.0862 C   0  0  0  0  0  0  0  0  0  0  0  0
   -2.8882   -6.0047    3.5640 N   0  0  0  0  0  0  0  0  0  0  0  0
   -1.9092   -7.0325    4.3431 S   0  0  0  0  0  0  0  0  0  0  0  0
   -0.5131   -6.2501    4.0986 N   0  0  0  0  0  0  0  0  0  0  0  0
   -2.5837   -3.8609    2.3863 C   0  0  0  0  0  0  0  0  0  0  0  0
   -3.8682   -3.4041    2.0509 C   0  0  0  0  0  0  0  0  0  0  0  0
   -5.5218   -3.8973    2.1971 S   0  0  0  0  0  0  0  0  0  0  0  0
   -6.0133   -2.3949    1.4447 C   0  0  0  0  0  0  0  0  0  0  0  0
   -7.2720   -1.8550    1.1235 C   0  0  0  0  0  0  0  0  0  0  0  0
   -8.5364   -2.4959    1.4829 C   0  0  0  0  0  0  0  0  0  0  0  0
   -9.5424   -1.7686    2.1151 C   0  0  0  0  0  0  0  0  0  0  0  0
  -10.7117   -2.3984    2.4967 C   0  0  0  0  0  0  0  0  0  0  0  0
  -10.8868   -3.7506    2.2575 C   0  0  0  0  0  0  0  0  0  0  0  0
   -9.8873   -4.4947    1.6431 C   0  0  0  0  0  0  0  0  0  0  0  0
  -10.0825   -5.9557    1.3578 C   0  0  0  0  0  0  0  0  0  0  0  0
  -10.7031   -6.1524   -0.0268 C   0  0  0  0  0  0  0  0  0  0  0  0
   -8.7169   -3.8570    1.2604 C   0  0  0  0  0  0  0  0  0  0  0  0
   -7.1263   -0.6316    0.4833 C   0  0  0  0  0  0  0  0  0  0  0  0
   -5.4550   -0.1213    0.3305 S   0  0  0  0  0  0  0  0  0  0  0  0
   -4.9349   -1.5699    1.1050 C   0  0  0  0  0  0  0  0  0  0  0  0
   -3.7111   -2.1480    1.4604 C   0  0  0  0  0  0  0  0  0  0  0  0
   -2.3850   -1.8097    1.4188 N   0  0  0  0  0  0  0  0  0  0  0  0
   -1.6649   -2.8583    1.9606 C   0  0  0  0  0  0  0  0  0  0  0  0
   -0.2741   -3.0821    2.1309 C   0  0  0  0  0  0  0  0  0  0  0  0
    0.8491   -2.3822    1.7131 N   0  0  0  0  0  0  0  0  0  0  0  0
    1.9464   -3.0292    2.2218 C   0  0  0  0  0  0  0  0  0  0  0  0
    3.3379   -2.8777    2.1848 C   0  0  0  0  0  0  0  0  0  0  0  0
    4.4574   -1.7417    1.5278 S   0  0  0  0  0  0  0  0  0  0  0  0
    1.0368   -1.5755    0.5253 C   0  0  0  0  0  0  0  0  0  0  0  0
    0.8949   -2.4257   -0.7356 C   0  0  0  0  0  0  0  0  0  0  0  0
   -2.0109   -0.4272    1.2180 C   0  0  0  0  0  0  0  0  0  0  0  0
   -1.9857   -0.0316   -0.2582 C   0  0  0  0  0  0  0  0  0  0  0  0
   -8.0561    0.2061   -0.1867 C   0  0  0  0  0  0  0  0  0  0  0  0
   -9.4280    0.1612   -0.4297 C   0  0  0  0  0  0  0  0  0  0  0  0
   -9.7129    1.2588   -1.2329 C   0  0  0  0  0  0  0  0  0  0  0  0
   -8.5049    1.9219   -1.4637 C   0  0  0  0  0  0  0  0  0  0  0  0
   -7.5242    1.2679   -0.8083 O   0  0  0  0  0  0  0  0  0  0  0  0
   -8.2728    3.0519   -2.2677 C   0  0  0  0  0  0  0  0  0  0  0  0
   -7.0841    3.6064   -2.6625 C   0  0  0  0  0  0  0  0  0  0  0  0
   -5.7149    3.0835   -2.4261 C   0  0  0  0  0  0  0  0  0  0  0  0
   -5.3495    2.1704   -1.7163 O   0  0  0  0  0  0  0  0  0  0  0  0
   -4.8256    3.9052   -3.2741 C   0  0  0  0  0  0  0  0  0  0  0  0
   -3.4509    3.7411   -3.4314 C   0  0  0  0  0  0  0  0  0  0  0  0
   -2.8762    4.6356   -4.3013 C   0  0  0  0  0  0  0  0  0  0  0  0
   -3.6159    5.6224   -4.9667 C   0  0  0  0  0  0  0  0  0  0  0  0
   -4.9702    5.7992   -4.8151 C   0  0  0  0  0  0  0  0  0  0  0  0
   -5.5748    4.8977   -3.9322 C   0  0  0  0  0  0  0  0  0  0  0  0
   -6.9715    4.7699   -3.5230 C   0  0  0  0  0  0  0  0  0  0  0  0
   -7.9748    5.6421   -3.8633 C   0  0  0  0  0  0  0  0  0  0  0  0
   -7.8052    6.7682   -4.6953 C   0  0  0  0  0  0  0  0  0  0  0  0
   -7.7451    7.6985   -5.3660 N   0  0  0  0  0  0  0  0  0  0  0  0
   -9.3118    5.5798   -3.4186 C   0  0  0  0  0  0  0  0  0  0  0  0
  -10.4147    5.6218   -3.0987 N   0  0  0  0  0  0  0  0  0  0  0  0
   -2.4051    6.1532   -5.6938 C   0  0  0  0  0  0  0  0  0  0  0  0
   -2.2578    5.7484   -7.1758 C   0  0  0  0  0  0  0  0  0  0  0  0
   -0.7960    5.9926   -7.4737 C   0  0  0  0  0  0  0  0  0  0  0  0
   -0.0942    5.0599   -6.8427 C   0  0  0  0  0  0  0  0  0  0  0  0
   -1.0702    4.1690   -6.1083 C   0  0  0  0  0  0  0  0  0  0  0  0
   -2.2551    4.2171   -7.0815 C   0  0  0  0  0  0  0  0  0  0  0  0
   -1.5800    5.0540   -4.9509 C   0  0  0  0  0  0  0  0  0  0  0  0
    9.9293    0.6845    0.5166 H   0  0  0  0  0  0  0  0  0  0  0  0
    4.3034    3.5081    0.6604 H   0  0  0  0  0  0  0  0  0  0  0  0
    8.6080    5.9114   -0.4934 H   0  0  0  0  0  0  0  0  0  0  0  0
    6.2035    8.1532    0.4829 H   0  0  0  0  0  0  0  0  0  0  0  0
    6.2401    8.7541   -1.9327 H   0  0  0  0  0  0  0  0  0  0  0  0
    6.1355    6.5059   -3.2620 H   0  0  0  0  0  0  0  0  0  0  0  0
    3.8534    5.2877   -2.6588 H   0  0  0  0  0  0  0  0  0  0  0  0
    2.5514    6.7871   -0.9540 H   0  0  0  0  0  0  0  0  0  0  0  0
    3.9086    9.0882   -0.6282 H   0  0  0  0  0  0  0  0  0  0  0  0
    3.6255    8.7602   -2.3561 H   0  0  0  0  0  0  0  0  0  0  0  0
    3.9898    6.9656    1.0708 H   0  0  0  0  0  0  0  0  0  0  0  0
   10.2891   -1.7674    1.3921 H   0  0  0  0  0  0  0  0  0  0  0  0
    8.6263   -3.6662    2.3358 H   0  0  0  0  0  0  0  0  0  0  0  0
    7.3841   -3.1323    4.6329 H   0  0  0  0  0  0  0  0  0  0  0  0
    8.7968   -4.7051    5.8991 H   0  0  0  0  0  0  0  0  0  0  0  0
    8.4539   -7.1317    5.6772 H   0  0  0  0  0  0  0  0  0  0  0  0
    6.9746   -8.9464    5.0178 H   0  0  0  0  0  0  0  0  0  0  0  0
    5.5781   -8.6373    3.9758 H   0  0  0  0  0  0  0  0  0  0  0  0
    8.4883   -8.7495    3.0423 H   0  0  0  0  0  0  0  0  0  0  0  0
    7.0964   -8.4409    2.0042 H   0  0  0  0  0  0  0  0  0  0  0  0
    7.2777  -10.0115    2.7922 H   0  0  0  0  0  0  0  0  0  0  0  0
    5.2826   -6.4290    2.9150 H   0  0  0  0  0  0  0  0  0  0  0  0
   -9.3908   -0.7205    2.3266 H   0  0  0  0  0  0  0  0  0  0  0  0
  -11.4885   -1.8330    2.9905 H   0  0  0  0  0  0  0  0  0  0  0  0
  -11.8031   -4.2359    2.5613 H   0  0  0  0  0  0  0  0  0  0  0  0
   -9.1206   -6.4700    1.3985 H   0  0  0  0  0  0  0  0  0  0  0  0
  -10.7383   -6.3949    2.1119 H   0  0  0  0  0  0  0  0  0  0  0  0
  -10.0568   -5.7327   -0.7944 H   0  0  0  0  0  0  0  0  0  0  0  0
  -11.6690   -5.6552   -0.0834 H   0  0  0  0  0  0  0  0  0  0  0  0
  -10.8450   -7.2107   -0.2326 H   0  0  0  0  0  0  0  0  0  0  0  0
   -7.9349   -4.4234    0.7763 H   0  0  0  0  0  0  0  0  0  0  0  0
    0.3416   -0.7433    0.4967 H   0  0  0  0  0  0  0  0  0  0  0  0
    2.0480   -1.1649    0.5817 H   0  0  0  0  0  0  0  0  0  0  0  0
   -0.0964   -2.8723   -0.7858 H   0  0  0  0  0  0  0  0  0  0  0  0
    1.6313   -3.2260   -0.7352 H   0  0  0  0  0  0  0  0  0  0  0  0
    1.0519   -1.8110   -1.6178 H   0  0  0  0  0  0  0  0  0  0  0  0
   -2.7576    0.1922    1.7277 H   0  0  0  0  0  0  0  0  0  0  0  0
   -1.0538   -0.2514    1.7113 H   0  0  0  0  0  0  0  0  0  0  0  0
   -2.9966   -0.0006   -0.6552 H   0  0  0  0  0  0  0  0  0  0  0  0
   -1.5520    0.9594   -0.3627 H   0  0  0  0  0  0  0  0  0  0  0  0
   -1.4083   -0.7364   -0.8502 H   0  0  0  0  0  0  0  0  0  0  0  0
  -10.1108   -0.5820   -0.0741 H   0  0  0  0  0  0  0  0  0  0  0  0
  -10.6686    1.5476   -1.6215 H   0  0  0  0  0  0  0  0  0  0  0  0
   -9.1855    3.4945   -2.6436 H   0  0  0  0  0  0  0  0  0  0  0  0
   -2.9232    2.9654   -2.8983 H   0  0  0  0  0  0  0  0  0  0  0  0
   -5.5223    6.5634   -5.3354 H   0  0  0  0  0  0  0  0  0  0  0  0
   -2.1627    7.1986   -5.5124 H   0  0  0  0  0  0  0  0  0  0  0  0
   -2.9777    6.2083   -7.8470 H   0  0  0  0  0  0  0  0  0  0  0  0
   -0.4315    6.8240   -8.0480 H   0  0  0  0  0  0  0  0  0  0  0  0
    0.9736    4.9570   -6.7842 H   0  0  0  0  0  0  0  0  0  0  0  0
   -0.7077    3.1893   -5.8083 H   0  0  0  0  0  0  0  0  0  0  0  0
   -2.0235    3.7466   -8.0356 H   0  0  0  0  0  0  0  0  0  0  0  0
   -3.1754    3.7954   -6.6815 H   0  0  0  0  0  0  0  0  0  0  0  0
   -0.7869    5.3675   -4.2741 H   0  0  0  0  0  0  0  0  0  0  0  0
  1  2  2  0  0  0  0
  2  3  1  0  0  0  0
  3  4  2  0  0  0  0
  3  5  1  0  0  0  0
  5  6  2  0  0  0  0
  6  7  1  0  0  0  0
  7  8  2  0  0  0  0
  8  9  1  0  0  0  0
  9 10  2  0  0  0  0
 10 11  1  0  0  0  0
 11 12  2  0  0  0  0
 12 13  1  0  0  0  0
 13 14  3  0  0  0  0
 12 15  1  0  0  0  0
 15 16  3  0  0  0  0
  8 17  1  0  0  0  0
 17 18  1  0  0  0  0
 18 19  1  0  0  0  0
 19 20  2  0  0  0  0
 20 21  1  0  0  0  0
 21 22  1  0  0  0  0
 21 23  1  0  0  0  0
  1 24  1  0  0  0  0
 24 25  2  0  0  0  0
 25 26  1  0  0  0  0
 26 27  2  0  0  0  0
 27 28  1  0  0  0  0
 27 29  1  0  0  0  0
 29 30  2  0  0  0  0
 30 31  1  0  0  0  0
 31 32  2  0  0  0  0
 32 33  1  0  0  0  0
 33 34  2  0  0  0  0
 34 35  1  0  0  0  0
 35 36  1  0  0  0  0
 36 37  1  0  0  0  0
 35 38  2  0  0  0  0
 30 39  1  0  0  0  0
 39 40  1  0  0  0  0
 40 41  1  0  0  0  0
 41 42  1  0  0  0  0
 42 43  1  0  0  0  0
 43 44  1  0  0  0  0
 44 45  2  0  0  0  0
 45 46  1  0  0  0  0
 46 47  1  0  0  0  0
 44 48  1  0  0  0  0
 48 49  1  0  0  0  0
 49 50  1  0  0  0  0
 50 51  1  0  0  0  0
 51 52  1  0  0  0  0
 52 53  1  0  0  0  0
 53 54  2  0  0  0  0
 54 55  1  0  0  0  0
 55 56  2  0  0  0  0
 56 57  1  0  0  0  0
 57 58  1  0  0  0  0
 58 59  1  0  0  0  0
 57 60  2  0  0  0  0
 52 61  2  0  0  0  0
 61 62  1  0  0  0  0
 62 63  1  0  0  0  0
 63 64  1  0  0  0  0
 64 65  1  0  0  0  0
 65 66  1  0  0  0  0
 66 67  1  0  0  0  0
 67 68  1  0  0  0  0
 68 69  1  0  0  0  0
 69 70  1  0  0  0  0
 70 71  1  0  0  0  0
 68 72  1  0  0  0  0
 72 73  1  0  0  0  0
 65 74  1  0  0  0  0
 74 75  1  0  0  0  0
 61 76  1  0  0  0  0
 76 77  2  0  0  0  0
 77 78  1  0  0  0  0
 78 79  2  0  0  0  0
 79 80  1  0  0  0  0
 79 81  1  0  0  0  0
 81 82  2  0  0  0  0
 82 83  1  0  0  0  0
 83 84  2  0  0  0  0
 83 85  1  0  0  0  0
 85 86  2  0  0  0  0
 86 87  1  0  0  0  0
 87 88  2  0  0  0  0
 88 89  1  0  0  0  0
 89 90  2  0  0  0  0
 90 91  1  0  0  0  0
 91 92  2  0  0  0  0
 92 93  1  0  0  0  0
 93 94  3  0  0  0  0
 92 95  1  0  0  0  0
 95 96  3  0  0  0  0
 88 97  1  0  0  0  0
 97 98  1  0  0  0  0
 98 99  1  0  0  0  0
 99100  2  0  0  0  0
100101  1  0  0  0  0
101102  1  0  0  0  0
101103  1  0  0  0  0
 11  2  1  0  0  0  0
 23 17  1  0  0  0  0
 28 24  1  0  0  0  0
 71 29  1  0  0  0  0
 80 76  1  0  0  0  0
 91 82  1  0  0  0  0
103 97  1  0  0  0  0
 10  5  1  0  0  0  0
 22 18  1  0  0  0  0
 38 31  1  0  0  0  0
 70 39  2  0  0  0  0
 90 85  1  0  0  0  0
102 98  1  0  0  0  0
 23  7  1  0  0  0  0
 69 41  2  0  0  0  0
103 87  1  0  0  0  0
 67 42  2  0  0  0  0
 47 43  2  0  0  0  0
 66 48  2  0  0  0  0
 64 49  2  0  0  0  0
 63 51  2  0  0  0  0
 60 53  1  0  0  0  0
  1104  1  0  0  0  0
  6105  1  0  0  0  0
  9106  1  0  0  0  0
 17107  1  0  0  0  0
 18108  1  0  0  0  0
 19109  1  0  0  0  0
 20110  1  0  0  0  0
 21111  1  0  0  0  0
 22112  1  0  0  0  0
 22113  1  0  0  0  0
 23114  1  0  0  0  0
 25115  1  0  0  0  0
 26116  1  0  0  0  0
 32117  1  0  0  0  0
 33118  1  0  0  0  0
 34119  1  0  0  0  0
 36120  1  0  0  0  0
 36121  1  0  0  0  0
 37122  1  0  0  0  0
 37123  1  0  0  0  0
 37124  1  0  0  0  0
 38125  1  0  0  0  0
 54126  1  0  0  0  0
 55127  1  0  0  0  0
 56128  1  0  0  0  0
 58129  1  0  0  0  0
 58130  1  0  0  0  0
 59131  1  0  0  0  0
 59132  1  0  0  0  0
 59133  1  0  0  0  0
 60134  1  0  0  0  0
 72135  1  0  0  0  0
 72136  1  0  0  0  0
 73137  1  0  0  0  0
 73138  1  0  0  0  0
 73139  1  0  0  0  0
 74140  1  0  0  0  0
 74141  1  0  0  0  0
 75142  1  0  0  0  0
 75143  1  0  0  0  0
 75144  1  0  0  0  0
 77145  1  0  0  0  0
 78146  1  0  0  0  0
 81147  1  0  0  0  0
 86148  1  0  0  0  0
 89149  1  0  0  0  0
 97150  1  0  0  0  0
 98151  1  0  0  0  0
 99152  1  0  0  0  0
100153  1  0  0  0  0
101154  1  0  0  0  0
102155  1  0  0  0  0
102156  1  0  0  0  0
103157  1  0  0  0  0
M  END
